#------------------------------------------------------------------------------
#$Date: 2016-02-18 17:37:37 +0200 (Thu, 18 Feb 2016) $
#$Revision: 176729 $
#$URL: svn://www.crystallography.net/cod/cif/1/50/16/1501687.cif $
#------------------------------------------------------------------------------
#
# This file is available in the Crystallography Open Database (COD),
# http://www.crystallography.net/
#
# All data on this site have been placed in the public domain by the
# contributors.
#
data_1501687
loop_
_publ_author_name
'Migliorati, Valentina'
'Ballirano, Paolo'
'Gontrani, Lorenzo'
'Triolo, Alessandro'
'Caminiti, Ruggero'
_publ_section_title
;
 Thermal and structural properties of ethylammonium chloride and its
 mixture with water.
;
_journal_issue                   17
_journal_name_full               'The journal of physical chemistry. B'
_journal_page_first              4887
_journal_page_last               4899
_journal_paper_doi               10.1021/jp2010138
_journal_volume                  115
_journal_year                    2011
_chemical_formula_sum            'C2 H8 Cl N'
_chemical_formula_weight         81.55
_chemical_name_systematic        ' ?'
_space_group_IT_number           11
_symmetry_cell_setting           monoclinic
_symmetry_space_group_name_Hall  '-P 2yb'
_symmetry_space_group_name_H-M   'P 1 21/m 1'
_audit_creation_date             2010-05-18T14:13
_audit_creation_method           'from EXP file using GSAS2CIF'
_audit_update_record
' 2010-05-18T14:13  Initial CIF as created by GSAS2CIF'
_cell_angle_alpha                90.0
_cell_angle_beta                 93.8929(14)
_cell_angle_gamma                90.0
_cell_formula_units_Z            2
_cell_length_a                   8.21673(14)
_cell_length_b                   5.99825(8)
_cell_length_c                   4.54871(7)
_cell_volume                     223.670(6)
_computing_structure_refinement  GSAS
_diffrn_radiation_probe          x-ray
_exptl_absorpt_correction_T_max  0.77477
_exptl_absorpt_correction_T_min  0.76997
_exptl_absorpt_process_details
;   GSAS Absorption/surface roughness correction: function number 0
 Debye-Scherrer absorption correction
Term (= MU.r/wave) =     0.10041    
Correction is not refined.
;
_pd_block_id
2010-05-18T14:13|40_OPT|paolo|Bruker_AXS_D8_Advance
_pd_calc_method                  'Rietveld Refinement'
_pd_instr_location               ' ?'
_pd_meas_2theta_range_inc        0.022
_pd_meas_2theta_range_max        89.994
_pd_meas_2theta_range_min        8.0
_pd_meas_number_of_points        3728
_pd_phase_name                   ethyl
_pd_proc_2theta_range_inc        0.022
_pd_proc_2theta_range_max        89.994
_pd_proc_2theta_range_min        8.0
_pd_proc_info_datetime           2010-05-18T14:13:51
_pd_proc_info_excluded_regions   ' ?'
_pd_proc_ls_background_function
;   GSAS Background function number 1 with 30 terms.
 Shifted Chebyshev function of 1st kind
      1:    490.876     2:   -444.719     3:    240.387     4:   -107.538    
      5:    71.9887     6:   -68.5538     7:    85.8521     8:   -61.8862    
      9:    21.8645    10:    9.48441    11:   -9.15977    12:   -1.15740    
     13:    17.0254    14:   -22.0276    15:    18.7400    16:   -8.12936    
     17:    6.38898    18:   -8.58839    19:    12.1384    20:   -10.0944    
     21:    11.3338    22:   -5.57223    23:    7.27098    24:   -1.19804    
     25:  -6.373580E-0226:    3.41847    27:  -0.186377    28:   1.045230E-02
     29:   -2.77333    30:    3.95454    
;
_pd_proc_ls_peak_cutoff          0.00100
_pd_proc_ls_profile_function
;
 CW Profile function number 3 with  19 terms
 Pseudovoigt profile coefficients as parameterized in
 P. Thompson, D.E. Cox & J.B. Hastings (1987). J. Appl. Cryst.,20,79-83.
 Asymmetry correction of L.W. Finger, D.E. Cox & A. P. Jephcoat (1994).
 J. Appl. Cryst.,27,892-900.
 Peak tails are ignored  where the intensity is below 0.0010 times the peak
   Aniso. broadening axis   0.0   1.0   0.0
;
_pd_proc_ls_prof_R_factor        0.0460
_pd_proc_ls_prof_wR_expected     0.0425
_pd_proc_ls_prof_wR_factor       0.0601
_pd_proc_number_of_points        3728
_pd_spec_mounting                ' ?'
_refine_ls_goodness_of_fit_all   1.42
_refine_ls_matrix_type           full
_refine_ls_number_parameters     63
_refine_ls_number_restraints     27
_refine_ls_R_Fsqd_factor         0.06151
_refine_ls_shift/su_max          0.07
_refine_ls_shift/su_mean         0.00
_reflns_d_resolution_high        1.091
_reflns_d_resolution_low         8.198
_reflns_limit_h_max              7
_reflns_limit_h_min              0
_reflns_limit_k_max              5
_reflns_limit_k_min              0
_reflns_limit_l_max              4
_reflns_limit_l_min              -4
_reflns_number_total             407
_cod_data_source_file            jp2010138_si_003.cif
_cod_data_source_block           40_OPT_publ
_cod_depositor_comments
;
The following automatic conversions were performed:

'_geom_bond_publ_flag' value 'N' changed to 'n' according to
/home/saulius/struct/CIF-dictionaries/cif_core.dic dictionary named
'cif_core.dic' version 2.4.1 from 2010-06-29 (47
times).

'_geom_angle_publ_flag' value 'N' changed to 'n' according
to /home/saulius/struct/CIF-dictionaries/cif_core.dic dictionary
named 'cif_core.dic' version 2.4.1 from 2010-06-29 (23 times).

Automatic conversion script
Id: cif_fix_values 1715 2011-07-08 13:25:40Z adriana 
;
_cod_original_sg_symbol_H-M      'p 21/m'
_cod_database_code               1501687
#BEGIN Tags that were not found in dictionaries:
_gsas_exptl_extinct_corr_t_min   1.00000
_gsas_exptl_extinct_corr_t_max   1.00000
#END Tags that were not found in dictionaries
loop_
_symmetry_equiv_pos_site_id
_symmetry_equiv_pos_as_xyz
1 +x,+y,+z
2 -x,+y+1/2,-z
-1 -x,-y,-z
-2 +x,-y+1/2,+z
loop_
_atom_site_type_symbol
_atom_site_label
_atom_site_fract_x
_atom_site_fract_y
_atom_site_fract_z
_atom_site_occupancy
_atom_site_thermal_displace_type
_atom_site_U_iso_or_equiv
_atom_site_symmetry_multiplicity
Cl Cl 0.15502(20) 0.75 0.3850(4) 1.0 Uiso 0.0262(4) 2
N N 0.12498(33) 0.25 0.1423(6) 1.0 Uiso 0.0340(12) 2
C C1 0.26734(31) 0.25 -0.0345(6) 1.0 Uiso 0.0340(12) 2
C C2 0.4235(4) 0.25 0.1699(7) 1.0 Uiso 0.0340(12) 2
H H1 0.0244(5) 0.25 0.0135(13) 1.0 Uiso 0.0510(17) 2
H H2 0.5180(5) 0.25 0.0494(12) 1.0 Uiso 0.0510(17) 2
H H3 0.1269(9) 0.1166(5) 0.2672(9) 1.0 Uiso 0.0510(17) 4
H H4 0.2667(8) 0.1162(5) -0.1583(9) 1.0 Uiso 0.0510(17) 4
H H5 0.4256(9) 0.1159(5) 0.2933(9) 1.0 Uiso 0.0510(17) 4
loop_
_atom_type_symbol
_atom_type_number_in_cell
_atom_type_scat_dispersion_real
_atom_type_scat_dispersion_imag
_atom_type_scat_Cromer_Mann_a1
_atom_type_scat_Cromer_Mann_a2
_atom_type_scat_Cromer_Mann_a3
_atom_type_scat_Cromer_Mann_a4
_atom_type_scat_Cromer_Mann_b1
_atom_type_scat_Cromer_Mann_b2
_atom_type_scat_Cromer_Mann_b3
_atom_type_scat_Cromer_Mann_b4
_atom_type_scat_Cromer_Mann_c
_atom_type_scat_source
Cl 2.0 0.000 0.000 11.4604 0.01040 7.19640 1.16620 6.25560 18.5194 1.64550
47.7784 -9.5574 International_Tables_Vol_C
N 2.0 0.000 0.000 12.2126 0.00570 3.13220 9.89330 2.01250 28.9975 1.16630
0.58260 -11.529 International_Tables_Vol_C
C 4.0 0.000 0.000 2.31000 20.8439 1.02000 10.2075 1.58860 0.56870 0.86500
51.6512 0.21560 International_Tables_Vol_C
H 16.0 0.000 0.000 0.49300 10.5109 0.32291 26.1257 0.14019 3.14236 0.04081
57.7997 0.00304 International_Tables_Vol_C
loop_
_diffrn_radiation_wavelength
_diffrn_radiation_wavelength_wt
_diffrn_radiation_type
_diffrn_radiation_wavelength_id
1.540598 1.000 K\a~1~ 1
1.544390 0.380 K\a~2~ 2
loop_
_geom_angle_atom_site_label_1
_geom_angle_atom_site_label_2
_geom_angle_atom_site_label_3
_geom_angle
_geom_angle_site_symmetry_1
_geom_angle_site_symmetry_3
_geom_angle_publ_flag
H1 Cl H3 76.12(14) 2_555 1_565 n
H1 Cl H3 76.12(14) 2_555 -2_565 n
H3 Cl H3 150.99(24) 1_565 -2_565 n
C1 N H1 110.2(4) 1_555 1_555 n
C1 N H3 109.7(4) 1_555 1_555 n
C1 N H3 109.7(4) 1_555 -2_565 n
H1 N H3 109.0(5) 1_555 1_555 n
H1 N H3 109.0(5) 1_555 -2_565 n
H3 N H3 109.3(5) 1_555 -2_565 n
N C1 C2 109.51(24) 1_555 1_555 n
N C1 H4 110.0(4) 1_555 1_555 n
N C1 H4 110.0(4) 1_555 -2_565 n
C2 C1 H4 108.7(4) 1_555 1_555 n
C2 C1 H4 108.7(4) 1_555 -2_565 n
H4 C1 H4 110.0(5) 1_555 -2_565 n
C1 C2 H2 108.8(4) 1_555 1_555 n
C1 C2 H5 109.2(4) 1_555 1_555 n
C1 C2 H5 109.2(4) 1_555 -2_565 n
H2 C2 H5 109.7(5) 1_555 1_555 n
H2 C2 H5 109.7(5) 1_555 -2_565 n
H5 C2 H5 110.3(5) 1_555 -2_565 n
Cl H1 N 163.4(5) 2_545 1_555 n
Cl H3 N 157.5(4) 1_545 1_555 n
loop_
_geom_bond_atom_site_label_1
_geom_bond_atom_site_label_2
_geom_bond_distance
_geom_bond_site_symmetry_2
_geom_bond_publ_flag
Cl H1 2.257(6) 2_555 n
Cl H3 2.2715(30) 1_565 n
Cl H3 2.2715(30) -2_555 n
N C1 1.464(4) 1_555 n
N H1 0.980(5) 1_555 n
N H3 0.981(4) 1_555 n
N H3 0.981(4) -2_555 n
N H4 2.021(6) 1_555 n
N H4 2.021(6) -2_555 n
C1 N 1.464(4) 1_555 n
C1 C2 1.533(4) 1_555 n
C1 H1 2.023(5) 1_555 n
C1 H2 2.069(5) 1_555 n
C1 H3 2.018(6) 1_555 n
C1 H3 2.018(6) -2_555 n
C1 H4 0.980(4) 1_555 n
C1 H4 0.980(4) -2_555 n
C1 H5 2.073(6) 1_555 n
C1 H5 2.073(6) -2_555 n
C2 C1 1.533(4) 1_555 n
C2 H2 0.981(6) 1_555 n
C2 H4 2.067(6) 1_555 n
C2 H4 2.067(6) -2_555 n
C2 H5 0.980(4) 1_555 n
C2 H5 0.980(4) -2_555 n
H1 Cl 2.257(6) 2_545 n
H1 N 0.980(5) 1_555 n
H1 C1 2.023(5) 1_555 n
H1 H3 1.597(7) 1_555 n
H1 H3 1.597(7) -2_555 n
H2 C1 2.069(5) 1_555 n
H2 C2 0.981(6) 1_555 n
H2 H5 1.603(7) 1_555 n
H2 H5 1.603(7) -2_555 n
H3 Cl 2.2715(30) 1_545 n
H3 N 0.981(4) 1_555 n
H3 C1 2.018(6) 1_555 n
H3 H1 1.597(7) 1_555 n
H3 H3 1.600(6) -2_555 n
H4 N 2.021(6) 1_555 n
H4 C1 0.980(4) 1_555 n
H4 C2 2.067(6) 1_555 n
H4 H4 1.606(6) -2_555 n
H5 C1 2.073(6) 1_555 n
H5 C2 0.980(4) 1_555 n
H5 H2 1.603(7) 1_555 n
H5 H5 1.609(6) -2_555 n
loop_
_pd_meas_counts_total
_pd_proc_ls_weight
_pd_proc_intensity_bkg_calc
_pd_calc_intensity_total
1676.0 0.000597 1694.27893 1694.28125
1675.0 0.000597 1674.16760 1674.16907
1640.0 0.000610 1654.54871 1654.55017
1649.0 0.000606 1635.43311 1635.43433
1550.0 0.000645 1616.82190 1616.82324
1567.0 0.000638 1598.71948 1598.72070
1633.0 0.000612 1581.12732 1581.12866
1562.0 0.000640 1564.04614 1564.04724
1494.0 0.000669 1547.47668 1547.47754
1534.0 0.000652 1531.41614 1531.41687
1499.0 0.000667 1515.86084 1515.86194
1492.0 0.000670 1500.81018 1500.81104
1486.0 0.000673 1486.25745 1486.25818
1434.0 0.000697 1472.19958 1472.20020
1515.0 0.000660 1458.62830 1458.62915
1443.0 0.000693 1445.53918 1445.53979
1470.0 0.000680 1432.92493 1432.92542
1468.0 0.000681 1420.77661 1420.77686
1439.0 0.000695 1409.08740 1409.08777
1416.0 0.000706 1397.84851 1397.84924
1399.0 0.000715 1387.05078 1387.05151
1377.0 0.000726 1376.68518 1376.68530
1467.0 0.000682 1366.74109 1366.74158
1375.0 0.000727 1357.20972 1357.21008
1425.0 0.000702 1348.08057 1348.08118
1320.0 0.000758 1339.34229 1339.34302
1329.0 0.000752 1330.98596 1330.98669
1325.0 0.000755 1322.99976 1322.99976
1314.0 0.000761 1315.37244 1315.37244
1268.0 0.000789 1308.09424 1308.09436
1313.0 0.000762 1301.15344 1301.15369
1277.0 0.000783 1294.53955 1294.53992
1277.0 0.000783 1288.24023 1288.24060
1348.0 0.000742 1282.24622 1282.24670
1315.0 0.000760 1276.54553 1276.54553
1272.0 0.000786 1271.12708 1271.12720
1232.0 0.000812 1265.98022 1265.98035
1277.0 0.000783 1261.09387 1261.09412
1211.0 0.000826 1256.45801 1256.45850
1233.0 0.000811 1252.06165 1252.06140
1263.0 0.000792 1247.89331 1247.89343
1221.0 0.000819 1243.94397 1243.94409
1294.0 0.000773 1240.20288 1240.20313
1215.0 0.000823 1236.66003 1236.66028
1205.0 0.000830 1233.30566 1233.30591
1242.0 0.000805 1230.13013 1230.13037
1241.0 0.000806 1227.12341 1227.12390
1211.0 0.000826 1224.27673 1224.27710
1201.0 0.000833 1221.58069 1221.58093
1187.0 0.000842 1219.02673 1219.02710
1206.0 0.000829 1216.60547 1216.60571
1242.0 0.000805 1214.30859 1214.30884
1195.0 0.000837 1212.12793 1212.12817
1250.0 0.000800 1210.05591 1210.05615
1171.0 0.000854 1208.08301 1208.08337
1167.0 0.000857 1206.20361 1206.20386
1205.0 0.000830 1204.40942 1204.40955
1214.0 0.000824 1202.69263 1202.69287
1223.0 0.000818 1201.04749 1201.04761
1196.0 0.000836 1199.46619 1199.46643
1190.0 0.000840 1197.94287 1197.94324
1190.0 0.000840 1196.47107 1196.47107
1195.0 0.000837 1195.04480 1195.04504
1123.0 0.000890 1193.65759 1193.65808
1209.0 0.000827 1192.30505 1192.30518
1189.0 0.000841 1190.98059 1190.98059
1174.0 0.000852 1189.68005 1189.68042
1161.0 0.000861 1188.39746 1188.39783
1098.0 0.000911 1187.12903 1187.12939
1183.0 0.000845 1185.86938 1185.86975
1155.0 0.000866 1184.61487 1184.61548
1092.0 0.000916 1183.36145 1183.36157
1094.0 0.000914 1182.10437 1182.10449
1200.0 0.000833 1180.84021 1180.84070
1184.0 0.000845 1179.56616 1179.56653
1154.0 0.000867 1178.27844 1178.27893
1223.0 0.000818 1176.97375 1176.97400
1180.0 0.000847 1175.64917 1175.64978
1155.0 0.000866 1174.30225 1174.30225
1226.0 0.000816 1172.93018 1172.93066
1182.0 0.000846 1171.52979 1171.53027
1172.0 0.000853 1170.10046 1170.10107
1136.0 0.000880 1168.63892 1168.63928
1246.0 0.000803 1167.14380 1167.14368
1085.0 0.000922 1165.61218 1165.61243
1165.0 0.000858 1164.04382 1164.04431
1119.0 0.000894 1162.43726 1162.43762
1135.0 0.000881 1160.79041 1160.79065
1205.0 0.000830 1159.10205 1159.10229
1130.0 0.000885 1157.37195 1157.37219
1164.0 0.000859 1155.59802 1155.59827
1161.0 0.000861 1153.78015 1153.78076
1145.0 0.000873 1151.91797 1151.91846
1156.0 0.000865 1150.01001 1150.01086
1185.0 0.000844 1148.05750 1148.05750
1128.0 0.000887 1146.05823 1148.40869
1104.0 0.000906 1144.01257 1147.40161
1150.0 0.000870 1141.92053 1145.54590
1191.0 0.000840 1139.78162 1143.66931
1092.0 0.000916 1137.59717 1141.77625
1118.0 0.000894 1135.36658 1139.87183
1176.0 0.000850 1133.08984 1137.96118
1132.0 0.000883 1130.76770 1136.05188
1123.0 0.000890 1128.39990 1134.15344
1140.0 0.000877 1125.98828 1132.27588
1238.0 0.000808 1123.53101 1130.43359
1177.0 0.000850 1121.03125 1128.64465
1192.0 0.000839 1118.48792 1126.93030
1145.0 0.000873 1115.90247 1125.32007
1227.0 0.000815 1113.27588 1123.85352
1128.0 0.000887 1110.60815 1122.58423
1240.0 0.000806 1107.90112 1121.59766
1232.0 0.000812 1105.15527 1121.08472
1211.0 0.000826 1102.37097 1121.60791
1250.0 0.000800 1099.55042 1124.86230
1146.0 0.000873 1096.69421 1135.14270
1248.0 0.000801 1093.80334 1160.88416
1265.0 0.000791 1090.87854 1214.52380
1356.0 0.000737 1087.92188 1309.38037
1464.0 0.000683 1084.93335 1455.61426
1651.0 0.000606 1081.91528 1660.28027
1966.0 0.000509 1078.86829 1933.64014
2207.0 0.000453 1075.79370 2300.39575
2837.0 0.000352 1072.69238 2811.99268
3662.0 0.0002731 1069.56677 3542.70483
4370.0 0.0002288 1066.41711 4525.48828
5110.0 0.0001957 1063.24451 5609.23047
5931.0 0.0001686 1060.05090 6368.77295
6343.0 0.0001577 1056.83789 6300.50586
6139.0 0.0001629 1053.60547 5293.62012
4530.0 0.0002208 1050.35657 3823.76733
2750.0 0.000364 1047.09167 2518.69946
1727.0 0.000579 1043.81116 1691.54773
1269.0 0.000788 1040.51782 1294.21802
1155.0 0.000866 1037.21228 1141.93738
1062.0 0.000942 1033.89575 1089.94373
1021.0 0.000979 1030.57056 1069.60193
1028.0 0.000973 1027.23621 1058.00220
1005.0 0.000995 1023.89514 1049.22278
1014.0 0.000986 1020.54858 1041.82678
973.0 0.001028 1017.19714 1035.33240
1016.0 0.000984 1013.84265 1029.48425
1038.0 0.000963 1010.48541 1024.11572
1000.0 0.001000 1007.12793 1019.11182
989.0 0.001011 1003.77057 1014.39032
1023.0 0.000978 1000.41498 1009.89148
997.0 0.001003 997.06122 1005.56970
1029.0 0.000972 993.71167 1001.39392
980.0 0.001020 990.36633 997.33691
988.0 0.001012 987.02686 993.38110
945.0 0.001058 983.69470 989.51062
962.0 0.001040 980.37048 985.71399
1011.0 0.000989 977.05450 978.50696
925.0 0.001081 973.74860 973.74927
915.0 0.001093 970.45392 970.45447
981.0 0.001019 967.17096 967.17133
946.0 0.001057 963.90039 963.90088
962.0 0.001040 960.64337 960.64374
926.0 0.001080 957.40051 957.40106
921.0 0.001086 954.17322 954.17389
918.0 0.001089 950.96173 950.96246
895.0 0.001117 947.76733 947.76788
918.0 0.001089 944.59027 944.59076
943.0 0.001060 941.43127 941.43170
844.0 0.001185 938.29150 938.29224
891.0 0.001122 935.17133 935.17200
959.0 0.001043 932.07135 932.07208
944.0 0.001059 928.99219 928.99298
930.0 0.001075 925.93469 925.93524
915.0 0.001093 922.89911 922.89960
910.0 0.001099 919.88623 919.88666
884.0 0.001131 916.89642 916.89722
859.0 0.001164 913.92981 913.93036
913.0 0.001095 910.98743 910.98804
892.0 0.001121 908.06976 908.07025
894.0 0.001119 905.17676 905.17725
839.0 0.001192 902.30914 902.30969
889.0 0.001125 899.46674 899.46729
898.0 0.001114 896.65039 896.65088
875.0 0.001143 893.86096 893.86145
893.0 0.001120 891.09741 891.09796
881.0 0.001135 888.36078 888.36121
884.0 0.001131 885.65112 885.65155
869.0 0.001151 882.96844 882.96918
818.0 0.001222 880.31378 880.31421
902.0 0.001109 877.68646 877.68707
922.0 0.001085 875.08698 875.08746
919.0 0.001088 872.51514 872.51563
858.0 0.001166 869.97144 869.97186
835.0 0.001198 867.45593 867.45618
853.0 0.001172 864.96844 864.96887
904.0 0.001106 862.50909 862.50977
793.0 0.001261 860.07794 860.07837
871.0 0.001148 857.67480 857.67523
839.0 0.001192 855.30029 855.30054
859.0 0.001164 852.95355 852.95404
858.0 0.001166 850.63513 850.63568
851.0 0.001175 848.34460 848.34521
871.0 0.001148 846.08203 846.08252
826.0 0.001211 843.84766 843.84790
831.0 0.001203 841.64087 841.64124
885.0 0.001130 839.46124 839.46185
876.0 0.001142 837.30975 837.31042
822.0 0.001217 835.18494 835.18536
842.0 0.001188 833.08765 833.08838
893.0 0.001120 831.01752 831.01782
820.0 0.001220 828.97375 828.97412
836.0 0.001196 826.95685 826.95734
810.0 0.001235 824.96594 824.96649
894.0 0.001119 823.00159 823.00208
840.0 0.001190 821.06274 821.06293
783.0 0.001277 819.14972 819.15033
790.0 0.001266 817.26190 817.26227
834.0 0.001199 815.39905 815.39941
822.0 0.001217 813.56128 813.56158
770.0 0.001299 811.74792 811.74823
837.0 0.001195 809.95850 809.95917
778.0 0.001285 808.19324 808.19348
774.0 0.001292 806.45129 806.45184
785.0 0.001274 804.73291 804.73340
804.0 0.001244 803.03729 803.03790
819.0 0.001221 801.36450 801.36505
793.0 0.001261 799.71393 799.71423
784.0 0.001276 798.08490 798.08539
779.0 0.001284 796.47778 796.47821
840.0 0.001190 794.89178 794.89233
795.0 0.001258 793.32684 793.32739
784.0 0.001276 791.78241 791.78265
772.0 0.001295 790.25787 790.25830
807.0 0.001239 788.75317 788.75366
810.0 0.001235 787.26801 787.26843
796.0 0.001256 785.80206 785.80225
765.0 0.001307 784.35437 784.35468
833.0 0.001200 782.92511 782.92548
804.0 0.001244 781.51379 781.51410
771.0 0.001297 780.12036 780.12073
751.0 0.001332 778.74353 778.74420
776.0 0.001289 777.38409 777.38440
785.0 0.001274 776.04083 776.04126
807.0 0.001239 774.71375 774.71417
810.0 0.001235 773.40247 773.40295
769.0 0.001300 772.10620 772.10663
810.0 0.001235 770.82513 770.82556
785.0 0.001274 769.55865 769.55902
788.0 0.001269 768.30652 768.30676
820.0 0.001220 767.06799 767.06842
746.0 0.001340 765.84302 765.84344
758.0 0.001319 764.63123 764.63153
787.0 0.001271 763.43250 763.43274
758.0 0.001319 762.24591 762.24640
835.0 0.001198 761.07159 761.07214
786.0 0.001272 759.90900 759.90924
759.0 0.001318 758.75769 758.75824
786.0 0.001272 757.61774 757.61792
791.0 0.001264 756.48834 756.48871
715.0 0.001399 755.36951 755.36975
675.0 0.001481 754.26068 754.26099
767.0 0.001304 753.16144 753.16162
761.0 0.001314 752.07202 752.07233
745.0 0.001342 750.99158 750.99188
758.0 0.001319 749.91980 749.92029
757.0 0.001321 748.85693 748.85724
772.0 0.001295 747.80212 747.80255
771.0 0.001297 746.75555 746.75568
801.0 0.001248 745.71643 745.71680
768.0 0.001302 744.68469 744.68512
784.0 0.001276 743.66016 743.66052
707.0 0.001414 742.64246 742.64301
760.0 0.001316 741.63147 741.63184
768.0 0.001302 740.62671 740.62726
755.0 0.001325 739.62830 739.62860
740.0 0.001351 738.63556 738.63593
713.0 0.001403 737.64844 737.64893
774.0 0.001292 736.66681 736.66736
759.0 0.001318 735.69025 735.69067
741.0 0.001350 734.71881 734.71918
775.0 0.001290 733.75226 733.75256
728.0 0.001374 732.78998 732.79034
728.0 0.001374 731.83203 731.83246
745.0 0.001342 730.87842 730.87872
725.0 0.001379 729.92883 729.92926
757.0 0.001321 728.98285 728.98328
723.0 0.001383 728.04041 728.04089
726.0 0.001377 727.10168 727.10199
682.0 0.001466 726.16620 726.16644
764.0 0.001309 725.23364 725.23407
727.0 0.001376 724.30432 724.30475
726.0 0.001377 723.37750 723.37811
723.0 0.001383 722.45361 722.45410
717.0 0.001395 721.53247 721.53271
797.0 0.001255 720.61340 720.61395
767.0 0.001304 719.69708 719.69733
702.0 0.001425 718.78253 718.78308
683.0 0.001464 717.87024 717.87073
702.0 0.001425 716.96027 716.96057
672.0 0.001488 716.05188 716.05219
758.0 0.001319 715.14563 715.14606
704.0 0.001420 714.24078 714.24115
679.0 0.001473 713.33795 713.33813
727.0 0.001376 712.43628 712.43658
688.0 0.001453 711.53650 711.53674
753.0 0.001328 710.63818 710.63855
709.0 0.001410 709.74084 709.74133
672.0 0.001488 708.84546 708.84558
684.0 0.001462 707.95105 707.95129
693.0 0.001443 707.05792 707.05829
664.0 0.001506 706.16620 706.16656
734.0 0.001362 705.27570 705.27594
704.0 0.001420 704.38629 704.38666
684.0 0.001462 703.49799 703.49841
678.0 0.001475 702.61115 702.61151
712.0 0.001404 701.72522 701.72565
690.0 0.001449 700.84052 700.84076
709.0 0.001410 699.95679 699.95721
741.0 0.001350 699.07434 699.07471
700.0 0.001429 698.19312 698.19330
644.0 0.001553 697.31299 697.31323
685.0 0.001460 696.43390 696.43445
677.0 0.001477 695.55615 695.55652
707.0 0.001414 694.67957 694.67993
648.0 0.001543 693.80438 693.80469
662.0 0.001511 692.93030 692.93079
670.0 0.001493 692.05762 692.05780
734.0 0.001362 691.18616 691.18634
705.0 0.001418 690.31622 690.31653
700.0 0.001429 689.44769 689.44788
686.0 0.001458 688.58063 688.58087
667.0 0.001499 687.71484 687.71527
671.0 0.001490 686.85089 686.85150
659.0 0.001517 685.98865 685.98877
675.0 0.001481 685.12799 685.12836
671.0 0.001490 684.26910 684.26941
672.0 0.001488 683.41217 683.41229
686.0 0.001458 682.55682 682.55725
681.0 0.001468 681.70367 681.70410
657.0 0.001522 680.85260 680.85297
683.0 0.001464 680.00348 680.00385
657.0 0.001522 679.15649 679.15698
666.0 0.001502 678.31165 678.31207
676.0 0.001479 677.46967 677.47003
632.0 0.001582 676.62933 676.62982
683.0 0.001464 675.79205 675.79260
724.0 0.001381 674.95715 674.95776
672.0 0.001488 674.12506 674.12518
694.0 0.001441 673.29541 673.29572
642.0 0.001558 672.46906 672.46924
685.0 0.001460 671.64526 671.64557
670.0 0.001493 670.82440 670.82483
608.0 0.001645 670.00690 670.00714
626.0 0.001597 669.19257 669.19287
649.0 0.001541 668.38123 668.38165
702.0 0.001425 667.57349 667.57391
662.0 0.001511 666.76917 666.76953
686.0 0.001458 665.96863 665.96881
671.0 0.001490 665.17145 665.17175
643.0 0.001555 664.37805 664.37836
660.0 0.001515 663.58875 663.58911
674.0 0.001484 662.80298 662.80328
622.0 0.001608 662.02148 662.02191
662.0 0.001511 661.24408 661.24451
626.0 0.001597 660.47125 660.47137
656.0 0.001524 659.70233 659.70258
615.0 0.001626 658.93811 658.93823
725.0 0.001379 658.17792 658.17822
709.0 0.001410 657.42242 657.42285
656.0 0.001524 656.67212 656.67249
667.0 0.001499 655.92645 655.92657
667.0 0.001499 655.18549 655.18591
632.0 0.001582 654.44934 654.44977
636.0 0.001572 653.71887 653.71893
634.0 0.001577 652.99316 652.99347
636.0 0.001572 652.27271 652.27295
628.0 0.001592 651.55774 651.55804
687.0 0.001456 650.84790 650.84833
651.0 0.001536 650.14386 650.14447
657.0 0.001522 649.44550 649.44568
645.0 0.001550 648.75275 648.75323
610.0 0.001639 648.06573 648.06592
642.0 0.001558 647.38452 647.38489
644.0 0.001553 646.70959 646.70990
679.0 0.001473 646.04034 646.04047
676.0 0.001479 645.37756 645.37769
621.0 0.001610 644.72058 644.72089
672.0 0.001488 644.06995 644.07031
649.0 0.001541 643.42596 643.42627
643.0 0.001555 642.78821 642.78857
650.0 0.001538 642.15692 642.15741
679.0 0.001473 641.53223 641.53247
625.0 0.001600 640.91418 640.91461
630.0 0.001587 640.30292 640.30316
631.0 0.001585 639.69861 639.69879
637.0 0.001570 639.10089 639.10144
635.0 0.001575 638.51013 638.51050
647.0 0.001546 637.92633 637.92657
665.0 0.001504 637.34967 637.34985
662.0 0.001511 636.78003 636.78033
644.0 0.001553 636.21759 636.21796
558.0 0.001792 635.66241 635.66272
600.0 0.001667 635.11469 635.11475
640.0 0.001563 634.57385 634.57428
660.0 0.001515 634.04071 634.04108
652.0 0.001534 633.51495 633.51526
650.0 0.001538 632.99658 632.99695
605.0 0.001653 632.48590 632.48615
679.0 0.001473 631.98267 631.98297
685.0 0.001460 631.48718 631.48749
644.0 0.001553 630.99933 630.99957
622.0 0.001608 630.51923 630.51959
609.0 0.001642 630.04675 630.04706
607.0 0.001647 629.58191 629.58221
617.0 0.001621 629.12537 629.12561
681.0 0.001468 628.67621 628.67657
622.0 0.001608 628.23523 628.23553
622.0 0.001608 627.80188 627.80212
618.0 0.001618 627.37677 627.37683
624.0 0.001603 626.95929 626.95972
639.0 0.001565 626.55011 626.55023
656.0 0.001524 626.14874 626.14899
608.0 0.001645 625.75543 625.75574
655.0 0.001527 625.37030 625.37067
652.0 0.001534 624.99304 624.99341
637.0 0.001570 624.62402 624.62415
664.0 0.001506 624.26282 624.26331
605.0 0.001653 623.91010 623.91046
588.0 0.001701 623.56537 623.56561
665.0 0.001504 623.22876 623.22888
628.0 0.001592 622.90051 622.90063
627.0 0.001595 622.57977 622.58014
658.0 0.001520 622.26776 622.26801
610.0 0.001639 621.96375 621.96417
647.0 0.001546 621.66779 621.66809
624.0 0.001603 621.38025 621.38031
651.0 0.001536 621.10046 621.10077
663.0 0.001508 620.82892 620.82922
621.0 0.001610 620.56580 620.56592
616.0 0.001623 620.31049 620.31067
637.0 0.001570 620.06348 620.06354
599.0 0.001669 619.82446 619.91370
627.0 0.001595 619.59344 619.68848
623.0 0.001605 619.37091 619.50604
631.0 0.001585 619.15601 619.30023
636.0 0.001572 618.94958 619.10400
677.0 0.001477 618.75073 618.91663
630.0 0.001587 618.56024 618.73846
631.0 0.001585 618.37775 618.57019
667.0 0.001499 618.20300 618.41144
644.0 0.001553 618.03644 618.26263
663.0 0.001508 617.87769 618.12439
621.0 0.001610 617.72699 617.99677
612.0 0.001634 617.58392 617.88055
630.0 0.001587 617.44873 617.77618
598.0 0.001672 617.32159 617.68494
641.0 0.001560 617.20227 617.60754
619.0 0.001616 617.09064 617.54596
607.0 0.001647 616.98669 617.50195
645.0 0.001550 616.89044 617.47815
569.0 0.001757 616.80188 617.47894
599.0 0.001669 616.72113 617.50995
550.0 0.001818 616.64777 617.58337
620.0 0.001613 616.58203 617.72864
636.0 0.001572 616.52380 618.02631
575.0 0.001739 616.47290 618.68542
650.0 0.001538 616.42969 620.16754
670.0 0.001493 616.39392 623.34161
601.0 0.001664 616.36517 629.61084
584.0 0.001712 616.34412 640.89368
675.0 0.001481 616.33032 659.12769
658.0 0.001520 616.32361 684.74915
714.0 0.001401 616.32422 714.22833
701.0 0.001427 616.33185 738.82776
714.0 0.001401 616.34644 747.69159
665.0 0.001504 616.36823 735.79309
684.0 0.001462 616.39734 708.99799
648.0 0.001543 616.43311 678.04816
624.0 0.001603 616.47607 651.94885
642.0 0.001558 616.52533 634.59052
590.0 0.001695 616.58167 625.12634
627.0 0.001595 616.64496 620.79285
615.0 0.001626 616.71484 619.06049
676.0 0.001479 616.79144 618.40002
589.0 0.001698 616.87463 618.12402
630.0 0.001587 616.96417 617.98944
627.0 0.001595 617.06049 617.92291
678.0 0.001475 617.16296 617.89966
627.0 0.001595 617.27234 617.90863
623.0 0.001605 617.38763 617.94275
648.0 0.001543 617.50916 617.99792
624.0 0.001603 617.63727 618.07062
601.0 0.001664 617.77142 618.15851
628.0 0.001592 617.91150 618.25934
612.0 0.001634 618.05798 618.37213
590.0 0.001695 618.21027 618.49536
610.0 0.001639 618.36853 618.62866
653.0 0.001531 618.53290 618.81207
595.0 0.001681 618.70294 618.96527
648.0 0.001543 618.87878 619.14246
578.0 0.001730 619.06049 619.31317
611.0 0.001637 619.24774 619.49139
617.0 0.001621 619.44067 619.67737
639.0 0.001565 619.63916 619.87109
581.0 0.001721 619.84314 620.07159
633.0 0.001580 620.05261 620.27954
653.0 0.001531 620.26752 620.40826
615.0 0.001626 620.48755 620.63531
591.0 0.001692 620.71320 620.83649
624.0 0.001603 620.94403 621.07904
606.0 0.001650 621.17981 621.32904
646.0 0.001548 621.42090 621.58655
620.0 0.001613 621.66699 621.85144
624.0 0.001603 621.91797 622.12476
658.0 0.001520 622.17377 622.40765
638.0 0.001567 622.43469 622.70111
612.0 0.001634 622.70056 623.00665
582.0 0.001718 622.97101 623.32666
632.0 0.001582 623.24640 623.66632
654.0 0.001529 623.52612 624.03485
599.0 0.001669 623.81049 624.46069
593.0 0.001686 624.09967 625.01801
585.0 0.001709 624.39313 625.88239
633.0 0.001580 624.69116 627.40924
651.0 0.001536 624.99323 630.21191
647.0 0.001546 625.29999 635.16553
665.0 0.001504 625.61090 643.16577
666.0 0.001502 625.92596 654.43445
666.0 0.001502 626.24518 667.48187
698.0 0.001433 626.56848 678.62354
737.0 0.001357 626.89606 683.26410
697.0 0.001435 627.22754 679.17963
690.0 0.001449 627.56293 668.66937
667.0 0.001499 627.90204 656.04974
622.0 0.001608 628.24512 645.03278
678.0 0.001475 628.59192 637.47345
625.0 0.001600 628.94250 633.27753
641.0 0.001560 629.29675 631.41785
582.0 0.001718 629.65454 630.82721
618.0 0.001618 630.01605 630.79608
666.0 0.001502 630.38080 630.97607
597.0 0.001675 630.74921 631.23431
618.0 0.001618 631.12091 631.52789
646.0 0.001548 631.49591 631.84277
634.0 0.001577 631.87415 632.17365
605.0 0.001653 632.25604 632.51703
641.0 0.001560 632.64075 632.87042
628.0 0.001592 633.02863 633.23224
648.0 0.001543 633.41980 633.60132
603.0 0.001658 633.81378 633.97675
634.0 0.001577 634.21063 634.35803
594.0 0.001684 634.61090 634.74451
631.0 0.001585 635.01385 635.13550
614.0 0.001629 635.41949 635.53101
582.0 0.001718 635.82806 635.93030
614.0 0.001629 636.23914 636.33356
650.0 0.001538 636.65314 636.74060
586.0 0.001706 637.06946 637.15057
655.0 0.001527 637.48889 637.56421
662.0 0.001511 637.91052 637.98090
657.0 0.001522 638.33459 638.40045
603.0 0.001658 638.76135 638.82300
606.0 0.001650 639.19037 639.20801
628.0 0.001592 639.62177 639.63843
602.0 0.001661 640.05536 640.05560
644.0 0.001553 640.49115 640.49158
634.0 0.001577 640.92926 640.92975
632.0 0.001582 641.36969 641.36987
596.0 0.001678 641.81201 641.81219
607.0 0.001647 642.25629 642.25671
637.0 0.001570 642.70288 642.70313
626.0 0.001597 643.15118 643.15155
665.0 0.001504 643.60156 643.60175
627.0 0.001595 644.05371 644.05414
637.0 0.001570 644.50769 644.50781
648.0 0.001543 644.96362 644.96375
632.0 0.001582 645.42090 645.42114
598.0 0.001672 645.88025 645.88043
644.0 0.001553 646.34088 646.34137
640.0 0.001563 646.80328 646.80359
645.0 0.001550 647.26740 647.26758
647.0 0.001546 647.73279 647.73315
652.0 0.001534 648.19971 648.20007
675.0 0.001481 648.66821 648.66852
671.0 0.001490 649.13794 649.54272
734.0 0.001362 649.60895 650.03381
685.0 0.001460 650.08124 650.52771
663.0 0.001508 650.55481 651.60376
741.0 0.001350 651.02966 652.13318
688.0 0.001453 651.50531 652.82416
649.0 0.001541 651.98230 653.37250
698.0 0.001433 652.46027 653.92798
746.0 0.001340 652.93945 654.49109
683.0 0.001464 653.41956 655.06262
698.0 0.001433 653.90033 655.64337
727.0 0.001376 654.38214 656.23444
733.0 0.001364 654.86469 656.83685
707.0 0.001414 655.34821 657.45221
711.0 0.001406 655.83240 658.08197
720.0 0.001389 656.31714 658.72839
668.0 0.001497 656.80255 659.39331
690.0 0.001449 657.28870 660.07959
642.0 0.001558 657.77533 660.79065
696.0 0.001437 658.26233 661.53070
661.0 0.001513 658.75000 662.30420
661.0 0.001513 659.23822 663.11761
633.0 0.001580 659.72668 663.97827
639.0 0.001565 660.21527 664.89587
664.0 0.001506 660.70459 665.88220
649.0 0.001541 661.19379 666.95276
711.0 0.001406 661.68311 668.12769
636.0 0.001572 662.17303 669.43359
673.0 0.001486 662.66272 670.90588
697.0 0.001435 663.15277 672.59436
676.0 0.001479 663.64246 674.57227
661.0 0.001513 664.13239 676.97015
679.0 0.001473 664.62195 680.07336
687.0 0.001456 665.11176 684.62006
685.0 0.001460 665.60120 692.50696
670.0 0.001493 666.09058 708.17200
741.0 0.001350 666.57971 740.69482
855.0 0.001170 667.06812 805.73407
942.0 0.001062 667.55676 924.80908
1125.0 0.000889 668.04474 1117.50977
1371.0 0.000729 668.53247 1385.47717
1633.0 0.000612 669.01953 1695.33496
1907.0 0.000524 669.50604 1974.77039
2147.0 0.000466 669.99194 2139.69067
2218.0 0.000451 670.47742 2140.84424
2106.0 0.000475 670.96216 1977.38403
1846.0 0.000542 671.44604 1701.24072
1478.0 0.000677 671.92944 1397.92480
1082.0 0.000924 672.41193 1132.37231
978.0 0.001022 672.89343 937.09344
763.0 0.001311 673.37408 814.45996
699.0 0.001431 673.85388 747.52655
663.0 0.001508 674.33264 715.24469
684.0 0.001462 674.81049 700.89789
714.0 0.001401 675.28711 694.44940
698.0 0.001433 675.76233 691.12830
692.0 0.001445 676.23669 689.08020
657.0 0.001522 676.70953 687.66614
654.0 0.001529 677.18158 686.64966
699.0 0.001431 677.65186 685.91827
711.0 0.001406 678.12097 685.40155
679.0 0.001473 678.58862 685.04999
676.0 0.001479 679.05481 688.16870
739.0 0.001353 679.51947 688.21753
703.0 0.001422 679.98254 688.36200
680.0 0.001471 680.44360 689.87781
664.0 0.001506 680.90369 690.24030
746.0 0.001340 681.36169 690.67010
696.0 0.001437 681.81781 691.16357
697.0 0.001435 682.27240 691.71674
693.0 0.001443 682.72485 692.32764
667.0 0.001499 683.17572 692.99646
719.0 0.001391 683.62427 693.72357
717.0 0.001395 684.07092 694.51257
644.0 0.001553 684.51556 695.36627
709.0 0.001410 684.95801 696.28986
656.0 0.001524 685.39850 697.29077
681.0 0.001468 685.83655 698.37659
732.0 0.001366 686.27246 699.55914
759.0 0.001318 686.70593 700.85144
767.0 0.001304 687.13715 702.26971
720.0 0.001389 687.56573 703.83533
718.0 0.001393 687.99182 705.57367
762.0 0.001312 688.41577 707.10443
745.0 0.001342 688.83685 709.31378
742.0 0.001348 689.25531 711.81964
697.0 0.001435 689.67133 714.13812
702.0 0.001425 690.08441 717.48578
724.0 0.001381 690.49487 721.24622
710.0 0.001408 690.90240 725.89172
719.0 0.001391 691.30725 731.47388
732.0 0.001366 691.70886 738.30798
746.0 0.001340 692.10773 746.90302
794.0 0.001259 692.50336 758.31769
773.0 0.001294 692.89624 775.24976
931.0 0.001074 693.28558 805.05096
997.0 0.001003 693.67218 866.38568
1093.0 0.000915 694.05530 1000.29919
1327.0 0.000754 694.43488 1282.37793
1870.0 0.000535 694.81171 1821.16003
2634.0 0.000380 695.18451 2716.46216
3816.0 0.0002621 695.55420 3964.21851
5028.0 0.0001989 695.92053 5351.21582
6327.0 0.0001581 696.28333 6452.81299
6792.0 0.0001472 696.64264 6814.97510
6644.0 0.0001505 696.99799 6302.37891
5590.0 0.0001789 697.34991 5205.14648
4036.0 0.0002478 697.69788 3913.66260
2672.0 0.000374 698.04205 2738.39233
1743.0 0.000574 698.38251 1862.51343
1248.0 0.000801 698.71942 1311.38025
861.0 0.001161 699.05212 1013.38123
736.0 0.001359 699.38068 872.25592
756.0 0.001323 699.70532 810.20996
725.0 0.001379 700.02594 781.64520
761.0 0.001314 700.34222 765.91125
678.0 0.001475 700.65460 755.39325
668.0 0.001497 700.96240 747.55212
703.0 0.001422 701.26630 741.43073
680.0 0.001471 701.56592 736.55096
654.0 0.001529 701.86102 732.60864
639.0 0.001565 702.15161 729.38641
712.0 0.001404 702.43781 726.72961
663.0 0.001508 702.71954 724.52002
686.0 0.001458 702.99658 722.67053
691.0 0.001447 703.26923 721.11328
650.0 0.001538 703.53705 719.79486
640.0 0.001563 703.80023 718.67493
646.0 0.001548 704.05878 717.71906
675.0 0.001481 704.31244 716.90131
695.0 0.001439 704.56122 716.20013
693.0 0.001443 704.80511 715.59747
686.0 0.001458 705.04419 715.07928
662.0 0.001511 705.27832 714.65167
688.0 0.001453 705.50732 714.26831
781.0 0.001280 705.73132 713.93817
789.0 0.001267 705.95032 713.66144
762.0 0.001312 706.16400 713.41815
826.0 0.001211 706.37256 713.20972
810.0 0.001235 706.57611 713.03149
742.0 0.001348 706.77399 712.87952
756.0 0.001323 706.96686 712.75061
781.0 0.001280 707.15436 712.64203
770.0 0.001299 707.33643 712.55072
814.0 0.001229 707.51300 712.47485
817.0 0.001224 707.68408 709.14246
791.0 0.001264 707.84973 709.24219
809.0 0.001236 708.00995 709.34198
824.0 0.001214 708.16437 708.22443
796.0 0.001256 708.31317 708.37799
815.0 0.001227 708.45660 708.52649
785.0 0.001274 708.59424 708.66998
818.0 0.001222 708.72583 708.80847
764.0 0.001309 708.85193 708.94208
705.0 0.001418 708.97223 709.07117
743.0 0.001346 709.08673 709.19543
657.0 0.001522 709.19513 709.31561
659.0 0.001517 709.29785 709.43219
660.0 0.001515 709.39447 709.54492
642.0 0.001558 709.48511 709.65479
618.0 0.001618 709.56995 709.76263
621.0 0.001610 709.64838 709.86957
596.0 0.001678 709.72119 709.97729
703.0 0.001422 709.78766 710.08832
657.0 0.001522 709.84808 710.20831
659.0 0.001517 709.90240 710.35034
614.0 0.001629 709.95044 710.55145
607.0 0.001647 709.99225 710.90601
643.0 0.001555 710.02795 711.62659
699.0 0.001431 710.05725 713.10785
622.0 0.001608 710.08063 715.91156
630.0 0.001587 710.09717 720.54022
668.0 0.001497 710.10767 726.92664
715.0 0.001399 710.11163 733.93964
730.0 0.001370 710.10919 739.42090
702.0 0.001425 710.10052 741.16425
773.0 0.001294 710.08533 738.62494
684.0 0.001462 710.06390 733.28943
678.0 0.001475 710.03558 726.97723
695.0 0.001439 710.00116 721.08539
673.0 0.001486 709.95990 716.51355
695.0 0.001439 709.91235 713.48218
646.0 0.001548 709.85797 711.73151
694.0 0.001441 709.79736 710.82593
715.0 0.001399 709.73004 710.37329
663.0 0.001508 709.65619 710.12115
654.0 0.001529 709.57556 709.94519
679.0 0.001473 709.48840 709.79565
700.0 0.001429 709.39471 709.65564
680.0 0.001471 709.29401 709.51910
663.0 0.001508 709.18689 709.38293
649.0 0.001541 709.07318 709.24530
690.0 0.001449 708.95276 709.10529
682.0 0.001466 708.82556 708.96155
730.0 0.001370 708.69147 708.81372
706.0 0.001416 708.55115 708.66113
709.0 0.001410 708.40369 708.50360
678.0 0.001475 708.24963 708.34082
713.0 0.001403 708.08893 708.17224
690.0 0.001449 707.92145 707.99799
748.0 0.001337 707.74701 707.81769
691.0 0.001447 707.56616 707.63135
702.0 0.001425 707.37823 707.43872
716.0 0.001397 707.18378 707.24023
677.0 0.001477 706.98242 707.03503
771.0 0.001297 706.77448 706.82361
680.0 0.001471 706.55963 706.60596
760.0 0.001316 706.33826 706.38147
698.0 0.001433 706.10986 706.15057
697.0 0.001435 705.87469 705.91327
734.0 0.001362 705.63300 705.66931
757.0 0.001321 705.38470 705.41901
705.0 0.001418 705.12915 707.61078
742.0 0.001348 704.86755 707.47015
743.0 0.001346 704.59857 715.81055
763.0 0.001311 704.32336 717.03192
770.0 0.001299 704.04102 717.39209
811.0 0.001233 703.75232 721.02942
810.0 0.001235 703.45667 721.66907
764.0 0.001309 703.15454 722.37354
803.0 0.001245 702.84558 723.16498
788.0 0.001269 702.53009 724.04785
780.0 0.001282 702.20819 725.03296
806.0 0.001241 701.87909 726.13470
774.0 0.001292 701.54370 727.36835
786.0 0.001272 701.20160 728.75275
853.0 0.001172 700.85309 730.31012
806.0 0.001241 700.49780 732.06567
785.0 0.001274 700.13611 734.05017
813.0 0.001230 699.76788 736.30029
845.0 0.001183 699.39307 738.85895
819.0 0.001221 699.01184 741.78003
834.0 0.001199 698.62396 745.12708
828.0 0.001208 698.22961 748.97980
814.0 0.001229 697.82898 753.43677
827.0 0.001209 697.42224 758.61871
843.0 0.001186 697.00879 764.68402
840.0 0.001190 696.58875 771.82819
932.0 0.001073 696.16235 780.31244
887.0 0.001127 695.73010 790.47382
891.0 0.001122 695.29138 802.76318
935.0 0.001070 694.84613 817.81091
888.0 0.001126 694.39514 836.52313
922.0 0.001085 693.93750 860.43170
995.0 0.001005 693.47369 892.65729
1038.0 0.000963 693.00397 940.83215
1171.0 0.000854 692.52802 1024.59497
1400.0 0.000714 692.04620 1191.08044
1769.0 0.000565 691.55792 1539.84619
2505.0 0.000399 691.06366 2245.99756
3669.0 0.0002726 690.56378 3549.93481
5580.0 0.0001792 690.05762 5669.62891
8593.0 0.0001164 689.54559 8614.04102
11796.0 0.0000848 689.02753 11983.00684
14528.0 0.0000688 688.50378 14936.27930
16326.0 0.0000613 687.97418 16516.74609
16098.0 0.0000621 687.43872 16157.52637
14555.0 0.0000687 686.89764 14113.08398
11404.0 0.0000877 686.35095 11220.05078
7981.0 0.0001253 685.79828 8212.57520
5406.0 0.0001850 685.24011 5579.52881
3556.0 0.0002812 684.67633 3600.58643
2157.0 0.000464 684.10712 2308.77148
1325.0 0.000755 683.53210 1568.88342
1088.0 0.000919 682.95190 1194.22986
1023.0 0.000978 682.36633 1015.97876
876.0 0.001142 681.77496 929.32892
803.0 0.001245 681.17853 881.46088
851.0 0.001175 680.57654 848.92114
802.0 0.001247 679.96942 824.46490
741.0 0.001350 679.35730 805.07898
768.0 0.001302 678.73969 789.31433
758.0 0.001319 678.11713 776.29791
806.0 0.001241 677.48926 765.41187
749.0 0.001335 676.85669 756.21338
777.0 0.001287 676.21887 748.37103
790.0 0.001266 675.57599 741.63049
776.0 0.001289 674.92877 735.80182
768.0 0.001302 674.27612 730.73358
743.0 0.001346 673.61853 726.31201
689.0 0.001451 672.95673 722.44806
711.0 0.001406 672.29010 719.07037
750.0 0.001333 671.61847 716.12781
719.0 0.001391 670.94250 713.57867
738.0 0.001355 670.26184 711.39771
726.0 0.001377 669.57678 709.56860
726.0 0.001377 668.88708 708.08630
692.0 0.001445 668.19318 706.95782
728.0 0.001374 667.49463 706.20258
737.0 0.001357 666.79175 705.85614
739.0 0.001353 666.08514 705.97461
730.0 0.001370 665.37378 706.64026
679.0 0.001473 664.65863 707.97406
678.0 0.001475 663.93896 710.16174
744.0 0.001344 663.21521 713.52246
659.0 0.001517 662.48804 716.36029
744.0 0.001344 661.75641 725.34711
744.0 0.001344 661.02112 734.72614
837.0 0.001195 660.28162 772.35004
901.0 0.001110 659.53882 857.17859
986.0 0.001014 658.79205 1028.42664
1380.0 0.000725 658.04156 1344.88318
1855.0 0.000539 657.28735 1832.26147
2519.0 0.000397 656.52985 2448.04297
3097.0 0.0003229 655.76849 3046.64233
3518.0 0.0002843 655.00403 3423.61157
3640.0 0.0002747 654.23572 3434.22363
3512.0 0.0002847 653.46460 3119.63330
2809.0 0.000356 652.68951 2636.17896
2104.0 0.000475 651.91162 2109.14917
1576.0 0.000635 651.13043 1625.74048
1243.0 0.000805 650.34601 1246.13989
873.0 0.001145 649.55859 987.91150
751.0 0.001332 648.76801 834.41193
679.0 0.001473 647.97461 753.91418
626.0 0.001597 647.17822 715.13831
621.0 0.001610 646.37903 696.29517
606.0 0.001650 645.57703 685.85699
592.0 0.001689 644.77216 678.91595
663.0 0.001508 643.96460 673.67236
636.0 0.001572 643.15442 669.46387
639.0 0.001565 642.34167 665.99182
650.0 0.001538 641.52637 663.08673
597.0 0.001675 640.70850 660.63342
607.0 0.001647 639.88794 658.55310
601.0 0.001664 639.06555 656.79199
639.0 0.001565 638.24072 655.31403
598.0 0.001672 637.41333 654.09955
593.0 0.001686 636.58374 653.14221
611.0 0.001637 635.75201 652.45007
576.0 0.001736 634.91840 652.04694
595.0 0.001681 634.08264 651.97534
627.0 0.001595 633.24512 652.30920
606.0 0.001650 632.40509 653.18292
562.0 0.001779 631.56348 654.89594
633.0 0.001580 630.71997 658.23615
626.0 0.001597 629.87482 665.34521
680.0 0.001471 629.02759 681.51160
669.0 0.001495 628.17896 717.81842
780.0 0.001282 627.32867 792.68396
930.0 0.001075 626.47675 927.81354
1080.0 0.000926 625.62335 1134.33521
1425.0 0.000702 624.76837 1392.17200
1750.0 0.000571 623.91174 1640.02417
1937.0 0.000516 623.05402 1792.50330
1929.0 0.000518 622.19501 1792.10999
1720.0 0.000581 621.33453 1659.80176
1538.0 0.000650 620.47314 1458.82971
1216.0 0.000822 619.61017 1242.31519
1081.0 0.000925 618.74628 1041.39648
858.0 0.001166 617.88147 879.88672
721.0 0.001387 617.01532 767.87701
681.0 0.001468 616.14844 699.47827
682.0 0.001466 615.28046 662.46637
585.0 0.001709 614.41156 644.01215
645.0 0.001550 613.54199 634.70978
589.0 0.001698 612.67133 629.34857
555.0 0.001802 611.80035 625.63239
643.0 0.001555 610.92828 622.69043
621.0 0.001610 610.05560 620.20331
644.0 0.001553 609.18268 618.03131
594.0 0.001684 608.30872 616.09326
643.0 0.001555 607.43469 614.33643
602.0 0.001661 606.55981 612.72070
595.0 0.001681 605.68469 611.21802
644.0 0.001553 604.80908 609.80615
585.0 0.001709 603.93323 608.46863
640.0 0.001563 603.05701 607.19177
658.0 0.001520 602.18060 605.96558
608.0 0.001645 601.30377 609.73553
569.0 0.001757 600.42700 608.83630
632.0 0.001582 599.54974 607.98615
598.0 0.001672 598.67297 609.02429
649.0 0.001541 597.79553 608.35870
582.0 0.001718 596.91833 607.74603
592.0 0.001689 596.04120 607.18689
582.0 0.001718 595.16394 606.68359
607.0 0.001647 594.28729 606.23944
612.0 0.001634 593.41040 605.85834
665.0 0.001504 592.53345 605.54559
619.0 0.001616 591.65692 605.30756
625.0 0.001600 590.78058 605.15222
621.0 0.001610 589.90472 605.08917
617.0 0.001621 589.02905 605.13013
624.0 0.001603 588.15375 605.28906
569.0 0.001757 587.27869 604.71259
585.0 0.001709 586.40424 605.20215
608.0 0.001645 585.53003 605.86865
568.0 0.001761 584.65649 606.74384
600.0 0.001667 583.78333 607.54730
656.0 0.001524 582.91095 608.97638
610.0 0.001639 582.03894 610.75745
604.0 0.001656 581.16748 612.96448
644.0 0.001553 580.29675 615.69470
622.0 0.001608 579.42657 619.07227
661.0 0.001513 578.55731 623.74231
695.0 0.001439 577.68854 628.98676
670.0 0.001493 576.82074 635.56403
732.0 0.001366 575.95361 644.08813
710.0 0.001408 575.08716 654.90851
697.0 0.001435 574.22156 669.58551
774.0 0.001292 573.35693 691.58765
809.0 0.001236 572.49298 730.22479
919.0 0.001088 571.63000 809.07568
1017.0 0.000983 570.76801 979.28650
1223.0 0.000818 569.90698 1330.13831
1966.0 0.000509 569.04694 1976.19629
2960.0 0.0003378 568.18793 2994.85864
4334.0 0.0002307 567.32977 4324.30859
5602.0 0.0001785 566.47284 5688.61084
6521.0 0.0001534 565.61670 6652.42139
6829.0 0.0001464 564.76196 6855.57373
6591.0 0.0001517 563.90790 6317.66748
5507.0 0.0001816 563.05542 5365.57959
4093.0 0.0002443 562.20355 4276.55664
2997.0 0.0003337 561.35333 3209.75610
2333.0 0.000429 560.50372 2293.71997
1469.0 0.000681 559.65607 1607.71606
1032.0 0.000969 558.80920 1156.89441
774.0 0.001292 557.96344 896.57031
713.0 0.001403 557.11914 762.27448
623.0 0.001605 556.27557 696.92932
632.0 0.001582 555.43402 663.80676
567.0 0.001764 554.59302 644.46338
603.0 0.001658 553.75360 631.32172
601.0 0.001664 552.91559 621.60742
563.0 0.001776 552.07898 614.33228
638.0 0.001567 551.24323 609.30499
587.0 0.001704 550.40924 607.16125
601.0 0.001664 549.57617 610.11157
606.0 0.001650 548.74506 623.16357
630.0 0.001587 547.91461 654.94519
730.0 0.001370 547.08612 715.97058
852.0 0.001174 546.25891 812.37042
990.0 0.001010 545.43274 936.13367
1145.0 0.000873 544.60840 1059.30774
1143.0 0.000875 543.78510 1140.77869
1194.0 0.000838 542.96332 1149.65698
1210.0 0.000826 542.14313 1092.31116
1053.0 0.000950 541.32410 1000.27484
876.0 0.001142 540.50671 897.68469
785.0 0.001274 539.69055 797.81213
734.0 0.001362 538.87592 711.96552
676.0 0.001479 538.06268 647.15039
620.0 0.001613 537.25098 603.93237
596.0 0.001678 536.44067 578.29456
591.0 0.001692 535.63177 564.35632
542.0 0.001845 534.82410 556.88562
551.0 0.001815 534.01813 552.87048
572.0 0.001748 533.21362 549.80261
573.0 0.001745 532.41071 547.34485
556.0 0.001799 531.60883 545.22217
552.0 0.001812 530.80896 538.66779
578.0 0.001730 530.00995 537.16644
523.0 0.001912 529.21252 535.78369
519.0 0.001927 528.41693 532.63641
545.0 0.001835 527.62250 531.51086
542.0 0.001845 526.82953 530.44257
536.0 0.001866 526.03809 529.42133
566.0 0.001767 525.24774 528.43958
554.0 0.001805 524.45935 527.49213
509.0 0.001965 523.67200 526.57373
517.0 0.001934 522.88617 525.68115
475.0 0.002105 522.10181 524.87878
529.0 0.001890 521.31879 524.03253
442.0 0.002262 520.53741 523.20544
484.0 0.002066 519.75708 522.39630
513.0 0.001949 518.97845 521.63055
516.0 0.001938 518.20099 520.85620
521.0 0.001919 517.42511 520.09882
511.0 0.001957 516.65039 519.35809
497.0 0.002012 515.87744 518.63440
501.0 0.001996 515.10547 517.92847
471.0 0.002123 514.33521 517.24146
461.0 0.002169 513.56604 516.57452
502.0 0.001992 512.79828 515.93018
504.0 0.001984 512.03192 515.30981
495.0 0.002020 511.26691 514.71716
492.0 0.002033 510.50317 513.69202
504.0 0.001984 509.74069 513.18774
548.0 0.001825 508.97955 512.72400
506.0 0.001976 508.21960 512.12848
523.0 0.001912 507.46136 511.77905
479.0 0.002088 506.70416 511.49887
533.0 0.001876 505.94781 511.30466
541.0 0.001848 505.19342 511.21725
512.0 0.001953 504.43967 511.26523
492.0 0.002033 503.68765 511.48743
526.0 0.001901 502.93652 511.94003
518.0 0.001931 502.18671 512.71533
496.0 0.002016 501.43820 513.99982
517.0 0.001934 500.69086 516.26196
528.0 0.001894 499.94473 520.74170
540.0 0.001852 499.19968 530.50006
559.0 0.001789 498.45584 552.86121
617.0 0.001621 497.71304 596.78314
699.0 0.001431 496.97162 676.10999
813.0 0.001230 496.23111 798.31134
1061.0 0.000943 495.49188 954.28925
1167.0 0.000857 494.75357 1109.68982
1225.0 0.000816 494.01663 1214.70251
1341.0 0.000746 493.28061 1231.18103
1277.0 0.000783 492.54572 1166.41858
1159.0 0.000863 491.81180 1059.45911
940.0 0.001064 491.07886 939.76233
803.0 0.001245 490.34720 821.25677
769.0 0.001300 489.61636 715.84991
675.0 0.001481 488.88663 633.60657
578.0 0.001730 488.15781 577.97894
550.0 0.001818 487.43008 547.10638
511.0 0.001957 486.70346 536.54187
523.0 0.001912 485.97742 541.74689
607.0 0.001647 485.25281 558.57617
608.0 0.001645 484.52875 581.71796
643.0 0.001555 483.80551 603.40405
632.0 0.001582 483.08371 614.91577
693.0 0.001443 482.36230 611.68597
664.0 0.001506 481.64224 597.12592
619.0 0.001616 480.92264 577.66901
564.0 0.001773 480.20413 557.12567
545.0 0.001835 479.48648 537.36188
527.0 0.001898 478.76974 520.25098
512.0 0.001953 478.05374 507.12836
463.0 0.002160 477.33841 498.18942
445.0 0.002247 476.62408 492.76843
452.0 0.002212 475.91058 489.78934
489.0 0.002045 475.19781 488.24921
483.0 0.002070 474.48581 487.48035
524.0 0.001908 473.77475 487.14523
486.0 0.002058 473.06406 487.11667
503.0 0.001988 472.35449 487.37247
476.0 0.002101 471.64536 487.93893
483.0 0.002070 470.93723 488.87286
493.0 0.002028 470.22964 490.26572
527.0 0.001898 469.52274 492.26028
493.0 0.002028 468.81674 495.11914
503.0 0.001988 468.11121 499.44342
564.0 0.001773 467.40659 506.80176
514.0 0.001946 466.70233 521.26196
597.0 0.001675 465.99884 552.14783
627.0 0.001595 465.29617 617.13165
852.0 0.001174 464.59378 742.05237
1089.0 0.000918 463.89255 951.37256
1414.0 0.000707 463.19165 1247.68420
1581.0 0.000633 462.49124 1588.87390
1808.0 0.000553 461.79172 1884.64331
1881.0 0.000532 461.09250 2033.22632
1952.0 0.000512 460.39420 1987.11963
1785.0 0.000560 459.69626 1805.06458
1468.0 0.000681 458.99890 1568.72021
1148.0 0.000871 458.30228 1321.90454
1054.0 0.000949 457.60596 1083.31226
930.0 0.001075 456.91046 876.28729
701.0 0.001427 456.21527 718.11011
582.0 0.001718 455.52084 611.17322
513.0 0.001949 454.82684 547.28204
484.0 0.002066 454.13342 512.77655
505.0 0.001980 453.44061 495.27036
523.0 0.001912 452.74835 485.96552
508.0 0.001969 452.05637 480.30609
498.0 0.002008 451.36508 476.30594
482.0 0.002075 450.67432 473.18896
470.0 0.002128 449.98398 470.64569
484.0 0.002066 449.29416 468.52490
486.0 0.002058 448.60492 466.73572
485.0 0.002062 447.91614 465.21674
467.0 0.002141 447.22787 463.92270
449.0 0.002227 446.54019 462.75589
455.0 0.002198 445.85287 461.82889
429.0 0.002331 445.16589 461.05759
464.0 0.002155 444.47974 460.40625
476.0 0.002101 443.79398 459.92288
479.0 0.002088 443.10873 459.58032
491.0 0.002037 442.42380 459.38223
490.0 0.002041 441.73932 459.33661
474.0 0.002110 441.05576 459.45654
445.0 0.002247 440.37225 459.75949
485.0 0.002062 439.68961 460.26950
486.0 0.002058 439.00708 461.01819
471.0 0.002123 438.32529 462.04660
487.0 0.002053 437.64398 463.40799
517.0 0.001934 436.96304 465.17276
500.0 0.002000 436.28290 467.43219
475.0 0.002105 435.60284 470.30975
511.0 0.001957 434.92355 473.97147
483.0 0.002070 434.24475 478.64847
508.0 0.001969 433.56653 484.69833
521.0 0.001919 432.88873 492.76056
554.0 0.001805 432.21149 504.29782
560.0 0.001786 431.53467 523.09241
633.0 0.001580 430.85855 558.78162
688.0 0.001453 430.18289 633.10925
805.0 0.001242 429.50784 786.43945
1080.0 0.000926 428.83337 1076.52161
1552.0 0.000644 428.15921 1556.45703
2304.0 0.000434 427.48590 2228.75073
3093.0 0.0003233 426.81299 2997.36938
3580.0 0.0002793 426.14090 3660.49927
3685.0 0.0002714 425.46921 3986.76709
3832.0 0.0002610 424.79810 3884.02856
3630.0 0.0002755 424.12778 3481.57056
2861.0 0.0003495 423.45779 2963.97192
2252.0 0.000444 422.78867 2425.27515
1716.0 0.000583 422.12000 1899.76575
1332.0 0.000751 421.45184 1431.92371
1034.0 0.000967 420.78485 1062.39355
757.0 0.001321 420.11810 804.04272
584.0 0.001712 419.45224 644.46307
505.0 0.001980 418.78699 556.23102
472.0 0.002119 418.12219 510.69690
451.0 0.002217 417.45865 486.85376
496.0 0.002016 416.79532 472.86911
488.0 0.002049 416.13318 463.32379
449.0 0.002227 415.47137 456.02866
441.0 0.002268 414.81052 450.11435
466.0 0.002146 414.15036 445.17618
457.0 0.002188 413.49109 440.97498
464.0 0.002155 412.83252 437.35037
398.0 0.002513 412.17484 434.18250
413.0 0.002421 411.51801 431.38306
448.0 0.002232 410.86200 428.88370
449.0 0.002227 410.20670 426.63055
433.0 0.002309 409.55240 424.58224
420.0 0.002381 408.89914 422.70523
417.0 0.002398 408.24646 420.97278
432.0 0.002315 407.59497 419.36377
411.0 0.002433 406.94424 417.85947
399.0 0.002506 406.29456 416.44623
388.0 0.002577 405.64578 415.11127
405.0 0.002469 404.99814 413.84460
407.0 0.002457 404.35132 412.63806
390.0 0.002564 403.70554 411.48373
396.0 0.002525 403.06107 410.37640
400.0 0.002500 402.41730 409.30984
397.0 0.002519 401.77475 408.27994
397.0 0.002519 401.13336 407.28323
431.0 0.002320 400.49289 406.31876
359.0 0.002786 399.85382 405.37811
396.0 0.002525 399.21579 404.46149
383.0 0.002611 398.57883 403.56635
407.0 0.002457 397.94318 402.69244
403.0 0.002481 397.30853 401.83542
364.0 0.002747 396.67542 400.99527
377.0 0.002653 396.04343 400.16998
384.0 0.002604 395.41260 399.35867
362.0 0.002762 394.78323 398.56052
333.0 0.003003 394.15521 397.78409
387.0 0.002584 393.52832 397.00940
367.0 0.002725 392.90280 396.24490
382.0 0.002618 392.27872 393.27817
421.0 0.002375 391.65610 392.61993
403.0 0.002481 391.03485 391.96210
425.0 0.002353 390.41501 391.30801
389.0 0.002571 389.79663 389.82220
370.0 0.002703 389.17975 389.20654
382.0 0.002618 388.56454 388.59271
364.0 0.002747 387.95065 387.98029
354.0 0.002825 387.33832 387.36954
362.0 0.002762 386.72769 386.76059
378.0 0.002646 386.11841 386.15320
402.0 0.002488 385.51102 385.54782
381.0 0.002625 384.90512 384.94412
354.0 0.002825 384.30093 384.34244
385.0 0.002597 383.69839 383.74265
349.0 0.002865 383.09753 383.14462
354.0 0.002825 382.49854 382.54895
396.0 0.002525 381.90112 381.95520
354.0 0.002825 381.30557 381.36386
406.0 0.002463 380.71179 380.77466
356.0 0.002809 380.11990 380.18784
395.0 0.002532 379.52985 379.60376
359.0 0.002786 378.94144 379.02225
379.0 0.002639 378.35538 378.44385
367.0 0.002725 377.77081 377.86850
395.0 0.002532 377.18835 377.29672
348.0 0.002874 376.60794 376.72891
366.0 0.002732 376.02924 376.16559
344.0 0.002907 375.45294 375.60873
346.0 0.002890 374.87839 375.06079
364.0 0.002747 374.30600 374.52991
341.0 0.002933 373.73563 374.03391
329.0 0.003040 373.16745 373.60962
363.0 0.002755 372.60138 373.31516
349.0 0.002865 372.03745 373.21912
361.0 0.002770 371.47556 373.35950
363.0 0.002755 370.91602 373.68835
385.0 0.002597 370.35864 374.03384
372.0 0.002688 369.80353 374.13293
363.0 0.002755 369.25073 373.77652
363.0 0.002755 368.70013 373.00641
399.0 0.002506 368.15195 372.08600
375.0 0.002667 367.60590 371.28265
376.0 0.002660 367.06241 370.81735
377.0 0.002653 366.52118 371.10315
372.0 0.002688 365.98227 372.20453
379.0 0.002639 365.44604 374.01758
407.0 0.002457 364.91214 376.29858
372.0 0.002688 364.38062 379.24445
415.0 0.002410 363.85168 379.98767
371.0 0.002695 363.32504 379.03116
388.0 0.002577 362.80136 376.96121
376.0 0.002660 362.27979 374.87314
392.0 0.002551 361.76111 372.41537
398.0 0.002513 361.24478 369.99152
388.0 0.002577 360.73135 367.71185
364.0 0.002747 360.22040 365.74692
376.0 0.002660 359.71198 364.19394
348.0 0.002874 359.20651 363.04965
380.0 0.002632 358.70343 362.23315
360.0 0.002778 358.20328 361.63687
392.0 0.002551 357.70581 361.16885
372.0 0.002688 357.21121 360.77155
342.0 0.002924 356.71924 360.41629
407.0 0.002457 356.23013 360.09164
354.0 0.002825 355.74374 359.79437
386.0 0.002591 355.26038 359.52408
390.0 0.002564 354.77972 359.28253
351.0 0.002849 354.30194 359.07123
358.0 0.002793 353.82706 358.89319
356.0 0.002809 353.35501 358.75192
392.0 0.002551 352.88608 358.65176
380.0 0.002632 352.41989 358.59781
368.0 0.002717 351.95691 358.59644
360.0 0.002778 351.49667 358.65540
395.0 0.002532 351.03940 358.78403
376.0 0.002660 350.58530 358.99396
382.0 0.002618 350.13394 359.29929
425.0 0.002353 349.68591 359.71771
360.0 0.002778 349.24103 360.27179
390.0 0.002564 348.79880 360.98941
346.0 0.002890 348.36002 361.90701
392.0 0.002551 347.92413 364.52228
391.0 0.002558 347.49146 366.05670
387.0 0.002584 347.06177 367.99930
372.0 0.002688 346.63535 370.50165
383.0 0.002611 346.21213 374.40161
417.0 0.002398 345.79181 379.30066
382.0 0.002618 345.37500 387.19882
394.0 0.002538 344.96103 401.15268
449.0 0.002227 344.55045 426.61356
529.0 0.001890 344.14310 471.74866
604.0 0.001656 343.73892 546.59961
692.0 0.001445 343.33801 660.86389
841.0 0.001189 342.94022 821.13702
1078.0 0.000928 342.54584 1027.53137
1364.0 0.000733 342.15463 1271.16589
1621.0 0.000617 341.76663 1532.99426
1789.0 0.000559 341.38199 1776.77979
1989.0 0.000503 341.00067 1942.87109
1823.0 0.000549 340.62250 1967.29944
1833.0 0.000546 340.24774 1841.45264
1670.0 0.000599 339.87613 1629.52783
1390.0 0.000719 339.50821 1400.34937
1063.0 0.000941 339.14322 1182.06543
874.0 0.001144 338.78171 977.29321
758.0 0.001319 338.42352 793.52899
692.0 0.001445 338.06863 643.34723
506.0 0.001976 337.71713 533.15314
477.0 0.002096 337.36884 460.86337
447.0 0.002237 337.02396 418.34366
375.0 0.002667 336.68253 395.36334
394.0 0.002538 336.34445 383.32056
366.0 0.002732 336.00974 376.74695
384.0 0.002604 335.67822 372.82651
386.0 0.002591 335.35001 370.33325
357.0 0.002801 335.02542 368.78226
392.0 0.002551 334.70398 367.98697
370.0 0.002703 334.38611 367.88318
359.0 0.002786 334.07144 368.46967
403.0 0.002481 333.76019 369.79739
371.0 0.002695 333.45230 371.97635
402.0 0.002488 333.14774 375.21909
399.0 0.002506 332.84656 379.96609
409.0 0.002445 332.54865 387.29153
403.0 0.002481 332.25412 399.93945
470.0 0.002128 331.96301 424.51022
472.0 0.002119 331.67517 474.81586
561.0 0.001783 331.39081 574.38562
768.0 0.001302 331.10968 753.61450
1017.0 0.000983 330.83179 1035.89465
1455.0 0.000687 330.55740 1414.06116
1809.0 0.000553 330.28629 1829.39612
2080.0 0.000481 330.01843 2171.44141
2252.0 0.000444 329.75397 2322.47192
2209.0 0.000453 329.49274 2247.53223
2166.0 0.000462 329.23468 2028.93750
1836.0 0.000545 328.98007 1768.25562
1371.0 0.000729 328.72867 1509.61511
1153.0 0.000867 328.48065 1253.71545
977.0 0.001024 328.23569 1007.23962
833.0 0.001200 327.99423 792.16071
632.0 0.001582 327.75577 625.19708
462.0 0.002165 327.52072 510.29218
387.0 0.002584 327.28873 439.89072
378.0 0.002646 327.06003 400.68222
366.0 0.002732 326.83447 379.78644
361.0 0.002770 326.61212 368.04358
329.0 0.003040 326.39297 360.69534
333.0 0.003003 326.17682 355.59021
376.0 0.002660 325.96402 351.62097
347.0 0.002882 325.75430 347.36145
372.0 0.002688 325.54767 344.69382
334.0 0.002994 325.34409 342.37814
351.0 0.002849 325.14359 340.44147
355.0 0.002817 324.94623 338.76358
343.0 0.002915 324.75183 336.94223
371.0 0.002695 324.56049 335.67023
323.0 0.003096 324.37231 334.53302
346.0 0.002890 324.18689 333.51572
323.0 0.003096 324.00458 332.59995
356.0 0.002809 323.82529 331.77521
348.0 0.002874 323.64886 331.02060
327.0 0.003058 323.47531 330.33023
377.0 0.002653 323.30478 329.69553
333.0 0.003003 323.13696 329.11008
350.0 0.002857 322.97217 328.56729
327.0 0.003058 322.81018 328.06247
312.0 0.003205 322.65106 327.59149
328.0 0.003049 322.49469 327.15060
324.0 0.003086 322.34094 326.73666
318.0 0.003145 322.19028 326.34723
319.0 0.003135 322.04208 325.97980
343.0 0.002915 321.89679 325.63251
299.0 0.003344 321.75394 325.30344
336.0 0.002976 321.61395 324.99097
327.0 0.003058 321.47662 324.69421
327.0 0.003058 321.34186 324.41135
268.0 0.00373 321.20966 324.14169
304.0 0.003289 321.08005 323.88434
342.0 0.002924 320.95294 323.63831
338.0 0.002959 320.82846 323.40298
311.0 0.003215 320.70639 323.17740
352.0 0.002841 320.58673 322.96155
304.0 0.003289 320.46957 322.75439
325.0 0.003077 320.35486 321.10602
268.0 0.00373 320.24255 320.97214
318.0 0.003145 320.13239 320.84314
304.0 0.003289 320.02487 320.71857
312.0 0.003205 319.91949 320.59900
341.0 0.002933 319.81631 319.94760
311.0 0.003215 319.71545 319.85846
317.0 0.003155 319.61679 319.77335
321.0 0.003115 319.52036 319.69281
303.0 0.003300 319.42609 319.61716
337.0 0.002967 319.33380 319.54724
326.0 0.003067 319.24384 319.48422
281.0 0.00356 319.15573 319.54141
340.0 0.002941 319.06967 319.50388
298.0 0.003356 318.98578 319.48788
299.0 0.003344 318.90378 319.51541
300.0 0.003333 318.82370 319.63660
289.0 0.003460 318.74551 319.99097
325.0 0.003077 318.66934 320.64581
297.0 0.003367 318.59479 321.81445
314.0 0.003185 318.52228 323.59616
325.0 0.003077 318.45135 325.88464
333.0 0.003003 318.38226 328.27267
303.0 0.003300 318.31482 330.10040
324.0 0.003086 318.24911 330.77341
304.0 0.003289 318.18509 330.25342
339.0 0.002950 318.12271 329.06976
358.0 0.002793 318.06183 327.70050
375.0 0.002667 318.00253 326.27539
327.0 0.003058 317.94473 324.75974
318.0 0.003145 317.88843 323.22806
317.0 0.003155 317.83359 321.85083
338.0 0.002959 317.78021 320.74231
305.0 0.003279 317.72818 319.92972
336.0 0.002976 317.67734 319.38196
302.0 0.003311 317.62799 319.04083
301.0 0.003322 317.57986 318.84375
325.0 0.003077 317.53293 318.74173
325.0 0.003077 317.48724 318.70309
335.0 0.002985 317.44269 318.70966
317.0 0.003155 317.39944 318.75342
305.0 0.003279 317.35712 318.83521
323.0 0.003096 317.31586 318.96854
322.0 0.003106 317.27563 319.19336
309.0 0.003236 317.23648 319.60562
347.0 0.002882 317.19815 320.40210
323.0 0.003096 317.16092 321.91510
283.0 0.00353 317.12439 324.57635
310.0 0.003226 317.08890 328.73328
350.0 0.002857 317.05417 334.34152
292.0 0.003425 317.02008 340.65552
335.0 0.002985 316.98700 346.17957
328.0 0.003049 316.95435 349.19360
302.0 0.003311 316.92255 348.97168
370.0 0.002703 316.89133 346.60165
342.0 0.002924 316.86066 343.90610
323.0 0.003096 316.83054 342.23779
341.0 0.002933 316.80109 342.61740
314.0 0.003185 316.77209 346.54160
366.0 0.002732 316.74350 356.19360
378.0 0.002646 316.71533 373.84964
406.0 0.002463 316.68762 397.79330
422.0 0.002370 316.66019 424.50735
477.0 0.002096 316.63309 446.47934
429.0 0.002331 316.60638 455.85120
470.0 0.002128 316.57983 450.53168
436.0 0.002294 316.55350 435.63501
434.0 0.002304 316.52740 418.40140
395.0 0.002532 316.50134 401.96368
377.0 0.002653 316.47546 385.98123
349.0 0.002865 316.44958 369.98541
367.0 0.002725 316.42380 355.10495
353.0 0.002833 316.39804 342.75992
306.0 0.003268 316.37228 333.67090
309.0 0.003236 316.34641 327.72589
330.0 0.003030 316.32043 324.22882
351.0 0.002849 316.29434 322.33804
314.0 0.003185 316.26804 321.33646
332.0 0.003012 316.24155 320.78137
331.0 0.003021 316.21494 320.44397
346.0 0.002890 316.18802 320.22119
310.0 0.003226 316.16068 320.32773
365.0 0.002740 316.13315 320.25052
335.0 0.002985 316.10526 320.22122
317.0 0.003155 316.07690 320.23468
325.0 0.003077 316.04797 320.38016
340.0 0.002941 316.01892 320.47656
325.0 0.003077 315.98920 320.61295
348.0 0.002874 315.95889 320.79102
335.0 0.002985 315.92816 321.01376
325.0 0.003077 315.89676 321.28625
322.0 0.003106 315.86484 321.61490
335.0 0.002985 315.83206 322.00815
313.0 0.003195 315.79883 322.47736
329.0 0.003040 315.76483 323.03699
312.0 0.003205 315.73019 323.70642
332.0 0.003012 315.69455 324.51047
321.0 0.003115 315.65829 325.48288
329.0 0.003040 315.62122 326.66891
369.0 0.002710 315.58316 328.13675
317.0 0.003155 315.54431 330.00113
332.0 0.003012 315.50464 332.49860
347.0 0.002882 315.46384 336.19498
371.0 0.002695 315.42215 342.62631
360.0 0.002778 315.37958 354.44543
359.0 0.002786 315.33588 377.55118
454.0 0.002203 315.29120 421.90524
485.0 0.002062 315.24539 494.38498
644.0 0.001553 315.19849 601.42377
733.0 0.001364 315.15054 736.24884
861.0 0.001161 315.10138 875.19604
878.0 0.001139 315.05096 980.31183
999.0 0.001001 314.99957 1015.11774
1007.0 0.000993 314.94684 977.14209
995.0 0.001005 314.89288 899.13745
853.0 0.001172 314.83762 814.45343
755.0 0.001325 314.78110 735.70416
625.0 0.001600 314.72314 659.02637
630.0 0.001587 314.66409 581.60345
550.0 0.001818 314.60361 509.09848
489.0 0.002045 314.54172 448.68692
385.0 0.002597 314.47836 404.26465
350.0 0.002857 314.41360 375.58655
337.0 0.002967 314.34750 359.72937
367.0 0.002725 314.27988 353.28442
384.0 0.002604 314.21075 354.37692
353.0 0.002833 314.14014 363.58215
367.0 0.002725 314.06802 383.75690
397.0 0.002519 313.99438 417.45453
512.0 0.001953 313.91916 465.42700
494.0 0.002024 313.84238 522.02759
607.0 0.001647 313.76407 575.12653
597.0 0.001675 313.68408 608.33313
596.0 0.001678 313.60254 610.61005
626.0 0.001597 313.51929 587.23730
597.0 0.001675 313.43445 553.38062
526.0 0.001901 313.34784 520.10071
517.0 0.001934 313.25974 489.45795
448.0 0.002232 313.16983 459.06781
492.0 0.002033 313.07822 428.81287
403.0 0.002481 312.98489 401.58722
375.0 0.002667 312.88980 380.09061
368.0 0.002717 312.79303 365.44998
346.0 0.002890 312.69440 357.25034
346.0 0.002890 312.59412 354.16589
341.0 0.002933 312.49200 354.86929
357.0 0.002801 312.38806 358.76035
383.0 0.002611 312.28226 366.45767
379.0 0.002639 312.17487 380.24854
421.0 0.002375 312.06555 404.67328
460.0 0.002174 311.95435 447.20160
534.0 0.001873 311.84131 518.72156
658.0 0.001520 311.72641 633.09637
786.0 0.001272 311.60983 803.84998
1127.0 0.000887 311.49118 1036.73474
1390.0 0.000719 311.37085 1320.64233
1658.0 0.000603 311.24844 1620.83801
1841.0 0.000543 311.12439 1873.82776
1859.0 0.000538 310.99829 1999.59363
1946.0 0.000514 310.87045 1956.54968
1927.0 0.000519 310.74063 1788.45447
1726.0 0.000579 310.60889 1578.80078
1290.0 0.000775 310.47534 1379.91724
1049.0 0.000953 310.33984 1196.71106
966.0 0.001035 310.20239 1016.77350
848.0 0.001179 310.06323 840.93274
739.0 0.001353 309.92194 684.69342
550.0 0.001818 309.77878 560.82703
457.0 0.002188 309.63391 472.91968
418.0 0.002392 309.48694 417.74646
395.0 0.002532 309.33817 386.96744
355.0 0.002817 309.18750 372.64948
372.0 0.002688 309.03488 370.17630
393.0 0.002545 308.88046 377.84882
387.0 0.002584 308.72406 396.95383
434.0 0.002304 308.56577 428.28323
473.0 0.002114 308.40561 469.48224
513.0 0.001949 308.24356 513.13196
519.0 0.001927 308.07965 546.82928
613.0 0.001631 307.91388 558.74799
523.0 0.001912 307.74606 546.87793
556.0 0.001799 307.57663 521.36194
531.0 0.001883 307.40527 493.82590
454.0 0.002203 307.23203 469.51776
448.0 0.002232 307.05688 447.82581
410.0 0.002439 306.88004 428.91397
432.0 0.002315 306.70111 416.44366
434.0 0.002304 306.52069 416.88339
427.0 0.002342 306.33832 435.82230
468.0 0.002137 306.15421 474.79333
549.0 0.001821 305.96826 528.82660
559.0 0.001789 305.78046 584.63928
639.0 0.001565 305.59100 623.54651
614.0 0.001629 305.39975 630.71216
648.0 0.001543 305.20688 607.88330
573.0 0.001745 305.01193 570.50690
544.0 0.001838 304.81546 532.63269
519.0 0.001927 304.61725 498.52124
460.0 0.002174 304.41736 466.08350
401.0 0.002494 304.21588 432.14987
430.0 0.002326 304.01248 399.52579
364.0 0.002747 303.80762 371.46365
353.0 0.002833 303.60107 349.99918
315.0 0.003175 303.39288 335.32941
325.0 0.003077 303.18323 326.47592
330.0 0.003030 302.97183 321.23709
330.0 0.003030 302.75879 318.08444
310.0 0.003226 302.54425 316.29880
283.0 0.00353 302.32831 315.11734
317.0 0.003155 302.11069 314.26303
314.0 0.003185 301.89148 312.25809
320.0 0.003125 301.67108 311.75546
338.0 0.002959 301.44885 311.45111
331.0 0.003021 301.22546 311.26840
321.0 0.003115 301.00052 311.20474
298.0 0.003356 300.77414 310.74973
317.0 0.003155 300.54636 310.96216
295.0 0.003390 300.31711 311.32651
318.0 0.003145 300.08667 311.87430
280.0 0.00357 299.85489 312.66452
313.0 0.003195 299.62177 313.82187
334.0 0.002994 299.38727 315.63229
333.0 0.003003 299.15152 318.73807
329.0 0.003040 298.91455 324.43958
311.0 0.003215 298.67654 334.98489
370.0 0.002703 298.43704 353.51154
420.0 0.002381 298.19647 383.22205
501.0 0.001996 297.95477 425.77338
460.0 0.002174 297.71185 479.48706
524.0 0.001908 297.46796 538.44220
565.0 0.001770 297.22290 593.35083
624.0 0.001603 296.97665 637.61719
744.0 0.001344 296.72949 672.59155
762.0 0.001312 296.48141 703.70850
758.0 0.001319 296.23224 728.03314
786.0 0.001272 295.98212 732.45386
747.0 0.001339 295.73117 706.22949
676.0 0.001479 295.47916 655.31335
698.0 0.001433 295.22635 596.89661
547.0 0.001828 294.97256 543.75964
441.0 0.002268 294.71814 498.79416
406.0 0.002463 294.46277 458.95654
420.0 0.002381 294.20663 422.38754
411.0 0.002433 293.94977 390.45941
381.0 0.002625 293.69229 364.99957
344.0 0.002907 293.43384 346.79422
308.0 0.003247 293.17496 335.41379
307.0 0.003257 292.91534 329.57944
357.0 0.002801 292.65527 327.92078
332.0 0.003012 292.39444 329.71878
363.0 0.002755 292.13300 335.42566
355.0 0.002817 291.87115 346.96378
366.0 0.002732 291.60883 367.80777
386.0 0.002591 291.34595 402.72101
466.0 0.002146 291.08270 457.15039
611.0 0.001637 290.81900 536.02454
611.0 0.001637 290.55484 642.97510
834.0 0.001199 290.29037 776.41559
1033.0 0.000968 290.02567 929.30054
1148.0 0.000871 289.76074 1088.92224
1243.0 0.000805 289.49527 1230.57532
1232.0 0.000812 289.22989 1314.08118
1262.0 0.000792 288.96408 1306.76501
1332.0 0.000751 288.69812 1217.96436
1203.0 0.000831 288.43210 1092.20471
995.0 0.001005 288.16586 968.56573
844.0 0.001185 287.89954 860.00806
701.0 0.001427 287.63309 759.01135
632.0 0.001582 287.36682 658.18964
546.0 0.001832 287.10049 561.90442
505.0 0.001980 286.83408 478.78836
374.0 0.002674 286.56793 414.35641
315.0 0.003175 286.30164 369.44135
327.0 0.003058 286.03571 341.03421
302.0 0.003311 285.76974 324.29767
294.0 0.003401 285.50403 314.65063
293.0 0.003413 285.23859 308.83270
296.0 0.003378 284.97321 304.95190
328.0 0.003049 284.70831 302.06836
289.0 0.003460 284.44370 299.75409
283.0 0.00353 284.17932 297.81360
250.0 0.00400 283.91525 296.14810
278.0 0.00360 283.65173 294.69608
293.0 0.003413 283.38864 293.41534
300.0 0.003333 283.12607 292.31381
279.0 0.00358 282.86374 291.28806
277.0 0.00361 282.60199 290.35779
298.0 0.003356 282.34079 289.50787
278.0 0.00360 282.08023 288.83493
322.0 0.003106 281.82031 288.11447
295.0 0.003390 281.56100 287.45923
260.0 0.00385 281.30228 286.83215
285.0 0.00351 281.04425 286.24323
271.0 0.00369 280.78699 285.57727
290.0 0.003448 280.53049 285.05618
261.0 0.00383 280.27475 284.56039
297.0 0.003367 280.01974 284.08765
303.0 0.003300 279.76563 283.63528
284.0 0.00352 279.51242 283.04599
309.0 0.003236 279.26019 282.58017
272.0 0.00368 279.00867 282.18631
268.0 0.00373 278.75821 281.80591
296.0 0.003378 278.50861 281.43817
282.0 0.00355 278.26016 281.02252
277.0 0.00361 278.01273 280.67963
292.0 0.003425 277.76636 280.34674
295.0 0.003390 277.52090 280.02310
283.0 0.00353 277.27679 279.70853
277.0 0.00361 277.03363 279.40225
294.0 0.003401 276.79181 279.10419
262.0 0.00382 276.55099 278.81384
279.0 0.00358 276.31161 278.53107
268.0 0.00373 276.07333 278.25586
277.0 0.00361 275.83636 277.99109
315.0 0.003175 275.60065 277.73083
278.0 0.00360 275.36630 277.47775
282.0 0.00355 275.13333 277.23221
235.0 0.00426 274.90164 276.99426
275.0 0.00364 274.67142 276.76425
248.0 0.00403 274.44250 276.54376
271.0 0.00369 274.21515 276.19522
295.0 0.003390 273.98923 275.99557
284.0 0.00352 273.76471 275.80557
292.0 0.003425 273.54181 275.62598
257.0 0.00389 273.32059 274.86902
278.0 0.00360 273.10062 274.73187
275.0 0.00364 272.88232 274.55807
292.0 0.003425 272.66571 274.45105
280.0 0.00357 272.45078 274.36176
287.0 0.003484 272.23737 274.29260
267.0 0.00375 272.02557 274.02927
236.0 0.00424 271.81558 274.01929
264.0 0.00379 271.60727 274.04330
280.0 0.00357 271.40070 274.10867
275.0 0.00364 271.19583 274.22546
258.0 0.00388 270.99286 274.40845
252.0 0.00397 270.79150 274.68256
269.0 0.00372 270.59189 275.09515
274.0 0.00365 270.39441 275.74652
278.0 0.00360 270.19858 276.84744
325.0 0.003077 270.00455 278.80447
236.0 0.00424 269.81250 282.30753
290.0 0.003448 269.62222 288.35699
271.0 0.00369 269.43408 298.15463
297.0 0.003367 269.24768 312.83734
346.0 0.002890 269.06339 333.05786
322.0 0.003106 268.88086 358.39648
366.0 0.002732 268.70044 386.88196
446.0 0.002242 268.52203 415.43411
427.0 0.002342 268.34546 440.85733
457.0 0.002188 268.17108 458.92557
425.0 0.002353 267.99866 464.14102
454.0 0.002203 267.82831 454.38635
503.0 0.001988 267.65997 434.46832
415.0 0.002410 267.49380 411.98599
385.0 0.002597 267.32956 392.26508
368.0 0.002717 267.16754 376.71140
362.0 0.002762 267.00766 364.07645
331.0 0.003021 266.84985 353.97571
344.0 0.002907 266.69418 345.68378
329.0 0.003040 266.54059 339.41327
320.0 0.003125 266.38925 333.62555
310.0 0.003226 266.23996 326.67401
301.0 0.003322 266.09302 318.53909
260.0 0.00385 265.94809 310.75031
291.0 0.003436 265.80527 303.93738
286.0 0.003497 265.66486 298.24384
292.0 0.003425 265.52652 292.94681
296.0 0.003378 265.39050 287.65253
270.0 0.00370 265.25659 282.65329
278.0 0.00360 265.12497 278.41586
286.0 0.003497 264.99564 275.25095
271.0 0.00369 264.86832 273.24518
266.0 0.00376 264.74344 272.26956
269.0 0.00372 264.62076 272.03882
256.0 0.00391 264.50021 272.18512
263.0 0.00380 264.38208 272.32071
272.0 0.00368 264.26620 272.13947
276.0 0.00362 264.15250 271.59360
274.0 0.00365 264.04114 270.87177
318.0 0.003145 263.93201 270.17609
271.0 0.00369 263.82504 269.59280
295.0 0.003390 263.72049 269.08826
296.0 0.003378 263.61819 268.58813
305.0 0.003279 263.51816 268.07788
249.0 0.00402 263.42041 267.59930
288.0 0.003472 263.32483 267.19705
257.0 0.00389 263.23154 266.89520
280.0 0.00357 263.14063 266.69568
254.0 0.00394 263.05188 266.58368
271.0 0.00369 262.96542 266.53870
258.0 0.00388 262.88126 266.54294
279.0 0.00358 262.79941 266.58493
302.0 0.003311 262.71970 266.65927
275.0 0.00364 262.64233 266.76486
254.0 0.00394 262.56723 266.90302
281.0 0.00356 262.49426 267.07693
283.0 0.00353 262.42358 267.29007
248.0 0.00403 262.35526 267.54816
268.0 0.00373 262.28897 267.85736
247.0 0.00405 262.22504 268.22623
285.0 0.00351 262.16333 268.66467
243.0 0.00412 262.10382 269.18564
254.0 0.00394 262.04651 269.80524
251.0 0.00398 261.99133 270.54449
288.0 0.003472 261.93854 271.43030
287.0 0.003484 261.88763 272.49832
267.0 0.00375 261.83908 273.79700
275.0 0.00364 261.79279 275.39731
299.0 0.003344 261.74850 277.42117
265.0 0.00377 261.70642 280.07446
286.0 0.003497 261.66644 283.99722
303.0 0.003300 261.62869 290.41760
297.0 0.003367 261.59293 301.99826
302.0 0.003311 261.55920 323.39929
331.0 0.003021 261.52783 362.00851
393.0 0.002545 261.49835 425.75699
542.0 0.001845 261.47095 519.84747
665.0 0.001504 261.44562 641.15955
765.0 0.001307 261.42245 773.83820
781.0 0.001280 261.40121 888.07428
783.0 0.001277 261.38196 947.07660
826.0 0.001211 261.36481 933.04187
976.0 0.001025 261.34961 866.88818
881.0 0.001135 261.33640 785.51965
822.0 0.001217 261.32501 713.57080
640.0 0.001563 261.31564 655.30933
514.0 0.001946 261.30829 600.40216
473.0 0.002114 261.30276 539.86682
489.0 0.002045 261.29916 475.94965
455.0 0.002198 261.29749 416.34583
377.0 0.002653 261.29761 367.15021
348.0 0.002874 261.29956 330.91846
288.0 0.003472 261.30344 306.90942
271.0 0.00369 261.30905 292.59570
270.0 0.00370 261.31641 284.17654
276.0 0.00362 261.32568 279.30096
275.0 0.00364 261.33664 276.28708
269.0 0.00372 261.34937 274.22699
261.0 0.00383 261.36374 272.68466
286.0 0.003497 261.37988 271.55255
272.0 0.00368 261.39764 270.55347
294.0 0.003401 261.41718 269.72333
274.0 0.00365 261.43829 269.02740
312.0 0.003205 261.46097 268.44040
262.0 0.00382 261.48520 267.94214
265.0 0.00377 261.51111 267.52032
268.0 0.00373 261.53854 267.16446
288.0 0.003472 261.56750 266.86050
275.0 0.00364 261.59802 266.60330
283.0 0.00353 261.63004 266.40213
275.0 0.00364 261.66348 266.22232
261.0 0.00383 261.69833 266.07465
288.0 0.003472 261.73465 265.95691
266.0 0.00376 261.77222 265.88333
257.0 0.00389 261.81143 265.81662
225.0 0.00444 261.85184 265.77884
273.0 0.00366 261.89374 265.75745
275.0 0.00364 261.93677 265.75769
288.0 0.003472 261.98114 265.77945
304.0 0.003289 262.02682 265.82993
238.0 0.00420 262.07367 265.89600
273.0 0.00366 262.12183 265.98596
275.0 0.00364 262.17102 266.10193
277.0 0.00361 262.22147 266.24820
278.0 0.00360 262.27310 266.43280
275.0 0.00364 262.32574 266.67267
247.0 0.00405 262.37952 267.00580
264.0 0.00379 262.43445 267.71991
261.0 0.00383 262.49011 269.11832
271.0 0.00369 262.54712 270.44135
273.0 0.00366 262.60504 272.47650
263.0 0.00380 262.66388 275.36282
293.0 0.003413 262.72363 279.02499
283.0 0.00353 262.78433 283.14017
276.0 0.00362 262.84601 287.00638
301.0 0.003322 262.90839 289.31436
297.0 0.003367 262.97162 289.82260
289.0 0.003460 263.03574 289.15332
333.0 0.003003 263.10062 288.51099
324.0 0.003086 263.16620 288.94211
301.0 0.003322 263.23260 291.15442
317.0 0.003155 263.29959 295.27066
308.0 0.003247 263.36734 301.47949
313.0 0.003195 263.43573 309.47589
359.0 0.002786 263.50464 320.36902
286.0 0.003497 263.57431 333.33463
367.0 0.002725 263.64450 348.06265
393.0 0.002545 263.71521 365.02267
382.0 0.002618 263.78650 385.30286
364.0 0.002747 263.85812 408.97122
425.0 0.002353 263.93036 435.78354
476.0 0.002101 264.00293 466.16388
517.0 0.001934 264.07593 503.14273
590.0 0.001695 264.14948 548.05957
611.0 0.001637 264.22321 595.44312
625.0 0.001600 264.29733 631.57684
661.0 0.001513 264.37173 640.08783
667.0 0.001499 264.44644 616.55090
641.0 0.001560 264.52136 573.56744
612.0 0.001634 264.59650 528.20404
552.0 0.001812 264.67203 490.36444
469.0 0.002132 264.74753 460.72028
459.0 0.002179 264.82318 433.84283
428.0 0.002336 264.89896 405.47275
404.0 0.002475 264.97501 376.46307
395.0 0.002532 265.05096 350.18182
350.0 0.002857 265.12701 329.34787
296.0 0.003378 265.20291 315.25958
308.0 0.003247 265.27908 307.76300
273.0 0.00366 265.35501 305.68112
330.0 0.003030 265.43094 307.43536
329.0 0.003040 265.50681 311.49066
337.0 0.002967 265.58261 316.39603
346.0 0.002890 265.65820 320.88770
357.0 0.002801 265.73367 324.33569
336.0 0.002976 265.80899 326.54675
326.0 0.003067 265.88406 327.22983
380.0 0.002632 265.95886 326.46796
360.0 0.002778 266.03342 325.17328
346.0 0.002890 266.10779 324.56793
347.0 0.002882 266.18182 326.03015
371.0 0.002695 266.25543 331.52283
350.0 0.002857 266.32877 344.34283
390.0 0.002564 266.40170 370.34332
398.0 0.002513 266.47421 418.52728
495.0 0.002020 266.54630 499.31375
689.0 0.001451 266.61798 620.10840
806.0 0.001241 266.68924 778.95325
949.0 0.001054 266.75989 958.72449
1062.0 0.000942 266.83011 1124.61816
1157.0 0.000864 266.89972 1230.67163
1237.0 0.000808 266.96890 1244.14722
1376.0 0.000727 267.03738 1174.41467
1403.0 0.000713 267.10526 1065.48352
1166.0 0.000858 267.17252 959.07471
950.0 0.001053 267.23923 873.71674
810.0 0.001235 267.30524 804.69281
819.0 0.001221 267.37051 737.21936
719.0 0.001391 267.43506 663.93866
700.0 0.001429 267.49896 591.06720
620.0 0.001613 267.56207 527.96313
490.0 0.002041 267.62448 479.55719
390.0 0.002564 267.68594 444.70062
376.0 0.002660 267.74677 418.18228
387.0 0.002584 267.80670 395.27380
376.0 0.002660 267.86581 375.29178
289.0 0.003460 267.92404 359.14603
350.0 0.002857 267.98138 347.18945
343.0 0.002915 268.03784 338.48996
359.0 0.002786 268.09332 331.16815
316.0 0.003165 268.14807 323.93030
300.0 0.003333 268.20169 317.19577
334.0 0.002994 268.25433 312.58749
311.0 0.003215 268.30606 312.02533
298.0 0.003356 268.35681 317.59653
334.0 0.002994 268.40652 330.56421
404.0 0.002475 268.45526 350.90350
401.0 0.002494 268.50278 376.37341
367.0 0.002725 268.54947 402.11368
451.0 0.002217 268.59488 420.65814
448.0 0.002232 268.63934 425.85574
405.0 0.002469 268.68262 416.89328
436.0 0.002294 268.72495 400.25363
409.0 0.002445 268.76593 382.79736
387.0 0.002584 268.80582 368.53568
336.0 0.002976 268.84464 357.34833
327.0 0.003058 268.88226 346.83203
359.0 0.002786 268.91870 334.82889
311.0 0.003215 268.95383 321.73541
327.0 0.003058 268.98792 309.21704
299.0 0.003344 269.02075 298.52087
288.0 0.003472 269.05237 290.37253
267.0 0.00375 269.08279 284.76135
306.0 0.003268 269.11191 281.21649
246.0 0.00407 269.13983 279.10220
301.0 0.003322 269.16641 277.86237
269.0 0.00372 269.19168 277.09790
296.0 0.003378 269.21591 276.61731
276.0 0.00362 269.23853 276.29144
263.0 0.00380 269.25995 276.05179
250.0 0.00400 269.28027 275.91147
249.0 0.00402 269.29910 275.84076
268.0 0.00373 269.31668 275.82993
259.0 0.00386 269.33289 275.89047
249.0 0.00402 269.34769 276.01950
290.0 0.003448 269.36133 276.21671
282.0 0.00355 269.37357 276.50735
254.0 0.00394 269.38446 276.90289
250.0 0.00400 269.39398 277.43741
294.0 0.003401 269.40216 278.18173
288.0 0.003472 269.40891 279.29083
281.0 0.00356 269.41434 281.09952
268.0 0.00373 269.41843 284.26862
306.0 0.003268 269.42108 289.73169
265.0 0.00377 269.42242 298.97955
315.0 0.003175 269.42252 314.79779
319.0 0.003135 269.42102 337.83780
368.0 0.002717 269.41821 367.68292
380.0 0.002632 269.41406 401.34460
404.0 0.002475 269.40854 432.78979
388.0 0.002577 269.40155 454.00183
435.0 0.002299 269.39328 460.04294
473.0 0.002114 269.38361 453.57248
444.0 0.002252 269.37247 442.72018
395.0 0.002532 269.36008 433.56250
376.0 0.002660 269.34616 426.98199
394.0 0.002538 269.33099 419.20465
393.0 0.002545 269.31439 405.98193
355.0 0.002817 269.29651 387.01135
349.0 0.002865 269.27713 365.94693
353.0 0.002833 269.25650 346.60648
328.0 0.003049 269.23447 330.96860
300.0 0.003333 269.21115 319.00922
263.0 0.00380 269.18631 309.70209
296.0 0.003378 269.16028 302.20621
294.0 0.003401 269.13278 296.39236
319.0 0.003135 269.10400 292.51810
266.0 0.00376 269.07388 291.13925
302.0 0.003311 269.04257 293.17926
267.0 0.00375 269.00974 299.95154
291.0 0.003436 268.97565 312.93402
320.0 0.003125 268.94025 333.31659
384.0 0.002604 268.90356 360.28891
419.0 0.002387 268.86566 391.05319
406.0 0.002463 268.82639 420.09213
388.0 0.002577 268.78577 439.45114
455.0 0.002198 268.74399 442.21649
450.0 0.002222 268.70090 429.99405
445.0 0.002247 268.65640 410.39221
450.0 0.002222 268.61102 391.06024
376.0 0.002660 268.56415 375.83441
338.0 0.002959 268.51617 364.19864
322.0 0.003106 268.46695 353.15494
329.0 0.003040 268.41638 340.13394
338.0 0.002959 268.36487 325.66653
282.0 0.00355 268.31201 311.55368
313.0 0.003195 268.25803 299.38196
300.0 0.003333 268.20288 289.97272
267.0 0.00375 268.14670 283.38348
267.0 0.00375 268.08923 279.13760
254.0 0.00394 268.03070 276.55048
269.0 0.00372 267.97101 274.99377
262.0 0.00382 267.91037 274.01828
259.0 0.00386 267.84839 273.35532
249.0 0.00402 267.78552 272.86353
267.0 0.00375 267.72159 272.47485
266.0 0.00376 267.65662 272.15637
274.0 0.00365 267.59058 271.89124
257.0 0.00389 267.52359 271.66931
256.0 0.00391 267.45554 271.48380
242.0 0.00413 267.38654 271.32990
254.0 0.00394 267.31659 271.20404
266.0 0.00376 267.24576 271.10385
284.0 0.00352 267.17389 271.02756
275.0 0.00364 267.10110 270.97406
242.0 0.00413 267.02747 270.94293
295.0 0.003390 266.95288 270.93439
287.0 0.003484 266.87744 270.94888
239.0 0.00418 266.80127 270.98737
247.0 0.00405 266.72412 271.05179
265.0 0.00377 266.64618 271.14435
258.0 0.00388 266.56741 271.26785
273.0 0.00366 266.48792 271.42618
259.0 0.00386 266.40762 271.47342
277.0 0.00361 266.32660 271.72147
269.0 0.00372 266.24481 272.02222
256.0 0.00391 266.16245 272.38507
250.0 0.00400 266.07932 272.82181
251.0 0.00398 265.99542 273.34781
292.0 0.003425 265.91092 273.93741
280.0 0.00357 265.82581 274.86246
284.0 0.00352 265.74011 275.82068
288.0 0.003472 265.65375 277.02731
266.0 0.00376 265.56671 278.61917
307.0 0.003257 265.47940 280.87805
281.0 0.00356 265.39127 284.34775
300.0 0.003333 265.30273 290.09366
262.0 0.00382 265.21371 299.83881
338.0 0.002959 265.12427 315.71545
341.0 0.002933 265.03418 340.36307
357.0 0.002801 264.94385 375.85742
409.0 0.002445 264.85306 422.83142
430.0 0.002326 264.76181 479.46790
540.0 0.001852 264.67017 540.65460
566.0 0.001767 264.57819 598.63123
616.0 0.001623 264.48584 647.57648
630.0 0.001587 264.39334 686.43744
672.0 0.001488 264.30035 713.13025
679.0 0.001473 264.20712 720.65820
674.0 0.001484 264.11374 704.57355
674.0 0.001484 264.02005 668.81378
661.0 0.001513 263.92609 622.19788
590.0 0.001695 263.83197 573.71509
514.0 0.001946 263.73782 529.92096
510.0 0.001961 263.64355 491.91418
455.0 0.002198 263.54892 456.53314
410.0 0.002439 263.45425 421.65802
366.0 0.002732 263.35956 388.02911
367.0 0.002725 263.26477 357.55121
345.0 0.002899 263.16995 331.90073
299.0 0.003344 263.07504 311.96783
301.0 0.003322 262.98004 297.60992
268.0 0.00373 262.88535 287.91660
328.0 0.003049 262.79047 281.65997
293.0 0.003413 262.69583 277.68463
296.0 0.003378 262.60107 275.10553
242.0 0.00413 262.50656 273.33783
298.0 0.003356 262.41208 272.03769
273.0 0.00366 262.31790 271.01886
247.0 0.00405 262.22369 270.18408
265.0 0.00377 262.12979 269.48196
290.0 0.003448 262.03601 268.88297
294.0 0.003401 261.94254 268.36786
268.0 0.00373 261.84937 267.92331
258.0 0.00388 261.75641 267.53925
254.0 0.00394 261.66364 267.20798
288.0 0.003472 261.57132 267.33743
265.0 0.00377 261.47934 267.10767
297.0 0.003367 261.38760 266.91824
263.0 0.00380 261.29626 266.76700
275.0 0.00364 261.20529 266.65320
259.0 0.00386 261.11481 266.57660
288.0 0.003472 261.02466 266.57520
284.0 0.00352 260.93503 266.73428
269.0 0.00372 260.84589 266.78329
284.0 0.00352 260.75717 266.87900
250.0 0.00400 260.66904 267.02710
246.0 0.00407 260.58136 267.23502
296.0 0.003378 260.49420 267.51242
262.0 0.00382 260.40775 267.88663
261.0 0.00383 260.32172 268.34705
274.0 0.00365 260.23636 268.93167
310.0 0.003226 260.15161 269.67889
280.0 0.00357 260.06750 270.65689
304.0 0.003289 259.98413 272.00391
278.0 0.00360 259.90143 274.01501
272.0 0.00368 259.81918 277.30234
316.0 0.003165 259.73779 283.01883
309.0 0.003236 259.65732 293.08289
307.0 0.003257 259.57730 310.16473
333.0 0.003003 259.49826 337.14542
394.0 0.002538 259.41989 375.91141
445.0 0.002247 259.34232 425.68134
494.0 0.002024 259.26553 481.54120
542.0 0.001845 259.18973 533.65967
509.0 0.001965 259.11447 568.31262
563.0 0.001776 259.04025 574.37848
599.0 0.001669 258.96686 553.19958
611.0 0.001637 258.89456 518.27673
502.0 0.001992 258.82285 483.06018
441.0 0.002268 258.75226 455.13986
374.0 0.002674 258.68246 434.79272
377.0 0.002653 258.61386 417.65125
421.0 0.002375 258.54602 397.77765
385.0 0.002597 258.47913 373.88397
392.0 0.002551 258.41321 348.72986
342.0 0.002924 258.34848 325.48196
302.0 0.003311 258.28461 306.31204
277.0 0.00361 258.22174 291.94958
303.0 0.003300 258.16000 282.26996
295.0 0.003390 258.09937 276.17084
280.0 0.00357 258.03964 272.53656
278.0 0.00360 257.98102 270.39920
280.0 0.00357 257.92355 269.11319
258.0 0.00388 257.86713 268.30545
277.0 0.00361 257.81189 267.78363
278.0 0.00360 257.75769 267.45544
271.0 0.00369 257.70474 267.27573
279.0 0.00358 257.65271 267.22003
287.0 0.003484 257.60199 267.27347
259.0 0.00386 257.55237 267.42764
270.0 0.00370 257.50397 267.68384
299.0 0.003344 257.45670 268.05396
311.0 0.003215 257.41058 268.55573
267.0 0.00375 257.36578 269.21136
270.0 0.00370 257.32205 270.04620
302.0 0.003311 257.27960 271.09326
303.0 0.003300 257.23831 272.40002
291.0 0.003436 257.19827 274.04709
301.0 0.003322 257.15945 276.18564
287.0 0.003484 257.12192 279.12497
311.0 0.003215 257.08551 283.51666
271.0 0.00369 257.05042 290.67392
297.0 0.003367 257.01657 303.00562
324.0 0.003086 256.98398 324.36896
363.0 0.002755 256.95264 359.90167
407.0 0.002457 256.92249 414.85739
548.0 0.001825 256.89371 492.20612
581.0 0.001721 256.86615 589.65973
704.0 0.001420 256.83990 697.10382
721.0 0.001387 256.81500 795.38147
806.0 0.001241 256.79120 859.00555
810.0 0.001235 256.76889 869.29761
927.0 0.001079 256.74771 832.03455
856.0 0.001168 256.72787 772.63702
756.0 0.001323 256.70938 715.42603
652.0 0.001534 256.69205 672.55383
558.0 0.001792 256.67606 642.00146
522.0 0.001916 256.66135 612.52606
521.0 0.001919 256.64798 573.13367
592.0 0.001689 256.63589 522.94019
488.0 0.002049 256.62503 469.15012
431.0 0.002320 256.61545 419.48605
385.0 0.002597 256.60724 378.57504
338.0 0.002959 256.60019 347.61978
293.0 0.003413 256.59457 325.09192
311.0 0.003215 256.59006 308.91693
278.0 0.00360 256.58698 297.14853
281.0 0.00356 256.58521 288.60046
281.0 0.00356 256.58453 282.33218
300.0 0.003333 256.58530 277.76987
301.0 0.003322 256.58722 274.43976
299.0 0.003344 256.59036 271.95349
280.0 0.00357 256.59485 270.06168
291.0 0.003436 256.60056 268.54816
284.0 0.00352 256.60757 267.33691
269.0 0.00372 256.61569 266.37109
282.0 0.00355 256.62515 265.56958
303.0 0.003300 256.63571 264.88623
301.0 0.003322 256.64767 264.27234
259.0 0.00386 256.66074 263.70685
278.0 0.00360 256.67505 262.98340
258.0 0.00388 256.69055 262.52844
244.0 0.00410 256.70706 262.13324
267.0 0.00375 256.72504 261.79816
274.0 0.00365 256.74393 261.51956
273.0 0.00366 256.76434 261.28955
280.0 0.00357 256.78558 261.10025
279.0 0.00358 256.80804 260.86581
248.0 0.00403 256.83160 260.73813
284.0 0.00352 256.85638 260.63309
278.0 0.00360 256.88232 260.54758
242.0 0.00413 256.90930 260.47937
269.0 0.00372 256.93738 260.42715
259.0 0.00386 256.96649 260.38986
271.0 0.00369 256.99664 260.36673
289.0 0.003460 257.02795 260.35739
250.0 0.00400 257.06015 260.36139
276.0 0.00362 257.09360 260.37836
294.0 0.003401 257.12796 260.40866
251.0 0.00398 257.16342 260.45206
239.0 0.00418 257.19968 260.50919
244.0 0.00410 257.23706 260.77536
260.0 0.00385 257.27539 260.86658
262.0 0.00382 257.31464 260.97366
262.0 0.00382 257.35492 261.09790
258.0 0.00388 257.39603 261.24057
292.0 0.003425 257.43802 261.40356
272.0 0.00368 257.48102 261.58932
263.0 0.00380 257.52475 261.87360
281.0 0.00356 257.56949 262.11530
271.0 0.00369 257.61499 262.39001
252.0 0.00397 257.66141 262.70285
254.0 0.00394 257.70865 263.06039
268.0 0.00373 257.75647 263.47073
275.0 0.00364 257.80521 263.94440
255.0 0.00392 257.85483 264.49493
261.0 0.00383 257.90503 265.14072
289.0 0.003460 257.95605 265.90936
269.0 0.00372 258.00775 266.84827
257.0 0.00389 258.06024 268.05707
256.0 0.00391 258.11328 269.70300
246.0 0.00407 258.16699 272.17075
296.0 0.003378 258.22137 276.16959
291.0 0.003436 258.27634 282.89240
277.0 0.00361 258.33200 294.05557
296.0 0.003378 258.38821 311.66489
334.0 0.002994 258.44495 336.94705
368.0 0.002717 258.50226 370.99524
396.0 0.002525 258.56000 411.24448
393.0 0.002545 258.61832 452.38937
476.0 0.002101 258.67715 485.98770
411.0 0.002433 258.73642 502.78995
470.0 0.002128 258.79617 499.23596
528.0 0.001894 258.85638 481.70688
456.0 0.002193 258.91684 461.76053
429.0 0.002331 258.97784 448.28442
439.0 0.002278 259.03915 445.34009
427.0 0.002342 259.10077 451.55560
450.0 0.002222 259.16278 461.16241
441.0 0.002268 259.22501 467.05420
435.0 0.002299 259.28751 464.47476
437.0 0.002288 259.35037 452.48587
467.0 0.002141 259.41339 433.66705
432.0 0.002315 259.47668 411.81775
380.0 0.002632 259.54004 390.24036
370.0 0.002703 259.60367 371.48941
312.0 0.003205 259.66745 356.67157
325.0 0.003077 259.73138 345.00827
310.0 0.003226 259.79532 334.84085
327.0 0.003058 259.85944 325.06552
323.0 0.003096 259.92358 315.33191
329.0 0.003040 259.98782 305.68274
276.0 0.00362 260.05191 296.57599
256.0 0.00391 260.11621 288.64813
306.0 0.003268 260.18042 282.30588
279.0 0.00358 260.24445 277.61084
280.0 0.00357 260.30850 274.38208
254.0 0.00394 260.37256 272.31921
301.0 0.003322 260.43631 271.10629
267.0 0.00375 260.50006 270.47839
293.0 0.003413 260.56357 270.24588
296.0 0.003378 260.62692 270.29453
277.0 0.00361 260.69009 270.57108
274.0 0.00365 260.75302 271.07120
310.0 0.003226 260.81564 271.86984
275.0 0.00364 260.87805 273.03900
285.0 0.00351 260.94022 274.88660
249.0 0.00402 261.00192 278.20618
291.0 0.003436 261.06342 283.53210
253.0 0.00395 261.12454 292.64627
307.0 0.003257 261.18509 307.57996
329.0 0.003040 261.24545 330.38153
370.0 0.002703 261.30524 362.25204
392.0 0.002551 261.36465 402.37039
412.0 0.002427 261.42365 447.02798
466.0 0.002146 261.48199 488.72369
444.0 0.002252 261.54010 517.33417
486.0 0.002058 261.59753 524.10358
467.0 0.002141 261.65421 509.00745
514.0 0.001946 261.71045 481.26794
504.0 0.001984 261.76611 451.75903
438.0 0.002283 261.82104 427.55713
404.0 0.002475 261.87543 410.69684
353.0 0.002833 261.92911 398.71451
379.0 0.002639 261.98221 386.72131
350.0 0.002857 262.03452 371.26285
392.0 0.002551 262.08603 352.71967
368.0 0.002717 262.13687 333.66470
331.0 0.003021 262.18680 316.58905
296.0 0.003378 262.23608 303.08566
312.0 0.003205 262.28452 293.70090
282.0 0.00355 262.33212 288.10776
284.0 0.00352 262.37888 285.38321
252.0 0.00397 262.42480 284.34653
274.0 0.00365 262.46970 283.82266
293.0 0.003413 262.51382 282.94189
297.0 0.003367 262.55695 281.41632
285.0 0.00351 262.59912 279.53854
277.0 0.00361 262.64032 277.73929
313.0 0.003195 262.68057 276.31287
277.0 0.00361 262.71979 275.34967
260.0 0.00385 262.75793 274.75726
277.0 0.00361 262.79504 274.39859
258.0 0.00388 262.83105 274.10355
286.0 0.003497 262.86615 273.99747
271.0 0.00369 262.90009 274.25180
265.0 0.00377 262.93286 274.95663
274.0 0.00365 262.96448 275.87552
288.0 0.003472 262.99496 277.09756
260.0 0.00385 263.02426 278.03101
274.0 0.00365 263.05240 278.26895
275.0 0.00364 263.07944 277.66443
287.0 0.003484 263.10510 276.59286
260.0 0.00385 263.12964 275.36322
296.0 0.003378 263.15286 274.54117
282.0 0.00355 263.17487 273.87531
290.0 0.003448 263.19562 273.55923
284.0 0.00352 263.21500 273.25046
280.0 0.00357 263.23309 272.84760
264.0 0.00379 263.24994 272.31619
267.0 0.00375 263.26532 271.76831
288.0 0.003472 263.27933 271.30508
280.0 0.00357 263.29214 271.10410
263.0 0.00380 263.30353 271.04370
264.0 0.00379 263.31345 271.17230
279.0 0.00358 263.32202 271.50488
268.0 0.00373 263.32919 272.01608
304.0 0.003289 263.33496 272.72849
308.0 0.003247 263.33923 273.65613
261.0 0.00383 263.34207 274.87204
298.0 0.003356 263.34344 276.53473
287.0 0.003484 263.34335 278.95419
270.0 0.00370 263.34174 282.70157
289.0 0.003460 263.33875 288.74442
285.0 0.00351 263.33417 298.55856
314.0 0.003185 263.32813 314.12170
337.0 0.002967 263.32047 337.62201
370.0 0.002703 263.31131 370.78961
466.0 0.002146 263.30063 413.82205
487.0 0.002053 263.28842 464.20328
566.0 0.001767 263.27469 516.17743
517.0 0.001934 263.25928 561.19940
567.0 0.001764 263.24243 588.96100
551.0 0.001815 263.22388 591.52948
638.0 0.001567 263.20380 570.28888
634.0 0.001577 263.18216 535.98785
572.0 0.001748 263.15887 500.51703
478.0 0.002092 263.13400 471.23502
467.0 0.002141 263.10748 450.09692
389.0 0.002571 263.07947 434.59213
385.0 0.002597 263.04971 419.55420
391.0 0.002558 263.01834 400.85364
364.0 0.002747 262.98538 378.16000
400.0 0.002500 262.95084 354.57730
338.0 0.002959 262.91455 332.78180
330.0 0.003030 262.87665 314.65692
307.0 0.003257 262.83722 300.97284
323.0 0.003096 262.79611 291.57043
303.0 0.003300 262.75323 285.72650
293.0 0.003413 262.70886 282.45715
303.0 0.003300 262.66278 281.08307
280.0 0.00357 262.61496 280.88535
292.0 0.003425 262.56552 281.40033
269.0 0.00372 262.51450 282.28702
256.0 0.00391 262.46185 283.30176
287.0 0.003484 262.40741 284.37534
315.0 0.003175 262.35150 285.66541
281.0 0.00356 262.29382 287.40393
266.0 0.00376 262.23465 289.73148
313.0 0.003195 262.17368 292.50119
295.0 0.003390 262.11105 295.51895
280.0 0.00357 262.04694 298.69724
280.0 0.00357 261.98111 302.36404
324.0 0.003086 261.91354 307.23529
296.0 0.003378 261.84445 313.84824
314.0 0.003185 261.77368 322.13669
336.0 0.002976 261.70139 331.16342
322.0 0.003106 261.62732 339.26901
312.0 0.003205 261.55179 344.70441
340.0 0.002941 261.47458 347.27280
321.0 0.003115 261.39572 349.38013
335.0 0.002985 261.31540 355.15753
333.0 0.003003 261.23340 369.05313
336.0 0.002976 261.14978 395.11539
407.0 0.002457 261.06464 436.29535
430.0 0.002326 260.97787 493.43442
534.0 0.001873 260.88956 564.24255
713.0 0.001403 260.79974 642.35944
666.0 0.001502 260.70837 718.20343
783.0 0.001277 260.61542 779.31628
826.0 0.001211 260.52094 811.89587
840.0 0.001190 260.42502 807.13385
862.0 0.001160 260.32755 769.26477
814.0 0.001229 260.22845 713.40906
717.0 0.001395 260.12802 656.20465
609.0 0.001642 260.02603 608.15540
577.0 0.001733 259.92267 572.07709
468.0 0.002137 259.81772 544.41296
499.0 0.002004 259.71143 518.00299
510.0 0.001961 259.60358 486.99698
482.0 0.002075 259.49438 450.65375
452.0 0.002212 259.38376 412.32114
377.0 0.002653 259.27179 376.30490
319.0 0.003135 259.15833 345.66394
299.0 0.003344 259.04367 321.78000
314.0 0.003185 258.92743 304.57452
281.0 0.00356 258.81000 293.04083
254.0 0.00394 258.69119 285.83121
260.0 0.00385 258.57101 281.73285
256.0 0.00391 258.44962 279.92126
274.0 0.00365 258.32681 279.96878
284.0 0.00352 258.20285 281.70914
284.0 0.00352 258.07755 285.02280
272.0 0.00368 257.95108 289.62039
272.0 0.00368 257.82324 294.87045
314.0 0.003185 257.69431 299.68802
264.0 0.00379 257.56418 302.73944
335.0 0.002985 257.43286 302.85330
267.0 0.00375 257.30032 299.81860
317.0 0.003155 257.16666 295.34613
283.0 0.00353 257.03195 290.62619
266.0 0.00376 256.89600 286.66422
303.0 0.003300 256.75897 283.82135
266.0 0.00376 256.62094 281.85965
260.0 0.00385 256.48181 280.16830
270.0 0.00370 256.34161 278.11084
298.0 0.003356 256.20044 275.42456
286.0 0.003497 256.05823 272.54700
270.0 0.00370 255.91505 269.75681
256.0 0.00391 255.77089 267.32446
262.0 0.00382 255.62579 265.40692
257.0 0.00389 255.47975 264.04602
301.0 0.003322 255.33282 263.21368
259.0 0.00386 255.18504 262.87463
240.0 0.00417 255.03627 263.04263
258.0 0.00388 254.88676 263.82022
294.0 0.003401 254.73639 265.40048
264.0 0.00379 254.58514 268.02390
286.0 0.003497 254.43323 271.88370
298.0 0.003356 254.28043 276.99384
281.0 0.00356 254.12689 283.05972
320.0 0.003125 253.97270 289.40823
277.0 0.00361 253.81775 294.94608
321.0 0.003115 253.66216 298.42010
326.0 0.003067 253.50583 299.18201
321.0 0.003115 253.34886 297.83475
305.0 0.003279 253.19136 295.69980
315.0 0.003175 253.03325 293.89246
262.0 0.00382 252.87448 292.84149
287.0 0.003484 252.71515 292.37613
310.0 0.003226 252.55528 292.05255
283.0 0.00353 252.39502 291.55817
321.0 0.003115 252.23424 291.03906
296.0 0.003378 252.07291 291.20905
298.0 0.003356 251.91106 293.03458
275.0 0.00364 251.74895 297.58810
328.0 0.003049 251.58638 305.55914
310.0 0.003226 251.42342 317.19623
293.0 0.003413 251.26007 332.01221
305.0 0.003279 251.09637 348.62515
332.0 0.003012 250.93239 364.70499
326.0 0.003067 250.76811 377.46765
371.0 0.002695 250.60364 385.56027
407.0 0.002457 250.43881 390.39294
433.0 0.002309 250.27374 394.96851
417.0 0.002398 250.10852 400.78656
377.0 0.002653 249.94325 406.60114
408.0 0.002451 249.77762 409.41370
414.0 0.002415 249.61189 405.84763
424.0 0.002358 249.44604 394.95764
441.0 0.002268 249.28011 379.09006
364.0 0.002747 249.11418 361.82657
364.0 0.002747 248.94821 346.32779
334.0 0.002994 248.78210 333.98141
348.0 0.002874 248.61603 324.68265
302.0 0.003311 248.44992 316.57388
321.0 0.003115 248.28398 308.03174
347.0 0.002882 248.11798 298.62744
302.0 0.003311 247.95216 289.07205
312.0 0.003205 247.78641 280.22226
274.0 0.00365 247.62074 272.72620
258.0 0.00388 247.45537 266.83728
265.0 0.00377 247.29002 262.50336
276.0 0.00362 247.12494 259.36243
236.0 0.00424 246.95995 257.10153
256.0 0.00391 246.79529 255.47734
238.0 0.00420 246.63081 254.35483
271.0 0.00369 246.46675 253.69028
241.0 0.00415 246.30289 253.50566
234.0 0.00427 246.13933 253.85013
271.0 0.00369 245.97615 254.75089
253.0 0.00395 245.81331 256.16379
245.0 0.00408 245.65082 257.89258
248.0 0.00403 245.48877 259.69641
254.0 0.00394 245.32713 261.09421
265.0 0.00377 245.16594 261.60336
280.0 0.00357 245.00517 261.00363
248.0 0.00403 244.84500 259.54428
256.0 0.00391 244.68523 257.73709
273.0 0.00366 244.52596 256.03424
288.0 0.003472 244.36711 254.67775
251.0 0.00398 244.20903 253.73244
278.0 0.00360 244.05153 253.04323
235.0 0.00426 243.89444 252.36552
246.0 0.00407 243.73808 251.50932
246.0 0.00407 243.58226 250.45900
241.0 0.00415 243.42719 249.32622
287.0 0.003484 243.27271 248.23622
255.0 0.00392 243.11894 247.27751
230.0 0.00435 242.96591 246.49388
276.0 0.00362 242.81348 245.88908
262.0 0.00382 242.66188 245.43919
233.0 0.00429 242.51103 245.10823
251.0 0.00398 242.36087 244.86079
238.0 0.00420 242.21156 244.76759
250.0 0.00400 242.06299 244.61609
265.0 0.00377 241.91527 244.49156
241.0 0.00415 241.76837 244.38846
231.0 0.00433 241.62230 244.30498
229.0 0.00437 241.47708 244.20961
246.0 0.00407 241.33278 244.18089
238.0 0.00420 241.18933 244.16786
261.0 0.00383 241.04678 244.16962
274.0 0.00365 240.90518 244.23474
230.0 0.00435 240.76447 244.28432
228.0 0.00439 240.62466 244.37244
224.0 0.00446 240.48593 244.50258
264.0 0.00379 240.34807 244.67047
275.0 0.00364 240.21121 244.91444
247.0 0.00405 240.07533 245.25269
265.0 0.00377 239.94044 245.71645
247.0 0.00405 239.80656 246.39085
258.0 0.00388 239.67381 247.49480
260.0 0.00385 239.54199 249.08653
251.0 0.00398 239.41121 251.57878
253.0 0.00395 239.28154 255.40576
250.0 0.00400 239.15292 261.06186
262.0 0.00382 239.02544 268.93063
273.0 0.00366 238.89896 279.54828
306.0 0.003268 238.77359 292.68832
308.0 0.003247 238.64934 307.89648
337.0 0.002967 238.52612 324.14746
379.0 0.002639 238.40417 340.05258
359.0 0.002786 238.28326 354.89099
366.0 0.002732 238.16353 368.65082
380.0 0.002632 238.04483 380.69162
396.0 0.002525 237.92741 390.45474
371.0 0.002695 237.81113 397.91617
375.0 0.002667 237.69601 403.12863
335.0 0.002985 237.58199 404.73547
357.0 0.002801 237.46919 400.51285
407.0 0.002457 237.35753 389.93436
366.0 0.002732 237.24715 375.23584
340.0 0.002941 237.13788 359.31119
339.0 0.002950 237.02985 344.30579
309.0 0.003236 236.92294 331.34549
316.0 0.003165 236.81735 320.91400
311.0 0.003215 236.71288 312.37015
294.0 0.003401 236.60963 304.26450
305.0 0.003279 236.50758 295.44180
290.0 0.003448 236.40672 285.88870
289.0 0.003460 236.30714 276.41068
243.0 0.00412 236.20877 267.84937
271.0 0.00369 236.11160 260.76147
264.0 0.00379 236.01564 255.28905
226.0 0.00442 235.92093 251.35135
261.0 0.00383 235.82739 248.64433
255.0 0.00392 235.73512 246.82225
248.0 0.00403 235.64403 245.47812
249.0 0.00402 235.55415 244.44188
283.0 0.00353 235.46550 243.61624
230.0 0.00435 235.37807 242.95168
254.0 0.00394 235.29190 242.45911
225.0 0.00444 235.20686 242.12094
231.0 0.00433 235.12306 241.93253
279.0 0.00358 235.04047 241.88994
222.0 0.00450 234.95914 242.01173
253.0 0.00395 234.87889 242.29575
219.0 0.00457 234.79996 242.82533
262.0 0.00382 234.72217 243.74121
234.0 0.00427 234.64558 245.31619
254.0 0.00394 234.57016 247.96725
258.0 0.00388 234.49593 252.28275
265.0 0.00377 234.42285 258.95163
234.0 0.00427 234.35088 268.58557
284.0 0.00352 234.28020 281.44867
331.0 0.003021 234.21066 297.14911
317.0 0.003155 234.14221 314.39566
314.0 0.003185 234.07498 330.84686
343.0 0.002915 234.00880 343.26483
354.0 0.002825 233.94377 348.71216
413.0 0.002421 233.87993 346.73758
361.0 0.002770 233.81711 339.96545
339.0 0.002950 233.75551 331.94901
334.0 0.002994 233.69492 325.23099
312.0 0.003205 233.63539 320.64450
332.0 0.003012 233.57697 317.48584
337.0 0.002967 233.51964 314.17337
317.0 0.003155 233.46338 309.18024
318.0 0.003145 233.40816 301.91254
338.0 0.002959 233.35403 293.05215
292.0 0.003425 233.30089 283.94479
296.0 0.003378 233.24876 275.70709
274.0 0.00365 233.19763 268.89438
288.0 0.003472 233.14752 263.51175
240.0 0.00417 233.09840 259.24789
259.0 0.00386 233.05028 255.79689
237.0 0.00422 233.00305 253.02090
261.0 0.00383 232.95680 250.90994
263.0 0.00380 232.91156 249.51476
288.0 0.003472 232.86716 248.94165
267.0 0.00375 232.82368 249.38832
230.0 0.00435 232.78113 251.19972
265.0 0.00377 232.73950 254.88911
253.0 0.00395 232.69870 261.16888
267.0 0.00375 232.65874 270.82153
312.0 0.003205 232.61972 284.47433
283.0 0.00353 232.58141 302.25803
355.0 0.002817 232.54401 323.66321
395.0 0.002532 232.50737 347.05136
384.0 0.002604 232.47156 369.72186
406.0 0.002463 232.43651 388.24945
425.0 0.002353 232.40222 400.56592
463.0 0.002160 232.36862 407.59732
480.0 0.002083 232.33583 412.58929
450.0 0.002222 232.30376 417.95853
388.0 0.002577 232.27237 423.93884
412.0 0.002427 232.24159 428.15787
437.0 0.002288 232.21159 427.86423
397.0 0.002519 232.18217 421.47299
448.0 0.002232 232.15344 408.86407
408.0 0.002451 232.12524 391.50717
400.0 0.002500 232.09776 372.55124
357.0 0.002801 232.07080 355.24014
318.0 0.003145 232.04443 341.42807
273.0 0.00366 232.01857 331.50668
334.0 0.002994 231.99333 324.86887
315.0 0.003175 231.96857 321.03824
315.0 0.003175 231.94429 319.95828
371.0 0.002695 231.92053 321.65060
310.0 0.003226 231.89723 325.90500
337.0 0.002967 231.87434 331.90753
349.0 0.002865 231.85194 337.84344
363.0 0.002755 231.82994 340.99200
318.0 0.003145 231.80833 338.99179
325.0 0.003077 231.78714 331.56396
351.0 0.002849 231.76625 321.05469
354.0 0.002825 231.74573 310.54221
302.0 0.003311 231.72562 302.45132
274.0 0.00365 231.70573 298.13321
299.0 0.003344 231.68617 297.79587
281.0 0.00356 231.66690 300.56894
294.0 0.003401 231.64781 304.81339
303.0 0.003300 231.62910 308.86301
312.0 0.003205 231.61050 311.52972
316.0 0.003165 231.59218 311.99707
308.0 0.003247 231.57399 309.37967
306.0 0.003268 231.55594 303.32349
278.0 0.00360 231.53813 294.77792
287.0 0.003484 231.52048 285.56934
276.0 0.00362 231.50282 277.29919
230.0 0.00435 231.48534 270.90695
236.0 0.00424 231.46796 266.59277
269.0 0.00372 231.45065 263.92725
243.0 0.00412 231.43338 262.04324
247.0 0.00405 231.41609 259.85635
263.0 0.00380 231.39880 257.07571
260.0 0.00385 231.38158 253.58243
257.0 0.00389 231.36427 249.87383
260.0 0.00385 231.34703 246.38057
233.0 0.00429 231.32964 243.41490
254.0 0.00394 231.31215 241.13148
218.0 0.00459 231.29468 239.60994
246.0 0.00407 231.27705 238.84824
221.0 0.00452 231.25929 238.76968
229.0 0.00437 231.24139 239.44676
227.0 0.00441 231.22337 240.76530
239.0 0.00418 231.20520 242.66452
239.0 0.00418 231.18674 244.97047
237.0 0.00422 231.16818 247.37486
249.0 0.00402 231.14934 249.46080
254.0 0.00394 231.13026 250.60793
260.0 0.00385 231.11099 250.50417
238.0 0.00420 231.09146 249.25883
237.0 0.00422 231.07156 247.38031
230.0 0.00435 231.05147 245.42538
237.0 0.00422 231.03096 243.78479
222.0 0.00450 231.01019 242.63101
215.0 0.00465 230.98911 241.93076
261.0 0.00383 230.96762 241.50290
245.0 0.00408 230.94579 241.04233
223.0 0.00448 230.92357 240.38560
222.0 0.00450 230.90096 239.57008
230.0 0.00435 230.87791 238.74060
218.0 0.00459 230.85451 238.10703
222.0 0.00450 230.83069 237.82471
244.0 0.00410 230.80630 237.97791
232.0 0.00431 230.78156 238.56273
249.0 0.00402 230.75624 239.47707
240.0 0.00417 230.73045 240.52069
268.0 0.00373 230.70430 241.46269
261.0 0.00383 230.67747 241.89496
258.0 0.00388 230.65021 241.68831
240.0 0.00417 230.62244 240.93964
220.0 0.00455 230.59409 239.92421
264.0 0.00379 230.56516 238.91832
244.0 0.00410 230.53569 238.10539
220.0 0.00455 230.50568 237.55569
221.0 0.00452 230.47504 237.23459
228.0 0.00439 230.44380 237.04535
229.0 0.00437 230.41197 236.80063
225.0 0.00444 230.37955 236.42697
240.0 0.00417 230.34645 235.93851
238.0 0.00420 230.31274 235.40417
236.0 0.00424 230.27844 234.90076
231.0 0.00433 230.24344 234.48381
242.0 0.00413 230.20782 234.12006
228.0 0.00439 230.17157 233.94681
203.0 0.00493 230.13454 233.89369
243.0 0.00412 230.09689 233.88892
210.0 0.00476 230.05853 234.05603
225.0 0.00444 230.01953 234.38045
256.0 0.00391 229.97980 234.84692
236.0 0.00424 229.93939 235.58847
246.0 0.00407 229.89824 236.77812
231.0 0.00433 229.85643 238.64952
206.0 0.00485 229.81383 241.58130
237.0 0.00422 229.77057 245.88887
245.0 0.00408 229.72659 251.86305
251.0 0.00398 229.68182 259.52951
277.0 0.00361 229.63631 268.55151
298.0 0.003356 229.59010 278.09790
310.0 0.003226 229.54317 286.79034
311.0 0.003215 229.49547 292.78473
325.0 0.003077 229.44698 294.74792
320.0 0.003125 229.39780 292.54587
332.0 0.003012 229.34790 287.65338
289.0 0.003460 229.29720 282.04257
291.0 0.003436 229.24574 277.31393
251.0 0.00398 229.19359 274.35593
263.0 0.00380 229.14056 273.31610
271.0 0.00369 229.08691 273.62167
254.0 0.00394 229.03239 274.30405
296.0 0.003378 228.97720 274.41574
287.0 0.003484 228.92128 273.73019
278.0 0.00360 228.86453 272.74109
285.0 0.00351 228.80704 272.29559
294.0 0.003401 228.74889 272.97009
279.0 0.00358 228.68991 275.10883
255.0 0.00392 228.63022 278.89917
290.0 0.003448 228.56975 284.51263
285.0 0.00351 228.50859 291.97333
300.0 0.003333 228.44669 300.82227
329.0 0.003040 228.38402 309.99857
280.0 0.00357 228.32062 317.58667
323.0 0.003096 228.25647 321.60226
308.0 0.003247 228.19174 320.57211
299.0 0.003344 228.12627 314.81284
304.0 0.003289 228.05994 306.31161
305.0 0.003279 227.99303 297.50635
277.0 0.00361 227.92540 290.35324
269.0 0.00372 227.85712 286.00696
274.0 0.00365 227.78804 284.81992
251.0 0.00398 227.71837 286.35196
290.0 0.003448 227.64801 289.73813
320.0 0.003125 227.57693 293.99335
288.0 0.003472 227.50529 298.44913
307.0 0.003257 227.43300 302.62918
313.0 0.003195 227.36002 305.72818
291.0 0.003436 227.28641 306.46313
310.0 0.003226 227.21217 303.75580
314.0 0.003185 227.13733 297.78677
286.0 0.003497 227.06194 290.11209
294.0 0.003401 226.98592 282.58493
286.0 0.003497 226.90923 276.62482
261.0 0.00383 226.83209 272.98947
284.0 0.00352 226.75429 271.78827
280.0 0.00357 226.67598 272.49136
259.0 0.00386 226.59709 274.16565
285.0 0.00351 226.51772 275.82858
281.0 0.00356 226.43787 276.98062
300.0 0.003333 226.35747 277.69614
292.0 0.003425 226.27652 278.43152
295.0 0.003390 226.19507 279.92523
301.0 0.003322 226.11319 283.02158
283.0 0.00353 226.03087 288.22083
333.0 0.003003 225.94803 295.29980
321.0 0.003115 225.86485 303.16364
279.0 0.00358 225.78120 309.94797
290.0 0.003448 225.69714 313.54651
331.0 0.003021 225.61263 312.86639
307.0 0.003257 225.52777 308.83469
296.0 0.003378 225.44258 303.84946
313.0 0.003195 225.35701 300.56744
300.0 0.003333 225.27112 301.07114
288.0 0.003472 225.18492 306.46317
309.0 0.003236 225.09833 316.62933
313.0 0.003195 225.01152 330.13312
297.0 0.003367 224.92439 344.34335
328.0 0.003049 224.83694 355.90442
328.0 0.003049 224.74933 361.50089
339.0 0.002950 224.66142 358.97986
363.0 0.002755 224.57332 348.79938
348.0 0.002874 224.48503 333.98660
342.0 0.002924 224.39647 318.27551
304.0 0.003289 224.30783 304.52209
289.0 0.003460 224.21901 294.23291
257.0 0.00389 224.13004 287.59741
265.0 0.00377 224.04094 283.69012
256.0 0.00391 223.95171 280.82135
249.0 0.00402 223.86235 277.22659
287.0 0.003484 223.77296 271.99539
239.0 0.00418 223.68355 265.39130
239.0 0.00418 223.59410 258.28421
243.0 0.00412 223.50452 251.53117
236.0 0.00424 223.41496 245.73792
221.0 0.00452 223.32542 241.23384
227.0 0.00441 223.23599 238.10173
253.0 0.00395 223.14645 236.24184
249.0 0.00402 223.05705 235.44560
216.0 0.00463 222.96765 235.45543
253.0 0.00395 222.87848 235.99763
256.0 0.00391 222.78932 236.79350
241.0 0.00415 222.70024 237.67506
248.0 0.00403 222.61139 238.30475
283.0 0.00353 222.52260 238.70642
274.0 0.00365 222.43408 238.85638
246.0 0.00407 222.34572 238.70030
214.0 0.00467 222.25757 238.23363
248.0 0.00403 222.16963 237.59637
258.0 0.00388 222.08189 237.03871
244.0 0.00410 221.99448 236.84496
243.0 0.00412 221.90732 237.21347
256.0 0.00391 221.82048 238.56303
282.0 0.00355 221.73389 241.15565
240.0 0.00417 221.64760 245.47304
229.0 0.00437 221.56175 251.83539
278.0 0.00360 221.47623 260.39426
279.0 0.00358 221.39095 270.94159
297.0 0.003367 221.30617 282.79449
285.0 0.00351 221.22177 294.56876
294.0 0.003401 221.13783 304.18744
342.0 0.002924 221.05432 309.26779
329.0 0.003040 220.97122 308.37939
354.0 0.002825 220.88864 302.20352
336.0 0.002976 220.80644 293.02414
316.0 0.003165 220.72481 283.49301
277.0 0.00361 220.64372 275.36533
274.0 0.00365 220.56305 269.53976
257.0 0.00389 220.48300 266.01480
257.0 0.00389 220.40355 264.02753
262.0 0.00382 220.32460 262.32193
261.0 0.00383 220.24631 259.71646
279.0 0.00358 220.16849 255.74014
288.0 0.003472 220.09138 250.73903
288.0 0.003472 220.01482 245.47443
247.0 0.00405 219.93900 240.58611
252.0 0.00397 219.86375 236.54034
211.0 0.00474 219.78925 233.60251
247.0 0.00405 219.71536 231.81252
258.0 0.00388 219.64221 231.19829
245.0 0.00408 219.56970 231.53377
249.0 0.00402 219.49796 232.55263
239.0 0.00418 219.42688 233.91585
257.0 0.00389 219.35661 235.21071
255.0 0.00392 219.28702 235.98959
259.0 0.00386 219.21825 235.91753
240.0 0.00417 219.15022 234.97719
230.0 0.00435 219.08299 233.45515
252.0 0.00397 219.01659 231.79419
209.0 0.00478 218.95088 230.30362
211.0 0.00474 218.88611 229.15924
215.0 0.00465 218.82210 228.43576
206.0 0.00485 218.75899 228.04053
235.0 0.00426 218.69658 227.79860
225.0 0.00444 218.63512 227.56619
225.0 0.00444 218.57443 227.09140
263.0 0.00380 218.51469 226.43362
227.0 0.00441 218.45584 225.61693
234.0 0.00427 218.39778 224.83113
249.0 0.00402 218.34064 224.07246
203.0 0.00493 218.28448 223.39343
233.0 0.00429 218.22911 222.82245
240.0 0.00417 218.17467 222.37885
191.0 0.00524 218.12111 222.08659
223.0 0.00448 218.06851 221.88791
223.0 0.00448 218.01678 221.78572
228.0 0.00439 217.96605 221.73708
229.0 0.00437 217.91620 221.76059
204.0 0.00490 217.86729 221.81525
237.0 0.00422 217.81935 221.80434
215.0 0.00465 217.77228 221.90045
205.0 0.00488 217.72624 222.02634
251.0 0.00398 217.68108 222.19434
220.0 0.00455 217.63689 222.48123
248.0 0.00403 217.59360 222.77437
221.0 0.00452 217.55138 223.15269
228.0 0.00439 217.50996 223.64082
199.0 0.00503 217.46959 224.28130
243.0 0.00412 217.43011 225.12016
221.0 0.00452 217.39172 226.36487
203.0 0.00493 217.35414 228.22791
241.0 0.00415 217.31754 231.10300
199.0 0.00503 217.28186 235.58601
230.0 0.00435 217.24716 242.36177
232.0 0.00431 217.21344 252.24901
268.0 0.00373 217.18062 265.90121
276.0 0.00362 217.14874 283.55533
296.0 0.003378 217.11777 304.72318
336.0 0.002976 217.08780 327.91635
324.0 0.003086 217.05869 350.47739
382.0 0.002618 217.03052 368.62320
379.0 0.002639 217.00331 378.36105
381.0 0.002625 216.97702 377.72568
459.0 0.002179 216.95158 368.50122
386.0 0.002591 216.92706 355.07318
344.0 0.002907 216.90341 341.85187
308.0 0.003247 216.88068 331.92572
291.0 0.003436 216.85887 326.29529
273.0 0.00366 216.83786 324.53003
321.0 0.003115 216.81776 324.65924
306.0 0.003268 216.79854 323.95193
321.0 0.003115 216.78012 320.14447
352.0 0.002841 216.76259 312.48175
317.0 0.003155 216.74593 301.81180
296.0 0.003378 216.72998 289.81671
289.0 0.003460 216.71487 278.17133
249.0 0.00402 216.70058 268.11292
243.0 0.00412 216.68707 260.10751
242.0 0.00413 216.67435 254.11899
252.0 0.00397 216.66240 249.64738
243.0 0.00412 216.65120 246.14037
240.0 0.00417 216.64079 242.88693
243.0 0.00412 216.63109 239.83385
230.0 0.00435 216.62213 236.83592
220.0 0.00455 216.61377 233.97244
235.0 0.00426 216.60623 231.39014
251.0 0.00398 216.59933 229.20872
227.0 0.00441 216.59303 227.47539
234.0 0.00427 216.58745 226.16231
214.0 0.00467 216.58244 225.18556
220.0 0.00455 216.57811 224.44165
219.0 0.00457 216.57439 223.83368
191.0 0.00524 216.57123 223.31876
229.0 0.00437 216.56868 222.88692
241.0 0.00415 216.56668 222.54478
221.0 0.00452 216.56523 222.29378
222.0 0.00450 216.56422 222.14510
220.0 0.00455 216.56381 222.09805
226.0 0.00442 216.56387 222.16298
227.0 0.00441 216.56436 222.35632
227.0 0.00441 216.56538 222.71521
218.0 0.00459 216.56679 223.31349
225.0 0.00444 216.56862 224.30392
232.0 0.00431 216.57086 225.84262
214.0 0.00467 216.57346 228.22078
231.0 0.00433 216.57645 231.79034
245.0 0.00408 216.57980 236.86781
233.0 0.00429 216.58345 243.66615
259.0 0.00386 216.58743 252.15958
270.0 0.00370 216.59160 261.95648
266.0 0.00376 216.59608 272.19641
286.0 0.003497 216.60088 281.49991
294.0 0.003401 216.60583 288.08685
261.0 0.00383 216.61104 290.34314
322.0 0.003106 216.61632 287.92969
311.0 0.003215 216.62187 282.08063
342.0 0.002924 216.62747 274.78616
252.0 0.00397 216.63333 267.82144
246.0 0.00407 216.63914 262.35596
255.0 0.00392 216.64513 258.91107
246.0 0.00407 216.65106 257.43445
258.0 0.00388 216.65717 257.38843
271.0 0.00369 216.66325 257.98935
256.0 0.00391 216.66928 258.65607
248.0 0.00403 216.67532 259.39526
261.0 0.00383 216.68129 260.81030
245.0 0.00408 216.68718 263.64197
277.0 0.00361 216.69290 268.33273
257.0 0.00389 216.69861 274.79608
269.0 0.00372 216.70418 282.31311
287.0 0.003484 216.70955 289.50269
273.0 0.00366 216.71475 294.47382
309.0 0.003236 216.71976 295.52771
286.0 0.003497 216.72446 292.19424
311.0 0.003215 216.72900 285.63513
285.0 0.00351 216.73326 277.77518
281.0 0.00356 216.73720 270.33371
272.0 0.00368 216.74080 264.42960
250.0 0.00400 216.74408 260.52838
247.0 0.00405 216.74702 258.49661
226.0 0.00442 216.74954 257.65100
233.0 0.00429 216.75172 257.03955
251.0 0.00398 216.75345 255.88570
255.0 0.00392 216.75473 253.74158
268.0 0.00373 216.75546 251.10364
265.0 0.00377 216.75583 248.76248
236.0 0.00424 216.75562 247.58414
219.0 0.00457 216.75494 248.39624
225.0 0.00444 216.75359 251.93100
268.0 0.00373 216.75174 258.74026
292.0 0.003425 216.74928 268.90866
257.0 0.00389 216.74620 282.46622
295.0 0.003390 216.74257 298.45218
293.0 0.003413 216.73817 315.19473
347.0 0.002882 216.73318 330.32043
358.0 0.002793 216.72746 340.92496
356.0 0.002809 216.72105 344.75546
377.0 0.002653 216.71387 341.70425
373.0 0.002681 216.70593 333.92407
351.0 0.002849 216.69727 324.40421
299.0 0.003344 216.68782 315.81192
307.0 0.003257 216.67757 310.15344
294.0 0.003401 216.66646 308.48044
315.0 0.003175 216.65453 311.06934
325.0 0.003077 216.64168 317.23865
323.0 0.003096 216.62807 325.47137
354.0 0.002825 216.61346 333.86234
380.0 0.002632 216.59798 340.70557
336.0 0.002976 216.58162 344.41769
327.0 0.003058 216.56424 343.53357
348.0 0.002874 216.54597 337.15198
362.0 0.002762 216.52676 325.99646
366.0 0.002732 216.50642 312.26636
334.0 0.002994 216.48520 298.49039
271.0 0.00369 216.46294 286.57996
246.0 0.00407 216.43959 277.58908
239.0 0.00418 216.41530 271.74405
291.0 0.003436 216.38989 268.57489
273.0 0.00366 216.36342 267.03110
262.0 0.00382 216.33588 265.81381
250.0 0.00400 216.30727 263.84958
282.0 0.00355 216.27751 260.78229
282.0 0.00355 216.24672 256.95630
264.0 0.00379 216.21474 252.99268
282.0 0.00355 216.18161 249.47365
248.0 0.00403 216.14738 246.84111
247.0 0.00405 216.11206 245.36229
251.0 0.00398 216.07545 245.11586
230.0 0.00435 216.03773 245.96991
241.0 0.00415 215.99895 247.55309
223.0 0.00448 215.95883 249.25879
243.0 0.00412 215.91757 250.39497
250.0 0.00400 215.87514 250.20039
245.0 0.00408 215.83150 248.57072
231.0 0.00433 215.78667 245.88998
240.0 0.00417 215.74057 242.78870
270.0 0.00370 215.69330 239.83812
233.0 0.00429 215.64479 237.43883
235.0 0.00426 215.59515 235.80560
232.0 0.00431 215.54419 234.96992
246.0 0.00407 215.49202 234.80702
259.0 0.00386 215.43866 235.12015
207.0 0.00483 215.38405 235.60753
220.0 0.00455 215.32819 236.38216
235.0 0.00426 215.27112 237.52548
225.0 0.00444 215.21288 239.20808
231.0 0.00433 215.15338 241.46912
236.0 0.00424 215.09264 244.13228
236.0 0.00424 215.03069 246.77687
258.0 0.00388 214.96750 248.78294
245.0 0.00408 214.90318 249.52362
266.0 0.00376 214.83749 248.69501
295.0 0.003390 214.77075 246.50085
278.0 0.00360 214.70271 243.60938
227.0 0.00441 214.63354 240.68565
246.0 0.00407 214.56316 238.26057
199.0 0.00503 214.49159 236.64162
224.0 0.00446 214.41890 235.92751
236.0 0.00424 214.34499 236.05128
244.0 0.00410 214.26988 236.85405
236.0 0.00424 214.19370 238.23308
245.0 0.00408 214.11632 240.14592
243.0 0.00412 214.03786 243.09216
228.0 0.00439 213.95827 247.55627
265.0 0.00377 213.87759 254.10898
249.0 0.00402 213.79575 262.95795
268.0 0.00373 213.71292 273.98828
276.0 0.00362 213.62898 286.47491
301.0 0.003322 213.54396 299.06281
309.0 0.003236 213.45793 309.87613
279.0 0.00358 213.37083 316.80804
367.0 0.002725 213.28284 318.15710
347.0 0.002882 213.19370 313.67459
359.0 0.002786 213.10364 304.88370
313.0 0.003195 213.01262 294.28409
286.0 0.003497 212.92067 284.04077
263.0 0.00380 212.82779 275.65109
247.0 0.00405 212.73395 269.73615
250.0 0.00400 212.63928 266.15515
249.0 0.00402 212.54369 264.16022
247.0 0.00405 212.44731 262.65619
269.0 0.00372 212.35005 260.47955
246.0 0.00407 212.25203 256.97006
251.0 0.00398 212.15321 252.21107
274.0 0.00365 212.05354 246.83217
250.0 0.00400 211.95320 241.47934
226.0 0.00442 211.85216 236.92834
233.0 0.00429 211.75034 233.47511
215.0 0.00465 211.64790 231.31577
261.0 0.00383 211.54486 230.49861
233.0 0.00429 211.44102 230.92220
221.0 0.00452 211.33672 232.39944
252.0 0.00397 211.23181 234.65205
213.0 0.00469 211.12639 237.27698
232.0 0.00431 211.02037 239.72383
237.0 0.00422 210.91393 241.29745
284.0 0.00352 210.80695 241.51440
249.0 0.00402 210.69955 240.19560
241.0 0.00415 210.59178 237.71666
227.0 0.00441 210.48355 234.63515
234.0 0.00427 210.37500 231.68143
233.0 0.00429 210.26608 229.17699
231.0 0.00433 210.15689 227.32066
244.0 0.00410 210.04742 226.12228
209.0 0.00478 209.93767 225.41716
226.0 0.00442 209.82782 224.90923
214.0 0.00467 209.71768 224.26605
226.0 0.00442 209.60744 223.26833
238.0 0.00420 209.49704 221.90862
241.0 0.00415 209.38655 220.30641
248.0 0.00403 209.27606 218.70479
219.0 0.00457 209.16550 217.21867
236.0 0.00424 209.05490 215.93781
217.0 0.00461 208.94440 214.91144
199.0 0.00503 208.83391 214.14001
224.0 0.00446 208.72354 213.59660
228.0 0.00439 208.61334 213.24925
252.0 0.00397 208.50328 213.05669
206.0 0.00485 208.39339 212.98863
234.0 0.00427 208.28372 213.02832
220.0 0.00455 208.17439 213.17657
190.0 0.00526 208.06534 213.43443
190.0 0.00526 207.95657 213.90479
210.0 0.00476 207.84821 214.66888
213.0 0.00469 207.74017 215.89204
218.0 0.00459 207.63266 217.81407
224.0 0.00446 207.52553 220.75262
197.0 0.00508 207.41890 225.06618
226.0 0.00442 207.31281 231.08827
236.0 0.00424 207.20728 239.02388
244.0 0.00410 207.10237 248.82086
244.0 0.00410 206.99811 260.04709
254.0 0.00394 206.89442 271.82257
237.0 0.00422 206.79141 282.69443
266.0 0.00376 206.68924 290.76056
271.0 0.00369 206.58775 294.18829
310.0 0.003226 206.48715 292.24490
295.0 0.003390 206.38724 285.89001
297.0 0.003367 206.28824 277.16440
252.0 0.00397 206.19011 268.11578
240.0 0.00417 206.09294 260.26254
243.0 0.00412 205.99675 254.45103
253.0 0.00395 205.90147 250.84853
226.0 0.00442 205.80724 249.06178
226.0 0.00442 205.71404 248.23376
256.0 0.00391 205.62187 247.27727
256.0 0.00391 205.53094 245.27765
238.0 0.00420 205.44104 241.94450
252.0 0.00397 205.35233 237.61636
252.0 0.00397 205.26488 232.89310
220.0 0.00455 205.17856 228.33781
219.0 0.00457 205.09355 224.38451
217.0 0.00461 205.00977 221.24117
214.0 0.00467 204.92740 219.06941
224.0 0.00446 204.84628 217.93680
197.0 0.00508 204.76659 217.92813
217.0 0.00461 204.68828 219.04221
232.0 0.00431 204.61137 221.42554
211.0 0.00474 204.53598 225.25151
246.0 0.00407 204.46191 230.58292
257.0 0.00389 204.38951 237.39276
238.0 0.00420 204.31859 245.71251
268.0 0.00373 204.24918 254.99834
268.0 0.00373 204.18135 264.45966
319.0 0.003135 204.11507 273.05450
280.0 0.00357 204.05046 279.76306
319.0 0.003135 203.98747 283.88788
319.0 0.003135 203.92616 285.00793
281.0 0.00356 203.86664 283.14481
265.0 0.00377 203.80867 279.06537
277.0 0.00361 203.75244 274.08939
289.0 0.003460 203.69801 269.78516
279.0 0.00358 203.64529 267.17075
253.0 0.00395 203.59441 266.66156
257.0 0.00389 203.54529 268.06183
260.0 0.00385 203.49800 270.70941
271.0 0.00369 203.45251 273.67139
299.0 0.003344 203.40889 275.91507
274.0 0.00365 203.36711 276.51083
303.0 0.003300 203.32716 275.04633
290.0 0.003448 203.28922 271.88080
250.0 0.00400 203.25310 267.77771
285.0 0.00351 203.21892 263.36545
247.0 0.00405 203.18665 258.88965
241.0 0.00415 203.15630 254.35378
260.0 0.00385 203.12788 249.79100
264.0 0.00379 203.10149 245.44788
246.0 0.00407 203.07700 241.48227
231.0 0.00433 203.05449 237.91722
233.0 0.00429 203.03387 234.66258
249.0 0.00402 203.01534 231.66304
199.0 0.00503 202.99881 228.93805
216.0 0.00463 202.98424 226.53893
231.0 0.00433 202.97162 224.33730
212.0 0.00472 202.96101 222.22351
242.0 0.00413 202.95236 220.06464
215.0 0.00465 202.94580 217.87068
232.0 0.00431 202.94115 215.72643
204.0 0.00490 202.93855 213.74722
224.0 0.00446 202.93794 212.00975
206.0 0.00485 202.93930 210.54433
205.0 0.00488 202.94264 209.34506
216.0 0.00463 202.94804 208.38646
218.0 0.00459 202.95532 207.64816
204.0 0.00490 202.96461 207.07068
225.0 0.00444 202.97592 206.65805
219.0 0.00457 202.98914 206.32648
208.0 0.00481 203.00430 206.07608
225.0 0.00444 203.02141 205.88692
195.0 0.00513 203.04051 205.74443
215.0 0.00465 203.06148 205.63818
189.0 0.00529 203.08435 205.56007
229.0 0.00437 203.10915 205.50459
222.0 0.00450 203.13582 205.46742
209.0 0.00478 203.16437 205.44566
180.0 0.00556 203.19478 205.43736
235.0 0.00426 203.22701 205.44083
203.0 0.00493 203.26106 205.46535
201.0 0.00498 203.29691 205.49005
202.0 0.00495 203.33458 205.52463
216.0 0.00463 203.37399 205.56882
194.0 0.00515 203.41516 205.62224
207.0 0.00483 203.45805 205.68517
183.0 0.00546 203.50262 205.75774
215.0 0.00465 203.54892 205.83995
197.0 0.00508 203.59685 205.93248
223.0 0.00448 203.64641 206.03555
201.0 0.00498 203.69760 206.14990
203.0 0.00493 203.75034 206.27635
209.0 0.00478 203.80470 206.41585
181.0 0.00552 203.86053 206.56960
226.0 0.00442 203.91792 206.73912
223.0 0.00448 203.97672 206.92650
240.0 0.00417 204.03705 207.13457
236.0 0.00424 204.09875 207.36703
183.0 0.00546 204.16180 207.62961
214.0 0.00467 204.22627 207.93073
203.0 0.00493 204.29198 208.28300
235.0 0.00426 204.35910 208.70416
199.0 0.00503 204.42744 209.15776
203.0 0.00493 204.49693 209.80174
221.0 0.00452 204.56766 210.61525
252.0 0.00397 204.63954 211.64981
223.0 0.00448 204.71255 212.96541
234.0 0.00427 204.78668 214.63242
223.0 0.00448 204.86176 216.73123
225.0 0.00444 204.93788 219.35284
241.0 0.00415 205.01503 222.60248
234.0 0.00427 205.09308 226.56410
235.0 0.00426 205.17203 231.34766
200.0 0.00500 205.25182 237.18217
234.0 0.00427 205.33241 244.25005
234.0 0.00427 205.41379 252.69901
250.0 0.00400 205.49594 262.47433
288.0 0.003472 205.57878 273.26636
272.0 0.00368 205.66217 284.59711
291.0 0.003436 205.74629 296.01208
319.0 0.003135 205.83086 307.07269
324.0 0.003086 205.91606 317.15021
287.0 0.003484 206.00175 325.19717
324.0 0.003086 206.08780 330.36981
360.0 0.002778 206.17426 332.08121
322.0 0.003106 206.26109 330.28772
331.0 0.003021 206.34825 325.44769
351.0 0.002849 206.43567 318.51102
303.0 0.003300 206.52325 310.56073
318.0 0.003145 206.61110 302.52658
261.0 0.00383 206.69904 295.17920
296.0 0.003378 206.78709 289.04361
292.0 0.003425 206.87512 284.31293
244.0 0.00410 206.96321 280.61728
255.0 0.00392 207.05121 277.39969
270.0 0.00370 207.13914 274.03802
257.0 0.00389 207.22694 270.12167
258.0 0.00388 207.31454 265.44247
303.0 0.003300 207.40196 260.13913
275.0 0.00364 207.48903 254.48808
238.0 0.00420 207.57585 248.75420
251.0 0.00398 207.66226 243.19559
236.0 0.00424 207.74832 238.07510
227.0 0.00441 207.83386 233.65550
226.0 0.00442 207.91899 230.06709
238.0 0.00420 208.00351 227.30029
222.0 0.00450 208.08749 225.37245
221.0 0.00452 208.17084 224.20271
229.0 0.00437 208.25345 223.73289
228.0 0.00439 208.33546 223.90828
247.0 0.00405 208.41666 224.82689
206.0 0.00485 208.49710 226.52983
218.0 0.00459 208.57663 229.09770
231.0 0.00433 208.65532 232.52397
239.0 0.00418 208.73311 236.73250
246.0 0.00407 208.80991 241.51537
213.0 0.00469 208.88571 246.38599
249.0 0.00402 208.96042 250.71236
249.0 0.00402 209.03418 253.68303
291.0 0.003436 209.10667 254.63516
235.0 0.00426 209.17809 253.40891
265.0 0.00377 209.24832 250.60283
235.0 0.00426 209.31723 247.19745
208.0 0.00481 209.38503 244.12370
226.0 0.00442 209.45135 242.11118
230.0 0.00435 209.51639 241.60666
225.0 0.00444 209.58011 242.76958
217.0 0.00461 209.64232 245.45895
223.0 0.00448 209.70313 249.21297
229.0 0.00437 209.76247 253.31454
280.0 0.00357 209.82027 256.88785
265.0 0.00377 209.87657 259.09146
250.0 0.00400 209.93126 259.27826
269.0 0.00372 209.98434 257.25079
258.0 0.00388 210.03584 253.36089
286.0 0.003497 210.08565 248.38454
225.0 0.00444 210.13377 243.18135
240.0 0.00417 210.18010 238.45012
242.0 0.00413 210.22482 234.61226
211.0 0.00474 210.26767 231.85228
248.0 0.00403 210.30882 230.12399
227.0 0.00441 210.34810 229.20424
213.0 0.00469 210.38560 228.74176
205.0 0.00488 210.42123 228.31218
222.0 0.00450 210.45494 227.56911
222.0 0.00450 210.48680 226.36421
233.0 0.00429 210.51668 224.77223
241.0 0.00415 210.54471 222.98741
223.0 0.00448 210.57080 221.19965
212.0 0.00472 210.59486 219.55655
236.0 0.00424 210.61693 218.14554
197.0 0.00508 210.63710 217.00586
198.0 0.00505 210.65526 216.13654
215.0 0.00465 210.67139 215.50856
231.0 0.00433 210.68546 215.08002
236.0 0.00424 210.69756 214.80489
206.0 0.00485 210.70758 214.64308
220.0 0.00455 210.71556 214.56390
209.0 0.00478 210.72147 214.54666
188.0 0.00532 210.72534 214.58018
221.0 0.00452 210.72714 214.66211
224.0 0.00446 210.72691 214.79842
234.0 0.00427 210.72466 215.00340
233.0 0.00429 210.72018 215.30159
206.0 0.00485 210.71381 215.72581
242.0 0.00413 210.70528 216.31886
239.0 0.00418 210.69470 217.12830
211.0 0.00474 210.68210 218.19731
220.0 0.00455 210.66739 219.55972
201.0 0.00498 210.65068 221.22192
241.0 0.00415 210.63193 223.16191
219.0 0.00457 210.61118 225.31950
234.0 0.00427 210.58832 227.59024
209.0 0.00478 210.56352 229.85825
245.0 0.00408 210.53671 232.04608
220.0 0.00455 210.50798 234.22855
238.0 0.00420 210.47717 236.66896
258.0 0.00388 210.44444 239.78616
233.0 0.00429 210.40976 243.99248
242.0 0.00413 210.37318 249.62160
253.0 0.00395 210.33469 256.85825
292.0 0.003425 210.29427 265.56940
238.0 0.00420 210.25201 275.17661
295.0 0.003390 210.20792 284.74835
313.0 0.003195 210.16199 292.87488
292.0 0.003425 210.11429 298.13391
317.0 0.003155 210.06471 299.52771
342.0 0.002924 210.01343 296.99277
344.0 0.002907 209.96045 291.20932
301.0 0.003322 209.90575 283.44904
276.0 0.00362 209.84937 275.25931
275.0 0.00364 209.79131 267.82108
239.0 0.00418 209.73166 261.92758
227.0 0.00441 209.67038 257.90665
245.0 0.00408 209.60765 255.58960
222.0 0.00450 209.54326 254.47745
274.0 0.00365 209.47739 253.86404
259.0 0.00386 209.41014 253.07085
271.0 0.00369 209.34143 251.73453
287.0 0.003484 209.27132 249.82500
249.0 0.00402 209.19980 247.66304
276.0 0.00362 209.12704 245.88626
229.0 0.00437 209.05295 245.16661
237.0 0.00422 208.97757 246.14195
246.0 0.00407 208.90102 249.31316
224.0 0.00446 208.82338 254.96429
278.0 0.00360 208.74448 263.06247
258.0 0.00388 208.66451 273.21475
320.0 0.003125 208.58348 284.63541
299.0 0.003344 208.50150 296.04755
280.0 0.00357 208.41852 305.80429
325.0 0.003077 208.33455 312.17368
367.0 0.002725 208.24982 314.07489
381.0 0.002625 208.16411 311.56577
327.0 0.003058 208.07765 306.04303
311.0 0.003215 207.99049 299.28497
266.0 0.00376 207.90248 292.77020
268.0 0.00373 207.81398 287.36234
295.0 0.003390 207.72470 283.25922
267.0 0.00375 207.63493 280.19598
276.0 0.00362 207.54459 277.69397
289.0 0.003460 207.45366 275.26492
266.0 0.00376 207.36244 272.42865
303.0 0.003300 207.27074 268.71716
251.0 0.00398 207.17870 264.06635
269.0 0.00372 207.08643 258.68338
266.0 0.00376 206.99370 253.14529
227.0 0.00441 206.90094 248.01871
233.0 0.00429 206.80791 243.64691
226.0 0.00442 206.71478 240.13678
226.0 0.00442 206.62161 237.37126
232.0 0.00431 206.52831 235.12257
216.0 0.00463 206.43513 233.16389
239.0 0.00418 206.34192 231.29234
235.0 0.00426 206.24890 229.32722
220.0 0.00455 206.15604 227.17781
234.0 0.00427 206.06326 224.80347
223.0 0.00448 205.97084 222.40019
240.0 0.00417 205.87863 220.11662
253.0 0.00395 205.78683 218.10616
208.0 0.00481 205.69540 216.45857
237.0 0.00422 205.60439 215.19885
229.0 0.00437 205.51385 214.30998
196.0 0.00510 205.42374 213.72577
231.0 0.00433 205.33427 213.35060
205.0 0.00488 205.24545 213.06459
220.0 0.00455 205.15721 212.75375
262.0 0.00382 205.06966 212.34659
231.0 0.00433 204.98286 211.82133
217.0 0.00461 204.89693 211.24295
208.0 0.00481 204.81172 210.65694
200.0 0.00500 204.72737 210.10812
194.0 0.00515 204.64394 209.62421
205.0 0.00488 204.56148 209.22778
213.0 0.00469 204.48001 208.87251
181.0 0.00552 204.39958 208.55682
222.0 0.00450 204.32014 208.26399
220.0 0.00455 204.24191 207.98978
207.0 0.00483 204.16481 207.73953
213.0 0.00469 204.08896 207.52583
216.0 0.00463 204.01431 207.35031
225.0 0.00444 203.94084 207.22165
212.0 0.00472 203.86879 207.14290
204.0 0.00490 203.79794 207.11496
180.0 0.00556 203.72862 207.14256
211.0 0.00474 203.66071 207.21866
232.0 0.00431 203.59421 207.33806
214.0 0.00467 203.52924 207.51839
207.0 0.00483 203.46571 207.78798
194.0 0.00515 203.40385 208.19649
255.0 0.00392 203.34357 208.81871
204.0 0.00490 203.28488 209.75459
214.0 0.00467 203.22795 211.11441
213.0 0.00469 203.17265 213.02031
208.0 0.00481 203.11913 215.56670
224.0 0.00446 203.06738 218.80072
254.0 0.00394 203.01738 222.68724
233.0 0.00429 202.96930 227.05597
230.0 0.00435 202.92300 231.60503
230.0 0.00435 202.87863 235.87904
240.0 0.00417 202.83627 239.30869
240.0 0.00417 202.79581 241.24045
239.0 0.00418 202.75737 241.39766
219.0 0.00457 202.72095 239.95020
252.0 0.00397 202.68661 237.48528
216.0 0.00463 202.65436 234.72116
233.0 0.00429 202.62416 232.27975
241.0 0.00415 202.59618 230.59796
217.0 0.00461 202.57040 229.89505
224.0 0.00446 202.54675 230.14873
218.0 0.00459 202.52541 231.28174
237.0 0.00422 202.50627 232.92526
213.0 0.00469 202.48952 234.77844
205.0 0.00488 202.47498 236.41200
235.0 0.00426 202.46292 237.51303
220.0 0.00455 202.45319 237.86407
240.0 0.00417 202.44586 237.32629
243.0 0.00412 202.44101 235.84369
223.0 0.00448 202.43858 233.51834
218.0 0.00459 202.43874 230.66066
200.0 0.00500 202.44131 227.66132
226.0 0.00442 202.44650 224.91432
222.0 0.00450 202.45427 222.66110
230.0 0.00435 202.46466 221.09360
226.0 0.00442 202.47769 220.31654
220.0 0.00455 202.49336 220.40443
223.0 0.00448 202.51180 221.39470
242.0 0.00413 202.53290 223.28156
231.0 0.00433 202.55676 226.02464
219.0 0.00457 202.58340 229.55357
224.0 0.00446 202.61288 233.80293
235.0 0.00426 202.64526 238.68707
240.0 0.00417 202.68039 243.99840
247.0 0.00405 202.71851 249.34375
232.0 0.00431 202.75946 254.05797
242.0 0.00413 202.80344 257.26086
230.0 0.00435 202.85036 258.17853
287.0 0.003484 202.90027 256.57440
214.0 0.00467 202.95329 252.80981
235.0 0.00426 203.00929 247.78738
236.0 0.00424 203.06842 242.45998
230.0 0.00435 203.13068 237.58253
238.0 0.00420 203.19604 233.65718
242.0 0.00413 203.26462 230.89067
196.0 0.00510 203.33638 229.32407
214.0 0.00467 203.41132 228.71873
212.0 0.00472 203.48955 228.69266
226.0 0.00442 203.57101 228.72047
241.0 0.00415 203.65591 228.39136
224.0 0.00446 203.74390 227.41280
240.0 0.00417 203.83531 225.81590
221.0 0.00452 203.93019 223.84479
220.0 0.00455 204.02831 221.79811
218.0 0.00459 204.12993 219.91107
222.0 0.00450 204.23492 218.33591
236.0 0.00424 204.34331 217.12315
220.0 0.00455 204.45528 216.27103
218.0 0.00459 204.57060 215.70313
194.0 0.00515 204.68950 215.33437
243.0 0.00412 204.81183 215.04810
230.0 0.00435 204.93765 214.79472
236.0 0.00424 205.06706 214.56970
207.0 0.00483 205.19989 214.36606
197.0 0.00508 205.33638 214.21471
228.0 0.00439 205.47630 214.13586
217.0 0.00461 205.61963 214.16194
227.0 0.00441 205.76675 214.35017
204.0 0.00490 205.91721 214.77382
203.0 0.00493 206.07127 215.50574
243.0 0.00412 206.22878 216.60164
233.0 0.00429 206.38971 218.09198
244.0 0.00410 206.55431 219.99327
221.0 0.00452 206.72218 222.24504
217.0 0.00461 206.89360 224.76694
224.0 0.00446 207.06827 227.39691
242.0 0.00413 207.24625 229.87988
240.0 0.00417 207.42778 231.89854
253.0 0.00395 207.61244 233.17406
255.0 0.00392 207.80045 233.50856
231.0 0.00433 207.99152 233.06607
261.0 0.00383 208.18561 232.17119
248.0 0.00403 208.38303 231.16643
233.0 0.00429 208.58325 230.31158
259.0 0.00386 208.78658 229.75883
245.0 0.00408 208.99255 229.57503
227.0 0.00441 209.20122 229.74054
208.0 0.00481 209.41280 230.14046
251.0 0.00398 209.62674 230.56862
246.0 0.00407 209.84329 230.78658
219.0 0.00457 210.06201 230.61766
218.0 0.00459 210.28290 230.04503
247.0 0.00405 210.50615 229.17279
224.0 0.00446 210.73112 228.24797
226.0 0.00442 210.95808 227.52271
226.0 0.00442 211.18654 227.22325
228.0 0.00439 211.41643 227.52879
181.0 0.00552 211.64781 228.57082
239.0 0.00418 211.88020 230.41434
219.0 0.00457 212.11377 233.05942
246.0 0.00407 212.34778 236.33823
253.0 0.00395 212.58241 240.03381
254.0 0.00394 212.81750 243.78195
273.0 0.00366 213.05263 247.12950
258.0 0.00388 213.28769 249.54678
276.0 0.00362 213.52214 250.53453
272.0 0.00368 213.75600 249.85818
303.0 0.003300 213.98915 247.74434
272.0 0.00368 214.22083 244.74629
230.0 0.00435 214.45142 241.44968
228.0 0.00439 214.67990 238.35789
226.0 0.00442 214.90630 235.80193
224.0 0.00446 215.13052 233.95869
207.0 0.00483 215.35178 232.84529
235.0 0.00426 215.57030 232.37128
219.0 0.00457 215.78514 232.32289
241.0 0.00415 215.99623 232.42767
226.0 0.00442 216.20337 232.37698
261.0 0.00383 216.40582 231.92506
240.0 0.00417 216.60356 231.01147
231.0 0.00433 216.79593 229.73804
224.0 0.00446 216.98260 228.26949
241.0 0.00415 217.16331 226.75330
211.0 0.00474 217.33745 225.34947
183.0 0.00546 217.50482 224.11581
221.0 0.00452 217.66478 223.09206
203.0 0.00493 217.81702 222.28348
228.0 0.00439 217.96127 221.67339
233.0 0.00429 218.09674 221.27048
220.0 0.00455 218.22336 220.97284
197.0 0.00508 218.34047 220.78027
205.0 0.00488 218.44769 220.66074
213.0 0.00469 218.54485 220.59129
201.0 0.00498 218.63115 220.55440
218.0 0.00459 218.70644 220.53079
206.0 0.00485 218.77016 220.52478
225.0 0.00444 218.82213 220.52351
226.0 0.00442 218.86179 220.52263
220.0 0.00455 218.88887 220.51898
195.0 0.00513 218.90297 220.51060
230.0 0.00435 218.90385 220.49640
243.0 0.00412 218.89114 220.44128
229.0 0.00437 218.86465 220.41484
232.0 0.00431 218.82410 220.38130
218.0 0.00459 218.76920 220.34088
233.0 0.00429 218.69992 220.29344
220.0 0.00455 218.61606 220.23941
226.0 0.00442 218.51750 220.17941
223.0 0.00448 218.40421 220.11438
207.0 0.00483 218.27615 220.04691
216.0 0.00463 218.13358 219.97859
219.0 0.00457 217.97656 219.92445
237.0 0.00422 217.80505 219.87344
215.0 0.00465 217.61972 219.82823
225.0 0.00444 217.42055 219.84126
228.0 0.00439 217.20839 219.91628
236.0 0.00424 216.98344 220.09865
215.0 0.00465 216.74638 220.38452
195.0 0.00513 216.49814 220.82179
207.0 0.00483 216.23932 221.43846
236.0 0.00424 215.97125 222.24165
233.0 0.00429 215.69482 223.23059
196.0 0.00510 215.41110 224.35719
235.0 0.00426 215.12189 225.55612
214.0 0.00467 214.82840 226.72426
244.0 0.00410 214.53275 227.72488
220.0 0.00455 214.23663 228.42833
241.0 0.00415 213.94205 228.77623
241.0 0.00415 213.65161 228.84595
253.0 0.00395 213.36754 228.85092
223.0 0.00448 213.09305 229.05415
257.0 0.00389 212.83084 229.72221
246.0 0.00407 212.58412 231.06950
223.0 0.00448 212.35680 233.22202
218.0 0.00459 212.15230 236.20863
224.0 0.00446 211.97530 239.90659
245.0 0.00408 211.82988 244.05586
232.0 0.00431 211.72090 248.23938
275.0 0.00364 211.65379 251.88171
239.0 0.00418 211.63397 254.40874
280.0 0.00357 211.66754 255.41278
270.0 0.00370 211.76079 254.82173
253.0 0.00395 211.92076 252.86528
266.0 0.00376 212.15453 250.05983
217.0 0.00461 212.47035 246.97110
233.0 0.00429 212.87619 244.18748
235.0 0.00426 213.38104 242.18701
232.0 0.00431 213.99490 241.30472
277.0 0.00361 214.72688 241.74220
255.0 0.00392 215.58904 243.55327
271.0 0.00369 216.59154 246.66046
252.0 0.00397 217.74654 250.87001
242.0 0.00413 219.06912 255.91673
261.0 0.00383 220.56941 261.48431
267.0 0.00375 222.26534 267.27948
259.0 0.00386 224.16920 272.95071
279.0 0.00358 226.29768 278.06500
297.0 0.003367 228.67107 282.11588
283.0 0.00353 231.30351 284.63391
303.0 0.003300 234.21780 285.46466
268.0 0.00373 237.42995 284.93088
288.0 0.003472 240.96207 283.72406
282.0 0.00355 244.84166 282.61169
269.0 0.00372 249.08612 282.23895
248.0 . . .
loop_
_refln_index_h
_refln_index_k
_refln_index_l
_pd_refln_wavelength_id
_refln_observed_status
_refln_F_squared_meas
_refln_F_squared_calc
_refln_phase_calc
_refln_d_spacing
_gsas_i100_meas
1 0 0 1 o 241.484 233.565 0.00 8.19777 38.52
1 0 0 2 o 248.977 233.565 0.00 8.19777 14.99
1 1 0 1 o 8.375 8.995 180.00 4.84080 0.83
1 1 0 2 o 8.367 8.995 180.00 4.84080 0.31
0 0 1 1 o 7.563 9.478 0.00 4.53821 0.30
0 0 1 2 o 2.577 9.478 0.00 4.53821 0.02
2 0 0 1 o 170.396 154.057 180.00 4.09889 6.45
1 0 -1 1 o 179.428 164.948 0.00 4.08982 6.37
2 0 0 2 o 168.136 154.057 180.00 4.09889 2.41
1 0 -1 2 o 172.565 164.948 0.00 4.08982 2.32
1 0 1 1 o 1215.895 1213.877 180.00 3.86090 44.67
1 0 1 2 o 1225.813 1213.877 180.00 3.86090 17.02
0 1 1 1 o -1.876 1.577 0.00 3.61909 0.00
0 1 1 2 o -1.876 1.577 0.00 3.61909 0.00
2 1 0 1 o 497.138 478.612 0.00 3.38420 29.64
1 1 -1 1 o 1784.878 1749.627 180.00 3.37909 100.00
2 1 0 2 o 486.157 478.612 0.00 3.38420 10.97
1 1 -1 2 o 1749.009 1749.627 180.00 3.37909 37.07
1 1 1 1 o 410.181 402.010 180.00 3.24650 22.43
1 1 1 2 o 386.463 402.010 180.00 3.24650 8.00
2 0 -1 1 o 455.355 455.279 0.00 3.15008 9.38
2 0 -1 2 o 447.760 455.279 0.00 3.15008 3.49
0 2 0 1 o 2579.829 2572.331 180.00 2.99913 51.31
0 2 0 2 o 2495.447 2572.331 180.00 2.99913 18.78
2 0 1 1 o 275.522 256.957 180.00 2.94404 5.20
2 0 1 2 o 276.501 256.957 180.00 2.94404 1.97
1 2 0 1 o 176.440 162.458 180.00 2.81655 6.70
1 2 0 2 o 174.996 162.458 180.00 2.81655 2.51
2 1 -1 1 o 34.738 26.612 180.00 2.78888 1.30
2 1 -1 2 o 30.709 26.612 180.00 2.78888 0.44
3 0 0 1 o 860.732 842.556 180.00 2.73259 13.68
3 0 0 2 o 806.234 842.556 180.00 2.73259 4.86
2 1 1 1 o 918.733 926.395 180.00 2.64287 30.78
2 1 1 2 o 872.470 926.395 180.00 2.64287 11.07
0 2 1 1 o -1.243 0.062 0.00 2.50211 0.00
0 2 1 2 o -1.243 0.062 0.00 2.50211 0.00
3 1 0 1 o 0.921 5.218 180.00 2.48670 0.01
3 1 0 2 o 4.995 5.218 180.00 2.48670 0.05
2 2 0 1 o 83.933 73.794 0.00 2.42040 2.42
1 2 -1 1 o 77.765 70.819 180.00 2.41853 2.12
3 0 -1 1 o 1122.475 1080.975 0.00 2.41454 12.79
2 2 0 2 o 76.620 73.794 0.00 2.42040 0.84
1 2 -1 2 o 71.981 70.819 180.00 2.41853 0.74
3 0 -1 2 o 1068.441 1080.975 0.00 2.41454 4.61
1 2 1 1 o 662.913 662.810 0.00 2.36850 18.46
1 2 1 2 o 634.693 662.810 0.00 2.36850 6.69
3 0 1 1 o 1.615 12.851 180.00 2.27375 0.00
0 0 2 1 o 1.354 0.769 0.00 2.26911 0.02
3 0 1 2 o 20.855 12.851 180.00 2.27375 0.07
0 0 2 2 o 0.445 0.769 0.00 2.26911 0.00
3 1 -1 1 o 2.785 11.921 0.00 2.23987 0.10
3 1 -1 2 o 7.832 11.921 0.00 2.23987 0.08
1 0 -2 1 o 127.010 124.762 180.00 2.22608 1.35
1 0 -2 2 o 124.314 124.762 180.00 2.22608 0.50
2 2 -1 1 o 320.176 306.999 180.00 2.17211 7.10
2 2 -1 2 o 330.508 306.999 180.00 2.17211 2.76
1 0 2 1 o 276.955 264.618 0.00 2.14968 2.94
1 0 2 2 o 290.829 264.618 0.00 2.14968 1.16
3 1 1 1 o 97.388 93.266 180.00 2.12612 2.00
0 1 2 1 o 758.446 750.397 180.00 2.12232 15.71
3 1 1 2 o 93.673 93.266 180.00 2.12612 0.73
0 1 2 2 o 737.983 750.397 180.00 2.12232 5.78
2 2 1 1 o 112.645 109.289 0.00 2.10096 2.38
1 1 -2 1 o 169.580 166.349 0.00 2.08699 3.24
2 2 1 2 o 112.205 109.289 0.00 2.10096 0.89
1 1 -2 2 o 168.189 166.349 0.00 2.08699 1.21
4 0 0 1 o 308.923 288.105 180.00 2.04944 2.56
2 0 -2 1 o 407.120 374.701 180.00 2.04491 3.25
4 0 0 2 o 312.019 288.105 180.00 2.04944 0.98
2 0 -2 2 o 368.735 374.701 180.00 2.04491 1.12
1 1 2 1 o 119.058 112.226 180.00 2.02364 2.26
3 2 0 1 o 495.699 483.278 0.00 2.01990 9.49
1 1 2 2 o 114.040 112.226 180.00 2.02364 0.82
3 2 0 2 o 457.845 483.278 0.00 2.01990 3.33
1 3 0 1 o 28.788 34.984 180.00 1.94248 0.52
4 1 0 1 o 98.496 102.819 180.00 1.93937 1.59
1 3 0 2 o 34.327 34.984 180.00 1.94248 0.23
2 1 -2 1 o 0.571 0.593 0.00 1.93552 0.01
4 1 0 2 o 94.924 102.819 180.00 1.93937 0.58
2 1 -2 2 o 0.479 0.593 0.00 1.93552 0.00
2 0 2 1 o 39.525 55.023 0.00 1.93045 0.36
2 0 2 2 o 42.169 55.023 0.00 1.93045 0.14
4 0 -1 1 o 9.986 7.226 180.00 1.91728 0.06
4 0 -1 2 o 26.757 7.226 180.00 1.91728 0.07
3 2 -1 1 o 468.274 479.388 180.00 1.88077 7.26
3 2 -1 2 o 486.618 479.388 180.00 1.88077 2.84
2 1 2 1 o 16.807 12.581 0.00 1.83763 0.27
2 1 2 2 o 19.445 12.581 0.00 1.83763 0.11
0 3 1 1 o 26.995 23.347 180.00 1.82971 0.42
4 1 -1 1 o 73.826 70.846 0.00 1.82625 1.05
0 3 1 2 o 24.650 23.347 180.00 1.82971 0.15
4 0 1 1 o 645.059 574.488 0.00 1.82199 3.95
4 1 -1 2 o 80.871 70.846 0.00 1.82625 0.43
4 0 1 2 o 687.700 574.488 0.00 1.82199 1.59
3 2 1 1 o 1.599 1.277 180.00 1.81190 0.04
0 2 2 1 o 19.029 14.710 180.00 1.80955 0.27
3 2 1 2 o 2.149 1.277 180.00 1.81190 0.02
3 0 -2 1 o 66.511 49.258 0.00 1.80704 0.35
0 2 2 2 o 20.246 14.710 180.00 1.80955 0.11
3 0 -2 2 o 60.316 49.258 0.00 1.80704 0.12
2 3 0 1 o 223.691 207.591 180.00 1.79702 3.14
1 3 -1 1 o 658.748 600.487 0.00 1.79625 8.85
2 3 0 2 o 242.019 207.591 180.00 1.79702 1.27
1 3 -1 2 o 692.555 600.487 0.00 1.79625 3.51
1 2 -2 1 o 60.445 64.179 0.00 1.78750 0.89
1 2 -2 2 o 62.718 64.179 0.00 1.78750 0.35
1 3 1 1 o 137.224 126.727 0.00 1.77547 1.82
1 3 1 2 o 128.112 126.727 0.00 1.77547 0.64
1 2 2 1 o 113.050 140.732 180.00 1.74721 1.65
4 1 1 1 o 43.771 54.158 0.00 1.74334 0.50
1 2 2 2 o 111.195 140.732 180.00 1.74721 0.61
4 1 1 2 o 40.191 54.158 0.00 1.74334 0.17
3 1 -2 1 o 164.579 173.839 180.00 1.73023 1.88
3 1 -2 2 o 142.356 173.839 180.00 1.73023 0.62
4 2 0 1 o 171.627 190.653 0.00 1.69210 2.13
3 0 2 1 o 16.164 17.332 180.00 1.69021 0.08
2 2 -2 1 o 267.625 283.647 0.00 1.68955 3.19
2 3 -1 1 o 40.134 40.898 0.00 1.68809 0.49
4 2 0 2 o 187.756 190.653 0.00 1.69210 0.88
3 0 2 2 o 17.461 17.332 180.00 1.69021 0.03
2 2 -2 2 o 287.092 283.647 0.00 1.68955 1.28
2 3 -1 2 o 42.626 40.898 0.00 1.68809 0.20
2 3 1 1 o 349.077 316.208 0.00 1.65403 4.12
2 3 1 2 o 347.145 316.208 0.00 1.65403 1.55
5 0 0 1 o 0.794 0.427 180.00 1.63955 0.00
5 0 0 2 o 0.839 0.427 180.00 1.63955 0.00
3 1 2 1 o 742.719 703.530 0.00 1.62686 7.70
2 2 2 1 o 55.302 53.667 180.00 1.62325 0.68
3 1 2 2 o 724.282 703.530 0.00 1.62686 2.84
2 2 2 2 o 57.387 53.667 180.00 1.62325 0.27
4 2 -1 1 o 4.046 2.110 0.00 1.61540 0.04
3 3 0 1 o 0.279 0.053 180.00 1.61360 0.00
4 2 -1 2 o 5.500 2.110 0.00 1.61540 0.02
3 3 0 2 o 0.248 0.053 180.00 1.61360 0.00
5 1 0 1 o 285.345 312.841 180.00 1.58154 2.70
5 1 0 2 o 298.894 312.841 180.00 1.58154 1.06
5 0 -1 1 o 256.720 266.088 180.00 1.57659 1.12
4 0 -2 1 o 127.762 132.893 0.00 1.57504 0.53
5 0 -1 2 o 247.085 266.088 180.00 1.57659 0.41
4 0 -2 2 o 130.006 132.893 0.00 1.57504 0.20
4 2 1 1 o 312.582 331.882 180.00 1.55716 3.11
4 2 1 2 o 346.232 331.882 180.00 1.55716 1.29
3 2 -2 1 o 20.291 18.882 180.00 1.54780 0.17
3 2 -2 2 o 19.366 18.882 180.00 1.54780 0.06
3 3 -1 1 o 13.126 13.096 180.00 1.53997 0.14
3 3 -1 2 o 20.979 13.096 180.00 1.53997 0.08
5 1 -1 1 o 58.363 53.489 0.00 1.52480 0.50
4 1 -2 1 o 532.898 487.852 180.00 1.52340 4.19
5 1 -1 2 o 57.759 53.489 0.00 1.52480 0.19
4 1 -2 2 o 522.003 487.852 180.00 1.52340 1.55
0 0 3 1 o 17.634 17.113 0.00 1.51274 0.08
5 0 1 1 o 38.895 43.366 0.00 1.50960 0.16
0 0 3 2 o 14.895 17.113 0.00 1.51274 0.03
1 0 -3 1 o 128.510 159.944 0.00 1.50598 0.56
5 0 1 2 o 34.722 43.366 0.00 1.50960 0.05
1 0 -3 2 o 139.177 159.944 0.00 1.50598 0.23
3 3 1 1 o 95.473 102.643 0.00 1.50148 0.93
0 3 2 1 o 446.714 442.497 0.00 1.50014 4.16
0 4 0 1 o 592.159 575.661 0.00 1.49956 2.38
3 3 1 2 o 104.940 102.643 0.00 1.50148 0.38
0 3 2 2 o 437.846 442.497 0.00 1.50014 1.54
0 4 0 2 o 561.114 575.661 0.00 1.49956 0.85
1 3 -2 1 o 42.809 52.419 180.00 1.48750 0.41
1 3 -2 2 o 50.271 52.419 180.00 1.48750 0.18
1 4 0 1 o 80.323 60.756 0.00 1.47509 0.64
3 2 2 1 o 15.830 14.065 0.00 1.47248 0.13
4 0 2 1 o 7.846 6.779 180.00 1.47202 0.04
1 4 0 2 o 67.235 60.756 0.00 1.47509 0.20
1 0 3 1 o 14.476 14.172 180.00 1.46992 0.06
3 2 2 2 o 13.128 14.065 0.00 1.47248 0.04
4 0 2 2 o 5.852 6.779 180.00 1.47202 0.01
0 1 3 1 o 136.767 152.550 0.00 1.46681 1.17
1 0 3 2 o 13.149 14.172 180.00 1.46992 0.02
1 3 2 1 o 84.872 78.524 0.00 1.46404 0.76
5 1 1 1 o 95.195 87.390 0.00 1.46395 0.75
0 1 3 2 o 171.248 152.550 0.00 1.46681 0.55
1 1 -3 1 o 12.301 10.139 0.00 1.46065 0.09
1 3 2 2 o 96.724 78.524 0.00 1.46404 0.32
5 1 1 2 o 108.891 87.390 0.00 1.46395 0.32
1 1 -3 2 o 9.400 10.139 0.00 1.46065 0.03
2 0 -3 1 o 55.492 49.875 0.00 1.45154 0.20
2 0 -3 2 o 86.838 49.875 0.00 1.45154 0.12
5 2 0 1 o 0.016 0.000 180.00 1.43862 0.00
5 2 0 2 o 0.023 0.000 180.00 1.43862 0.00
4 3 0 1 o 75.643 69.497 0.00 1.43116 0.64
2 3 -2 1 o 0.671 0.664 0.00 1.42961 0.01
4 1 2 1 o 129.060 128.074 0.00 1.42960 0.96
1 1 3 1 o 151.218 164.999 0.00 1.42768 1.25
4 3 0 2 o 63.625 69.497 0.00 1.43116 0.21
2 3 -2 2 o 0.607 0.664 0.00 1.42961 0.00
4 1 2 2 o 119.666 128.074 0.00 1.42960 0.34
1 1 3 2 o 164.069 164.999 0.00 1.42768 0.51
0 4 1 1 o 7.325 7.271 180.00 1.42385 0.07
0 4 1 2 o 11.105 7.271 180.00 1.42385 0.04
2 1 -3 1 o 232.850 208.110 0.00 1.41082 1.62
2 4 0 1 o 34.768 29.027 180.00 1.40828 0.26
1 4 -1 1 o 21.760 18.013 0.00 1.40791 0.16
2 1 -3 2 o 257.728 208.110 0.00 1.41082 0.67
2 4 0 2 o 36.264 29.027 180.00 1.40828 0.10
1 4 -1 2 o 22.508 18.013 0.00 1.40791 0.06
1 4 1 1 o 276.475 236.063 180.00 1.39783 2.03
5 2 -1 1 o 187.542 175.249 0.00 1.39552 1.37
4 2 -2 1 o 87.569 84.808 180.00 1.39444 0.62
1 4 1 2 o 243.439 236.063 180.00 1.39783 0.68
5 2 -1 2 o 171.150 175.249 0.00 1.39552 0.48
4 2 -2 2 o 85.698 84.808 180.00 1.39444 0.23
2 0 3 1 o 334.431 318.097 180.00 1.38887 1.23
2 3 2 1 o 13.878 13.149 180.00 1.38878 0.12
2 0 3 2 o 293.784 318.097 180.00 1.38887 0.41
2 3 2 2 o 12.025 13.149 180.00 1.38878 0.04
4 3 -1 1 o 82.360 95.581 180.00 1.38385 0.66
4 3 -1 2 o 76.224 95.581 180.00 1.38385 0.23
5 0 -2 1 o 36.612 75.509 0.00 1.37396 0.13
5 0 -2 2 o 4.164 75.509 0.00 1.37396 0.02
6 0 0 1 o 49.560 37.154 0.00 1.36630 0.16
3 0 -3 1 o 0.020 0.141 0.00 1.36327 0.00
6 0 0 2 o 7.458 37.154 0.00 1.36630 0.02
3 0 -3 2 o -0.042 0.141 0.00 1.36327 0.00
2 4 -1 1 o 140.147 121.886 0.00 1.35398 0.97
2 1 3 1 o 6.166 5.296 0.00 1.35308 0.04
2 4 -1 2 o 127.679 121.886 0.00 1.35398 0.34
0 2 3 1 o 15.175 14.445 180.00 1.35065 0.12
2 1 3 2 o 5.705 5.296 0.00 1.35308 0.02
5 2 1 1 o 32.911 31.784 180.00 1.34842 0.23
0 2 3 2 o 14.005 14.445 180.00 1.35065 0.04
4 3 1 1 o 13.369 14.128 180.00 1.34671 0.09
1 2 -3 1 o 137.560 150.548 180.00 1.34583 0.98
5 2 1 2 o 28.429 31.784 180.00 1.34842 0.08
4 3 1 2 o 12.634 14.128 180.00 1.34671 0.03
1 2 -3 2 o 140.120 150.548 180.00 1.34583 0.38
3 3 -2 1 o 129.045 125.548 0.00 1.34064 0.91
5 1 -2 1 o 1.967 1.861 180.00 1.33928 0.01
3 3 -2 2 o 139.897 125.548 0.00 1.34064 0.37
2 4 1 1 o 42.967 37.187 180.00 1.33621 0.29
5 1 -2 2 o 2.137 1.861 180.00 1.33928 0.00
6 0 -1 1 o 360.432 350.654 180.00 1.33352 1.05
2 4 1 2 o 36.990 37.187 180.00 1.33621 0.10
6 1 0 1 o 0.670 0.695 0.00 1.33217 0.00
6 0 -1 2 o 311.691 350.654 180.00 1.33352 0.35
3 1 -3 1 o 250.987 276.994 0.00 1.32937 1.48
6 1 0 2 o 0.648 0.695 0.00 1.33217 0.00
3 1 -3 2 o 210.092 276.994 0.00 1.32937 0.47
4 2 2 1 o 18.584 10.147 0.00 1.32143 0.13
1 2 3 1 o 26.465 14.921 0.00 1.31991 0.18
4 2 2 2 o 17.428 10.147 0.00 1.32143 0.05
1 2 3 2 o 20.560 14.921 0.00 1.31991 0.05
3 4 0 1 o 242.976 189.903 180.00 1.31462 1.60
3 4 0 2 o 266.276 189.903 180.00 1.31462 0.66
2 2 -3 1 o 50.283 31.516 180.00 1.30656 0.31
2 2 -3 2 o 38.942 31.516 180.00 1.30656 0.09
6 1 -1 1 o 3.692 2.210 180.00 1.30174 0.02
6 1 -1 2 o 2.625 2.210 180.00 1.30174 0.01
3 3 2 1 o 356.095 358.043 180.00 1.29080 2.37
5 0 2 1 o 118.508 124.610 180.00 1.28808 0.34
3 3 2 2 o 345.243 358.043 180.00 1.29080 0.87
3 0 3 1 o 59.463 61.231 180.00 1.28697 0.19
5 0 2 2 o 113.141 124.610 180.00 1.28808 0.12
6 0 1 1 o 21.261 23.162 180.00 1.28444 0.06
3 0 3 2 o 57.612 61.231 180.00 1.28697 0.07
6 0 1 2 o 17.060 23.162 180.00 1.28444 0.02
3 4 -1 1 o 190.565 174.644 0.00 1.27388 1.18
3 4 -1 2 o 165.736 174.644 0.00 1.27388 0.39
5 3 0 1 o 168.684 175.318 0.00 1.26780 1.08
5 3 0 2 o 149.893 175.318 0.00 1.26780 0.37
2 2 3 1 o 293.265 279.986 0.00 1.26030 1.83
5 1 2 1 o 24.768 23.194 180.00 1.25937 0.13
4 0 -3 1 o 44.196 41.677 180.00 1.25861 0.12
3 1 3 1 o 0.725 0.647 180.00 1.25833 0.01
2 2 3 2 o 298.808 279.986 0.00 1.26030 0.70
5 1 2 2 o 25.249 23.194 180.00 1.25937 0.05
6 1 1 1 o 283.360 259.504 0.00 1.25597 1.50
4 0 -3 2 o 45.715 41.677 180.00 1.25861 0.05
3 1 3 2 o 0.767 0.647 180.00 1.25833 0.00
6 1 1 2 o 287.509 259.504 0.00 1.25597 0.57
3 4 1 1 o 7.679 6.469 0.00 1.25183 0.05
0 4 2 1 o 9.430 8.668 0.00 1.25105 0.06
5 2 -2 1 o 63.633 70.404 180.00 1.24912 0.37
3 4 1 2 o 5.938 6.469 0.00 1.25183 0.02
0 4 2 2 o 8.615 8.668 0.00 1.25105 0.02
5 2 -2 2 o 62.785 70.404 180.00 1.24912 0.14
1 4 -2 1 o 34.733 33.162 180.00 1.24370 0.22
6 2 0 1 o 45.898 41.884 180.00 1.24335 0.28
3 2 -3 1 o 0.889 0.952 180.00 1.24107 0.00
1 4 -2 2 o 30.139 33.162 180.00 1.24370 0.07
6 2 0 2 o 38.198 41.884 180.00 1.24335 0.09
3 2 -3 2 o 0.956 0.952 180.00 1.24107 0.00
5 3 -1 1 o 35.864 35.612 180.00 1.23801 0.22
4 3 -2 1 o 267.836 254.309 0.00 1.23726 1.52
5 3 -1 2 o 33.814 35.612 180.00 1.23801 0.08
4 3 -2 2 o 248.868 254.309 0.00 1.23726 0.53
4 1 -3 1 o 8.198 7.588 180.00 1.23178 0.04
1 4 2 1 o 78.951 67.948 0.00 1.22989 0.48
4 1 -3 2 o 8.972 7.588 180.00 1.23178 0.01
1 4 2 2 o 107.282 67.948 0.00 1.22989 0.24
6 2 -1 1 o 220.597 261.760 0.00 1.21850 1.19
6 2 -1 2 o 252.121 261.760 0.00 1.21850 0.51
4 4 0 1 o 104.515 88.197 180.00 1.21020 0.60
2 4 -2 1 o 170.461 147.711 180.00 1.20927 0.95
6 0 -2 1 o 15.142 14.116 0.00 1.20727 0.04
4 4 0 2 o 94.358 88.197 180.00 1.21020 0.21
0 3 3 1 o 87.228 79.867 180.00 1.20636 0.51
2 4 -2 2 o 161.381 147.711 180.00 1.20927 0.34
5 3 1 1 o 70.508 64.376 180.00 1.20477 0.41
6 0 -2 2 o 15.390 14.116 0.00 1.20727 0.01
0 3 3 2 o 85.458 79.867 180.00 1.20636 0.19
1 3 -3 1 o 4.454 4.152 180.00 1.20293 0.02
5 3 1 2 o 79.453 64.376 180.00 1.20477 0.17
1 3 -3 2 o 7.759 4.152 180.00 1.20293 0.02
1 5 0 1 o 24.114 16.528 0.00 1.18701 0.13
4 3 2 1 o 84.414 82.527 180.00 1.18541 0.47
1 3 3 1 o 103.877 100.859 180.00 1.18431 0.60
2 4 2 1 o 36.111 34.976 0.00 1.18425 0.22
1 5 0 2 o 17.142 16.528 0.00 1.18701 0.04
5 2 2 1 o 118.487 114.216 0.00 1.18354 0.62
6 1 -2 1 o 72.306 69.671 0.00 1.18353 0.34
3 2 3 1 o 54.918 54.061 0.00 1.18268 0.31
4 3 2 2 o 83.139 82.527 180.00 1.18541 0.18
1 3 3 2 o 98.403 100.859 180.00 1.18431 0.22
2 4 2 2 o 34.112 34.976 0.00 1.18425 0.08
4 4 -1 1 o 0.477 0.485 180.00 1.18119 0.00
6 2 1 1 o 22.041 21.971 0.00 1.18071 0.11
5 2 2 2 o 115.193 114.216 0.00 1.18354 0.23
6 1 -2 2 o 70.294 69.671 0.00 1.18353 0.13
3 2 3 2 o 57.017 54.061 0.00 1.18268 0.12
4 0 3 1 o 46.221 43.796 0.00 1.17944 0.11
4 4 -1 2 o 0.508 0.485 180.00 1.18119 0.00
6 2 1 2 o 23.041 21.971 0.00 1.18071 0.04
4 0 3 2 o 42.440 43.796 0.00 1.17944 0.04
2 3 -3 1 o 111.321 130.356 180.00 1.17464 0.60
2 3 -3 2 o 110.126 130.356 180.00 1.17464 0.22
7 0 0 1 o 236.912 248.732 0.00 1.17111 0.54
7 0 0 2 o 224.661 248.732 0.00 1.17111 0.19
4 2 -3 1 o 36.529 33.755 0.00 1.16055 0.18
0 5 1 1 o 13.510 12.991 0.00 1.15981 0.07
4 4 1 1 o 169.198 151.372 0.00 1.15784 0.91
4 2 -3 2 o 38.218 33.755 0.00 1.16055 0.07
4 1 3 1 o 142.260 126.652 180.00 1.15728 0.70
0 5 1 2 o 14.505 12.991 0.00 1.15981 0.03
4 4 1 2 o 161.493 151.372 0.00 1.15784 0.33
4 1 3 2 o 140.506 126.652 180.00 1.15728 0.26
3 4 -2 1 o 4.083 3.744 0.00 1.15397 0.02
7 0 -1 1 o 1.519 1.431 180.00 1.15306 0.00
5 0 -3 1 o 120.584 108.829 180.00 1.15144 0.25
2 5 0 1 o 99.163 88.965 0.00 1.15135 0.49
1 5 -1 1 o 236.208 211.297 180.00 1.15115 1.12
3 4 -2 2 o 4.121 3.744 0.00 1.15397 0.01
7 0 -1 2 o 1.590 1.431 180.00 1.15306 0.00
7 1 0 1 o 98.036 92.658 0.00 1.14941 0.44
5 0 -3 2 o 113.226 108.829 180.00 1.15144 0.09
2 5 0 2 o 92.330 88.965 0.00 1.15135 0.17
1 5 -1 2 o 217.145 211.297 180.00 1.15115 0.39
7 1 0 2 o 94.562 92.658 0.00 1.14941 0.16
1 5 1 1 o 48.956 37.792 180.00 1.14562 0.23
1 5 1 2 o 71.351 37.792 180.00 1.14562 0.12
2 3 3 1 o 3.982 3.038 180.00 1.14068 0.02
2 3 3 2 o 5.809 3.038 180.00 1.14068 0.01
6 0 2 1 o 2.223 1.155 180.00 1.13688 0.01
0 0 4 1 o 145.114 134.768 180.00 1.13455 0.35
1 0 -4 1 o 139.010 134.048 180.00 1.13435 0.32
6 0 2 2 o 1.147 1.155 180.00 1.13688 0.00
5 3 -2 1 o 0.986 1.215 0.00 1.13237 0.00
7 1 -1 1 o 11.288 14.848 180.00 1.13233 0.06
0 0 4 2 o 102.895 134.768 180.00 1.13455 0.10
1 0 -4 2 o 102.721 134.048 180.00 1.13435 0.09
5 1 -3 1 o 63.996 80.118 180.00 1.13080 0.27
5 3 -2 2 o 1.157 1.215 0.00 1.13237 0.00
7 1 -1 2 o 14.056 14.848 180.00 1.13233 0.03
6 3 0 1 o 0.331 0.339 0.00 1.12807 0.00
5 1 -3 2 o 78.697 80.118 180.00 1.13080 0.13
3 3 -3 1 o 159.391 192.251 180.00 1.12636 0.78
6 3 0 2 o 0.223 0.339 0.00 1.12807 0.00
3 3 -3 2 o 188.293 192.251 180.00 1.12636 0.34
3 4 2 1 o 7.443 5.538 180.00 1.12173 0.04
2 5 -1 1 o 19.420 13.179 180.00 1.12110 0.09
6 2 -2 1 o 11.878 8.064 180.00 1.11994 0.06
3 4 2 2 o 7.893 5.538 180.00 1.12173 0.01
2 5 -1 2 o 19.831 13.179 180.00 1.12110 0.04
6 2 -2 2 o 12.222 8.064 180.00 1.11994 0.02
6 1 2 1 o 121.415 81.665 180.00 1.11699 0.53
7 0 1 1 o 36.551 25.116 180.00 1.11578 0.08
0 1 4 1 o 2.674 2.296 0.00 1.11479 0.01
1 1 -4 1 o 30.783 26.701 180.00 1.11459 0.15
6 1 2 2 o 87.405 81.665 180.00 1.11699 0.15
1 0 4 1 o 1.819 1.941 180.00 1.11362 0.01
7 0 1 2 o 22.093 25.116 180.00 1.11578 0.02
2 0 -4 1 o 0.311 0.353 0.00 1.11304 0.00
0 1 4 2 o 2.399 2.296 0.00 1.11479 0.00
1 1 -4 2 o 29.623 26.701 180.00 1.11459 0.05
2 5 1 1 o 156.114 126.683 180.00 1.11096 0.74
1 0 4 2 o 2.455 1.941 180.00 1.11362 0.00
2 0 -4 2 o 0.399 0.353 0.00 1.11304 0.00
6 3 -1 1 o 1.515 1.758 0.00 1.10941 0.01
2 5 1 2 o 91.432 126.683 180.00 1.11096 0.17
5 4 0 2 o 0.069 0.160 0.00 1.10654 0.00
6 3 -1 2 o -0.365 1.758 0.00 1.10941 0.00
5 4 0 1 o -0.064 0.160 0.00 1.10654 0.00
3 5 0 1 o 0.183 0.191 0.00 1.09846 0.00
4 2 3 1 o 49.104 41.691 180.00 1.09761 0.23
7 1 1 1 o 3.622 2.828 0.00 1.09696 0.02
3 5 0 2 o 0.218 0.191 0.00 1.09846 0.00
4 2 3 2 o 43.474 41.691 180.00 1.09761 0.08
1 1 4 1 o 97.855 93.631 180.00 1.09491 0.47
2 1 -4 1 o 61.647 58.869 180.00 1.09436 0.28
7 1 1 2 o 2.962 2.828 0.00 1.09696 0.00
1 1 4 2 o 102.554 93.631 180.00 1.09491 0.19
2 1 -4 2 o 62.298 58.869 180.00 1.09436 0.11
7 2 0 1 o 183.879 181.342 180.00 1.09089 0.83
