#------------------------------------------------------------------------------
#$Date: 2016-02-18 17:37:37 +0200 (Thu, 18 Feb 2016) $
#$Revision: 176729 $
#$URL: svn://www.crystallography.net/cod/cif/1/50/16/1501685.cif $
#------------------------------------------------------------------------------
#
# This file is available in the Crystallography Open Database (COD),
# http://www.crystallography.net/
#
# All data on this site have been placed in the public domain by the
# contributors.
#
data_1501685
loop_
_publ_author_name
'Migliorati, Valentina'
'Ballirano, Paolo'
'Gontrani, Lorenzo'
'Triolo, Alessandro'
'Caminiti, Ruggero'
_publ_section_title
;
 Thermal and structural properties of ethylammonium chloride and its
 mixture with water.
;
_journal_issue                   17
_journal_name_full               'The journal of physical chemistry. B'
_journal_page_first              4887
_journal_page_last               4899
_journal_paper_doi               10.1021/jp2010138
_journal_volume                  115
_journal_year                    2011
_chemical_formula_sum            'C2 H8 Cl N'
_chemical_formula_weight         81.55
_chemical_name_systematic        ' ?'
_space_group_IT_number           11
_symmetry_cell_setting           monoclinic
_symmetry_space_group_name_Hall  '-P 2yb'
_symmetry_space_group_name_H-M   'P 1 21/m 1'
_audit_creation_date             2010-05-18T14:02
_audit_creation_method           'from EXP file using GSAS2CIF'
_audit_update_record
' 2010-05-18T14:02  Initial CIF as created by GSAS2CIF'
_cell_angle_alpha                90.0
_cell_angle_beta                 93.8032(14)
_cell_angle_gamma                90.0
_cell_formula_units_Z            2
_cell_length_a                   8.20390(14)
_cell_length_b                   5.99673(8)
_cell_length_c                   4.54350(7)
_cell_volume                     223.032(6)
_computing_structure_refinement  GSAS
_diffrn_radiation_probe          x-ray
_exptl_absorpt_correction_T_max  0.77480
_exptl_absorpt_correction_T_min  0.76997
_exptl_absorpt_process_details
;   GSAS Absorption/surface roughness correction: function number 0
 Debye-Scherrer absorption correction
Term (= MU.r/wave) =     0.10041    
Correction is not refined.
;
_pd_block_id
2010-05-18T14:02|30_OPT|paolo|Bruker_AXS_D8_Advance
_pd_calc_method                  'Rietveld Refinement'
_pd_instr_location               ' ?'
_pd_meas_2theta_range_inc        0.022
_pd_meas_2theta_range_max        89.994
_pd_meas_2theta_range_min        8.0
_pd_meas_number_of_points        3728
_pd_phase_name                   ethyl
_pd_proc_2theta_range_inc        0.022
_pd_proc_2theta_range_max        89.994
_pd_proc_2theta_range_min        8.0
_pd_proc_info_datetime           2010-05-18T14:02:09
_pd_proc_info_excluded_regions   ' ?'
_pd_proc_ls_background_function
;   GSAS Background function number 1 with 30 terms.
 Shifted Chebyshev function of 1st kind
      1:    497.409     2:   -458.385     3:    241.233     4:   -106.435    
      5:    67.3474     6:   -68.8283     7:    84.3673     8:   -62.5548    
      9:    18.8687    10:    10.5372    11:   -11.9335    12:   -1.30467    
     13:    15.2930    14:   -22.6766    15:    15.9735    16:   -6.92770    
     17:    1.49154    18:   -5.76305    19:    8.11129    20:   -10.8356    
     21:    9.30027    22:   -5.96659    23:    3.80328    24:  -0.432259    
     25:   -1.33772    26:    3.70805    27:  -0.105261    28:   0.100930    
     29:   -2.82010    30:    3.98199    
;
_pd_proc_ls_peak_cutoff          0.00100
_pd_proc_ls_profile_function
;
 CW Profile function number 3 with  19 terms
 Pseudovoigt profile coefficients as parameterized in
 P. Thompson, D.E. Cox & J.B. Hastings (1987). J. Appl. Cryst.,20,79-83.
 Asymmetry correction of L.W. Finger, D.E. Cox & A. P. Jephcoat (1994).
 J. Appl. Cryst.,27,892-900.
 Peak tails are ignored  where the intensity is below 0.0010 times the peak
   Aniso. broadening axis   0.0   1.0   0.0
;
_pd_proc_ls_prof_R_factor        0.0443
_pd_proc_ls_prof_wR_expected     0.0425
_pd_proc_ls_prof_wR_factor       0.0578
_pd_proc_number_of_points        3728
_pd_spec_mounting                ' ?'
_refine_ls_goodness_of_fit_all   1.37
_refine_ls_matrix_type           full
_refine_ls_number_parameters     63
_refine_ls_number_restraints     27
_refine_ls_R_Fsqd_factor         0.06161
_refine_ls_shift/su_max          0.05
_refine_ls_shift/su_mean         0.01
_reflns_d_resolution_high        1.093
_reflns_d_resolution_low         8.186
_reflns_limit_h_max              7
_reflns_limit_h_min              0
_reflns_limit_k_max              5
_reflns_limit_k_min              0
_reflns_limit_l_max              4
_reflns_limit_l_min              -4
_reflns_number_total             406
_cod_data_source_file            jp2010138_si_001.cif
_cod_data_source_block           30_OPT_publ
_cod_depositor_comments
;
The following automatic conversions were performed:

'_geom_bond_publ_flag' value 'N' changed to 'n' according to
/home/saulius/struct/CIF-dictionaries/cif_core.dic dictionary named
'cif_core.dic' version 2.4.1 from 2010-06-29 (47
times).

'_geom_angle_publ_flag' value 'N' changed to 'n' according
to /home/saulius/struct/CIF-dictionaries/cif_core.dic dictionary
named 'cif_core.dic' version 2.4.1 from 2010-06-29 (23 times).

Automatic conversion script
Id: cif_fix_values 1715 2011-07-08 13:25:40Z adriana 
;
_cod_original_sg_symbol_H-M      'p 21/m'
_cod_database_code               1501685
#BEGIN Tags that were not found in dictionaries:
_gsas_exptl_extinct_corr_t_min   1.00000
_gsas_exptl_extinct_corr_t_max   1.00000
#END Tags that were not found in dictionaries
loop_
_symmetry_equiv_pos_site_id
_symmetry_equiv_pos_as_xyz
1 +x,+y,+z
2 -x,+y+1/2,-z
-1 -x,-y,-z
-2 +x,-y+1/2,+z
loop_
_atom_site_type_symbol
_atom_site_label
_atom_site_fract_x
_atom_site_fract_y
_atom_site_fract_z
_atom_site_occupancy
_atom_site_thermal_displace_type
_atom_site_U_iso_or_equiv
_atom_site_symmetry_multiplicity
Cl Cl 0.15523(19) 0.75 0.3842(4) 1.0 Uiso 0.0234(4) 2
N N 0.12512(32) 0.25 0.1415(6) 1.0 Uiso 0.0321(11) 2
C C1 0.26748(30) 0.25 -0.0367(6) 1.0 Uiso 0.0321(11) 2
C C2 0.42333(35) 0.25 0.1687(6) 1.0 Uiso 0.0321(11) 2
H H1 0.0245(5) 0.25 0.0120(13) 1.0 Uiso 0.0482(17) 2
H H2 0.5180(5) 0.25 0.0477(12) 1.0 Uiso 0.0482(17) 2
H H3 0.1268(9) 0.1163(4) 0.2660(9) 1.0 Uiso 0.0482(17) 4
H H4 0.2666(8) 0.1157(5) -0.1596(9) 1.0 Uiso 0.0482(17) 4
H H5 0.4254(9) 0.1156(4) 0.2917(9) 1.0 Uiso 0.0482(17) 4
loop_
_atom_type_symbol
_atom_type_number_in_cell
_atom_type_scat_dispersion_real
_atom_type_scat_dispersion_imag
_atom_type_scat_Cromer_Mann_a1
_atom_type_scat_Cromer_Mann_a2
_atom_type_scat_Cromer_Mann_a3
_atom_type_scat_Cromer_Mann_a4
_atom_type_scat_Cromer_Mann_b1
_atom_type_scat_Cromer_Mann_b2
_atom_type_scat_Cromer_Mann_b3
_atom_type_scat_Cromer_Mann_b4
_atom_type_scat_Cromer_Mann_c
_atom_type_scat_source
Cl 2.0 0.000 0.000 11.4604 0.01040 7.19640 1.16620 6.25560 18.5194 1.64550
47.7784 -9.5574 International_Tables_Vol_C
N 2.0 0.000 0.000 12.2126 0.00570 3.13220 9.89330 2.01250 28.9975 1.16630
0.58260 -11.529 International_Tables_Vol_C
C 4.0 0.000 0.000 2.31000 20.8439 1.02000 10.2075 1.58860 0.56870 0.86500
51.6512 0.21560 International_Tables_Vol_C
H 16.0 0.000 0.000 0.49300 10.5109 0.32291 26.1257 0.14019 3.14236 0.04081
57.7997 0.00304 International_Tables_Vol_C
loop_
_diffrn_radiation_wavelength
_diffrn_radiation_wavelength_wt
_diffrn_radiation_type
_diffrn_radiation_wavelength_id
1.540598 1.000 K\a~1~ 1
1.544390 0.380 K\a~2~ 2
loop_
_geom_angle_atom_site_label_1
_geom_angle_atom_site_label_2
_geom_angle_atom_site_label_3
_geom_angle
_geom_angle_site_symmetry_1
_geom_angle_site_symmetry_3
_geom_angle_publ_flag
H1 Cl H3 76.05(14) 2_555 1_565 n
H1 Cl H3 76.05(14) 2_555 -2_565 n
H3 Cl H3 150.84(23) 1_565 -2_565 n
C1 N H1 109.8(4) 1_555 1_555 n
C1 N H3 109.8(4) 1_555 1_555 n
C1 N H3 109.8(4) 1_555 -2_565 n
H1 N H3 108.9(4) 1_555 1_555 n
H1 N H3 108.9(4) 1_555 -2_565 n
H3 N H3 109.7(5) 1_555 -2_565 n
N C1 C2 109.09(23) 1_555 1_555 n
N C1 H4 109.8(4) 1_555 1_555 n
N C1 H4 109.8(4) 1_555 -2_565 n
C2 C1 H4 108.7(4) 1_555 1_555 n
C2 C1 H4 108.7(4) 1_555 -2_565 n
H4 C1 H4 110.6(5) 1_555 -2_565 n
C1 C2 H2 108.6(4) 1_555 1_555 n
C1 C2 H5 109.2(4) 1_555 1_555 n
C1 C2 H5 109.2(4) 1_555 -2_565 n
H2 C2 H5 109.6(5) 1_555 1_555 n
H2 C2 H5 109.6(5) 1_555 -2_565 n
H5 C2 H5 110.6(5) 1_555 -2_565 n
Cl H1 N 163.8(5) 2_545 1_555 n
Cl H3 N 157.7(4) 1_545 1_555 n
loop_
_geom_bond_atom_site_label_1
_geom_bond_atom_site_label_2
_geom_bond_distance
_geom_bond_site_symmetry_2
_geom_bond_publ_flag
Cl H1 2.250(5) 2_555 n
Cl H3 2.2696(29) 1_565 n
Cl H3 2.2696(29) -2_555 n
N C1 1.465(4) 1_555 n
N H1 0.982(5) 1_555 n
N H3 0.981(4) 1_555 n
N H3 0.981(4) -2_555 n
N H4 2.020(6) 1_555 n
N H4 2.020(6) -2_555 n
C1 N 1.465(4) 1_555 n
C1 C2 1.532(4) 1_555 n
C1 H1 2.020(5) 1_555 n
C1 H2 2.065(5) 1_555 n
C1 H3 2.019(6) 1_555 n
C1 H3 2.019(6) -2_555 n
C1 H4 0.980(4) 1_555 n
C1 H4 0.980(4) -2_555 n
C1 H5 2.073(6) 1_555 n
C1 H5 2.073(6) -2_555 n
C2 C1 1.532(4) 1_555 n
C2 H2 0.980(6) 1_555 n
C2 H4 2.067(5) 1_555 n
C2 H4 2.067(5) -2_555 n
C2 H5 0.980(4) 1_555 n
C2 H5 0.980(4) -2_555 n
H1 Cl 2.250(5) 2_545 n
H1 N 0.982(5) 1_555 n
H1 C1 2.020(5) 1_555 n
H1 H3 1.597(6) 1_555 n
H1 H3 1.597(6) -2_555 n
H2 C1 2.065(5) 1_555 n
H2 C2 0.980(6) 1_555 n
H2 H5 1.602(7) 1_555 n
H2 H5 1.602(7) -2_555 n
H3 Cl 2.2696(29) 1_545 n
H3 N 0.981(4) 1_555 n
H3 C1 2.019(6) 1_555 n
H3 H1 1.597(6) 1_555 n
H3 H3 1.604(5) -2_555 n
H4 N 2.020(6) 1_555 n
H4 C1 0.980(4) 1_555 n
H4 C2 2.067(5) 1_555 n
H4 H4 1.611(5) -2_555 n
H5 C1 2.073(6) 1_555 n
H5 C2 0.980(4) 1_555 n
H5 H2 1.602(7) 1_555 n
H5 H5 1.612(5) -2_555 n
loop_
_pd_meas_counts_total
_pd_proc_ls_weight
_pd_proc_intensity_bkg_calc
_pd_calc_intensity_total
1671.0 0.000598 1678.78308 1678.78284
1693.0 0.000591 1663.03162 1663.03186
1645.0 0.000608 1647.50073 1647.50122
1548.0 0.000646 1632.21106 1632.21082
1646.0 0.000608 1617.17700 1617.17737
1613.0 0.000620 1602.41357 1602.41382
1573.0 0.000636 1587.93359 1587.93384
1555.0 0.000643 1573.74744 1573.74768
1572.0 0.000636 1559.86682 1559.86694
1578.0 0.000634 1546.29846 1546.29895
1511.0 0.000662 1533.04846 1533.04895
1506.0 0.000664 1520.12427 1520.12476
1562.0 0.000640 1507.52893 1507.52966
1492.0 0.000670 1495.26697 1495.26721
1436.0 0.000696 1483.33972 1483.33984
1450.0 0.000690 1471.74841 1471.74878
1488.0 0.000672 1460.49500 1460.49487
1493.0 0.000670 1449.57617 1449.57654
1402.0 0.000713 1438.99365 1438.99390
1477.0 0.000677 1428.74512 1428.74463
1406.0 0.000711 1418.82605 1418.82568
1370.0 0.000730 1409.23450 1409.23462
1375.0 0.000727 1399.96716 1399.96741
1418.0 0.000705 1391.01929 1391.01880
1397.0 0.000716 1382.38586 1382.38660
1396.0 0.000716 1374.06128 1374.06116
1391.0 0.000719 1366.04126 1366.04150
1361.0 0.000735 1358.31921 1358.31897
1415.0 0.000707 1350.88794 1350.88831
1333.0 0.000750 1343.74268 1343.74255
1290.0 0.000775 1336.87610 1336.87598
1309.0 0.000764 1330.28003 1330.27979
1348.0 0.000742 1323.94763 1323.94714
1356.0 0.000737 1317.87231 1317.87244
1325.0 0.000755 1312.04651 1312.04626
1335.0 0.000749 1306.46130 1306.46155
1309.0 0.000764 1301.11108 1301.11072
1284.0 0.000779 1295.98596 1295.98621
1358.0 0.000736 1291.07959 1291.07971
1268.0 0.000789 1286.38367 1286.38367
1271.0 0.000787 1281.89014 1281.88965
1320.0 0.000758 1277.59119 1277.59094
1249.0 0.000801 1273.47900 1273.47900
1335.0 0.000749 1269.54614 1269.54614
1239.0 0.000807 1265.78479 1265.78406
1269.0 0.000788 1262.18652 1262.18616
1305.0 0.000766 1258.74438 1258.74426
1258.0 0.000795 1255.45093 1255.45020
1208.0 0.000828 1252.29846 1252.29858
1250.0 0.000800 1249.27979 1249.28003
1180.0 0.000847 1246.38794 1246.38794
1267.0 0.000789 1243.61572 1243.61572
1221.0 0.000819 1240.95618 1240.95618
1242.0 0.000805 1238.40247 1238.40247
1315.0 0.000760 1235.94775 1235.94775
1228.0 0.000814 1233.58594 1233.58594
1232.0 0.000812 1231.31091 1231.31042
1185.0 0.000844 1229.11511 1229.11523
1214.0 0.000824 1226.99377 1226.99377
1240.0 0.000806 1224.94116 1224.94092
1158.0 0.000864 1222.95044 1222.95032
1225.0 0.000816 1221.01709 1221.01733
1167.0 0.000857 1219.13611 1219.13574
1249.0 0.000801 1217.30042 1217.30029
1199.0 0.000834 1215.50684 1215.50671
1178.0 0.000849 1213.74939 1213.74976
1228.0 0.000814 1212.02429 1212.02417
1250.0 0.000800 1210.32690 1210.32654
1204.0 0.000831 1208.65173 1208.65161
1184.0 0.000845 1206.99585 1206.99585
1082.0 0.000924 1205.35535 1205.35486
1145.0 0.000873 1203.72522 1203.72546
1154.0 0.000867 1202.10315 1202.10303
1153.0 0.000867 1200.48474 1200.48499
1156.0 0.000865 1198.86719 1198.86719
1121.0 0.000892 1197.24744 1197.24707
1237.0 0.000808 1195.62146 1195.62122
1196.0 0.000836 1193.98755 1193.98779
1247.0 0.000802 1192.34216 1192.34265
1161.0 0.000861 1190.68408 1190.68420
1164.0 0.000859 1189.00928 1189.00952
1155.0 0.000866 1187.31653 1187.31665
1186.0 0.000843 1185.60339 1185.60352
1124.0 0.000890 1183.86780 1183.86816
1189.0 0.000841 1182.10876 1182.10876
1190.0 0.000840 1180.32361 1180.32373
1218.0 0.000821 1178.51135 1178.51147
1261.0 0.000793 1176.67053 1176.67041
1190.0 0.000840 1174.79932 1174.79919
1189.0 0.000841 1172.89685 1172.89709
1166.0 0.000858 1170.96265 1170.96240
1179.0 0.000848 1168.99475 1168.99512
1177.0 0.000850 1166.99329 1166.99316
1092.0 0.000916 1164.95703 1164.95715
1213.0 0.000824 1162.88562 1162.88574
1186.0 0.000843 1160.77808 1160.77783
1145.0 0.000873 1158.63428 1160.84351
1161.0 0.000861 1156.45422 1159.64050
1131.0 0.000884 1154.23706 1157.64722
1195.0 0.000837 1151.98291 1155.64209
1215.0 0.000823 1149.69189 1153.62817
1140.0 0.000877 1147.36450 1151.61035
1175.0 0.000851 1144.99963 1149.59424
1153.0 0.000867 1142.59790 1147.58704
1116.0 0.000896 1140.15979 1145.59619
1151.0 0.000869 1137.68567 1143.63354
1148.0 0.000871 1135.17590 1141.71204
1192.0 0.000839 1132.63086 1139.84863
1142.0 0.000876 1130.05103 1138.06543
1165.0 0.000858 1127.43689 1136.39136
1222.0 0.000818 1124.78918 1134.86450
1203.0 0.000831 1122.10828 1133.53955
1181.0 0.000847 1119.39502 1132.50818
1201.0 0.000833 1116.65039 1131.99182
1155.0 0.000866 1113.87488 1132.66516
1175.0 0.000851 1111.06885 1136.52319
1250.0 0.000800 1108.23474 1148.38379
1290.0 0.000775 1105.37219 1177.17590
1332.0 0.000751 1102.48230 1235.21252
1389.0 0.000720 1099.56592 1334.69897
1431.0 0.000699 1096.62463 1484.36646
1664.0 0.000601 1093.65845 1690.81824
1891.0 0.000529 1090.66931 1965.79346
2333.0 0.000429 1087.65820 2337.52417
2908.0 0.0003439 1084.62561 2861.34155
3717.0 0.0002690 1081.57263 3607.33203
4429.0 0.0002258 1078.50073 4580.03223
5233.0 0.0001911 1075.41077 5576.04980
5893.0 0.0001697 1072.30469 6143.91455
6230.0 0.0001605 1069.18225 5851.67969
5526.0 0.0001810 1066.04541 4737.14941
3743.0 0.0002672 1062.89551 3338.36548
2267.0 0.000441 1059.73242 2205.88306
1489.0 0.000672 1056.55884 1540.10950
1271.0 0.000787 1053.37500 1240.48340
1124.0 0.000890 1050.18237 1130.98120
1076.0 0.000929 1046.98108 1093.55396
1074.0 0.000931 1043.77393 1077.63916
1059.0 0.000944 1040.56067 1067.66260
1018.0 0.000982 1037.34241 1059.78796
1067.0 0.000937 1034.12170 1053.04919
1041.0 0.000961 1030.89819 1047.07874
1028.0 0.000973 1027.67297 1041.66504
1005.0 0.000995 1024.44788 1036.66772
963.0 0.001038 1021.22388 1031.98914
994.0 0.001006 1018.00110 1027.55737
1047.0 0.000955 1014.78125 1023.32166
990.0 0.001010 1011.56543 1019.24414
948.0 0.001055 1008.35400 1015.29572
977.0 0.001024 1005.14838 1011.45441
974.0 0.001027 1001.95007 1007.70398
948.0 0.001055 998.75909 1004.03046
996.0 0.001004 995.57642 997.00818
987.0 0.001013 992.40295 993.72040
957.0 0.001045 989.24005 989.24011
966.0 0.001035 986.08850 986.08838
950.0 0.001053 982.94867 982.94861
932.0 0.001073 979.82147 979.82147
958.0 0.001044 976.70764 976.70752
956.0 0.001046 973.60858 973.60828
993.0 0.001007 970.52368 970.52362
947.0 0.001056 967.45526 967.45532
917.0 0.001091 964.40320 964.40289
911.0 0.001098 961.36768 961.36761
933.0 0.001072 958.35040 958.35022
954.0 0.001048 955.35101 955.35101
969.0 0.001032 952.37109 952.37091
923.0 0.001083 949.41003 949.40991
902.0 0.001109 946.46924 946.46930
967.0 0.001034 943.54913 943.54901
928.0 0.001078 940.65009 940.65009
927.0 0.001079 937.77252 937.77252
911.0 0.001098 934.91693 934.91669
964.0 0.001037 932.08325 932.08319
917.0 0.001091 929.27313 929.27301
938.0 0.001066 926.48572 926.48541
887.0 0.001127 923.72235 923.72205
950.0 0.001053 920.98230 920.98230
892.0 0.001121 918.26672 918.26678
903.0 0.001107 915.57587 915.57581
930.0 0.001075 912.90961 912.90979
925.0 0.001081 910.26862 910.26862
899.0 0.001112 907.65253 907.65253
890.0 0.001124 905.06189 905.06189
883.0 0.001133 902.49738 902.49725
904.0 0.001106 899.95825 899.95825
894.0 0.001119 897.44550 897.44531
915.0 0.001093 894.95837 894.95819
861.0 0.001161 892.49762 892.49750
874.0 0.001144 890.06342 890.06329
895.0 0.001117 887.65515 887.65503
914.0 0.001094 885.27362 885.27362
854.0 0.001171 882.91833 882.91840
896.0 0.001116 880.58954 880.58954
866.0 0.001155 878.28723 878.28723
934.0 0.001071 876.01178 876.01178
898.0 0.001114 873.76227 873.76221
837.0 0.001195 871.53912 871.53912
846.0 0.001182 869.34253 869.34241
871.0 0.001148 867.17206 867.17181
849.0 0.001178 865.02740 865.02759
909.0 0.001100 862.90918 862.90924
829.0 0.001206 860.81647 860.81647
829.0 0.001206 858.74969 858.74963
843.0 0.001186 856.70837 856.70844
873.0 0.001145 854.69275 854.69263
856.0 0.001168 852.70197 852.70221
831.0 0.001203 850.73676 850.73676
813.0 0.001230 848.79596 848.79614
874.0 0.001144 846.88019 846.88019
840.0 0.001190 844.98865 844.98877
867.0 0.001153 843.12146 843.12158
807.0 0.001239 841.27802 841.27808
841.0 0.001189 839.45844 839.45831
862.0 0.001160 837.66223 837.66235
805.0 0.001242 835.88922 835.88940
876.0 0.001142 834.13904 834.13910
913.0 0.001095 832.41168 832.41180
852.0 0.001174 830.70673 830.70685
853.0 0.001172 829.02362 829.02386
856.0 0.001168 827.36255 827.36267
851.0 0.001175 825.72284 825.72302
835.0 0.001198 824.10413 824.10443
840.0 0.001190 822.50641 822.50653
870.0 0.001149 820.92914 820.92920
815.0 0.001227 819.37207 819.37225
777.0 0.001287 817.83502 817.83502
859.0 0.001164 816.31720 816.31726
827.0 0.001209 814.81854 814.81879
835.0 0.001198 813.33881 813.33911
831.0 0.001203 811.87769 811.87775
820.0 0.001220 810.43475 810.43488
804.0 0.001244 809.00940 809.00964
807.0 0.001239 807.60162 807.60187
854.0 0.001171 806.21106 806.21124
833.0 0.001200 804.83728 804.83746
764.0 0.001309 803.47986 803.47998
810.0 0.001235 802.13831 802.13861
877.0 0.001140 800.81262 800.81281
805.0 0.001242 799.50226 799.50250
824.0 0.001214 798.20703 798.20746
813.0 0.001230 796.92657 796.92676
769.0 0.001300 795.66016 795.66034
821.0 0.001218 794.40790 794.40802
812.0 0.001232 793.16925 793.16949
782.0 0.001279 791.94366 791.94403
799.0 0.001252 790.73132 790.73138
782.0 0.001279 789.53125 789.53131
802.0 0.001247 788.34351 788.34393
798.0 0.001253 787.16772 787.16803
745.0 0.001342 786.00372 786.00397
813.0 0.001230 784.85114 784.85132
793.0 0.001261 783.70917 783.70935
769.0 0.001300 782.57788 782.57813
766.0 0.001305 781.45715 781.45734
787.0 0.001271 780.34601 780.34637
773.0 0.001294 779.24463 779.24487
803.0 0.001245 778.15283 778.15302
726.0 0.001377 777.06995 777.07013
769.0 0.001300 775.99573 775.99597
789.0 0.001267 774.93024 774.93048
765.0 0.001307 773.87268 773.87286
762.0 0.001312 772.82336 772.82349
785.0 0.001274 771.78125 771.78143
814.0 0.001229 770.74677 770.74707
756.0 0.001323 769.71948 769.71967
763.0 0.001311 768.69873 768.69897
782.0 0.001279 767.68469 767.68494
761.0 0.001314 766.67688 766.67719
754.0 0.001326 765.67523 765.67560
787.0 0.001271 764.67920 764.67950
762.0 0.001312 763.68903 763.68921
733.0 0.001364 762.70416 762.70447
734.0 0.001362 761.72430 761.72449
774.0 0.001292 760.74933 760.74939
783.0 0.001277 759.77905 759.77930
763.0 0.001311 758.81305 758.81329
738.0 0.001355 757.85156 757.85193
742.0 0.001348 756.89423 756.89441
792.0 0.001263 755.94080 755.94073
757.0 0.001321 754.99084 754.99097
752.0 0.001330 754.04443 754.04449
730.0 0.001370 753.10120 753.10150
750.0 0.001333 752.16162 752.16180
776.0 0.001289 751.22455 751.22491
775.0 0.001290 750.29065 750.29102
750.0 0.001333 749.35950 749.35950
768.0 0.001302 748.43073 748.43085
762.0 0.001312 747.50427 747.50458
735.0 0.001361 746.58032 746.58057
743.0 0.001346 745.65863 745.65857
700.0 0.001429 744.73846 744.73877
747.0 0.001339 743.82074 743.82092
749.0 0.001335 742.90466 742.90479
718.0 0.001393 741.99023 741.99023
763.0 0.001311 741.07739 741.07745
759.0 0.001318 740.16614 740.16626
755.0 0.001325 739.25610 739.25623
730.0 0.001370 738.34753 738.34760
760.0 0.001316 737.44031 737.44025
759.0 0.001318 736.53406 736.53412
704.0 0.001420 735.62915 735.62921
783.0 0.001277 734.72516 734.72528
763.0 0.001311 733.82208 733.82227
751.0 0.001332 732.92029 732.92023
739.0 0.001353 732.01886 732.01904
682.0 0.001466 731.11871 731.11865
731.0 0.001368 730.21912 730.21930
710.0 0.001408 729.32043 729.32031
687.0 0.001456 728.42249 728.42255
698.0 0.001433 727.52533 727.52545
719.0 0.001391 726.62885 726.62878
670.0 0.001493 725.73297 725.73297
716.0 0.001397 724.83783 724.83777
691.0 0.001447 723.94348 723.94330
712.0 0.001404 723.04944 723.04950
725.0 0.001379 722.15649 722.15649
704.0 0.001420 721.26410 721.26404
688.0 0.001453 720.37213 720.37213
739.0 0.001353 719.48114 719.48108
747.0 0.001339 718.59094 718.59088
707.0 0.001414 717.70123 717.70105
786.0 0.001272 716.81232 716.81219
722.0 0.001385 715.92426 715.92426
720.0 0.001389 715.03717 715.03717
728.0 0.001374 714.15088 714.15070
638.0 0.001567 713.26526 713.26520
673.0 0.001486 712.38074 712.38037
673.0 0.001486 711.49719 711.49713
720.0 0.001389 710.61462 710.61444
700.0 0.001429 709.73328 709.73315
707.0 0.001414 708.85284 708.85254
717.0 0.001395 707.97375 707.97351
714.0 0.001401 707.09564 707.09564
717.0 0.001395 706.21912 706.21906
731.0 0.001368 705.34406 705.34369
706.0 0.001416 704.47003 704.46979
693.0 0.001443 703.59772 703.59747
685.0 0.001460 702.72681 702.72656
739.0 0.001353 701.85760 701.85754
717.0 0.001395 700.99023 700.99005
710.0 0.001408 700.12457 700.12427
703.0 0.001422 699.26068 699.26038
712.0 0.001404 698.39868 698.39844
710.0 0.001408 697.53876 697.53845
654.0 0.001529 696.68073 696.68060
668.0 0.001497 695.82538 695.82513
684.0 0.001462 694.97180 694.97137
708.0 0.001412 694.12048 694.12042
686.0 0.001458 693.27179 693.27155
677.0 0.001477 692.42566 692.42535
665.0 0.001504 691.58215 691.58167
672.0 0.001488 690.74091 690.74060
692.0 0.001445 689.90302 689.90265
630.0 0.001587 689.06738 689.06708
658.0 0.001520 688.23505 688.23456
713.0 0.001403 687.40564 687.40546
642.0 0.001558 686.57941 686.57916
715.0 0.001399 685.75647 685.75598
696.0 0.001437 684.93677 684.93628
712.0 0.001404 684.12024 684.12000
692.0 0.001445 683.30737 683.30713
652.0 0.001534 682.49811 682.49786
672.0 0.001488 681.69250 681.69214
689.0 0.001451 680.89069 680.89026
680.0 0.001471 680.09271 680.09229
652.0 0.001534 679.29858 679.29816
651.0 0.001536 678.50879 678.50830
657.0 0.001522 677.72290 677.72247
676.0 0.001479 676.94110 676.94086
706.0 0.001416 676.16406 676.16370
664.0 0.001506 675.39124 675.39075
656.0 0.001524 674.62292 674.62219
693.0 0.001443 673.85883 673.85840
727.0 0.001376 673.09985 673.09937
649.0 0.001541 672.34546 672.34491
662.0 0.001511 671.59595 671.59564
687.0 0.001456 670.85120 670.85083
712.0 0.001404 670.11169 670.11121
682.0 0.001466 669.37750 669.37701
669.0 0.001495 668.64819 668.64764
641.0 0.001560 667.92401 667.92358
648.0 0.001543 667.20551 667.20508
658.0 0.001520 666.49219 666.49188
699.0 0.001431 665.78473 665.78418
674.0 0.001484 665.08264 665.08209
700.0 0.001429 664.38641 664.38593
650.0 0.001538 663.69580 663.69550
649.0 0.001541 663.01111 663.01068
633.0 0.001580 662.33234 662.33167
635.0 0.001575 661.65948 661.65887
694.0 0.001441 660.99280 660.99225
665.0 0.001504 660.33221 660.33179
650.0 0.001538 659.67767 659.67731
659.0 0.001517 659.02966 659.02917
671.0 0.001490 658.38788 658.38733
636.0 0.001572 657.75281 657.75214
720.0 0.001389 657.12378 657.12311
720.0 0.001389 656.50134 656.50092
681.0 0.001468 655.88556 655.88525
702.0 0.001425 655.27686 655.27612
694.0 0.001441 654.67438 654.67383
691.0 0.001447 654.07886 654.07837
663.0 0.001508 653.48993 653.48962
642.0 0.001558 652.90833 652.90790
682.0 0.001466 652.33362 652.33282
650.0 0.001538 651.76569 651.76544
646.0 0.001548 651.20502 651.20453
663.0 0.001508 650.65125 650.65088
615.0 0.001626 650.10492 650.10425
673.0 0.001486 649.56555 649.56506
669.0 0.001495 649.03363 649.03308
674.0 0.001484 648.50885 648.50824
678.0 0.001475 647.99133 647.99115
614.0 0.001629 647.48169 647.48102
636.0 0.001572 646.97906 646.97839
675.0 0.001481 646.48395 646.48328
644.0 0.001553 645.99622 645.99567
655.0 0.001527 645.51617 645.51563
648.0 0.001543 645.04358 645.04303
645.0 0.001550 644.57886 644.57806
634.0 0.001577 644.12140 644.12067
673.0 0.001486 643.67188 643.67108
620.0 0.001613 643.22961 643.22925
688.0 0.001453 642.79553 642.79486
620.0 0.001613 642.36890 642.36859
621.0 0.001610 641.95032 641.94989
624.0 0.001603 641.53925 641.53882
661.0 0.001513 641.13629 641.13562
669.0 0.001495 640.74084 640.74023
646.0 0.001548 640.35339 640.35272
642.0 0.001558 639.97351 639.97339
645.0 0.001550 639.60193 639.60138
649.0 0.001541 639.23798 639.23767
654.0 0.001529 638.88208 638.88135
649.0 0.001541 638.53394 638.53351
666.0 0.001502 638.19397 638.19305
626.0 0.001597 637.86176 637.86102
647.0 0.001546 637.53729 637.61981
647.0 0.001546 637.22089 637.30896
618.0 0.001618 636.91241 637.03784
599.0 0.001669 636.61218 636.74634
626.0 0.001597 636.31940 636.46356
617.0 0.001621 636.03491 636.18958
662.0 0.001511 635.75830 635.92511
657.0 0.001522 635.48944 635.66974
652.0 0.001534 635.22900 635.42419
689.0 0.001451 634.97626 635.18860
650.0 0.001538 634.73102 634.96313
632.0 0.001582 634.49408 634.74860
658.0 0.001520 634.26520 634.54504
634.0 0.001577 634.04425 634.35394
619.0 0.001616 633.83087 634.17554
604.0 0.001656 633.62555 634.01123
659.0 0.001517 633.42798 633.86267
642.0 0.001558 633.23853 633.73175
664.0 0.001506 633.05682 633.62164
631.0 0.001585 632.88281 633.53632
657.0 0.001522 632.71692 633.48309
657.0 0.001522 632.55853 633.47668
633.0 0.001580 632.40796 633.55731
661.0 0.001513 632.26550 633.83478
633.0 0.001580 632.13068 634.57672
663.0 0.001508 632.00305 636.34155
617.0 0.001621 631.88354 640.11963
648.0 0.001543 631.77185 647.42010
704.0 0.001420 631.66760 660.13220
655.0 0.001527 631.57117 679.75751
624.0 0.001603 631.48236 705.54431
691.0 0.001447 631.40076 732.27612
680.0 0.001471 631.32697 750.40924
761.0 0.001314 631.26086 750.94751
706.0 0.001416 631.20221 733.24994
719.0 0.001391 631.15094 705.54913
648.0 0.001543 631.10712 677.72815
619.0 0.001616 631.07074 656.50110
637.0 0.001570 631.04169 643.48224
597.0 0.001675 631.02026 636.85321
675.0 0.001481 631.00586 633.96246
589.0 0.001698 630.99896 632.80469
606.0 0.001650 630.99921 632.31250
599.0 0.001669 631.00677 632.05530
671.0 0.001490 631.02142 631.89191
689.0 0.001451 631.04321 631.78027
604.0 0.001656 631.07233 631.70465
620.0 0.001613 631.10852 631.65680
622.0 0.001608 631.15179 631.63165
644.0 0.001553 631.20197 631.62555
616.0 0.001623 631.25903 631.63580
663.0 0.001508 631.32324 631.66034
589.0 0.001698 631.39423 631.69763
600.0 0.001667 631.47205 631.74689
604.0 0.001656 631.55688 631.80682
579.0 0.001727 631.64868 631.87665
641.0 0.001560 631.74695 631.99927
643.0 0.001555 631.85199 632.09064
630.0 0.001587 631.96381 632.20685
629.0 0.001590 632.08215 632.31653
615.0 0.001626 632.20709 632.43457
641.0 0.001560 632.33856 632.56122
632.0 0.001582 632.47668 632.69574
663.0 0.001508 632.62128 632.83887
600.0 0.001667 632.77228 632.98969
659.0 0.001517 632.92969 633.07196
581.0 0.001721 633.09351 633.24341
620.0 0.001613 633.26337 633.39368
577.0 0.001733 633.44000 633.58289
646.0 0.001548 633.62231 633.78021
683.0 0.001464 633.81110 633.98621
619.0 0.001616 634.00610 634.20142
615.0 0.001626 634.20715 634.42615
644.0 0.001553 634.41406 634.66193
582.0 0.001718 634.62708 634.90979
629.0 0.001590 634.84619 635.17120
644.0 0.001553 635.07111 635.44940
595.0 0.001681 635.30200 635.74878
632.0 0.001582 635.53857 636.08038
650.0 0.001538 635.78113 636.47510
645.0 0.001550 636.02942 637.01422
607.0 0.001647 636.28339 637.88995
644.0 0.001553 636.54291 639.49121
700.0 0.001429 636.80811 642.48822
603.0 0.001658 637.07886 647.83423
700.0 0.001429 637.35504 656.49561
687.0 0.001456 637.63690 668.68640
663.0 0.001508 637.92407 682.74030
772.0 0.001295 638.21674 694.61389
755.0 0.001325 638.51471 699.34509
762.0 0.001312 638.81805 694.64905
718.0 0.001393 639.12659 683.12427
662.0 0.001511 639.44012 669.44397
719.0 0.001391 639.75903 657.57904
615.0 0.001626 640.08295 649.47015
680.0 0.001471 640.41205 644.97571
637.0 0.001570 640.74622 642.97369
684.0 0.001462 641.08508 642.31714
672.0 0.001488 641.42920 642.25049
643.0 0.001555 641.77820 642.40576
645.0 0.001550 642.13165 642.64362
616.0 0.001623 642.49017 642.91974
663.0 0.001508 642.85345 643.21954
684.0 0.001462 643.22125 643.53717
646.0 0.001548 643.59387 643.86914
585.0 0.001709 643.97113 644.21295
676.0 0.001479 644.35284 644.56714
634.0 0.001577 644.73907 644.93030
645.0 0.001550 645.12958 645.30115
645.0 0.001550 645.52478 645.67957
644.0 0.001553 645.92426 646.06482
574.0 0.001742 646.32806 646.45612
635.0 0.001575 646.73627 646.85315
614.0 0.001629 647.14825 647.25574
630.0 0.001587 647.56482 647.66376
641.0 0.001560 647.98535 648.07684
621.0 0.001610 648.41028 648.49493
661.0 0.001513 648.83868 648.91779
626.0 0.001597 649.27161 649.34485
623.0 0.001605 649.70807 649.77673
598.0 0.001672 650.14856 650.21265
644.0 0.001553 650.59302 650.61078
630.0 0.001587 651.04102 651.05774
607.0 0.001647 651.49280 651.49225
602.0 0.001661 651.94849 651.94781
704.0 0.001420 652.40765 652.40686
661.0 0.001513 652.87048 652.86957
637.0 0.001570 653.33661 653.33588
622.0 0.001608 653.80646 653.80566
607.0 0.001647 654.27966 654.27899
629.0 0.001590 654.75641 654.75555
650.0 0.001538 655.23633 655.23541
600.0 0.001667 655.71948 655.71869
677.0 0.001477 656.20618 656.20526
651.0 0.001536 656.69574 656.69501
629.0 0.001590 657.18860 657.18793
689.0 0.001451 657.68463 657.68378
623.0 0.001605 658.18347 658.18268
661.0 0.001513 658.68536 658.68469
670.0 0.001493 659.19025 659.18951
687.0 0.001456 659.69806 659.69733
691.0 0.001447 660.20880 660.20801
716.0 0.001397 660.72192 660.72125
693.0 0.001443 661.23798 661.23718
684.0 0.001462 661.75659 662.14960
732.0 0.001366 662.27802 662.69073
709.0 0.001410 662.80219 663.75830
710.0 0.001408 663.32874 664.33374
705.0 0.001418 663.85760 664.91559
696.0 0.001437 664.38892 665.65009
736.0 0.001359 664.92249 666.25281
707.0 0.001414 665.45831 666.86371
671.0 0.001490 665.99652 667.48322
706.0 0.001416 666.53717 668.11243
721.0 0.001387 667.07947 668.75183
769.0 0.001300 667.62439 669.40265
725.0 0.001379 668.17090 670.06598
686.0 0.001458 668.71954 670.74280
723.0 0.001383 669.27032 671.43542
666.0 0.001502 669.82257 672.14545
699.0 0.001431 670.37683 672.87518
633.0 0.001580 670.93280 673.62708
701.0 0.001427 671.49048 674.40472
636.0 0.001572 672.04962 675.21246
731.0 0.001368 672.61041 676.05487
664.0 0.001506 673.17273 676.93842
670.0 0.001493 673.73669 677.87091
711.0 0.001406 674.30188 678.86121
671.0 0.001490 674.86841 679.92297
674.0 0.001484 675.43604 681.07123
676.0 0.001479 676.00519 682.32794
676.0 0.001479 676.57562 683.72046
618.0 0.001618 677.14691 685.28674
689.0 0.001451 677.71930 687.08197
726.0 0.001377 678.29266 689.19275
703.0 0.001422 678.86688 691.79248
673.0 0.001486 679.44214 695.30475
667.0 0.001499 680.01819 700.84003
683.0 0.001464 680.59485 711.14044
713.0 0.001403 681.17218 732.17340
799.0 0.001252 681.75018 775.12695
912.0 0.001096 682.32867 857.20929
1015.0 0.000985 682.90784 997.95563
1199.0 0.000834 683.48730 1208.26978
1418.0 0.000705 684.06708 1474.59009
1665.0 0.000601 684.64740 1750.00659
2025.0 0.000494 685.22778 1964.31494
2005.0 0.000499 685.80853 2060.08936
2121.0 0.000471 686.38910 2015.58496
1958.0 0.000511 686.96991 1837.47131
1631.0 0.000613 687.55072 1577.10217
1396.0 0.000716 688.13135 1306.94702
1084.0 0.000923 688.71198 1077.14746
952.0 0.001050 689.29236 911.22314
828.0 0.001208 689.87225 808.33276
757.0 0.001321 690.45215 752.71533
725.0 0.001379 691.03156 726.13525
746.0 0.001340 691.61017 714.42932
685.0 0.001460 692.18896 709.19672
709.0 0.001410 692.76636 706.51691
667.0 0.001499 693.34332 704.88910
718.0 0.001393 693.91974 703.79926
696.0 0.001437 694.49530 703.05463
723.0 0.001383 695.07019 702.55933
692.0 0.001445 695.64368 702.25275
723.0 0.001383 696.21649 705.26862
704.0 0.001420 696.78809 705.38373
705.0 0.001418 697.35858 706.77161
685.0 0.001460 697.92786 707.13721
681.0 0.001468 698.49585 707.58258
685.0 0.001460 699.06250 708.09943
745.0 0.001342 699.62793 708.68146
703.0 0.001422 700.19165 709.32495
712.0 0.001404 700.75372 710.02759
755.0 0.001325 701.31439 710.78882
659.0 0.001517 701.87323 711.60938
749.0 0.001335 702.43054 712.49127
764.0 0.001309 702.98596 713.43805
725.0 0.001379 703.53918 714.45459
753.0 0.001328 704.09052 715.54761
740.0 0.001351 704.64026 716.72626
754.0 0.001326 705.18738 718.00049
719.0 0.001391 705.73248 719.38379
723.0 0.001383 706.27539 720.89368
773.0 0.001294 706.81586 722.55035
755.0 0.001325 707.35425 724.38104
750.0 0.001333 707.89001 726.41809
783.0 0.001277 708.42297 728.31989
813.0 0.001230 708.95361 730.92535
776.0 0.001289 709.48138 733.36450
725.0 0.001379 710.00641 736.82819
751.0 0.001332 710.52881 740.87494
753.0 0.001328 711.04840 745.52557
763.0 0.001311 711.56470 751.30743
799.0 0.001252 712.07813 758.41711
752.0 0.001330 712.58862 767.47974
755.0 0.001325 713.09601 779.91754
785.0 0.001274 713.59973 799.55609
880.0 0.001136 714.10059 836.70172
951.0 0.001052 714.59772 916.18787
1147.0 0.000872 715.09143 1089.29175
1470.0 0.000680 715.58185 1442.36755
2068.0 0.000484 716.06860 2083.25903
2994.0 0.0003340 716.55151 3080.52930
4137.0 0.0002417 717.03107 4357.80469
5391.0 0.0001855 717.50665 5621.69092
6321.0 0.0001582 717.97833 6422.99805
6678.0 0.0001497 718.44586 6413.94629
6024.0 0.0001660 718.90991 5651.67188
4618.0 0.0002165 719.36938 4492.03809
3331.0 0.0003002 719.82507 3280.64746
2255.0 0.000443 720.27637 2270.45752
1510.0 0.000662 720.72345 1570.97913
1045.0 0.000957 721.16589 1158.56641
897.0 0.001115 721.60425 948.76459
818.0 0.001222 722.03815 853.74591
749.0 0.001335 722.46735 812.18549
674.0 0.001484 722.89191 791.96869
731.0 0.001368 723.31201 779.89343
721.0 0.001387 723.72736 771.40161
666.0 0.001502 724.13776 764.94507
706.0 0.001416 724.54321 759.87927
730.0 0.001370 724.94366 755.84143
726.0 0.001377 725.33960 752.58417
637.0 0.001570 725.72986 749.93329
675.0 0.001481 726.11536 747.75934
643.0 0.001555 726.49548 745.96539
731.0 0.001368 726.87036 744.47845
684.0 0.001462 727.24017 743.24091
626.0 0.001597 727.60400 742.20844
721.0 0.001387 727.96307 741.34552
662.0 0.001511 728.31622 740.62427
688.0 0.001453 728.66376 740.02216
678.0 0.001475 729.00598 739.51990
724.0 0.001381 729.34222 739.10291
721.0 0.001387 729.67255 738.75824
723.0 0.001383 729.99750 738.49921
701.0 0.001427 730.31622 738.27057
727.0 0.001376 730.62939 738.08801
747.0 0.001339 730.93616 737.95367
853.0 0.001172 731.23724 737.84485
846.0 0.001182 731.53192 737.76538
862.0 0.001160 731.82068 737.71167
803.0 0.001245 732.10321 737.67999
849.0 0.001178 732.37915 737.66699
771.0 0.001297 732.64911 737.67041
776.0 0.001289 732.91272 737.68805
740.0 0.001351 733.16949 737.71790
874.0 0.001144 733.42004 734.76965
762.0 0.001312 733.66394 734.95532
807.0 0.001239 733.90155 733.97333
829.0 0.001206 734.13226 734.20984
793.0 0.001261 734.35626 734.43945
859.0 0.001164 734.57379 734.66394
810.0 0.001235 734.78406 734.88184
797.0 0.001255 734.98792 735.09448
809.0 0.001236 735.18481 735.30121
753.0 0.001328 735.37469 735.50232
759.0 0.001318 735.55774 735.69849
739.0 0.001353 735.73383 735.88953
659.0 0.001517 735.90265 736.07605
694.0 0.001441 736.06458 736.25903
740.0 0.001351 736.21918 736.43848
691.0 0.001447 736.36652 736.61627
659.0 0.001517 736.50665 736.79327
681.0 0.001468 736.63989 736.97217
685.0 0.001460 736.76563 737.15643
673.0 0.001486 736.88379 737.35309
702.0 0.001425 736.99469 737.58209
681.0 0.001468 737.09814 737.89496
634.0 0.001577 737.19427 738.42670
706.0 0.001416 737.28278 739.47363
681.0 0.001468 737.36383 741.57434
642.0 0.001558 737.43738 745.47620
707.0 0.001414 737.50311 751.79236
686.0 0.001458 737.56152 760.32324
760.0 0.001316 737.61218 769.43219
760.0 0.001316 737.65515 776.21759
757.0 0.001321 737.69031 777.92938
751.0 0.001332 737.71790 774.17694
694.0 0.001441 737.73737 767.05182
741.0 0.001350 737.74951 758.87817
711.0 0.001406 737.75372 751.41455
710.0 0.001408 737.75000 745.73694
704.0 0.001420 737.73822 742.05121
709.0 0.001410 737.71881 739.97516
723.0 0.001383 737.69135 738.93860
715.0 0.001399 737.65582 738.44672
699.0 0.001431 737.61267 738.19122
657.0 0.001522 737.56158 738.02411
701.0 0.001427 737.50220 737.88806
681.0 0.001468 737.43512 737.76355
716.0 0.001397 737.35980 737.64313
710.0 0.001408 737.27643 737.52344
667.0 0.001499 737.18512 737.40247
767.0 0.001304 737.08563 737.27850
735.0 0.001361 736.97809 737.15015
695.0 0.001439 736.86255 737.01727
724.0 0.001381 736.73883 736.87866
697.0 0.001435 736.60724 736.73413
698.0 0.001433 736.46716 736.58289
728.0 0.001374 736.31921 736.42523
679.0 0.001473 736.16321 736.26044
721.0 0.001387 735.99896 736.08881
754.0 0.001326 735.82666 735.90979
733.0 0.001364 735.64606 735.72333
735.0 0.001361 735.45721 735.52930
743.0 0.001346 735.26050 735.32764
765.0 0.001307 735.05573 735.11859
725.0 0.001379 734.84247 734.90137
655.0 0.001527 734.62109 734.67657
779.0 0.001284 734.39203 734.44409
763.0 0.001311 734.15454 734.20367
720.0 0.001389 733.90894 733.95563
736.0 0.001359 733.65527 733.69934
745.0 0.001342 733.39349 735.69415
835.0 0.001198 733.12354 735.53442
772.0 0.001295 732.84528 743.06201
758.0 0.001319 732.55933 744.14172
834.0 0.001199 732.26520 744.41638
798.0 0.001253 731.96295 747.66595
813.0 0.001230 731.65247 748.19196
765.0 0.001307 731.33417 748.77032
834.0 0.001199 731.00775 749.42639
841.0 0.001189 730.67358 750.15979
848.0 0.001179 730.33112 750.98120
852.0 0.001174 729.98083 751.90210
802.0 0.001247 729.62244 752.93604
808.0 0.001238 729.25629 754.09937
813.0 0.001230 728.88232 755.41022
802.0 0.001247 728.50012 756.89111
849.0 0.001178 728.11035 758.56805
814.0 0.001229 727.71271 760.47076
825.0 0.001212 727.30688 762.63745
860.0 0.001163 726.89386 765.11133
833.0 0.001200 726.47247 767.94794
872.0 0.001147 726.04364 771.21204
837.0 0.001195 725.60736 774.98462
885.0 0.001130 725.16302 779.36847
852.0 0.001174 724.71124 784.48932
848.0 0.001179 724.25165 790.51141
896.0 0.001116 723.78424 797.64227
934.0 0.001071 723.30981 806.15289
886.0 0.001129 722.82758 816.40771
886.0 0.001129 722.33801 828.89301
898.0 0.001114 721.84070 844.31122
981.0 0.001019 721.33612 863.75562
941.0 0.001063 720.82428 889.29547
1019.0 0.000981 720.30493 925.73633
1129.0 0.000886 719.77844 985.19806
1249.0 0.000801 719.24457 1097.49426
1546.0 0.000647 718.70325 1328.13892
1976.0 0.000506 718.15509 1800.11768
2942.0 0.0003399 717.59955 2701.90625
4339.0 0.0002305 717.03687 4246.70166
6653.0 0.0001503 716.46735 6559.85645
9690.0 0.0001032 715.89056 9503.04004
12370.0 0.0000808 715.30713 12544.74121
14747.0 0.0000678 714.71661 14865.94336
15620.0 0.0000640 714.11932 15691.35938
14719.0 0.0000679 713.51526 14712.70508
12830.0 0.0000779 712.90405 12412.32422
9759.0 0.0001025 712.28625 9599.25488
6718.0 0.0001489 711.66168 6863.93262
4585.0 0.0002181 711.03076 4593.32178
2943.0 0.0003398 710.39294 2966.42090
1822.0 0.000549 709.74854 1950.75574
1219.0 0.000820 709.09808 1391.28357
1060.0 0.000943 708.44086 1115.15356
897.0 0.001115 707.77740 985.91730
889.0 0.001125 707.10742 920.59399
829.0 0.001206 706.43134 881.69232
820.0 0.001220 705.74896 854.39276
792.0 0.001263 705.06024 833.37091
832.0 0.001202 704.36584 816.51129
811.0 0.001233 703.66528 802.69904
804.0 0.001244 702.95850 791.22198
769.0 0.001300 702.24622 781.57440
796.0 0.001256 701.52740 773.37878
803.0 0.001245 700.80322 766.35925
776.0 0.001289 700.07294 760.30023
793.0 0.001261 699.33716 755.04150
745.0 0.001342 698.59601 750.45764
764.0 0.001309 697.84900 746.44983
767.0 0.001304 697.09650 742.94482
699.0 0.001431 696.33856 739.88489
740.0 0.001351 695.57489 737.22760
799.0 0.001252 694.80640 734.94501
766.0 0.001305 694.03253 733.01874
749.0 0.001335 693.25336 731.44421
773.0 0.001294 692.46899 730.22742
777.0 0.001287 691.67938 729.38965
800.0 0.001250 690.88507 728.96777
767.0 0.001304 690.08582 729.02045
717.0 0.001395 689.28174 729.63574
724.0 0.001381 688.47253 730.94501
779.0 0.001284 687.65851 733.15692
720.0 0.001389 686.84021 736.66449
733.0 0.001364 686.01703 740.12695
775.0 0.001290 685.18945 750.71942
786.0 0.001272 684.35693 764.94110
804.0 0.001244 683.52039 813.87274
857.0 0.001167 682.67950 922.01355
1129.0 0.000886 681.83411 1132.38184
1491.0 0.000671 680.98480 1497.29382
1985.0 0.000504 680.13098 2019.59900
2656.0 0.000377 679.27332 2619.84619
3229.0 0.0003097 678.41162 3129.34180
3570.0 0.0002801 677.54590 3356.28589
3566.0 0.0002804 676.67627 3227.11719
3162.0 0.0003163 675.80292 2845.26099
2357.0 0.000424 674.92560 2357.46045
1836.0 0.000545 674.04492 1864.06836
1492.0 0.000670 673.16034 1439.26965
1117.0 0.000895 672.27246 1124.94006
914.0 0.001094 671.38092 922.47968
732.0 0.001366 670.48590 808.40240
711.0 0.001406 669.58783 751.08136
628.0 0.001592 668.68628 723.76782
687.0 0.001456 667.78168 709.93250
621.0 0.001610 666.87384 701.61798
664.0 0.001506 665.96289 695.68866
615.0 0.001626 665.04932 691.02258
664.0 0.001506 664.13245 687.18079
620.0 0.001613 663.21295 683.94598
621.0 0.001610 662.29041 681.18066
613.0 0.001631 661.36517 678.79108
649.0 0.001541 660.43744 676.71033
607.0 0.001647 659.50696 674.89063
616.0 0.001623 658.57416 673.29907
649.0 0.001541 657.63879 671.91455
608.0 0.001645 656.70111 670.72601
594.0 0.001684 655.76117 669.73157
625.0 0.001600 654.81873 668.93945
621.0 0.001610 653.87451 668.36792
591.0 0.001692 652.92810 668.04901
646.0 0.001548 651.97925 668.03363
630.0 0.001587 651.02881 668.40356
651.0 0.001536 650.07629 669.30884
648.0 0.001543 649.12195 671.09259
598.0 0.001672 648.16577 674.67566
682.0 0.001466 647.20801 682.53528
671.0 0.001490 646.24878 700.64386
715.0 0.001399 645.28754 741.07227
781.0 0.001280 644.32495 822.84650
941.0 0.001063 643.36102 966.51611
1178.0 0.000849 642.39545 1178.58569
1480.0 0.000676 641.42883 1432.01025
1802.0 0.000555 640.46082 1660.49915
1851.0 0.000540 639.49188 1779.88342
1905.0 0.000525 638.52167 1750.84009
1679.0 0.000596 637.54987 1605.46802
1451.0 0.000689 636.57788 1406.10168
1216.0 0.000822 635.60425 1197.47522
1061.0 0.000943 634.63000 1009.28210
906.0 0.001104 633.65503 862.54816
721.0 0.001387 632.67908 762.78748
707.0 0.001414 631.70282 703.28320
669.0 0.001495 630.72546 671.69141
614.0 0.001629 629.74780 656.01685
636.0 0.001572 628.76935 647.94049
570.0 0.001754 627.79083 643.07904
631.0 0.001585 626.81146 639.56702
619.0 0.001616 625.83197 636.71338
638.0 0.001567 624.85236 634.26093
652.0 0.001534 623.87213 632.09058
644.0 0.001553 622.89166 630.13269
633.0 0.001580 621.91138 628.33984
649.0 0.001541 620.93079 626.67633
594.0 0.001684 619.95056 625.11646
655.0 0.001527 618.96991 623.63971
610.0 0.001639 617.98962 626.79669
631.0 0.001585 617.00934 625.67194
628.0 0.001592 616.02924 624.61108
655.0 0.001527 615.04962 623.60950
651.0 0.001536 614.06995 624.44189
626.0 0.001597 613.09045 623.63641
635.0 0.001575 612.11188 622.88867
623.0 0.001605 611.13367 622.19897
624.0 0.001603 610.15558 621.56921
653.0 0.001531 609.17834 621.00195
598.0 0.001672 608.20148 620.50079
613.0 0.001631 607.22540 620.07104
668.0 0.001497 606.24988 619.71942
604.0 0.001656 605.27527 619.45343
643.0 0.001555 604.30133 619.28314
690.0 0.001449 603.32819 619.22046
617.0 0.001621 602.35590 619.27972
584.0 0.001712 601.38434 619.47870
652.0 0.001534 600.41412 619.83911
647.0 0.001546 599.44452 619.56635
583.0 0.001715 598.47589 620.37286
614.0 0.001629 597.50867 621.43707
626.0 0.001597 596.54236 622.80994
606.0 0.001650 595.57745 624.25543
635.0 0.001575 594.61328 626.46954
600.0 0.001667 593.65051 629.24280
688.0 0.001453 592.68921 633.14764
641.0 0.001560 591.72882 637.52106
664.0 0.001506 590.77020 643.02484
652.0 0.001534 589.81268 650.01172
668.0 0.001497 588.85645 659.18286
733.0 0.001364 587.90173 671.17712
712.0 0.001404 586.94861 688.40466
785.0 0.001274 585.99725 716.85327
839.0 0.001192 585.04681 772.34619
875.0 0.001143 584.09833 891.73712
1137.0 0.000880 583.15137 1145.85059
1539.0 0.000650 582.20563 1639.34155
2303.0 0.000434 581.26233 2471.10229
3566.0 0.0002804 580.32007 3646.93823
4838.0 0.0002067 579.37958 4984.67578
5854.0 0.0001708 578.44092 6109.51514
6300.0 0.0001587 577.50415 6610.93652
6286.0 0.0001591 576.56927 6343.51709
5539.0 0.0001805 575.63605 5546.52686
4336.0 0.0002306 574.70453 4532.58984
3180.0 0.0003145 573.77509 3488.06299
2371.0 0.000422 572.84735 2542.76978
1641.0 0.000609 571.92188 1796.89587
1166.0 0.000858 570.99792 1281.37207
827.0 0.001209 570.07593 968.87140
743.0 0.001346 569.15607 801.40546
678.0 0.001475 568.23816 719.02319
665.0 0.001504 567.32239 678.58044
614.0 0.001629 566.40814 656.38440
609.0 0.001642 565.49658 642.03479
611.0 0.001637 564.58673 631.60138
608.0 0.001645 563.67883 623.65576
642.0 0.001558 562.77356 617.68689
583.0 0.001715 561.86981 613.71350
621.0 0.001610 560.96844 612.57385
622.0 0.001608 560.06952 616.76569
608.0 0.001645 559.17212 631.67761
651.0 0.001536 558.27747 666.14545
743.0 0.001346 557.38458 730.21631
868.0 0.001152 556.49408 828.21375
987.0 0.001013 555.60559 949.36737
1118.0 0.000894 554.71973 1063.78064
1212.0 0.000825 553.83569 1131.42188
1191.0 0.000840 552.95398 1127.43787
1160.0 0.000862 552.07434 1064.21692
1025.0 0.000976 551.19733 972.49664
856.0 0.001168 550.32233 873.21100
776.0 0.001289 549.44971 778.81659
731.0 0.001368 548.57922 699.83386
610.0 0.001639 547.71075 641.78003
592.0 0.001689 546.84515 604.05688
633.0 0.001580 545.98151 582.16119
590.0 0.001695 545.12006 570.38965
570.0 0.001754 544.26105 564.00116
572.0 0.001748 543.40405 560.09009
573.0 0.001745 542.54980 557.25024
569.0 0.001757 541.69727 554.91125
568.0 0.001761 540.84753 548.25708
580.0 0.001724 540.00000 546.61707
564.0 0.001773 539.15466 545.11237
594.0 0.001684 538.31146 543.71381
584.0 0.001712 537.47076 540.70343
590.0 0.001695 536.63232 539.53455
571.0 0.001751 535.79626 538.41595
579.0 0.001727 534.96204 537.92297
591.0 0.001692 534.13068 536.90979
559.0 0.001789 533.30103 535.92743
552.0 0.001812 532.47430 534.97266
507.0 0.001972 531.64941 534.26666
547.0 0.001828 530.82690 533.36792
503.0 0.001988 530.00653 532.48975
464.0 0.002155 529.18848 531.68988
511.0 0.001957 528.37274 530.85016
504.0 0.001984 527.55927 530.02759
535.0 0.001869 526.74762 529.24384
507.0 0.001972 525.93866 528.45551
523.0 0.001912 525.13171 527.68372
509.0 0.001965 524.32709 526.92950
505.0 0.001980 523.52454 526.19293
547.0 0.001828 522.72406 525.47546
490.0 0.002041 521.92609 524.77869
478.0 0.002092 521.12988 524.10406
493.0 0.002028 520.33624 523.45453
513.0 0.001949 519.54456 522.37982
528.0 0.001894 518.75519 521.81091
520.0 0.001923 517.96771 521.27704
486.0 0.002058 517.18213 520.78400
486.0 0.002058 516.39911 520.17316
559.0 0.001789 515.61810 519.79608
522.0 0.001916 514.83881 519.49011
508.0 0.001969 514.06195 519.27191
483.0 0.002070 513.28699 519.16382
510.0 0.001961 512.51428 519.19537
490.0 0.002041 511.74341 519.40887
491.0 0.002037 510.97443 519.86517
513.0 0.001949 510.20746 520.67456
534.0 0.001873 509.44260 522.08124
544.0 0.001838 508.67990 524.72272
562.0 0.001779 507.91885 530.27783
546.0 0.001832 507.15979 542.68329
582.0 0.001718 506.40259 569.61060
588.0 0.001701 505.64734 623.51416
724.0 0.001381 504.89423 714.38385
944.0 0.001059 504.14270 845.52014
1081.0 0.000925 503.39310 999.34985
1157.0 0.000864 502.64529 1136.08191
1178.0 0.000849 501.89941 1207.15161
1239.0 0.000807 501.15533 1190.22034
1312.0 0.000762 500.41287 1108.40234
1107.0 0.000903 499.67230 999.06970
919.0 0.001088 498.93353 883.62402
774.0 0.001292 498.19632 773.38782
724.0 0.001381 497.46115 679.69110
628.0 0.001592 496.72754 609.57269
580.0 0.001724 495.99545 563.53705
570.0 0.001754 495.26520 537.42212
498.0 0.002008 494.53647 525.47729
554.0 0.001805 493.80975 523.33704
520.0 0.001923 493.08423 529.14984
568.0 0.001761 492.36023 542.52307
549.0 0.001821 491.63828 562.16583
604.0 0.001656 490.91745 583.91412
630.0 0.001587 490.19849 600.75781
627.0 0.001595 489.48093 606.00146
605.0 0.001653 488.76483 598.53174
618.0 0.001618 488.05035 583.37311
555.0 0.001802 487.33734 565.57605
528.0 0.001894 486.62558 547.54523
518.0 0.001931 485.91525 530.84052
500.0 0.002000 485.20639 517.05383
485.0 0.002062 484.49927 506.97260
483.0 0.002070 483.79327 500.43018
499.0 0.002004 483.08856 496.64273
532.0 0.001880 482.38535 494.63925
469.0 0.002132 481.68347 493.63986
534.0 0.001873 480.98300 493.18271
493.0 0.002028 480.28345 493.06134
502.0 0.001992 479.58548 493.21487
493.0 0.002028 478.88867 493.65207
465.0 0.002151 478.19299 494.41708
516.0 0.001938 477.49881 495.58536
505.0 0.001980 476.80560 497.27444
530.0 0.001887 476.11392 499.69012
509.0 0.001965 475.42307 503.27649
523.0 0.001912 474.73346 509.17267
529.0 0.001890 474.04517 520.38373
569.0 0.001757 473.35791 544.12585
602.0 0.001661 472.67191 594.32196
809.0 0.001236 471.98666 695.28424
1050.0 0.000952 471.30255 871.85962
1227.0 0.000815 470.61984 1134.57764
1468.0 0.000681 469.93790 1456.12317
1675.0 0.000597 469.25711 1763.40735
1860.0 0.000538 468.57733 1950.38867
1880.0 0.000532 467.89847 1954.31140
1876.0 0.000533 467.22064 1806.87781
1592.0 0.000628 466.54379 1589.94873
1187.0 0.000842 465.86807 1354.24963
1029.0 0.000972 465.19315 1122.12073
883.0 0.001133 464.51920 914.36658
759.0 0.001318 463.84607 749.76093
635.0 0.001575 463.17401 634.53937
526.0 0.001901 462.50284 563.41956
479.0 0.002088 461.83252 524.26123
521.0 0.001919 461.16290 504.23032
515.0 0.001942 460.49438 493.86884
498.0 0.002008 459.82657 487.85718
515.0 0.001942 459.15976 483.77945
477.0 0.002096 458.49365 480.67587
493.0 0.002028 457.82822 478.17462
492.0 0.002033 457.16400 476.10724
486.0 0.002058 456.50021 474.37708
471.0 0.002123 455.83734 472.92108
492.0 0.002033 455.17514 471.69373
457.0 0.002188 454.51373 470.60431
444.0 0.002252 453.85327 469.75220
469.0 0.002132 453.19330 469.06039
486.0 0.002058 452.53421 468.52075
520.0 0.001923 451.87582 468.10748
455.0 0.002198 451.21799 467.86758
494.0 0.002024 450.56128 467.78400
491.0 0.002037 449.90488 467.86789
456.0 0.002193 449.24948 468.13565
496.0 0.002016 448.59460 468.61002
485.0 0.002062 447.94040 469.32144
489.0 0.002045 447.28699 470.30978
502.0 0.001992 446.63422 471.62799
517.0 0.001934 445.98203 473.34457
466.0 0.002146 445.33051 475.55157
518.0 0.001931 444.67975 478.37082
534.0 0.001873 444.02951 481.96768
520.0 0.001923 443.37997 486.58044
518.0 0.001931 442.73117 492.57544
555.0 0.001802 442.08295 500.65485
561.0 0.001783 441.43521 512.46832
571.0 0.001751 440.78833 532.34534
625.0 0.001600 440.14197 571.20172
644.0 0.001553 439.49637 652.89978
821.0 0.001218 438.85141 820.13452
1167.0 0.000857 438.20682 1130.20496
1781.0 0.000561 437.56329 1629.13135
2455.0 0.000407 436.91998 2304.68237
3114.0 0.0003211 436.27762 3042.63184
3525.0 0.0002837 435.63550 3634.87769
3624.0 0.0002759 434.99420 3870.15674
3768.0 0.0002654 434.35370 3700.16992
3302.0 0.0003028 433.71353 3279.42676
2600.0 0.000385 433.07431 2773.73853
2004.0 0.000499 432.43555 2255.80078
1616.0 0.000619 431.79727 1757.49329
1257.0 0.000796 431.15994 1323.85645
912.0 0.001096 430.52313 989.04932
662.0 0.001511 429.88696 760.67792
563.0 0.001776 429.25140 622.96832
547.0 0.001828 428.61636 548.38141
505.0 0.001980 427.98233 510.22000
475.0 0.002105 427.34863 490.00891
468.0 0.002137 426.71600 477.84406
485.0 0.002062 426.08362 469.32623
505.0 0.001980 425.45215 462.72137
456.0 0.002193 424.82126 457.32776
502.0 0.001992 424.19119 452.80353
452.0 0.002212 423.56165 448.94360
473.0 0.002114 422.93283 445.60281
451.0 0.002217 422.30484 442.67624
436.0 0.002294 421.67758 440.08432
447.0 0.002237 421.05099 437.76425
450.0 0.002222 420.42514 435.66928
420.0 0.002381 419.80005 433.76044
464.0 0.002155 419.17563 432.00809
422.0 0.002370 418.55209 430.38864
428.0 0.002336 417.92917 428.88126
388.0 0.002577 417.30716 427.47070
408.0 0.002451 416.68604 426.14301
424.0 0.002358 416.06540 424.88724
434.0 0.002304 415.44586 423.69464
398.0 0.002513 414.82709 422.55679
394.0 0.002538 414.20923 421.46747
447.0 0.002237 413.59201 420.42062
391.0 0.002558 412.97571 419.41177
413.0 0.002421 412.36041 418.43698
409.0 0.002445 411.74585 417.49448
390.0 0.002564 411.13242 416.57706
409.0 0.002445 410.51965 415.68396
381.0 0.002625 409.90787 414.81293
357.0 0.002801 409.29718 413.96207
402.0 0.002488 408.68723 413.13031
404.0 0.002475 408.07846 412.31421
405.0 0.002469 407.47055 411.51328
354.0 0.002825 406.86362 410.72629
343.0 0.002915 406.25784 409.95227
406.0 0.002463 405.65295 409.18994
418.0 0.002392 405.04919 408.43869
431.0 0.002320 404.44623 407.70718
405.0 0.002469 403.84476 406.97580
416.0 0.002404 403.24402 404.18005
390.0 0.002564 402.64459 403.54395
421.0 0.002375 402.04626 402.91483
386.0 0.002591 401.44910 402.28561
393.0 0.002545 400.85297 400.87650
392.0 0.002551 400.25824 400.28293
402.0 0.002488 399.66443 399.69034
405.0 0.002469 399.07193 399.09924
388.0 0.002577 398.48083 398.50952
357.0 0.002801 397.89069 397.92084
382.0 0.002618 397.30219 397.33405
376.0 0.002660 396.71463 396.74826
374.0 0.002674 396.12860 396.16428
420.0 0.002381 395.54355 395.58154
376.0 0.002660 394.96011 395.00040
389.0 0.002571 394.37802 394.42102
404.0 0.002475 393.79727 393.84323
380.0 0.002632 393.21802 393.26721
408.0 0.002451 392.63992 392.69281
345.0 0.002899 392.06339 392.12039
374.0 0.002674 391.48853 391.55005
345.0 0.002899 390.91483 390.98157
380.0 0.002632 390.34283 390.41556
356.0 0.002809 389.77222 389.85190
363.0 0.002755 389.20322 389.29080
351.0 0.002849 388.63571 388.73279
359.0 0.002786 388.06976 388.17804
355.0 0.002817 387.50568 387.62756
367.0 0.002725 386.94275 387.08194
373.0 0.002681 386.38184 386.54486
382.0 0.002618 385.82242 386.02365
339.0 0.002950 385.26462 385.53589
373.0 0.002681 384.70865 385.11624
376.0 0.002660 384.15433 384.81857
397.0 0.002519 383.60159 384.70190
373.0 0.002681 383.05081 384.79376
409.0 0.002445 382.50183 385.03787
360.0 0.002778 381.95465 385.26797
400.0 0.002500 381.40918 385.24713
385.0 0.002597 380.86551 384.80685
376.0 0.002660 380.32394 384.00711
378.0 0.002646 379.78394 383.06247
368.0 0.002717 379.24612 382.15112
361.0 0.002770 378.71002 381.39423
419.0 0.002387 378.17590 381.12659
379.0 0.002639 377.64380 381.44373
427.0 0.002342 377.11371 382.47815
382.0 0.002618 376.58554 384.40656
386.0 0.002591 376.05930 386.93707
391.0 0.002558 375.53513 389.16107
417.0 0.002398 375.01328 390.22168
390.0 0.002564 374.49332 390.41730
393.0 0.002545 373.97549 388.46292
392.0 0.002551 373.45966 386.01727
419.0 0.002387 372.94617 383.51389
379.0 0.002639 372.43475 381.37616
379.0 0.002639 371.92548 379.02924
410.0 0.002439 371.41852 376.97263
422.0 0.002370 370.91364 375.32288
387.0 0.002584 370.41110 374.09360
361.0 0.002770 369.91083 373.21362
371.0 0.002695 369.41284 372.57321
393.0 0.002545 368.91702 372.07419
366.0 0.002732 368.42361 371.65216
371.0 0.002695 367.93237 371.27328
402.0 0.002488 367.44370 370.92429
363.0 0.002755 366.95734 370.60028
376.0 0.002660 366.47339 370.30066
362.0 0.002762 365.99176 370.02609
402.0 0.002488 365.51266 369.77826
407.0 0.002457 365.03595 369.55963
382.0 0.002618 364.56161 369.37271
385.0 0.002597 364.08987 369.22144
377.0 0.002653 363.62057 369.11014
350.0 0.002857 363.15366 369.04428
356.0 0.002809 362.68951 369.03061
391.0 0.002558 362.22766 369.07684
372.0 0.002688 361.76855 369.19305
353.0 0.002833 361.31195 369.39182
376.0 0.002660 360.85776 369.68814
393.0 0.002545 360.40634 370.10135
367.0 0.002725 359.95749 370.65659
372.0 0.002688 359.51138 372.77185
388.0 0.002577 359.06778 373.77374
379.0 0.002639 358.62680 375.05807
379.0 0.002639 358.18872 376.72653
396.0 0.002525 357.75314 379.49948
394.0 0.002538 357.32050 382.82642
393.0 0.002545 356.89020 388.28159
416.0 0.002404 356.46280 398.12863
439.0 0.002278 356.03824 416.40552
483.0 0.002070 355.61633 448.88779
543.0 0.001842 355.19717 501.40518
590.0 0.001695 354.78076 576.52399
729.0 0.001372 354.36725 669.94220
762.0 0.001312 353.95633 770.36694
947.0 0.001056 353.54846 866.79358
1020.0 0.000980 353.14334 962.24792
1166.0 0.000858 352.74072 1078.70972
1339.0 0.000747 352.34131 1240.44470
1587.0 0.000630 351.94467 1445.31396
1652.0 0.000605 351.55078 1647.16492
1639.0 0.000610 351.15979 1769.38782
1687.0 0.000593 350.77182 1753.40881
1598.0 0.000626 350.38651 1615.13513
1566.0 0.000639 350.00415 1424.56506
1155.0 0.000866 349.62479 1232.97583
1001.0 0.000999 349.24823 1051.72473
815.0 0.001227 348.87457 878.92627
763.0 0.001311 348.50378 723.56647
610.0 0.001639 348.13611 597.87726
519.0 0.001927 347.77106 507.31677
421.0 0.002375 347.40924 449.50867
417.0 0.002398 347.05020 416.54120
413.0 0.002421 346.69394 399.26694
411.0 0.002433 346.34100 390.49960
373.0 0.002681 345.99066 385.93506
362.0 0.002762 345.64355 383.49722
384.0 0.002604 345.29926 382.33865
376.0 0.002660 344.95786 382.16882
400.0 0.002500 344.61945 382.92957
381.0 0.002625 344.28394 384.69046
385.0 0.002597 343.95148 387.66397
417.0 0.002398 343.62201 392.37790
429.0 0.002331 343.29538 400.19916
442.0 0.002262 342.97177 414.64169
474.0 0.002110 342.65109 443.91205
476.0 0.002101 342.33331 504.20459
594.0 0.001684 342.01859 621.17401
832.0 0.001202 341.70688 824.04706
1171.0 0.000854 341.39795 1128.57129
1513.0 0.000661 341.09216 1513.37292
1837.0 0.000544 340.78906 1903.45361
2032.0 0.000492 340.48911 2182.83618
2234.0 0.000448 340.19199 2253.83960
2164.0 0.000462 339.89792 2123.70703
2094.0 0.000478 339.60669 1890.95581
1627.0 0.000615 339.31857 1638.91089
1320.0 0.000758 339.03314 1391.56897
1126.0 0.000888 338.75061 1146.94739
960.0 0.001042 338.47116 917.64673
731.0 0.001368 338.19449 724.84985
543.0 0.001842 337.92087 581.01324
463.0 0.002160 337.64993 485.89337
407.0 0.002457 337.38196 429.73306
389.0 0.002571 337.11697 399.20810
387.0 0.002584 336.85461 382.92499
372.0 0.002688 336.59534 373.46100
411.0 0.002433 336.33871 367.39661
368.0 0.002717 336.08508 362.78241
372.0 0.002688 335.83417 359.22815
387.0 0.002584 335.58609 356.29025
394.0 0.002538 335.34094 353.75311
385.0 0.002597 335.09845 351.58069
343.0 0.002915 334.85886 348.86029
375.0 0.002667 334.62192 347.29190
392.0 0.002551 334.38782 345.90952
341.0 0.002933 334.15637 344.69006
343.0 0.002915 333.92783 343.24936
388.0 0.002577 333.70175 342.27023
356.0 0.002809 333.47855 341.38208
356.0 0.002809 333.25781 340.57141
344.0 0.002907 333.04004 339.83142
349.0 0.002865 332.82492 339.14545
359.0 0.002786 332.61227 338.50964
373.0 0.002681 332.40234 337.91818
357.0 0.002801 332.19498 337.36551
358.0 0.002793 331.99030 336.84723
332.0 0.003012 331.78809 336.35934
321.0 0.003115 331.58844 335.89896
332.0 0.003012 331.39151 335.46304
329.0 0.003040 331.19684 335.04950
336.0 0.002976 331.00488 334.65607
333.0 0.003003 330.81534 334.28070
331.0 0.003021 330.62827 333.92212
319.0 0.003135 330.44357 333.57889
337.0 0.002967 330.26135 333.24960
322.0 0.003106 330.08163 332.93356
327.0 0.003058 329.90417 332.62930
313.0 0.003195 329.72913 332.33630
329.0 0.003040 329.55649 332.05386
314.0 0.003185 329.38605 331.78101
333.0 0.003003 329.21808 331.51749
315.0 0.003175 329.05228 331.26257
363.0 0.002755 328.88873 331.01599
336.0 0.002976 328.72751 329.40366
330.0 0.003030 328.56851 329.22391
322.0 0.003106 328.41156 329.04819
334.0 0.002994 328.25684 328.90131
306.0 0.003268 328.10431 328.73529
316.0 0.003165 327.95386 328.06509
331.0 0.003021 327.80539 327.92694
322.0 0.003106 327.65915 327.80164
330.0 0.003030 327.51486 327.67142
310.0 0.003226 327.37259 327.54611
324.0 0.003086 327.23233 327.42575
337.0 0.002967 327.09396 327.31158
297.0 0.003367 326.95767 327.20511
314.0 0.003185 326.82333 327.10873
305.0 0.003279 326.69067 327.14008
307.0 0.003257 326.56018 327.09808
304.0 0.003289 326.43115 327.12738
308.0 0.003247 326.30420 327.30698
307.0 0.003257 326.17883 327.77045
358.0 0.002793 326.05536 328.73175
334.0 0.002994 325.93375 330.24393
331.0 0.003021 325.81351 332.32059
323.0 0.003096 325.69513 334.65082
357.0 0.002801 325.57825 336.63251
325.0 0.003077 325.46307 337.59497
341.0 0.002933 325.34949 337.28391
309.0 0.003236 325.23737 336.11926
326.0 0.003067 325.12695 334.69199
344.0 0.002907 325.01788 333.26266
290.0 0.003448 324.91025 331.79681
328.0 0.003049 324.80420 330.27371
320.0 0.003125 324.69946 328.83011
314.0 0.003185 324.59610 327.61652
328.0 0.003049 324.49393 326.69705
332.0 0.003012 324.39334 326.05438
309.0 0.003236 324.29395 325.62817
324.0 0.003086 324.19577 325.35077
308.0 0.003247 324.09879 325.16870
321.0 0.003115 324.00308 325.04752
280.0 0.00357 323.90848 324.96793
327.0 0.003058 323.81491 324.91898
337.0 0.002967 323.72247 324.89590
290.0 0.003448 323.63126 324.89777
365.0 0.002740 323.54095 324.92786
325.0 0.003077 323.45160 324.99619
318.0 0.003145 323.36328 325.12857
320.0 0.003125 323.27591 325.38751
312.0 0.003205 323.18961 325.91205
312.0 0.003205 323.10388 326.96469
325.0 0.003077 323.01920 328.94360
342.0 0.002924 322.93533 332.28220
300.0 0.003333 322.85211 337.19681
355.0 0.002817 322.76984 343.33994
354.0 0.002825 322.68817 349.58374
333.0 0.003003 322.60715 354.19205
337.0 0.002967 322.52673 355.72302
324.0 0.003086 322.44708 354.34973
323.0 0.003096 322.36807 351.84616
363.0 0.002755 322.28943 350.13223
342.0 0.002924 322.21136 350.70554
370.0 0.002703 322.13382 355.11679
350.0 0.002857 322.05685 365.93082
394.0 0.002538 321.98019 383.57111
417.0 0.002398 321.90399 407.78619
419.0 0.002387 321.82813 434.09827
438.0 0.002283 321.75269 454.72684
469.0 0.002132 321.67749 462.29919
448.0 0.002232 321.60260 455.03189
454.0 0.002203 321.52783 439.30154
429.0 0.002331 321.45346 421.88171
434.0 0.002304 321.37915 405.40741
360.0 0.002778 321.30508 389.30881
388.0 0.002577 321.23102 373.24954
361.0 0.002770 321.15710 358.45981
303.0 0.003300 321.08337 346.33340
363.0 0.002755 321.00946 337.51001
356.0 0.002809 320.93573 331.79279
325.0 0.003077 320.86182 328.46704
351.0 0.002849 320.78790 326.65723
310.0 0.003226 320.71393 325.67871
327.0 0.003058 320.63983 325.10913
331.0 0.003021 320.56549 324.98029
308.0 0.003247 320.49112 324.73703
314.0 0.003185 320.41653 324.56659
341.0 0.002933 320.34167 324.45245
325.0 0.003077 320.26651 324.38611
328.0 0.003049 320.19095 324.45193
313.0 0.003195 320.11526 324.47345
359.0 0.002786 320.03925 324.53552
303.0 0.003300 319.96271 324.63889
313.0 0.003195 319.88565 324.78629
356.0 0.002809 319.80838 324.98126
315.0 0.003175 319.73059 325.22946
320.0 0.003125 319.65234 325.53839
304.0 0.003289 319.57349 325.91806
316.0 0.003165 319.49414 326.38153
357.0 0.002801 319.41422 326.94559
334.0 0.002994 319.33371 327.63232
346.0 0.002890 319.25256 328.47159
358.0 0.002793 319.17093 329.50397
340.0 0.002941 319.08835 330.78665
323.0 0.003096 319.00531 332.41330
330.0 0.003030 318.92139 334.56601
344.0 0.002907 318.83670 337.83548
359.0 0.002786 318.75131 342.93811
363.0 0.002755 318.66507 352.41785
383.0 0.002611 318.57806 370.99548
366.0 0.002732 318.49023 407.73752
484.0 0.002066 318.40146 469.69516
600.0 0.001667 318.31189 564.99841
729.0 0.001372 318.22134 691.11975
858.0 0.001166 318.12985 829.60669
920.0 0.001087 318.03748 946.21716
1017.0 0.000983 317.94409 1001.60468
1058.0 0.000945 317.84967 982.02545
1022.0 0.000978 317.75430 912.42737
919.0 0.001088 317.65765 829.04620
687.0 0.001456 317.56024 750.23260
645.0 0.001550 317.46158 675.43738
599.0 0.001669 317.36185 599.78711
551.0 0.001815 317.26111 526.76288
492.0 0.002033 317.15921 463.81918
439.0 0.002278 317.05591 415.87173
387.0 0.002584 316.95163 384.00143
382.0 0.002618 316.84628 366.13474
337.0 0.002967 316.73938 359.39651
370.0 0.002703 316.63159 362.27121
375.0 0.002667 316.52222 375.79160
437.0 0.002288 316.41187 401.95782
466.0 0.002146 316.30017 442.43866
532.0 0.001880 316.18701 494.52942
554.0 0.001805 316.07278 549.00409
548.0 0.001825 315.95700 590.84497
590.0 0.001695 315.84000 605.59100
594.0 0.001684 315.72171 591.37628
589.0 0.001698 315.60193 560.77936
515.0 0.001942 315.48090 527.44550
485.0 0.002062 315.35843 496.82010
443.0 0.002257 315.23453 467.48596
443.0 0.002257 315.10919 437.81793
406.0 0.002463 314.98245 409.73938
426.0 0.002347 314.85425 386.23630
363.0 0.002755 314.72458 369.08981
361.0 0.002770 314.59351 358.73898
373.0 0.002681 314.46100 353.62488
347.0 0.002882 314.32690 352.60950
387.0 0.002584 314.19135 354.74054
369.0 0.002710 314.05432 360.05551
371.0 0.002695 313.91574 370.02832
404.0 0.002475 313.77563 387.43286
463.0 0.002160 313.63416 417.10373
495.0 0.002020 313.49094 465.63544
501.0 0.001996 313.34631 541.61224
617.0 0.001621 313.20029 655.49829
794.0 0.001259 313.05249 817.64630
1056.0 0.000947 312.90308 1033.48743
1378.0 0.000726 312.75235 1297.01099
1594.0 0.000627 312.59988 1579.42761
1679.0 0.000596 312.44608 1817.97754
1693.0 0.000591 312.29047 1932.08008
1825.0 0.000548 312.13324 1882.26978
1889.0 0.000529 311.97458 1714.81055
1589.0 0.000629 311.81430 1511.96448
1229.0 0.000814 311.65259 1322.49316
976.0 0.001025 311.48901 1149.35266
882.0 0.001134 311.32407 978.07416
835.0 0.001198 311.15741 811.36853
657.0 0.001522 310.98941 663.52991
539.0 0.001855 310.81952 546.58331
438.0 0.002283 310.64807 464.40158
401.0 0.002494 310.47528 413.73047
377.0 0.002653 310.30078 387.23755
339.0 0.002950 310.12479 378.29428
383.0 0.002611 309.94717 383.36261
371.0 0.002695 309.76788 401.64777
447.0 0.002237 309.58707 432.82855
498.0 0.002008 309.40466 473.07278
531.0 0.001883 309.22092 514.33685
538.0 0.001859 309.03549 544.20599
570.0 0.001754 308.84842 551.82501
565.0 0.001770 308.65988 537.16199
530.0 0.001887 308.46967 510.88071
501.0 0.001996 308.27814 483.63391
460.0 0.002174 308.08496 459.26282
417.0 0.002398 307.89029 436.08749
434.0 0.002304 307.69415 413.34070
390.0 0.002564 307.49637 393.00613
399.0 0.002506 307.29727 379.21582
382.0 0.002618 307.09650 376.39478
384.0 0.002604 306.89435 388.55368
433.0 0.002309 306.69077 418.46698
494.0 0.002024 306.48572 465.08707
532.0 0.001880 306.27914 521.66010
532.0 0.001880 306.07129 574.75140
572.0 0.001748 305.86182 607.16626
606.0 0.001650 305.65115 607.95679
604.0 0.001656 305.43887 582.34552
536.0 0.001866 305.22531 546.33398
535.0 0.001869 305.01038 511.47418
453.0 0.002208 304.79413 480.57904
448.0 0.002232 304.57626 449.58286
424.0 0.002358 304.35727 417.74860
444.0 0.002252 304.13699 387.70697
381.0 0.002625 303.91541 362.46921
337.0 0.002967 303.69241 343.59497
305.0 0.003279 303.46820 331.19128
344.0 0.002907 303.24268 323.36642
342.0 0.002924 303.01608 318.99420
329.0 0.003040 302.78812 316.49374
309.0 0.003236 302.55896 314.96130
324.0 0.003086 302.32858 313.91885
310.0 0.003226 302.09698 311.79865
339.0 0.002950 301.86432 311.25409
323.0 0.003096 301.63046 310.84360
300.0 0.003333 301.39548 310.54852
305.0 0.003279 301.15939 310.36087
305.0 0.003279 300.92224 309.79214
329.0 0.003040 300.68396 309.83725
309.0 0.003236 300.44482 310.00003
344.0 0.002907 300.20441 310.29672
302.0 0.003311 299.96301 310.75531
350.0 0.002857 299.72073 311.42520
312.0 0.003205 299.47748 312.41147
339.0 0.002950 299.23331 313.95676
341.0 0.002933 298.98810 316.61502
323.0 0.003096 298.74207 321.53094
324.0 0.003086 298.49500 330.72473
332.0 0.003012 298.24722 347.06509
412.0 0.002427 297.99881 373.52560
435.0 0.002299 297.74924 411.58362
496.0 0.002016 297.49896 459.15146
454.0 0.002203 297.24789 510.43784
494.0 0.002024 296.99622 555.98834
568.0 0.001761 296.74374 589.00439
645.0 0.001550 296.49048 612.59973
717.0 0.001395 296.23657 636.82794
730.0 0.001370 295.98212 665.73065
653.0 0.001531 295.72696 690.09076
724.0 0.001381 295.47128 692.90222
683.0 0.001464 295.21487 664.90778
598.0 0.001672 294.95801 615.56378
581.0 0.001721 294.70050 562.29266
534.0 0.001873 294.44269 516.01050
473.0 0.002114 294.18436 477.87552
446.0 0.002242 293.92551 443.96069
383.0 0.002611 293.66620 412.28021
383.0 0.002611 293.40652 384.02652
360.0 0.002778 293.14648 361.79126
326.0 0.003067 292.88614 346.43292
323.0 0.003096 292.62531 338.06085
320.0 0.003125 292.36432 336.35931
343.0 0.002915 292.10312 341.46600
355.0 0.002817 291.84155 355.12265
405.0 0.002469 291.57990 380.08334
432.0 0.002315 291.31793 419.81433
485.0 0.002062 291.05585 477.42276
564.0 0.001773 290.79361 554.99176
683.0 0.001464 290.53140 653.03400
817.0 0.001224 290.26907 770.70758
925.0 0.001081 290.00653 906.88263
1111.0 0.000900 289.74402 1055.21704
1178.0 0.000849 289.48160 1191.77246
1172.0 0.000853 289.21924 1274.06506
1250.0 0.000800 288.95688 1267.11084
1271.0 0.000787 288.69464 1179.55310
1187.0 0.000842 288.43237 1056.48657
968.0 0.001033 288.17035 937.06384
779.0 0.001284 287.90857 833.66144
681.0 0.001468 287.64694 738.21704
640.0 0.001563 287.38553 642.71069
554.0 0.001805 287.12430 550.93890
510.0 0.001961 286.86346 471.27713
409.0 0.002445 286.60294 409.29507
340.0 0.002941 286.34277 366.01553
347.0 0.002882 286.08295 338.64548
323.0 0.003096 285.82339 322.55917
272.0 0.00368 285.56436 313.32129
311.0 0.003215 285.30585 307.77014
305.0 0.003279 285.04776 304.07458
285.0 0.00351 284.79019 301.32898
294.0 0.003401 284.53311 299.12460
288.0 0.003472 284.27664 297.27579
278.0 0.00360 284.02066 295.68793
302.0 0.003311 283.76553 294.30298
278.0 0.00360 283.51083 293.11960
262.0 0.00382 283.25687 292.03052
272.0 0.00368 283.00363 291.05081
286.0 0.003497 282.75107 290.16196
264.0 0.00379 282.49939 289.34976
302.0 0.003311 282.24838 288.61667
285.0 0.00351 281.99817 288.03055
279.0 0.00358 281.74878 287.38950
273.0 0.00366 281.50043 286.78995
300.0 0.003333 281.25290 286.22684
300.0 0.003333 281.00616 285.69476
300.0 0.003333 280.76047 285.23035
305.0 0.003279 280.51572 284.61398
327.0 0.003058 280.27200 284.16257
280.0 0.00357 280.02930 283.76218
294.0 0.003401 279.78760 283.34915
266.0 0.00376 279.54700 282.95221
301.0 0.003322 279.30746 282.34363
303.0 0.003300 279.06909 281.98206
294.0 0.003401 278.83194 281.63254
307.0 0.003257 278.59592 281.30612
299.0 0.003344 278.36108 280.97858
306.0 0.003268 278.12738 280.59451
279.0 0.00358 277.89505 280.28802
293.0 0.003413 277.66403 279.99051
285.0 0.00351 277.43420 279.70099
277.0 0.00361 277.20575 279.41946
261.0 0.00383 276.97861 279.14554
277.0 0.00361 276.75293 278.87912
276.0 0.00362 276.52853 278.62015
272.0 0.00368 276.30557 278.36826
278.0 0.00360 276.08411 278.12390
237.0 0.00422 275.86401 277.88660
273.0 0.00366 275.64557 277.66037
279.0 0.00358 275.42850 277.43820
272.0 0.00368 275.21292 277.22397
283.0 0.00353 274.99899 277.01758
287.0 0.003484 274.78656 276.69025
308.0 0.003247 274.57571 276.50577
249.0 0.00402 274.36655 276.33206
258.0 0.00388 274.15900 276.16739
268.0 0.00373 273.95309 275.45291
282.0 0.00355 273.74866 275.28012
277.0 0.00361 273.54626 275.17191
254.0 0.00394 273.34531 275.07864
263.0 0.00380 273.14621 275.00330
284.0 0.00352 272.94885 274.94833
274.0 0.00365 272.75323 274.70966
270.0 0.00370 272.55945 274.71423
268.0 0.00373 272.36743 274.75391
264.0 0.00379 272.17712 274.83719
264.0 0.00379 271.98880 274.97745
296.0 0.003378 271.80231 275.19824
272.0 0.00368 271.61774 275.54950
257.0 0.00389 271.43503 276.13943
252.0 0.00397 271.25406 277.19232
288.0 0.003472 271.07513 279.11945
284.0 0.00352 270.89804 282.54941
306.0 0.003268 270.72302 288.23642
303.0 0.003300 270.54996 296.78598
299.0 0.003344 270.37885 308.27777
333.0 0.003003 270.20966 321.99518
330.0 0.003030 270.04254 336.51678
340.0 0.002941 269.87738 350.46405
380.0 0.002632 269.71432 364.17682
343.0 0.002915 269.55322 380.36127
438.0 0.002283 269.39410 401.19421
419.0 0.002387 269.23721 424.83905
432.0 0.002315 269.08240 444.64288
461.0 0.002169 268.92969 452.04297
408.0 0.002451 268.77896 443.53452
439.0 0.002278 268.63034 424.79282
453.0 0.002208 268.48386 405.02463
392.0 0.002551 268.33948 390.13953
361.0 0.002770 268.19736 380.83063
389.0 0.002571 268.05716 374.17215
362.0 0.002762 267.91922 367.52417
328.0 0.003049 267.78348 358.31793
325.0 0.003077 267.64987 346.46185
320.0 0.003125 267.51846 333.01685
321.0 0.003115 267.38916 320.35431
316.0 0.003165 267.26208 310.22864
254.0 0.00394 267.13724 303.00272
279.0 0.00358 267.01459 297.29755
289.0 0.003460 266.89404 292.08887
280.0 0.00357 266.77579 286.96347
252.0 0.00397 266.65961 282.20789
282.0 0.00355 266.54565 278.21243
289.0 0.003460 266.43417 275.19870
283.0 0.00353 266.32477 273.17847
242.0 0.00413 266.21759 272.02222
290.0 0.003448 266.11255 271.55759
285.0 0.00351 266.00983 271.63062
260.0 0.00385 265.90927 272.09903
249.0 0.00402 265.81094 272.78622
278.0 0.00360 265.71481 273.44370
279.0 0.00358 265.62106 273.77048
310.0 0.003226 265.52945 273.57642
265.0 0.00377 265.44000 272.96902
265.0 0.00377 265.35272 272.22598
279.0 0.00358 265.26785 271.55328
276.0 0.00362 265.18518 271.00244
299.0 0.003344 265.10458 270.50308
276.0 0.00362 265.02634 269.98343
271.0 0.00369 264.95026 269.45676
262.0 0.00382 264.87640 268.98053
280.0 0.00357 264.80478 268.60162
283.0 0.00353 264.73526 268.34033
243.0 0.00412 264.66800 268.19171
250.0 0.00400 264.60309 268.13440
279.0 0.00358 264.54016 268.14499
280.0 0.00357 264.47952 268.20471
258.0 0.00388 264.42087 268.30322
253.0 0.00395 264.36469 268.43646
284.0 0.00352 264.31052 268.60455
269.0 0.00372 264.25848 268.81006
263.0 0.00380 264.20868 269.05725
263.0 0.00380 264.16086 269.35168
233.0 0.00429 264.11533 269.70074
264.0 0.00379 264.07187 270.11340
267.0 0.00375 264.03049 270.60120
277.0 0.00361 263.99109 271.17877
274.0 0.00365 263.95395 271.86426
233.0 0.00429 263.91898 272.68198
260.0 0.00385 263.88608 273.66299
293.0 0.003413 263.85504 274.85028
281.0 0.00356 263.82623 276.26511
283.0 0.00353 263.79926 278.08719
254.0 0.00394 263.77451 280.46899
296.0 0.003378 263.75174 283.85754
311.0 0.003215 263.73099 289.22998
289.0 0.003460 263.71207 298.75385
304.0 0.003289 263.69528 316.38309
343.0 0.002915 263.68039 348.77017
384.0 0.002604 263.66748 403.64838
461.0 0.002169 263.65643 487.20364
609.0 0.001642 263.64740 598.84766
694.0 0.001441 263.64020 726.44196
755.0 0.001325 263.63495 844.01459
788.0 0.001269 263.63150 916.25153
842.0 0.001188 263.62997 918.72382
868.0 0.001152 263.63025 863.29559
887.0 0.001127 263.63239 785.28308
753.0 0.001328 263.63632 712.67859
592.0 0.001689 263.64203 654.22260
553.0 0.001808 263.64935 602.12976
495.0 0.002020 263.65872 545.65564
539.0 0.001855 263.66968 484.51495
479.0 0.002088 263.68231 425.56973
421.0 0.002375 263.69672 375.44321
346.0 0.002890 263.71277 337.51590
312.0 0.003205 263.73044 312.04254
305.0 0.003279 263.74973 296.17758
271.0 0.00369 263.77078 287.01111
264.0 0.00379 263.79349 281.74890
267.0 0.00375 263.81750 278.57751
256.0 0.00391 263.84314 276.47241
289.0 0.003460 263.87048 275.02261
273.0 0.00366 263.89920 273.81970
283.0 0.00353 263.92950 272.84085
276.0 0.00362 263.96121 272.03522
275.0 0.00364 263.99442 271.36383
264.0 0.00379 264.02902 270.80075
273.0 0.00366 264.06509 270.32697
260.0 0.00385 264.10245 269.92996
277.0 0.00361 264.14124 269.59174
261.0 0.00383 264.18140 269.30853
263.0 0.00380 264.22278 269.08499
260.0 0.00385 264.26556 268.88852
287.0 0.003484 264.30942 268.72739
287.0 0.003484 264.35464 268.59860
256.0 0.00391 264.40125 268.49783
270.0 0.00370 264.44882 268.42297
272.0 0.00368 264.49774 268.37796
282.0 0.00355 264.54770 268.37003
268.0 0.00373 264.59885 268.36575
249.0 0.00402 264.65097 268.38336
286.0 0.003497 264.70425 268.42313
244.0 0.00410 264.75867 268.48544
261.0 0.00383 264.81400 268.57178
269.0 0.00372 264.87033 268.69235
278.0 0.00360 264.92773 268.83817
275.0 0.00364 264.98599 269.02844
299.0 0.003344 265.04520 269.29037
295.0 0.003390 265.10538 269.88364
301.0 0.003322 265.16632 271.06830
272.0 0.00368 265.22818 272.10345
272.0 0.00368 265.29083 273.72107
290.0 0.003448 265.35425 276.06964
285.0 0.00351 265.41840 279.13751
295.0 0.003390 265.48355 282.71878
326.0 0.003067 265.54919 286.26602
257.0 0.00389 265.61545 288.61288
341.0 0.002933 265.68259 289.41144
292.0 0.003425 265.75015 289.02893
331.0 0.003021 265.81848 288.52570
269.0 0.00372 265.88730 288.94547
308.0 0.003247 265.95673 290.96387
295.0 0.003390 266.02667 294.84772
316.0 0.003165 266.09714 300.23636
321.0 0.003115 266.16809 306.67319
340.0 0.002941 266.23944 313.23959
342.0 0.002924 266.31131 318.15527
305.0 0.003279 266.38351 321.64801
351.0 0.002849 266.45602 324.61658
324.0 0.003086 266.52899 330.44733
344.0 0.002907 266.60220 343.10443
342.0 0.002924 266.67578 365.91638
400.0 0.002500 266.74954 400.64899
416.0 0.002404 266.82367 447.43567
461.0 0.002169 266.89777 502.75275
560.0 0.001786 266.97229 559.87262
605.0 0.001653 267.04684 610.33350
641.0 0.001560 267.12149 644.14404
645.0 0.001550 267.19641 650.33270
661.0 0.001513 267.27121 627.43750
713.0 0.001403 267.34622 587.34106
624.0 0.001603 267.42123 544.21021
545.0 0.001835 267.49622 506.27948
461.0 0.002169 267.57114 474.59088
459.0 0.002179 267.64606 444.92740
442.0 0.002262 267.72098 413.78482
448.0 0.002232 267.79556 382.60364
366.0 0.002732 267.87015 354.84052
378.0 0.002646 267.94461 333.06659
316.0 0.003165 268.01886 318.28110
295.0 0.003390 268.09283 310.01126
317.0 0.003155 268.16672 306.79745
331.0 0.003021 268.24026 306.88654
319.0 0.003135 268.31357 308.67017
312.0 0.003205 268.38660 310.80542
321.0 0.003115 268.45920 312.53162
340.0 0.002941 268.53156 314.13708
333.0 0.003003 268.60339 316.53961
325.0 0.003077 268.67496 320.34814
365.0 0.002740 268.74597 325.39587
345.0 0.002899 268.81665 330.76169
367.0 0.002725 268.88675 335.50180
358.0 0.002793 268.95654 340.33475
362.0 0.002762 269.02567 348.89221
377.0 0.002653 269.09427 367.53799
437.0 0.002288 269.16226 404.93024
436.0 0.002294 269.22971 471.02097
587.0 0.001704 269.29660 574.06049
766.0 0.001305 269.36270 715.63519
967.0 0.001034 269.42828 884.87073
1054.0 0.000949 269.49307 1054.20142
1172.0 0.000853 269.55728 1181.98145
1260.0 0.000794 269.62076 1229.20032
1358.0 0.000736 269.68347 1187.81921
1353.0 0.000739 269.74545 1090.41028
1227.0 0.000815 269.80661 981.66779
1007.0 0.000993 269.86688 888.84698
743.0 0.001346 269.92645 815.03650
708.0 0.001412 269.98526 747.60455
714.0 0.001401 270.04300 675.23651
743.0 0.001346 270.09995 599.36554
597.0 0.001675 270.15598 530.17316
541.0 0.001848 270.21106 476.23383
441.0 0.002268 270.26523 440.49979
421.0 0.002375 270.31845 419.96686
348.0 0.002874 270.37073 407.48419
341.0 0.002933 270.42203 395.49875
367.0 0.002725 270.47214 381.38345
344.0 0.002907 270.52151 366.88995
355.0 0.002817 270.56961 354.49139
338.0 0.002959 270.61667 345.22351
322.0 0.003106 270.66278 338.49722
320.0 0.003125 270.70770 332.90808
293.0 0.003413 270.75150 328.38934
313.0 0.003195 270.79422 326.73663
290.0 0.003448 270.83575 330.42508
342.0 0.002924 270.87616 341.35867
369.0 0.002710 270.91534 359.71039
392.0 0.002551 270.95346 383.03775
410.0 0.002439 270.99039 406.21982
446.0 0.002242 271.02606 421.75259
443.0 0.002257 271.06052 423.38477
443.0 0.002257 271.09369 412.42664
449.0 0.002227 271.12558 395.36508
391.0 0.002558 271.15631 378.68243
396.0 0.002525 271.18567 365.47128
369.0 0.002710 271.21390 355.03790
350.0 0.002857 271.24072 344.73053
325.0 0.003077 271.26620 332.81155
346.0 0.002890 271.29037 320.06931
305.0 0.003279 271.31317 308.10614
295.0 0.003390 271.33481 298.14023
311.0 0.003215 271.35495 290.70120
298.0 0.003356 271.37381 285.67142
267.0 0.00375 271.39136 282.58755
255.0 0.00392 271.40750 280.72501
270.0 0.00370 271.42215 279.62222
304.0 0.003289 271.43552 278.92496
264.0 0.00379 271.44745 278.47131
263.0 0.00380 271.45807 278.15271
255.0 0.00392 271.46719 277.92502
254.0 0.00394 271.47498 277.77066
283.0 0.00353 271.48132 277.67947
254.0 0.00394 271.48618 277.64240
288.0 0.003472 271.48950 277.65091
286.0 0.003497 271.49161 277.74026
279.0 0.00358 271.49222 277.89621
281.0 0.00356 271.49130 278.12756
241.0 0.00415 271.48904 278.44894
282.0 0.00355 271.48526 278.88577
277.0 0.00361 271.48007 279.47986
287.0 0.003484 271.47348 280.35266
243.0 0.00412 271.46530 281.73230
308.0 0.003247 271.45575 284.10953
253.0 0.00395 271.44473 288.18945
277.0 0.00361 271.43210 295.24637
317.0 0.003155 271.41824 308.00742
326.0 0.003067 271.40280 327.48727
336.0 0.002976 271.38596 354.08768
407.0 0.002457 271.36752 385.96045
384.0 0.002604 271.34775 418.25934
449.0 0.002227 271.32654 443.49780
400.0 0.002500 271.30371 454.84317
390.0 0.002564 271.27957 451.41583
384.0 0.002604 271.25388 440.34100
416.0 0.002404 271.22681 429.67728
414.0 0.002415 271.19821 423.12473
375.0 0.002667 271.16827 418.98117
391.0 0.002558 271.13687 411.80920
380.0 0.002632 271.10397 397.75369
364.0 0.002747 271.06970 378.17612
340.0 0.002941 271.03387 357.53116
310.0 0.003226 270.99670 339.47278
315.0 0.003175 270.95810 325.54184
319.0 0.003135 270.91818 315.28516
294.0 0.003401 270.87665 307.24792
298.0 0.003356 270.83392 300.47238
264.0 0.00379 270.78970 294.72003
301.0 0.003322 270.74411 290.10745
271.0 0.00369 270.69724 286.78918
265.0 0.00377 270.64883 284.88916
287.0 0.003484 270.59915 284.56976
270.0 0.00370 270.54810 286.22913
282.0 0.00355 270.49557 290.73138
279.0 0.00358 270.44196 299.54678
303.0 0.003300 270.38690 314.23395
340.0 0.002941 270.33047 335.97757
427.0 0.002342 270.27289 364.31262
407.0 0.002457 270.21378 396.42352
414.0 0.002415 270.15356 425.76477
445.0 0.002247 270.09192 444.20111
472.0 0.002119 270.02917 445.62299
482.0 0.002075 269.96509 432.07254
487.0 0.002053 269.89969 411.79865
387.0 0.002584 269.83322 392.35696
389.0 0.002571 269.76544 377.33179
351.0 0.002849 269.69650 365.78247
359.0 0.002786 269.62631 354.48819
347.0 0.002882 269.55505 341.17429
373.0 0.002681 269.48257 326.42688
340.0 0.002941 269.40887 312.14807
292.0 0.003425 269.33408 299.91855
321.0 0.003115 269.25818 290.53601
282.0 0.00355 269.18118 284.01672
281.0 0.00356 269.10312 279.84518
285.0 0.00351 269.02393 277.31528
276.0 0.00362 268.94370 275.79349
248.0 0.00403 268.86240 274.83548
239.0 0.00418 268.78018 274.17859
253.0 0.00395 268.69681 273.68701
235.0 0.00426 268.61255 273.29553
298.0 0.003356 268.52716 272.97299
254.0 0.00394 268.44089 272.70313
278.0 0.00360 268.35373 272.47629
241.0 0.00415 268.26559 272.28622
260.0 0.00385 268.17642 272.12805
261.0 0.00383 268.08664 271.99893
285.0 0.00351 267.99573 271.89645
250.0 0.00400 267.90411 271.81924
275.0 0.00364 267.81161 271.76682
284.0 0.00352 267.71829 271.73871
250.0 0.00400 267.62421 271.73596
298.0 0.003356 267.52927 271.75937
234.0 0.00427 267.43365 271.81091
251.0 0.00398 267.33725 271.89297
265.0 0.00377 267.24020 271.86667
263.0 0.00380 267.14227 272.02539
306.0 0.003268 267.04382 272.22751
265.0 0.00377 266.94458 272.47995
259.0 0.00386 266.84482 272.79160
273.0 0.00366 266.74442 273.17340
284.0 0.00352 266.64331 273.54056
281.0 0.00356 266.54175 274.11331
293.0 0.003413 266.43954 274.81500
268.0 0.00373 266.33691 275.68607
292.0 0.003425 266.23358 276.79587
254.0 0.00394 266.12985 278.28302
277.0 0.00361 266.02567 280.41595
291.0 0.003436 265.92099 283.80103
274.0 0.00365 265.81586 289.45856
280.0 0.00357 265.71030 299.02982
299.0 0.003344 265.60446 314.68915
362.0 0.002762 265.49814 338.69196
372.0 0.002688 265.39157 372.86108
416.0 0.002404 265.28464 416.55679
491.0 0.002037 265.17731 467.60220
493.0 0.002028 265.06979 520.82428
551.0 0.001815 264.96210 569.68207
594.0 0.001684 264.85406 611.15027
667.0 0.001499 264.74591 647.42017
716.0 0.001397 264.63730 679.19965
700.0 0.001429 264.52884 699.57056
655.0 0.001527 264.42014 697.86670
598.0 0.001672 264.31119 669.99579
652.0 0.001534 264.20227 623.91492
598.0 0.001672 264.09320 572.29669
527.0 0.001898 263.98404 525.56677
463.0 0.002160 263.87494 487.59677
433.0 0.002309 263.76572 455.66592
407.0 0.002457 263.65662 424.82855
424.0 0.002358 263.54745 393.29254
377.0 0.002653 263.43835 362.99472
313.0 0.003195 263.32944 336.37805
334.0 0.002994 263.22052 315.02649
312.0 0.003205 263.11172 299.33435
282.0 0.00355 263.00308 288.68637
296.0 0.003378 262.89462 281.89001
259.0 0.00386 262.78641 277.67551
230.0 0.00435 262.67834 275.01834
255.0 0.00392 262.57062 273.23831
267.0 0.00375 262.46295 271.94464
287.0 0.003484 262.35571 270.93445
314.0 0.003185 262.24869 270.10760
270.0 0.00370 262.14206 269.41254
277.0 0.00361 262.03564 268.82053
271.0 0.00369 261.92963 268.31308
286.0 0.003497 261.82404 267.87701
271.0 0.00369 261.71890 267.89545
268.0 0.00373 261.61420 267.58652
275.0 0.00364 261.50992 267.32709
304.0 0.003289 261.40601 267.11346
298.0 0.003356 261.30276 266.94318
261.0 0.00383 261.19980 266.81500
244.0 0.00410 261.09756 266.76636
270.0 0.00370 260.99579 266.87274
285.0 0.00351 260.89465 266.87918
299.0 0.003344 260.79419 266.93396
273.0 0.00366 260.69409 267.04218
276.0 0.00362 260.59470 267.21075
276.0 0.00362 260.49609 267.44882
244.0 0.00410 260.39810 267.78311
281.0 0.00356 260.30072 268.20172
283.0 0.00353 260.20416 268.74249
282.0 0.00355 260.10828 269.44208
277.0 0.00361 260.01312 270.36694
265.0 0.00377 259.91882 271.65112
298.0 0.003356 259.82526 273.58377
237.0 0.00422 259.73251 276.76529
298.0 0.003356 259.64059 282.33978
303.0 0.003300 259.54944 292.21414
331.0 0.003021 259.45923 309.04559
357.0 0.002801 259.36987 335.70865
395.0 0.002532 259.28143 374.07181
435.0 0.002299 259.19385 423.34726
458.0 0.002183 259.10742 478.58890
491.0 0.002037 259.02158 529.91589
572.0 0.001748 258.93689 563.68121
574.0 0.001742 258.85321 569.00665
567.0 0.001764 258.77048 547.69647
569.0 0.001757 258.68872 512.90387
560.0 0.001786 258.60800 477.94760
459.0 0.002179 258.52832 450.57980
421.0 0.002375 258.44977 431.01581
393.0 0.002545 258.37222 414.28232
414.0 0.002415 258.29584 394.78424
366.0 0.002732 258.22043 371.05875
362.0 0.002762 258.14618 346.23950
341.0 0.002933 258.07312 323.30692
313.0 0.003195 258.00125 304.49536
309.0 0.003236 257.93036 290.54398
286.0 0.003497 257.86075 281.11609
254.0 0.00394 257.79233 275.11850
241.0 0.00415 257.72507 271.58899
255.0 0.00392 257.65894 269.51840
220.0 0.00455 257.59412 268.26254
283.0 0.00353 257.53049 267.46011
244.0 0.00410 257.46805 266.92609
291.0 0.003436 257.40698 266.57260
281.0 0.00356 257.34711 266.35889
271.0 0.00369 257.28851 266.26599
286.0 0.003497 257.23114 266.28458
239.0 0.00418 257.17511 266.41037
284.0 0.00352 257.12036 266.64258
250.0 0.00400 257.06689 266.98318
274.0 0.00365 257.01465 267.43890
268.0 0.00373 256.96402 268.02368
290.0 0.003448 256.91446 268.76163
257.0 0.00389 256.86639 269.68564
269.0 0.00372 256.81961 270.84070
276.0 0.00362 256.77411 272.29227
248.0 0.00403 256.73004 274.15204
303.0 0.003300 256.68738 276.64246
301.0 0.003322 256.64609 280.23584
290.0 0.003448 256.60611 285.91925
314.0 0.003185 256.56750 295.59293
301.0 0.003322 256.53036 312.48413
335.0 0.002985 256.49454 341.25732
388.0 0.002577 256.46008 387.28003
483.0 0.002070 256.42709 454.72388
543.0 0.001842 256.39548 543.68280
585.0 0.001709 256.36530 647.26379
728.0 0.001374 256.33646 749.88190
779.0 0.001284 256.30908 827.93073
848.0 0.001179 256.28314 858.32275
819.0 0.001221 256.25861 836.83575
915.0 0.001093 256.23547 783.66290
834.0 0.001199 256.21375 725.14532
671.0 0.001490 256.19345 677.91962
604.0 0.001656 256.17453 644.87152
510.0 0.001961 256.15710 617.28790
498.0 0.002008 256.14108 582.99255
563.0 0.001776 256.12646 536.84900
494.0 0.002024 256.11328 484.21094
475.0 0.002105 256.10147 433.19232
380.0 0.002632 256.09106 389.58398
345.0 0.002899 256.08209 355.64661
326.0 0.003067 256.07452 330.63528
310.0 0.003226 256.06836 312.46277
307.0 0.003257 256.06369 299.26593
327.0 0.003058 256.06039 289.25610
281.0 0.00356 256.05844 282.16122
288.0 0.003472 256.05789 277.13635
276.0 0.00362 256.05872 273.60724
273.0 0.00366 256.06097 271.23962
248.0 0.00403 256.06445 269.64835
299.0 0.003344 256.06958 268.51132
287.0 0.003484 256.07574 267.38571
259.0 0.00386 256.08344 266.40024
305.0 0.003279 256.09256 265.47791
250.0 0.00400 256.10294 264.62711
282.0 0.00355 256.11453 263.90945
285.0 0.00351 256.12775 263.32309
297.0 0.003367 256.14200 262.84070
255.0 0.00392 256.15778 262.38638
309.0 0.003236 256.17474 261.94254
240.0 0.00417 256.19299 261.51520
265.0 0.00377 256.21265 261.12347
265.0 0.00377 256.23349 260.78284
276.0 0.00362 256.25568 260.49985
268.0 0.00373 256.27902 260.27316
275.0 0.00364 256.30374 260.09500
256.0 0.00391 256.32956 259.95615
311.0 0.003215 256.35675 259.84726
281.0 0.00356 256.38495 259.76157
263.0 0.00380 256.41455 259.69476
267.0 0.00375 256.44522 259.64355
250.0 0.00400 256.47714 259.60654
254.0 0.00394 256.51010 259.58255
277.0 0.00361 256.54440 259.57108
256.0 0.00391 256.57971 259.57117
244.0 0.00410 256.61621 259.58310
268.0 0.00373 256.65381 259.60617
254.0 0.00394 256.69244 259.64078
294.0 0.003401 256.73218 259.68677
285.0 0.00351 256.77298 259.93317
271.0 0.00369 256.81488 260.00806
257.0 0.00389 256.85776 260.09573
254.0 0.00394 256.90173 260.19687
285.0 0.00351 256.94666 260.31268
237.0 0.00422 256.99261 260.44382
264.0 0.00379 257.03952 260.59229
251.0 0.00398 257.08737 260.83041
258.0 0.00388 257.13623 261.02029
260.0 0.00385 257.18594 261.23389
246.0 0.00407 257.23654 261.47421
275.0 0.00364 257.28809 261.74548
239.0 0.00418 257.34045 262.05222
255.0 0.00392 257.39368 262.40076
239.0 0.00418 257.44778 262.79889
265.0 0.00377 257.50269 263.25610
275.0 0.00364 257.55841 263.78546
254.0 0.00394 257.61490 264.40414
278.0 0.00360 257.67206 265.13791
291.0 0.003436 257.73004 266.03061
267.0 0.00375 257.78870 267.16660
282.0 0.00355 257.84802 268.72940
275.0 0.00364 257.90820 271.05499
279.0 0.00358 257.96872 274.82794
289.0 0.003460 258.03021 280.79898
272.0 0.00368 258.09210 291.44891
296.0 0.003378 258.15475 308.35123
317.0 0.003155 258.21786 333.16553
349.0 0.002865 258.28149 366.22348
371.0 0.002695 258.34579 405.47610
385.0 0.002597 258.41058 445.72882
439.0 0.002278 258.47583 478.55292
482.0 0.002075 258.54150 494.85159
502.0 0.001992 258.60767 490.41217
524.0 0.001908 258.67429 470.98044
521.0 0.001919 258.74109 447.28354
458.0 0.002183 258.80856 428.31122
415.0 0.002410 258.87625 418.63034
386.0 0.002591 258.94421 418.18127
394.0 0.002538 259.01263 423.15353
430.0 0.002326 259.08124 428.85159
417.0 0.002398 259.15015 432.47513
442.0 0.002262 259.21936 432.53101
422.0 0.002370 259.28876 427.48816
422.0 0.002370 259.35831 417.20419
415.0 0.002410 259.42813 403.70911
464.0 0.002155 259.49802 389.17725
385.0 0.002597 259.56805 374.89304
349.0 0.002865 259.63821 361.91397
364.0 0.002747 259.70837 350.75024
307.0 0.003257 259.77866 340.82077
326.0 0.003067 259.84909 331.24942
300.0 0.003333 259.91934 321.80783
292.0 0.003425 259.98969 312.60849
342.0 0.002924 260.05997 303.70947
304.0 0.003289 260.13019 295.39609
300.0 0.003333 260.20032 288.17380
260.0 0.00385 260.27039 282.39673
260.0 0.00385 260.34018 278.13580
273.0 0.00366 260.40991 275.25159
316.0 0.003165 260.47952 273.50201
263.0 0.00380 260.54889 272.62735
276.0 0.00362 260.61804 272.41150
264.0 0.00379 260.68692 272.72800
267.0 0.00375 260.75540 273.58136
289.0 0.003460 260.82379 275.16953
265.0 0.00377 260.89175 277.99109
274.0 0.00365 260.95944 283.02219
279.0 0.00358 261.02658 291.72061
301.0 0.003322 261.09351 306.12344
320.0 0.003125 261.16010 328.52731
354.0 0.002825 261.22592 359.72894
404.0 0.002475 261.29147 399.22382
439.0 0.002278 261.35663 443.30283
447.0 0.002237 261.42126 484.76855
436.0 0.002294 261.48517 513.48566
481.0 0.002079 261.54868 520.60852
507.0 0.001972 261.61157 505.88644
510.0 0.001961 261.67380 478.48129
464.0 0.002155 261.73550 449.09525
436.0 0.002294 261.79660 424.95969
399.0 0.002506 261.85687 408.21701
365.0 0.002740 261.91647 396.47028
389.0 0.002571 261.97540 384.81461
338.0 0.002959 262.03363 369.67041
339.0 0.002950 262.09100 351.26642
354.0 0.002825 262.14767 332.10333
300.0 0.003333 262.20361 314.64105
328.0 0.003049 262.25864 300.46359
273.0 0.00366 262.31274 290.18900
289.0 0.003460 262.36603 283.63712
275.0 0.00364 262.41840 280.17831
247.0 0.00405 262.46997 279.01202
298.0 0.003356 262.52057 279.35138
302.0 0.003311 262.57010 280.46143
271.0 0.00369 262.61887 281.63516
289.0 0.003460 262.66663 282.17166
305.0 0.003279 262.71326 281.67603
279.0 0.00358 262.75885 280.30258
298.0 0.003356 262.80338 278.58047
282.0 0.00355 262.84683 277.02029
261.0 0.00383 262.88925 275.92767
251.0 0.00398 262.93054 275.38745
274.0 0.00365 262.97073 275.29147
294.0 0.003401 263.00980 275.51999
255.0 0.00392 263.04758 275.92206
286.0 0.003497 263.08426 276.58170
276.0 0.00362 263.11966 277.49414
253.0 0.00395 263.15399 278.31973
291.0 0.003436 263.18689 279.02551
299.0 0.003344 263.21869 279.09927
287.0 0.003484 263.24902 278.31070
290.0 0.003448 263.27838 276.98331
251.0 0.00398 263.30615 275.96225
263.0 0.00380 263.33270 274.81378
270.0 0.00370 263.35803 273.97403
280.0 0.00357 263.38187 273.49686
271.0 0.00369 263.40436 273.11249
294.0 0.003401 263.42545 272.58179
293.0 0.003413 263.44513 271.95325
266.0 0.00376 263.46350 271.27344
284.0 0.00352 263.48041 270.80560
253.0 0.00395 263.49573 270.31357
263.0 0.00380 263.50986 270.04483
262.0 0.00382 263.52234 269.97189
292.0 0.003425 263.53333 270.07462
295.0 0.003390 263.54288 270.30078
281.0 0.00356 263.55096 270.67834
263.0 0.00380 263.55743 271.17154
295.0 0.003390 263.56244 271.77301
314.0 0.003185 263.56577 272.52844
287.0 0.003484 263.56769 273.47250
277.0 0.00361 263.56796 274.69501
273.0 0.00366 263.56671 276.36719
285.0 0.00351 263.56384 278.80536
287.0 0.003484 263.55942 282.56732
304.0 0.003289 263.55341 288.56363
334.0 0.002994 263.54572 298.15430
326.0 0.003067 263.53647 313.13486
332.0 0.003012 263.52557 335.50488
376.0 0.002660 263.51300 366.86505
384.0 0.002604 263.49872 407.44141
476.0 0.002101 263.48294 454.95166
522.0 0.001916 263.46542 504.41721
564.0 0.001773 263.44626 548.37469
607.0 0.001647 263.42535 577.23047
562.0 0.001779 263.40283 582.50220
572.0 0.001748 263.37860 564.10504
575.0 0.001739 263.35260 531.67633
544.0 0.001838 263.32501 496.85440
488.0 0.002049 263.29572 467.36795
459.0 0.002179 263.26465 445.66531
445.0 0.002247 263.23187 430.29120
407.0 0.002457 263.19745 416.20956
438.0 0.002283 263.16125 398.95398
404.0 0.002475 263.12344 377.82639
369.0 0.002710 263.08365 355.28360
346.0 0.002890 263.04233 334.22989
295.0 0.003390 262.99930 316.61499
304.0 0.003289 262.95447 303.49484
303.0 0.003300 262.90787 294.73950
265.0 0.00377 262.85959 289.64346
277.0 0.00361 262.80951 287.22253
317.0 0.003155 262.75775 286.51169
271.0 0.00369 262.70432 286.73169
287.0 0.003484 262.64905 287.40625
281.0 0.00356 262.59213 288.45374
288.0 0.003472 262.53345 289.90182
289.0 0.003460 262.47308 291.79999
312.0 0.003205 262.41098 293.96625
290.0 0.003448 262.34708 296.07187
290.0 0.003448 262.28149 297.93539
297.0 0.003367 262.21423 299.91101
304.0 0.003289 262.14517 302.88275
271.0 0.00369 262.07452 307.75549
287.0 0.003484 262.00214 315.12381
350.0 0.002857 261.92801 324.97336
296.0 0.003378 261.85220 336.66403
344.0 0.002907 261.77466 349.14932
345.0 0.002899 261.69553 361.71295
382.0 0.002618 261.61459 375.48669
359.0 0.002786 261.53210 394.33878
429.0 0.002331 261.44791 423.67160
417.0 0.002398 261.36200 468.05313
502.0 0.001992 261.27444 529.13354
600.0 0.001667 261.18533 603.88269
656.0 0.001524 261.09454 684.13562
700.0 0.001429 261.00201 757.53162
776.0 0.001289 260.90808 809.25006
831.0 0.001203 260.81241 824.69507
889.0 0.001125 260.71518 799.45013
824.0 0.001214 260.61633 745.67316
780.0 0.001282 260.51587 683.15009
647.0 0.001546 260.41388 626.96002
551.0 0.001815 260.31039 584.00226
501.0 0.001996 260.20526 553.51215
481.0 0.002079 260.09857 529.02509
467.0 0.002141 259.99042 502.05225
472.0 0.002119 259.88083 468.35828
445.0 0.002247 259.76965 430.07480
429.0 0.002331 259.65698 392.04340
351.0 0.002849 259.54279 358.23898
308.0 0.003247 259.42719 330.93118
306.0 0.003268 259.31021 310.67102
272.0 0.00368 259.19171 296.72189
309.0 0.003236 259.07181 287.69937
269.0 0.00372 258.95044 282.15778
290.0 0.003448 258.82782 278.96277
272.0 0.00368 258.70377 277.43042
277.0 0.00361 258.57828 277.27335
250.0 0.00400 258.45151 278.47229
268.0 0.00373 258.32349 281.07922
300.0 0.003333 258.19400 285.02307
279.0 0.00358 258.06335 289.94119
273.0 0.00366 257.93127 295.07239
277.0 0.00361 257.79813 299.23575
273.0 0.00366 257.66354 301.08710
289.0 0.003460 257.52786 299.92700
271.0 0.00369 257.39090 296.34015
288.0 0.003472 257.25278 291.78693
282.0 0.00355 257.11343 287.50024
262.0 0.00382 256.97299 283.95459
296.0 0.003378 256.83142 281.71207
291.0 0.003436 256.68866 280.09073
281.0 0.00356 256.54486 278.42664
275.0 0.00364 256.39990 276.26456
275.0 0.00364 256.25397 273.63885
280.0 0.00357 256.10690 270.90625
294.0 0.003401 255.95886 268.39328
260.0 0.00385 255.80986 266.24515
272.0 0.00368 255.65982 264.75958
257.0 0.00389 255.50879 263.89001
250.0 0.00400 255.35684 263.67566
243.0 0.00412 255.20407 264.19797
271.0 0.00369 255.05028 265.61395
259.0 0.00386 254.89563 268.13086
283.0 0.00353 254.74014 271.91309
284.0 0.00352 254.58380 276.94998
277.0 0.00361 254.42667 282.92331
294.0 0.003401 254.26875 289.12091
287.0 0.003484 254.11005 294.41827
289.0 0.003460 253.95053 297.56219
325.0 0.003077 253.79034 297.93851
293.0 0.003413 253.62955 296.21851
317.0 0.003155 253.46796 293.78842
302.0 0.003311 253.30566 291.77786
318.0 0.003145 253.14272 290.62335
287.0 0.003484 252.97923 290.11041
296.0 0.003378 252.81520 289.57932
295.0 0.003390 252.65051 288.44818
308.0 0.003247 252.48526 286.62790
320.0 0.003125 252.31961 284.63608
302.0 0.003311 252.15335 283.27249
321.0 0.003115 251.98659 283.30048
258.0 0.00388 251.81946 285.38342
277.0 0.00361 251.65189 290.14386
283.0 0.00353 251.48386 298.32327
321.0 0.003115 251.31535 310.35516
304.0 0.003289 251.14661 326.17746
329.0 0.003040 250.97754 344.86765
330.0 0.003030 250.80814 364.40726
366.0 0.002732 250.63835 381.80170
391.0 0.002558 250.46835 394.74741
444.0 0.002252 250.29817 403.16220
426.0 0.002347 250.12770 408.64218
411.0 0.002433 249.95695 411.56961
432.0 0.002315 249.78618 411.81061
452.0 0.002212 249.61516 407.47675
405.0 0.002469 249.44406 398.27798
437.0 0.002288 249.27283 385.07138
364.0 0.002747 249.10158 369.89426
418.0 0.002392 248.93016 354.95932
370.0 0.002703 248.75871 341.84222
327.0 0.003058 248.58736 331.26147
316.0 0.003165 248.41594 322.31824
275.0 0.00364 248.24461 313.52673
294.0 0.003401 248.07327 304.19360
299.0 0.003344 247.90192 294.43808
285.0 0.00351 247.73088 284.95355
263.0 0.00380 247.55995 276.54755
279.0 0.00358 247.38898 269.70038
239.0 0.00418 247.21828 264.53912
270.0 0.00370 247.04776 260.91095
243.0 0.00412 246.87756 258.38535
251.0 0.00398 246.70749 256.57556
224.0 0.00446 246.53773 255.15550
241.0 0.00415 246.36816 253.96553
251.0 0.00398 246.19901 252.97217
254.0 0.00394 246.03012 252.20662
254.0 0.00394 245.86156 251.73161
237.0 0.00422 245.69348 251.62909
278.0 0.00360 245.52568 251.97533
219.0 0.00457 245.35832 252.79614
263.0 0.00380 245.19148 254.13963
274.0 0.00365 245.02498 255.86206
267.0 0.00375 244.85901 257.71509
234.0 0.00427 244.69347 259.30255
265.0 0.00377 244.52846 260.14334
278.0 0.00360 244.36411 259.91122
259.0 0.00386 244.20024 258.70465
240.0 0.00417 244.03683 257.00922
269.0 0.00372 243.87421 255.29947
256.0 0.00391 243.71208 253.88898
294.0 0.003401 243.55064 252.88104
236.0 0.00424 243.38989 252.18512
262.0 0.00382 243.22977 251.57784
255.0 0.00392 243.07025 250.83606
242.0 0.00413 242.91153 249.88712
266.0 0.00376 242.75356 248.81381
254.0 0.00394 242.59633 247.74425
255.0 0.00392 242.43985 246.77994
248.0 0.00403 242.28415 245.97850
237.0 0.00422 242.12924 245.35526
262.0 0.00382 241.97514 244.89392
250.0 0.00400 241.82198 244.56154
253.0 0.00395 241.66962 244.32251
257.0 0.00389 241.51802 244.24557
264.0 0.00379 241.36736 244.08719
234.0 0.00427 241.21771 243.99265
239.0 0.00418 241.06886 243.93997
235.0 0.00426 240.92099 243.90689
251.0 0.00398 240.77396 243.89082
248.0 0.00403 240.62796 243.90210
280.0 0.00357 240.48296 243.93564
235.0 0.00426 240.33907 244.00677
252.0 0.00397 240.19595 244.14304
271.0 0.00369 240.05396 244.29744
242.0 0.00413 239.91295 244.51147
261.0 0.00383 239.77310 244.79510
291.0 0.003436 239.63420 245.17719
246.0 0.00407 239.49641 245.71101
249.0 0.00402 239.35965 246.49730
248.0 0.00403 239.22404 247.70915
254.0 0.00394 239.08949 249.62839
259.0 0.00386 238.95618 252.68121
293.0 0.003413 238.82379 257.43701
264.0 0.00379 238.69269 264.54294
249.0 0.00402 238.56267 274.50156
286.0 0.003497 238.43378 287.77863
323.0 0.003096 238.30614 304.06418
293.0 0.003413 238.17961 322.36783
314.0 0.003185 238.05429 340.85770
366.0 0.002732 237.93022 357.60593
362.0 0.002762 237.80730 371.12573
368.0 0.002717 237.68553 381.12646
391.0 0.002558 237.56505 387.85571
369.0 0.002710 237.44576 393.14056
380.0 0.002632 237.32768 398.28119
366.0 0.002732 237.21092 402.61771
368.0 0.002717 237.09534 403.41364
378.0 0.002646 236.98100 397.98636
344.0 0.002907 236.86797 386.19797
395.0 0.002532 236.75615 370.51413
335.0 0.002985 236.64566 353.70944
345.0 0.002899 236.53635 338.35416
317.0 0.003155 236.42836 325.60623
287.0 0.003484 236.32164 315.63269
320.0 0.003125 236.21619 307.20895
317.0 0.003155 236.11203 298.67068
301.0 0.003322 236.00923 289.38788
288.0 0.003472 235.90764 279.84048
299.0 0.003344 235.80734 270.88055
238.0 0.00420 235.70833 263.21451
235.0 0.00426 235.61067 257.04343
231.0 0.00433 235.51431 252.41046
261.0 0.00383 235.41914 249.06967
281.0 0.00356 235.32538 246.69774
255.0 0.00392 235.23282 244.96507
216.0 0.00463 235.14169 243.71600
236.0 0.00424 235.05176 242.74452
208.0 0.00481 234.96313 242.00682
256.0 0.00391 234.87581 241.45546
265.0 0.00377 234.78976 241.05901
250.0 0.00400 234.70505 240.78163
266.0 0.00376 234.62161 240.62711
258.0 0.00388 234.53937 240.56912
248.0 0.00403 234.45850 240.60063
235.0 0.00426 234.37891 240.73686
231.0 0.00433 234.30058 240.96300
247.0 0.00405 234.22354 241.32542
229.0 0.00437 234.14769 241.89328
257.0 0.00389 234.07314 242.79723
241.0 0.00415 233.99986 244.29211
238.0 0.00420 233.92784 246.78033
264.0 0.00379 233.85709 250.86183
236.0 0.00424 233.78752 257.29733
252.0 0.00397 233.71919 266.86349
273.0 0.00366 233.65208 280.08936
303.0 0.003300 233.58623 296.90427
322.0 0.003106 233.52156 316.30725
313.0 0.003195 233.45815 336.09985
334.0 0.002994 233.39583 352.84119
402.0 0.002488 233.33479 362.68860
364.0 0.002747 233.27493 363.56644
398.0 0.002513 233.21619 356.66013
357.0 0.002801 233.15862 345.18707
384.0 0.002604 233.10219 332.54504
361.0 0.002770 233.04692 321.38092
305.0 0.003279 232.99278 313.00467
300.0 0.003333 232.93977 307.21368
293.0 0.003413 232.88789 302.56421
314.0 0.003185 232.83713 297.36758
282.0 0.00355 232.78737 290.82095
314.0 0.003185 232.73871 283.17328
292.0 0.003425 232.69118 275.14224
284.0 0.00352 232.64465 267.52942
275.0 0.00364 232.59914 261.00815
280.0 0.00357 232.55469 256.01239
229.0 0.00437 232.51131 252.73048
220.0 0.00455 232.46883 251.23647
239.0 0.00418 232.42743 251.65857
275.0 0.00364 232.38696 254.30629
264.0 0.00379 232.34749 259.70389
239.0 0.00418 232.30891 268.48257
248.0 0.00403 232.27130 281.13080
294.0 0.003401 232.23465 297.60214
330.0 0.003030 232.19884 316.97879
355.0 0.002817 232.16393 337.14673
345.0 0.002899 232.12993 354.87772
426.0 0.002347 232.09679 366.16736
410.0 0.002439 232.06444 368.37888
441.0 0.002268 232.03294 362.89432
411.0 0.002433 232.00227 354.21597
348.0 0.002874 231.97237 347.40530
357.0 0.002801 231.94336 346.09833
335.0 0.002985 231.91502 351.77423
356.0 0.002809 231.88750 363.95490
373.0 0.002681 231.86063 379.63593
382.0 0.002618 231.83452 394.31989
443.0 0.002257 231.80911 403.50397
375.0 0.002667 231.78433 404.42886
394.0 0.002538 231.76028 397.36172
376.0 0.002660 231.73682 384.82898
367.0 0.002725 231.71405 369.88089
369.0 0.002710 231.69185 355.60477
351.0 0.002849 231.67027 344.75189
310.0 0.003226 231.64925 339.10150
318.0 0.003145 231.62877 338.86438
370.0 0.002703 231.60889 342.86230
358.0 0.002793 231.58951 349.27884
359.0 0.002786 231.57057 356.21805
367.0 0.002725 231.55223 361.45425
376.0 0.002660 231.53424 362.34561
347.0 0.002882 231.51674 356.90836
370.0 0.002703 231.49969 345.50732
370.0 0.002703 231.48300 330.78137
329.0 0.003040 231.46677 316.14679
306.0 0.003268 231.45090 304.11752
296.0 0.003378 231.43538 295.96872
264.0 0.00379 231.42018 291.80743
300.0 0.003333 231.40530 290.80292
286.0 0.003497 231.39069 291.59021
306.0 0.003268 231.37639 293.01129
297.0 0.003367 231.36235 294.65771
314.0 0.003185 231.34857 296.65479
281.0 0.00356 231.33498 298.85489
298.0 0.003356 231.32158 300.39932
293.0 0.003413 231.30835 299.89536
265.0 0.00377 231.29536 296.31259
272.0 0.00368 231.28244 290.00842
314.0 0.003185 231.26968 282.46155
282.0 0.00355 231.25710 275.27997
259.0 0.00386 231.24451 269.51642
251.0 0.00398 231.23196 265.54889
245.0 0.00408 231.21950 263.10965
258.0 0.00388 231.20715 261.43912
283.0 0.00353 231.19473 259.58374
239.0 0.00418 231.18231 256.98343
285.0 0.00351 231.16986 253.47507
242.0 0.00413 231.15738 249.73911
269.0 0.00372 231.14490 246.12575
238.0 0.00420 231.13225 242.98180
240.0 0.00417 231.11954 240.47734
236.0 0.00424 231.10672 238.62764
227.0 0.00441 231.09373 237.36935
244.0 0.00410 231.08064 236.60158
246.0 0.00407 231.06731 236.22083
248.0 0.00403 231.05386 236.22255
262.0 0.00382 231.04021 236.59712
231.0 0.00433 231.02629 237.40825
221.0 0.00452 231.01212 238.71881
224.0 0.00446 230.99767 240.54494
255.0 0.00392 230.98308 242.86035
246.0 0.00407 230.96805 245.36186
228.0 0.00439 230.95277 247.72742
240.0 0.00417 230.93718 249.44762
249.0 0.00402 230.92123 250.03433
236.0 0.00424 230.90486 249.35095
232.0 0.00431 230.88821 247.75319
226.0 0.00442 230.87112 245.81827
214.0 0.00467 230.85365 244.03738
238.0 0.00420 230.83577 242.72888
232.0 0.00431 230.81738 241.90509
230.0 0.00435 230.79857 241.48579
250.0 0.00400 230.77931 241.23820
233.0 0.00429 230.75957 240.82217
231.0 0.00433 230.73938 240.41847
261.0 0.00383 230.71857 240.03630
234.0 0.00427 230.69727 239.86287
235.0 0.00426 230.67548 240.02379
261.0 0.00383 230.65309 240.53760
236.0 0.00424 230.63014 241.27696
235.0 0.00426 230.60661 242.00143
250.0 0.00400 230.58243 242.34514
245.0 0.00408 230.55775 242.21053
261.0 0.00383 230.53244 241.46301
236.0 0.00424 230.50644 240.39977
241.0 0.00415 230.47984 239.31125
220.0 0.00455 230.45261 238.40784
257.0 0.00389 230.42464 237.78548
241.0 0.00415 230.39603 237.42970
226.0 0.00442 230.36676 237.23250
217.0 0.00461 230.33676 237.03784
256.0 0.00391 230.30605 236.74496
239.0 0.00418 230.27463 236.29968
238.0 0.00420 230.24251 235.87120
217.0 0.00461 230.20956 235.38486
273.0 0.00366 230.17590 234.98912
216.0 0.00463 230.14154 234.54639
240.0 0.00417 230.10640 234.45103
220.0 0.00455 230.07051 234.53690
228.0 0.00439 230.03371 234.83968
248.0 0.00403 229.99625 235.43594
257.0 0.00389 229.95793 236.47139
235.0 0.00426 229.91884 238.21246
248.0 0.00403 229.87891 240.92133
240.0 0.00417 229.83818 244.99138
240.0 0.00417 229.79660 250.72775
284.0 0.00352 229.75424 258.22925
259.0 0.00386 229.71106 267.23550
277.0 0.00361 229.66698 276.99323
306.0 0.003268 229.62212 286.17139
286.0 0.003497 229.57634 292.95786
300.0 0.003333 229.52974 295.67896
323.0 0.003096 229.48235 293.92697
301.0 0.003322 229.43394 288.99084
307.0 0.003257 229.38480 282.91583
255.0 0.00392 229.33476 277.48962
281.0 0.00356 229.28386 273.82803
286.0 0.003497 229.23207 272.25183
284.0 0.00352 229.17938 272.35944
283.0 0.00353 229.12582 273.14111
275.0 0.00364 229.07138 273.58875
270.0 0.00370 229.01616 273.04092
289.0 0.003460 228.95998 271.69397
269.0 0.00372 228.90289 270.22739
278.0 0.00360 228.84496 269.31573
234.0 0.00427 228.78615 269.32870
253.0 0.00395 228.72644 270.46445
279.0 0.00358 228.66591 272.75677
283.0 0.00353 228.60449 276.45645
266.0 0.00376 228.54216 281.87436
295.0 0.003390 228.47900 289.11514
291.0 0.003436 228.41495 297.64728
302.0 0.003311 228.35011 306.65005
300.0 0.003333 228.28430 314.56421
305.0 0.003279 228.21767 319.28119
314.0 0.003185 228.15013 318.99387
314.0 0.003185 228.08185 313.68512
304.0 0.003289 228.01266 305.26294
300.0 0.003333 227.94263 296.23203
268.0 0.00373 227.87173 288.62332
276.0 0.00362 227.80008 283.59473
243.0 0.00412 227.72754 281.62515
283.0 0.00353 227.65422 282.47955
306.0 0.003268 227.58008 285.38162
285.0 0.00351 227.50508 289.40833
310.0 0.003226 227.42929 293.97449
286.0 0.003497 227.35275 298.78174
343.0 0.002915 227.27539 303.27362
294.0 0.003401 227.19727 306.29083
294.0 0.003401 227.11835 306.39346
295.0 0.003390 227.03867 302.93579
339.0 0.002950 226.95830 296.86920
305.0 0.003279 226.87712 290.12433
310.0 0.003226 226.79526 284.44794
313.0 0.003195 226.71262 280.87640
275.0 0.00364 226.62930 279.54901
252.0 0.00397 226.54526 279.80124
290.0 0.003448 226.46051 280.32779
291.0 0.003436 226.37505 279.61151
279.0 0.00358 226.28899 276.83707
283.0 0.00353 226.20222 272.39090
284.0 0.00352 226.11481 267.46445
250.0 0.00400 226.02679 263.34076
261.0 0.00383 225.93805 261.07538
267.0 0.00375 225.84879 261.37436
257.0 0.00389 225.75885 264.55121
264.0 0.00379 225.66841 270.46738
275.0 0.00364 225.57735 278.51297
279.0 0.00358 225.48567 287.69363
255.0 0.00392 225.39352 296.63971
300.0 0.003333 225.30083 303.60312
304.0 0.003289 225.20761 306.85001
301.0 0.003322 225.11385 305.82712
280.0 0.00357 225.01958 301.92090
287.0 0.003484 224.92482 297.77960
310.0 0.003226 224.82965 296.01297
330.0 0.003030 224.73396 298.45795
263.0 0.00380 224.63792 305.86722
322.0 0.003106 224.54135 317.72470
297.0 0.003367 224.44444 332.15707
308.0 0.003247 224.34708 346.11401
326.0 0.003067 224.24945 355.92786
351.0 0.002849 224.15141 358.42371
378.0 0.002646 224.05305 352.45538
346.0 0.002890 223.95425 339.85229
324.0 0.003086 223.85521 324.27362
272.0 0.00368 223.75597 309.21115
267.0 0.00375 223.65633 296.94962
262.0 0.00382 223.55643 288.41208
257.0 0.00389 223.45630 283.28824
224.0 0.00446 223.35594 280.28091
289.0 0.003460 223.25543 277.58960
256.0 0.00391 223.15469 273.75430
267.0 0.00375 223.05371 268.42062
231.0 0.00433 222.95268 262.21960
261.0 0.00383 222.85136 256.05521
282.0 0.00355 222.75011 250.64413
242.0 0.00413 222.64861 246.38591
218.0 0.00459 222.54703 243.36575
231.0 0.00433 222.44534 241.53659
245.0 0.00408 222.34369 240.28964
254.0 0.00394 222.24196 239.55411
274.0 0.00365 222.14026 239.10651
263.0 0.00380 222.03847 238.82425
226.0 0.00442 221.93678 238.56006
250.0 0.00400 221.83502 238.17787
243.0 0.00412 221.73340 237.65646
232.0 0.00431 221.63184 237.13611
256.0 0.00391 221.53038 236.85071
228.0 0.00439 221.42894 237.12610
242.0 0.00413 221.32767 238.19743
252.0 0.00397 221.22653 240.56172
244.0 0.00410 221.12558 244.69975
255.0 0.00392 221.02477 250.98058
295.0 0.003390 220.92424 259.57468
237.0 0.00422 220.82385 270.26913
329.0 0.003040 220.72371 282.32278
304.0 0.003289 220.62381 294.37479
324.0 0.003086 220.52417 304.31866
327.0 0.003058 220.42476 309.68979
323.0 0.003096 220.32574 308.96597
364.0 0.002747 220.22691 302.76227
358.0 0.002793 220.12859 293.43988
316.0 0.003165 220.03047 283.62579
313.0 0.003195 219.93275 275.17245
259.0 0.00386 219.83548 269.13589
273.0 0.00366 219.73853 265.49875
267.0 0.00375 219.64204 263.49039
255.0 0.00392 219.54599 261.82278
264.0 0.00379 219.45035 259.25089
272.0 0.00368 219.35529 255.24236
300.0 0.003333 219.26059 250.13327
293.0 0.003413 219.16643 244.63499
227.0 0.00441 219.07277 239.38028
224.0 0.00446 218.97963 234.85718
221.0 0.00452 218.88715 231.27928
235.0 0.00426 218.79510 228.70711
219.0 0.00457 218.70370 227.08621
211.0 0.00474 218.61288 226.26480
204.0 0.00490 218.52254 226.23019
191.0 0.00524 218.43291 226.83360
240.0 0.00417 218.34406 227.96765
232.0 0.00431 218.25566 229.48814
231.0 0.00433 218.16805 231.18164
242.0 0.00413 218.08101 232.74155
273.0 0.00366 217.99480 233.78508
242.0 0.00413 217.90912 233.97902
252.0 0.00397 217.82426 233.22554
247.0 0.00405 217.74011 231.85303
265.0 0.00377 217.65669 230.23885
217.0 0.00461 217.57404 228.73386
234.0 0.00427 217.49211 227.55437
233.0 0.00429 217.41106 226.77431
230.0 0.00435 217.33073 226.39877
246.0 0.00407 217.25114 226.15187
234.0 0.00427 217.17249 225.89166
227.0 0.00441 217.09459 225.46768
228.0 0.00439 217.01750 224.87445
216.0 0.00463 216.94131 224.18816
219.0 0.00457 216.86595 223.50294
199.0 0.00503 216.79143 222.82768
225.0 0.00444 216.71786 222.28882
207.0 0.00483 216.64510 221.85080
227.0 0.00441 216.57329 221.46449
224.0 0.00446 216.50226 221.15701
227.0 0.00441 216.43222 220.93742
233.0 0.00429 216.36307 220.80983
234.0 0.00427 216.29486 220.77281
208.0 0.00481 216.22758 220.82065
235.0 0.00426 216.16119 220.92322
241.0 0.00415 216.09576 221.10793
222.0 0.00450 216.03134 221.26091
224.0 0.00446 215.96779 221.60895
202.0 0.00495 215.90526 221.96382
209.0 0.00478 215.84367 222.42371
222.0 0.00450 215.78300 223.05246
244.0 0.00410 215.72334 223.95758
185.0 0.00541 215.66469 225.32306
237.0 0.00422 215.60698 227.45380
241.0 0.00415 215.55026 230.81837
215.0 0.00465 215.49452 236.03654
244.0 0.00410 215.43977 243.95763
225.0 0.00444 215.38608 255.35658
250.0 0.00400 215.33322 270.72086
275.0 0.00364 215.28156 290.03433
363.0 0.002755 215.23076 312.38647
338.0 0.002959 215.18091 335.74731
350.0 0.002857 215.13220 356.86618
375.0 0.002667 215.08441 371.58325
388.0 0.002577 215.03769 376.37750
414.0 0.002415 214.99188 370.87341
389.0 0.002571 214.94713 358.40457
373.0 0.002681 214.90327 343.79745
349.0 0.002865 214.86052 331.09885
323.0 0.003096 214.81868 322.69617
312.0 0.003205 214.77783 319.29379
298.0 0.003356 214.73805 319.58575
324.0 0.003086 214.69920 321.16989
328.0 0.003049 214.66129 320.97385
311.0 0.003215 214.62442 316.77914
328.0 0.003049 214.58852 308.34036
306.0 0.003268 214.55354 296.97430
282.0 0.00355 214.51950 284.50989
299.0 0.003344 214.48647 272.63272
235.0 0.00426 214.45441 262.55267
226.0 0.00442 214.42329 254.85538
262.0 0.00382 214.39301 249.39980
234.0 0.00427 214.36380 245.68103
274.0 0.00365 214.33546 243.00330
226.0 0.00442 214.30795 240.67046
265.0 0.00377 214.28148 238.45732
247.0 0.00405 214.25587 235.91772
220.0 0.00455 214.23117 233.15823
225.0 0.00444 214.20734 230.39603
226.0 0.00442 214.18433 227.87294
251.0 0.00398 214.16226 225.75175
225.0 0.00444 214.14101 224.10091
234.0 0.00427 214.12065 222.89671
203.0 0.00493 214.10107 222.03662
230.0 0.00435 214.08232 221.45746
209.0 0.00478 214.06442 221.04393
225.0 0.00444 214.04733 220.65788
204.0 0.00490 214.03098 220.29453
215.0 0.00465 214.01546 219.96661
205.0 0.00488 214.00069 219.69913
216.0 0.00463 213.98666 219.50751
241.0 0.00415 213.97343 219.41129
207.0 0.00483 213.96089 219.42528
253.0 0.00395 213.94911 219.56917
215.0 0.00465 213.93800 219.87915
224.0 0.00446 213.92754 220.42445
236.0 0.00424 213.91782 221.32857
216.0 0.00463 213.90874 222.78484
220.0 0.00455 213.90028 225.07014
221.0 0.00452 213.89250 228.52141
219.0 0.00457 213.88531 233.46318
234.0 0.00427 213.87872 240.17459
256.0 0.00391 213.87274 248.59987
278.0 0.00360 213.86737 258.39899
248.0 0.00403 213.86246 268.73187
255.0 0.00392 213.85815 278.22528
290.0 0.003448 213.85434 285.06738
298.0 0.003356 213.85107 287.59634
316.0 0.003165 213.84825 285.34811
311.0 0.003215 213.84592 279.49799
307.0 0.003257 213.84402 272.06943
283.0 0.00353 213.84259 264.90320
221.0 0.00452 213.84161 259.19748
235.0 0.00426 213.84100 255.50369
256.0 0.00391 213.84081 253.76434
243.0 0.00412 213.84088 253.38237
259.0 0.00386 213.84146 253.52103
255.0 0.00392 213.84229 253.47508
295.0 0.003390 213.84344 253.17236
239.0 0.00418 213.84488 253.18594
256.0 0.00391 213.84654 254.40724
272.0 0.00368 213.84853 257.54343
278.0 0.00360 213.85077 262.88113
258.0 0.00388 213.85320 270.15216
253.0 0.00395 213.85585 278.45465
276.0 0.00362 213.85869 286.22656
290.0 0.003448 213.86166 291.47787
280.0 0.00357 213.86482 292.51227
289.0 0.003460 213.86812 289.02118
319.0 0.003135 213.87149 282.31201
311.0 0.003215 213.87498 274.40067
280.0 0.00357 213.87849 267.03094
242.0 0.00413 213.88203 261.30872
230.0 0.00435 213.88570 257.66803
241.0 0.00415 213.88931 255.92688
241.0 0.00415 213.89296 255.40047
244.0 0.00410 213.89651 255.14807
231.0 0.00433 213.90009 254.36752
266.0 0.00376 213.90355 252.96323
251.0 0.00398 213.90700 251.65559
246.0 0.00407 213.91031 251.29765
249.0 0.00402 213.91344 253.01889
265.0 0.00377 213.91652 257.69409
256.0 0.00391 213.91936 265.73358
269.0 0.00372 213.92210 277.41495
267.0 0.00375 213.92464 291.94693
284.0 0.00352 213.92693 307.87289
297.0 0.003367 213.92899 322.87424
326.0 0.003067 213.93082 333.99219
374.0 0.002674 213.93228 338.59595
354.0 0.002825 213.93356 335.88184
354.0 0.002825 213.93446 327.63657
328.0 0.003049 213.93509 316.80203
271.0 0.00369 213.93539 306.38620
285.0 0.00351 213.93535 298.48987
282.0 0.00355 213.93489 294.40588
249.0 0.00402 213.93407 294.53787
295.0 0.003390 213.93275 298.36667
273.0 0.00366 213.93106 304.66702
335.0 0.002985 213.92902 311.95169
307.0 0.003257 213.92638 319.00662
329.0 0.003040 213.92331 325.26523
320.0 0.003125 213.91980 330.20779
336.0 0.002976 213.91566 332.84451
343.0 0.002915 213.91115 331.71222
342.0 0.002924 213.90598 325.84729
377.0 0.002653 213.90033 315.87115
354.0 0.002825 213.89407 303.80997
317.0 0.003155 213.88727 291.92136
304.0 0.003289 213.87981 281.85587
274.0 0.00365 213.87173 274.46204
258.0 0.00388 213.86314 269.83188
246.0 0.00407 213.85381 267.45941
257.0 0.00389 213.84390 266.31586
295.0 0.003390 213.83327 265.08936
264.0 0.00379 213.82190 262.69388
282.0 0.00355 213.80995 258.78360
290.0 0.003448 213.79729 253.75134
270.0 0.00370 213.78387 248.28198
271.0 0.00369 213.76978 243.02119
243.0 0.00412 213.75494 238.48784
213.0 0.00469 213.73929 235.06526
229.0 0.00437 213.72293 232.98119
251.0 0.00398 213.70584 232.30896
244.0 0.00410 213.68796 232.98228
234.0 0.00427 213.66927 234.80794
248.0 0.00403 213.64984 237.47289
230.0 0.00435 213.62953 240.54680
232.0 0.00431 213.60846 243.46815
260.0 0.00385 213.58659 245.56303
251.0 0.00398 213.56384 246.22107
253.0 0.00395 213.54030 245.23663
235.0 0.00426 213.51593 242.99371
220.0 0.00455 213.49071 240.23117
237.0 0.00422 213.46463 237.68636
207.0 0.00483 213.43767 235.91228
227.0 0.00441 213.40991 235.17908
224.0 0.00446 213.38129 235.71317
224.0 0.00446 213.35175 237.34311
209.0 0.00478 213.32130 239.78510
208.0 0.00481 213.29010 242.56007
260.0 0.00385 213.25798 245.25301
245.0 0.00408 213.22493 247.51064
256.0 0.00391 213.19107 249.05403
261.0 0.00383 213.15630 249.79030
224.0 0.00446 213.12057 249.53188
260.0 0.00385 213.08403 248.38150
275.0 0.00364 213.04665 246.44160
236.0 0.00424 213.00830 243.88382
235.0 0.00426 212.96909 241.10947
241.0 0.00415 212.92905 238.56160
244.0 0.00410 212.88809 236.53809
211.0 0.00474 212.84625 235.13416
228.0 0.00439 212.80353 234.28955
260.0 0.00385 212.75996 233.91711
215.0 0.00465 212.71547 233.91425
248.0 0.00403 212.67014 234.27080
241.0 0.00415 212.62396 235.24432
232.0 0.00431 212.57687 237.10213
238.0 0.00420 212.52902 240.24295
264.0 0.00379 212.48022 245.23749
228.0 0.00439 212.43071 252.49545
237.0 0.00422 212.38025 262.12628
275.0 0.00364 212.32903 273.78339
284.0 0.00352 212.27689 286.55383
312.0 0.003205 212.22401 298.99225
331.0 0.003021 212.17035 309.20261
332.0 0.003012 212.11588 315.24548
346.0 0.002890 212.06058 315.62253
369.0 0.002710 212.00452 310.33536
318.0 0.003145 211.94765 301.15497
306.0 0.003268 211.89008 290.58722
277.0 0.00361 211.83176 280.73621
249.0 0.00402 211.77267 272.90445
230.0 0.00435 211.71286 267.58099
240.0 0.00417 211.65236 264.47855
256.0 0.00391 211.59113 262.82883
279.0 0.00358 211.52919 261.55307
273.0 0.00366 211.46661 259.52246
284.0 0.00352 211.40335 256.44208
245.0 0.00408 211.33943 252.47641
270.0 0.00370 211.27490 248.39397
255.0 0.00392 211.20972 244.98491
231.0 0.00433 211.14395 242.78030
227.0 0.00441 211.07756 241.99939
224.0 0.00446 211.01060 242.50038
242.0 0.00413 210.94315 243.82875
241.0 0.00415 210.87505 245.24115
258.0 0.00388 210.80640 245.82901
253.0 0.00395 210.73732 245.00954
246.0 0.00407 210.66766 242.70309
247.0 0.00405 210.59763 239.41563
269.0 0.00372 210.52710 235.85815
232.0 0.00431 210.45607 232.61548
244.0 0.00410 210.38464 229.97888
247.0 0.00405 210.31279 228.23877
240.0 0.00417 210.24055 227.23418
238.0 0.00420 210.16798 226.69928
204.0 0.00490 210.09500 226.25180
211.0 0.00474 210.02168 225.52126
213.0 0.00469 209.94804 224.33118
245.0 0.00408 209.87419 222.74438
218.0 0.00459 209.79999 220.96123
229.0 0.00437 209.72562 219.18611
234.0 0.00427 209.65089 217.54079
234.0 0.00427 209.57599 216.17024
218.0 0.00459 209.50093 215.08345
217.0 0.00461 209.42574 214.26733
213.0 0.00469 209.35031 213.68159
182.0 0.00549 209.27473 213.28377
197.0 0.00508 209.19914 213.02396
220.0 0.00455 209.12340 212.86404
225.0 0.00444 209.04759 212.77675
193.0 0.00518 208.97177 212.74513
217.0 0.00461 208.89592 212.76114
202.0 0.00495 208.82002 212.82158
204.0 0.00490 208.74417 212.93243
198.0 0.00505 208.66838 213.10289
214.0 0.00467 208.59262 213.35226
225.0 0.00444 208.51701 213.69691
204.0 0.00490 208.44139 214.24925
217.0 0.00461 208.36601 215.09676
235.0 0.00426 208.29079 216.41423
221.0 0.00452 208.21573 218.45401
224.0 0.00446 208.14081 221.54149
207.0 0.00483 208.06613 226.04349
249.0 0.00402 207.99167 232.29308
253.0 0.00395 207.91756 240.48370
229.0 0.00437 207.84367 250.53867
236.0 0.00424 207.77003 261.97382
260.0 0.00385 207.69681 273.83875
267.0 0.00375 207.62392 284.60150
281.0 0.00356 207.55142 292.29504
298.0 0.003356 207.47926 295.15781
303.0 0.003300 207.40750 292.61737
334.0 0.002994 207.33624 285.83200
289.0 0.003460 207.26541 276.91245
257.0 0.00389 207.19508 267.93317
238.0 0.00420 207.12521 260.31772
231.0 0.00433 207.05588 254.83740
259.0 0.00386 206.98709 251.60590
256.0 0.00391 206.91887 250.16258
222.0 0.00450 206.85120 249.59366
265.0 0.00377 206.78419 248.80124
235.0 0.00426 206.71780 246.93649
234.0 0.00427 206.65201 243.74860
294.0 0.003401 206.58682 239.68340
233.0 0.00429 206.52242 235.43661
255.0 0.00392 206.45869 231.66119
217.0 0.00461 206.39568 228.88422
206.0 0.00485 206.33334 227.45572
222.0 0.00450 206.27179 227.70956
224.0 0.00446 206.21101 229.76279
225.0 0.00444 206.15102 233.70853
264.0 0.00379 206.09181 239.48660
246.0 0.00407 206.03343 246.86427
242.0 0.00413 205.97592 255.34323
301.0 0.003322 205.91933 264.07269
279.0 0.00358 205.86343 272.25479
287.0 0.003484 205.80853 278.88895
319.0 0.003135 205.75447 283.43585
262.0 0.00382 205.70134 285.52362
295.0 0.003390 205.64919 284.92996
286.0 0.003497 205.59789 281.85718
305.0 0.003279 205.54761 277.32346
276.0 0.00362 205.49829 272.77771
254.0 0.00394 205.44995 269.45792
249.0 0.00402 205.40253 268.03839
263.0 0.00380 205.35622 268.66702
272.0 0.00368 205.31084 270.91772
275.0 0.00364 205.26656 274.04568
293.0 0.003413 205.22321 277.10165
307.0 0.003257 205.18100 279.02136
261.0 0.00383 205.13980 279.00452
280.0 0.00357 205.09969 276.95493
265.0 0.00377 205.06061 273.40555
255.0 0.00392 205.02269 268.98877
247.0 0.00405 204.98581 264.08896
275.0 0.00364 204.94997 258.86627
248.0 0.00403 204.91528 253.61798
263.0 0.00380 204.88167 248.68663
241.0 0.00415 204.84921 244.36708
235.0 0.00426 204.81790 240.71489
225.0 0.00444 204.78767 237.59142
238.0 0.00420 204.75851 234.82776
261.0 0.00383 204.73055 232.32423
247.0 0.00405 204.70374 230.01399
216.0 0.00463 204.67796 227.79678
228.0 0.00439 204.65341 225.56432
227.0 0.00441 204.62996 223.18469
221.0 0.00452 204.60764 220.71681
217.0 0.00461 204.58644 218.29976
208.0 0.00481 204.56647 216.07951
229.0 0.00437 204.54756 214.15123
230.0 0.00435 204.52988 212.55145
209.0 0.00478 204.51318 211.26855
222.0 0.00450 204.49773 210.26028
197.0 0.00508 204.48338 209.47189
218.0 0.00459 204.47014 208.85362
217.0 0.00461 204.45804 208.37932
190.0 0.00526 204.44701 207.99350
223.0 0.00448 204.43716 207.68576
186.0 0.00538 204.42839 207.43919
213.0 0.00469 204.42072 207.26782
208.0 0.00481 204.41412 207.11053
202.0 0.00495 204.40865 206.98578
211.0 0.00474 204.40427 206.88770
179.0 0.00559 204.40092 206.81113
210.0 0.00476 204.39871 206.75252
222.0 0.00450 204.39748 206.70845
242.0 0.00413 204.39731 206.67709
191.0 0.00524 204.39816 206.65701
233.0 0.00429 204.40007 206.64713
229.0 0.00437 204.40300 206.64696
234.0 0.00427 204.40691 206.66602
205.0 0.00488 204.41183 206.68465
210.0 0.00476 204.41768 206.71249
208.0 0.00481 204.42461 206.74980
193.0 0.00518 204.43237 206.79657
230.0 0.00435 204.44112 206.85367
220.0 0.00455 204.45085 206.92145
204.0 0.00490 204.46141 207.00072
205.0 0.00488 204.47289 207.09238
204.0 0.00490 204.48523 207.19783
213.0 0.00469 204.49846 207.31862
226.0 0.00442 204.51259 207.45697
209.0 0.00478 204.52745 207.61600
189.0 0.00529 204.54324 207.80051
221.0 0.00452 204.55977 208.01753
216.0 0.00463 204.57700 208.27773
231.0 0.00433 204.59511 208.59680
200.0 0.00500 204.61394 208.99637
251.0 0.00398 204.63348 209.50574
203.0 0.00493 204.65375 210.16048
243.0 0.00412 204.67464 211.00201
201.0 0.00498 204.69635 212.07559
209.0 0.00478 204.71857 213.42905
228.0 0.00439 204.74152 215.11391
233.0 0.00429 204.76501 217.18541
237.0 0.00422 204.78909 219.70035
233.0 0.00429 204.81380 222.71872
247.0 0.00405 204.83902 226.32120
247.0 0.00405 204.86478 230.65498
238.0 0.00420 204.89101 235.92726
276.0 0.00362 204.91771 242.35097
256.0 0.00391 204.94501 250.01570
252.0 0.00397 204.97263 258.79999
253.0 0.00395 205.00067 268.24219
289.0 0.003460 205.02916 278.01666
271.0 0.00369 205.05801 287.67950
268.0 0.00373 205.08719 297.00259
243.0 0.00412 205.11674 305.65469
345.0 0.002899 205.14661 312.89267
282.0 0.00355 205.17671 318.09991
322.0 0.003106 205.20714 320.90662
306.0 0.003268 205.23779 321.44858
339.0 0.002950 205.26866 320.07056
301.0 0.003322 205.29976 317.26398
300.0 0.003333 205.33092 313.53607
321.0 0.003115 205.36237 309.31256
284.0 0.00352 205.39394 304.93896
318.0 0.003145 205.42558 300.62970
241.0 0.00415 205.45726 296.32599
281.0 0.00356 205.48903 291.90372
293.0 0.003413 205.52095 287.21158
263.0 0.00380 205.55275 282.32706
290.0 0.003448 205.58458 277.26331
256.0 0.00391 205.61647 272.10675
240.0 0.00417 205.64827 266.81046
256.0 0.00391 205.68002 261.42017
264.0 0.00379 205.71167 256.01141
256.0 0.00391 205.74327 250.67363
249.0 0.00402 205.77466 245.50240
234.0 0.00427 205.80598 240.58965
231.0 0.00433 205.83707 236.07047
205.0 0.00488 205.86810 232.07211
252.0 0.00397 205.89873 228.68726
222.0 0.00450 205.92923 226.00194
207.0 0.00483 205.95950 223.98535
209.0 0.00478 205.98953 222.46475
220.0 0.00455 206.01926 221.42874
237.0 0.00422 206.04868 220.86214
228.0 0.00439 206.07779 220.79439
224.0 0.00446 206.10663 221.37112
221.0 0.00452 206.13503 222.74501
235.0 0.00426 206.16304 225.04892
218.0 0.00459 206.19081 228.38097
249.0 0.00402 206.21811 232.67760
249.0 0.00402 206.24495 237.73328
227.0 0.00441 206.27144 243.09174
224.0 0.00446 206.29744 248.04366
249.0 0.00402 206.32297 251.68539
255.0 0.00392 206.34805 253.19934
277.0 0.00361 206.37270 252.28928
246.0 0.00407 206.39682 249.39400
232.0 0.00431 206.42036 245.47060
207.0 0.00483 206.44341 241.52411
215.0 0.00465 206.46605 238.36107
225.0 0.00444 206.48802 236.52551
240.0 0.00417 206.50949 236.29327
244.0 0.00410 206.53036 237.67967
242.0 0.00413 206.55070 240.42038
233.0 0.00429 206.57053 244.00111
243.0 0.00412 206.58968 247.77301
236.0 0.00424 206.60822 251.08359
249.0 0.00402 206.62624 253.39009
226.0 0.00442 206.64359 254.24409
267.0 0.00375 206.66032 253.27986
245.0 0.00408 206.67647 250.44609
255.0 0.00392 206.69200 246.18176
250.0 0.00400 206.70689 241.26627
247.0 0.00405 206.72110 236.45316
214.0 0.00467 206.73471 232.30637
246.0 0.00407 206.74770 229.12001
231.0 0.00433 206.76003 226.97586
200.0 0.00500 206.77168 225.76439
236.0 0.00424 206.78278 225.21233
215.0 0.00465 206.79317 224.93890
241.0 0.00415 206.80292 224.53448
229.0 0.00437 206.81204 223.70273
211.0 0.00474 206.82048 222.37949
204.0 0.00490 206.82831 220.70163
221.0 0.00452 206.83546 218.88344
219.0 0.00457 206.84204 217.11377
222.0 0.00450 206.84793 215.52431
231.0 0.00433 206.85320 214.19357
188.0 0.00532 206.85785 213.14583
222.0 0.00450 206.86185 212.37170
221.0 0.00452 206.86523 211.83467
214.0 0.00467 206.86804 211.48915
220.0 0.00455 206.87018 211.29121
218.0 0.00459 206.87173 211.20354
205.0 0.00488 206.87270 211.20062
218.0 0.00459 206.87312 211.26840
210.0 0.00476 206.87291 211.40237
216.0 0.00463 206.87210 211.60962
208.0 0.00481 206.87079 211.90700
220.0 0.00455 206.86890 212.32147
204.0 0.00490 206.86646 212.89197
229.0 0.00437 206.86346 213.66833
212.0 0.00472 206.85999 214.70973
213.0 0.00469 206.85588 216.08736
256.0 0.00391 206.85130 217.87543
238.0 0.00420 206.84625 220.15660
230.0 0.00435 206.84073 223.01732
228.0 0.00439 206.83466 226.53055
213.0 0.00469 206.82820 230.79738
212.0 0.00472 206.82120 235.90784
223.0 0.00448 206.81383 241.97476
247.0 0.00405 206.80598 249.06461
273.0 0.00366 206.79779 257.13290
286.0 0.003497 206.78906 265.98935
282.0 0.00355 206.78000 275.29559
310.0 0.003226 206.77055 284.43945
291.0 0.003436 206.76073 292.38943
297.0 0.003367 206.75052 297.87393
326.0 0.003067 206.74002 299.88016
320.0 0.003125 206.72906 298.08453
292.0 0.003425 206.71793 293.01880
269.0 0.00372 206.70636 285.73624
284.0 0.00352 206.69456 277.69287
235.0 0.00426 206.68246 270.07648
257.0 0.00389 206.67004 263.72501
230.0 0.00435 206.65742 259.04776
240.0 0.00417 206.64444 256.04849
244.0 0.00410 206.63135 254.34984
237.0 0.00422 206.61795 253.30585
273.0 0.00366 206.60439 252.26959
280.0 0.00357 206.59058 250.76096
262.0 0.00382 206.57654 248.70154
251.0 0.00398 206.56236 246.34966
246.0 0.00407 206.54797 244.28809
269.0 0.00372 206.53349 243.14906
240.0 0.00417 206.51883 243.55345
257.0 0.00389 206.50397 245.99182
253.0 0.00395 206.48900 250.71570
248.0 0.00403 206.47388 257.72214
267.0 0.00375 206.45869 266.62045
276.0 0.00362 206.44334 276.65869
288.0 0.003472 206.42793 286.64111
353.0 0.002833 206.41234 294.99203
364.0 0.002747 206.39676 300.14200
341.0 0.002933 206.38104 301.14975
365.0 0.002740 206.36528 298.32303
322.0 0.003106 206.34941 293.02838
293.0 0.003413 206.33342 287.00867
305.0 0.003279 206.31740 281.68542
253.0 0.00395 206.30136 277.98856
252.0 0.00397 206.28522 276.11578
261.0 0.00383 206.26900 275.95145
251.0 0.00398 206.25279 277.01111
286.0 0.003497 206.23650 278.53061
279.0 0.00358 206.22014 279.48715
284.0 0.00352 206.20369 278.82791
280.0 0.00357 206.18718 275.92474
286.0 0.003497 206.17068 270.95010
272.0 0.00368 206.15410 264.68863
242.0 0.00413 206.13741 258.22095
238.0 0.00420 206.12073 252.30373
236.0 0.00424 206.10391 247.41151
243.0 0.00412 206.08708 243.66556
213.0 0.00469 206.07013 240.98332
254.0 0.00394 206.05309 239.10397
233.0 0.00429 206.03600 237.62329
221.0 0.00452 206.01871 236.08925
234.0 0.00427 206.00137 234.15450
253.0 0.00395 205.98390 231.69508
240.0 0.00417 205.96631 228.84280
215.0 0.00465 205.94859 225.89307
249.0 0.00402 205.93073 223.10086
214.0 0.00467 205.91266 220.66605
224.0 0.00446 205.89445 218.65976
201.0 0.00498 205.87610 217.15294
215.0 0.00465 205.85751 216.05702
225.0 0.00444 205.83864 215.25661
213.0 0.00469 205.81964 214.61052
208.0 0.00481 205.80035 213.99513
232.0 0.00431 205.78085 213.35216
216.0 0.00463 205.76111 212.68359
217.0 0.00461 205.74094 212.02737
217.0 0.00461 205.72057 211.42712
221.0 0.00452 205.69984 210.90974
224.0 0.00446 205.67885 210.47758
208.0 0.00481 205.65746 210.14462
225.0 0.00444 205.63565 209.87990
227.0 0.00441 205.61353 209.67386
208.0 0.00481 205.59093 209.46132
212.0 0.00472 205.56790 209.24942
214.0 0.00467 205.54446 209.04135
201.0 0.00498 205.52052 208.84901
193.0 0.00518 205.49611 208.68329
192.0 0.00521 205.47116 208.55341
208.0 0.00481 205.44580 208.46791
224.0 0.00446 205.41980 208.42133
225.0 0.00444 205.39322 208.41412
209.0 0.00478 205.36609 208.44038
199.0 0.00503 205.33836 208.49266
223.0 0.00448 205.31001 208.56967
186.0 0.00538 205.28104 208.66286
223.0 0.00448 205.25139 208.77373
213.0 0.00469 205.22112 208.92882
208.0 0.00481 205.19009 209.15916
208.0 0.00481 205.15839 209.51024
194.0 0.00515 205.12601 210.04732
210.0 0.00476 205.09282 210.86058
209.0 0.00478 205.05893 212.05484
228.0 0.00439 205.02422 213.75073
213.0 0.00469 204.98880 216.05115
213.0 0.00469 204.95259 219.02434
211.0 0.00474 204.91557 222.66782
243.0 0.00412 204.87778 226.89577
218.0 0.00459 204.83910 231.40529
228.0 0.00439 204.79967 235.81201
242.0 0.00413 204.75938 239.57193
238.0 0.00420 204.71828 242.09421
270.0 0.00370 204.67635 242.97813
219.0 0.00457 204.63354 242.15057
252.0 0.00397 204.58998 239.93610
225.0 0.00444 204.54558 236.92882
227.0 0.00441 204.50026 233.74654
238.0 0.00420 204.45421 231.02496
220.0 0.00455 204.40724 229.04860
224.0 0.00446 204.35954 228.05254
217.0 0.00461 204.31111 227.95320
247.0 0.00405 204.26183 228.57219
218.0 0.00459 204.21178 229.59206
237.0 0.00422 204.16098 230.66331
231.0 0.00433 204.10947 231.49463
223.0 0.00448 204.05731 231.97704
209.0 0.00478 204.00441 232.19153
211.0 0.00474 203.95088 232.30389
225.0 0.00444 203.89673 232.49216
234.0 0.00427 203.84198 232.75328
219.0 0.00457 203.78671 232.92442
218.0 0.00459 203.73094 232.75978
230.0 0.00435 203.67465 232.00948
237.0 0.00422 203.61800 230.64119
228.0 0.00439 203.56097 228.87944
216.0 0.00463 203.50363 227.08357
216.0 0.00463 203.44600 225.61946
223.0 0.00448 203.38808 224.82201
239.0 0.00418 203.33011 224.97906
212.0 0.00472 203.27202 226.31450
240.0 0.00417 203.21394 228.95172
232.0 0.00431 203.15581 232.87885
228.0 0.00439 203.09789 237.87724
246.0 0.00407 203.04007 243.57147
224.0 0.00446 202.98265 249.48201
243.0 0.00412 202.92552 254.88467
250.0 0.00400 202.86877 258.98865
273.0 0.00366 202.81268 260.96234
262.0 0.00382 202.75711 260.26340
289.0 0.003460 202.70233 256.98660
276.0 0.00362 202.64842 251.91713
222.0 0.00450 202.59535 246.07349
229.0 0.00437 202.54337 240.39511
240.0 0.00417 202.49249 235.53741
228.0 0.00439 202.44289 231.87468
202.0 0.00495 202.39462 229.53860
236.0 0.00424 202.34784 228.43758
234.0 0.00427 202.30275 228.24092
240.0 0.00417 202.25929 228.48372
235.0 0.00426 202.21782 228.63686
206.0 0.00485 202.17825 228.26137
237.0 0.00422 202.14081 227.16948
253.0 0.00395 202.10565 225.46330
233.0 0.00429 202.07294 223.36783
216.0 0.00463 202.04272 221.11865
224.0 0.00446 202.01520 218.87791
209.0 0.00478 201.99048 216.76453
232.0 0.00431 201.96875 214.84970
230.0 0.00435 201.95012 213.19638
211.0 0.00474 201.93483 211.82266
236.0 0.00424 201.92291 210.78189
193.0 0.00518 201.91464 210.08928
219.0 0.00457 201.91000 209.74454
217.0 0.00461 201.90932 209.74565
205.0 0.00488 201.91257 210.05531
215.0 0.00465 201.92009 210.66779
219.0 0.00457 201.93196 211.56580
216.0 0.00463 201.94829 212.74030
230.0 0.00435 201.96931 214.17529
212.0 0.00472 201.99518 215.85875
234.0 0.00427 202.02588 217.79457
218.0 0.00459 202.06175 219.94756
250.0 0.00400 202.10292 222.23430
219.0 0.00457 202.14941 224.47501
224.0 0.00446 202.20154 226.38036
237.0 0.00422 202.25917 227.62332
237.0 0.00422 202.32283 227.97983
274.0 0.00365 202.39233 227.47017
252.0 0.00397 202.46796 226.37686
207.0 0.00483 202.54979 225.11285
220.0 0.00455 202.63788 223.94069
214.0 0.00467 202.73248 223.11182
226.0 0.00442 202.83362 222.73587
200.0 0.00500 202.94145 222.82626
199.0 0.00503 203.05594 223.32899
219.0 0.00457 203.17725 224.13309
201.0 0.00498 203.30560 225.06519
208.0 0.00481 203.44092 225.89532
235.0 0.00426 203.58333 226.40593
235.0 0.00426 203.73268 226.49916
228.0 0.00439 203.88927 226.27704
236.0 0.00424 204.05310 226.01421
226.0 0.00442 204.22412 226.06586
224.0 0.00446 204.40245 226.70949
212.0 0.00472 204.58784 228.15387
236.0 0.00424 204.78050 230.45979
207.0 0.00483 204.98044 233.53943
234.0 0.00427 205.18748 237.13629
232.0 0.00431 205.40173 240.83035
250.0 0.00400 205.62279 244.03700
282.0 0.00355 205.85092 246.04686
303.0 0.003300 206.08601 246.36104
293.0 0.003413 206.32762 244.87527
256.0 0.00391 206.57628 242.00049
268.0 0.00373 206.83099 238.40434
223.0 0.00448 207.09212 234.71379
220.0 0.00455 207.35960 231.45338
215.0 0.00465 207.63271 228.90462
205.0 0.00488 207.91187 227.22479
192.0 0.00521 208.19620 226.36993
236.0 0.00424 208.48579 226.16678
228.0 0.00439 208.78050 226.33838
246.0 0.00407 209.07953 226.52159
270.0 0.00370 209.38330 226.39565
243.0 0.00412 209.69078 225.78113
225.0 0.00444 210.00179 224.68326
225.0 0.00444 210.31636 223.26933
224.0 0.00446 210.63338 221.73587
212.0 0.00472 210.95317 220.25778
245.0 0.00408 211.27463 218.95093
210.0 0.00476 211.59746 217.88818
202.0 0.00495 211.92174 217.08719
248.0 0.00403 212.24602 216.53848
211.0 0.00474 212.57060 216.20764
208.0 0.00481 212.89432 216.04985
219.0 0.00457 213.21671 216.01805
228.0 0.00439 213.53777 216.08853
218.0 0.00459 213.85579 216.20062
209.0 0.00478 214.17128 216.34860
183.0 0.00546 214.48268 216.52211
194.0 0.00515 214.78958 216.71275
220.0 0.00455 215.09180 216.92004
212.0 0.00472 215.38789 217.13861
216.0 0.00463 215.67764 217.36621
203.0 0.00493 215.95993 217.59993
215.0 0.00465 216.23405 217.83688
213.0 0.00469 216.49977 218.07477
203.0 0.00493 216.75569 218.31102
229.0 0.00437 217.00137 218.53778
207.0 0.00483 217.23579 218.77950
223.0 0.00448 217.45819 219.00375
226.0 0.00442 217.66811 219.17636
218.0 0.00459 217.86438 219.39011
209.0 0.00478 218.04651 219.59746
222.0 0.00450 218.21352 219.79849
239.0 0.00418 218.36455 219.99370
220.0 0.00455 218.49928 220.18494
200.0 0.00500 218.61653 220.38359
224.0 0.00446 218.71596 220.57683
223.0 0.00448 218.79651 220.78189
233.0 0.00429 218.85789 221.01140
218.0 0.00459 218.89934 221.28387
236.0 0.00424 218.92027 221.62286
236.0 0.00424 218.92017 222.05684
199.0 0.00503 218.89870 222.59947
219.0 0.00457 218.85529 223.30981
220.0 0.00455 218.78963 224.19012
224.0 0.00446 218.70155 225.23096
238.0 0.00420 218.59074 226.40968
237.0 0.00422 218.45737 227.66090
228.0 0.00439 218.30116 228.89929
231.0 0.00433 218.12227 229.96585
219.0 0.00457 217.92110 230.70767
250.0 0.00400 217.69781 231.00948
229.0 0.00437 217.45320 230.87201
225.0 0.00444 217.18765 230.41249
237.0 0.00422 216.90182 229.86014
237.0 0.00422 216.59724 229.45216
232.0 0.00431 216.27437 229.39429
230.0 0.00435 215.93541 229.85136
238.0 0.00420 215.58131 230.93578
213.0 0.00469 215.21385 232.70236
239.0 0.00418 214.83566 235.11995
241.0 0.00415 214.44830 238.08122
230.0 0.00435 214.05511 241.34151
243.0 0.00412 213.65858 244.57263
241.0 0.00415 213.26170 247.36369
266.0 0.00376 212.86874 249.31537
259.0 0.00386 212.48279 250.19209
252.0 0.00397 212.10875 250.03691
244.0 0.00410 211.75098 249.08827
250.0 0.00400 211.41458 247.67274
246.0 0.00407 211.10556 245.96671
269.0 0.00372 210.82928 244.05591
233.0 0.00429 210.59282 242.04456
262.0 0.00382 210.40311 240.11853
231.0 0.00433 210.26764 238.52565
237.0 0.00422 210.19485 237.49239
231.0 0.00433 210.19360 237.16849
242.0 0.00413 210.27339 237.61028
219.0 0.00457 210.44426 238.82790
254.0 0.00394 210.71756 240.84099
246.0 0.00407 211.10468 243.68591
286.0 0.003497 211.61867 247.39432
219.0 0.00457 212.27226 251.87086
247.0 0.00405 213.07965 256.84161
274.0 0.00365 214.05746 261.85855
259.0 0.00386 215.22031 266.31589
302.0 . . .
loop_
_refln_index_h
_refln_index_k
_refln_index_l
_pd_refln_wavelength_id
_refln_observed_status
_refln_F_squared_meas
_refln_F_squared_calc
_refln_phase_calc
_refln_d_spacing
_gsas_i100_meas
1 0 0 1 o 240.826 232.620 0.00 8.18583 37.78
1 0 0 2 o 244.891 232.620 0.00 8.18583 14.51
1 1 0 1 o 7.039 8.815 180.00 4.83754 0.66
1 1 0 2 o 5.163 8.815 180.00 4.83754 0.17
0 0 1 1 o 9.994 10.770 0.00 4.53349 0.40
0 0 1 2 o 9.603 10.770 0.00 4.53349 0.15
2 0 0 1 o 170.910 157.402 180.00 4.09291 6.37
2 0 0 2 o 171.949 157.402 180.00 4.09291 2.42
1 0 -1 1 o 180.378 165.117 0.00 4.08232 6.30
1 0 -1 2 o 184.191 165.117 0.00 4.08232 2.43
1 0 1 1 o 1212.058 1215.944 180.00 3.85890 43.89
1 0 1 2 o 1219.962 1215.944 180.00 3.85890 16.70
0 1 1 1 o -2.183 2.554 0.00 3.61636 0.00
0 1 1 2 o -2.183 2.554 0.00 3.61636 0.00
2 1 0 1 o 512.068 482.874 0.00 3.38057 30.01
1 1 -1 1 o 1815.589 1762.267 180.00 3.37459 100.00
2 1 0 2 o 495.842 482.874 0.00 3.38057 11.00
1 1 -1 2 o 1782.956 1762.267 180.00 3.37459 37.14
1 1 1 1 o 409.794 403.382 180.00 3.24507 22.08
1 1 1 2 o 397.107 403.382 180.00 3.24507 8.10
2 0 -1 1 o 466.499 466.815 0.00 3.14346 9.44
2 0 -1 2 o 474.734 466.815 0.00 3.14346 3.63
0 2 0 1 o 2505.391 2594.947 180.00 2.99836 49.19
0 2 0 2 o 2426.469 2594.947 180.00 2.99836 18.03
2 0 1 1 o 296.076 259.185 180.00 2.94245 5.50
2 0 1 2 o 296.854 259.185 180.00 2.94245 2.08
1 2 0 1 o 175.317 163.892 180.00 2.81544 6.57
1 2 0 2 o 182.886 163.892 180.00 2.81544 2.58
2 1 -1 1 o 28.037 24.915 180.00 2.78413 1.05
2 1 -1 2 o 21.888 24.915 180.00 2.78413 0.32
3 0 0 1 o 878.227 852.314 180.00 2.72861 13.72
3 0 0 2 o 815.414 852.314 180.00 2.72861 4.83
2 1 1 1 o 944.718 939.963 180.00 2.64159 31.17
2 1 1 2 o 872.214 939.963 180.00 2.64159 10.91
0 2 1 1 o -1.184 0.028 0.00 2.50087 0.00
0 2 1 2 o -1.184 0.028 0.00 2.50087 0.00
3 1 0 1 o 0.414 5.591 180.00 2.48359 0.00
3 1 0 2 o 5.510 5.591 180.00 2.48359 0.05
2 2 0 1 o 87.976 76.203 0.00 2.41877 2.50
1 2 -1 1 o 80.967 72.049 180.00 2.41658 2.17
2 2 0 2 o 82.274 76.203 0.00 2.41877 0.89
1 2 -1 2 o 75.288 72.049 180.00 2.41658 0.77
3 0 -1 1 o 1123.894 1089.849 0.00 2.40950 12.57
3 0 -1 2 o 1091.402 1089.849 0.00 2.40950 4.62
1 2 1 1 o 682.220 671.947 0.00 2.36766 18.71
1 2 1 2 o 685.015 671.947 0.00 2.36766 7.10
3 0 1 1 o 1.679 13.504 180.00 2.27218 0.00
0 0 2 1 o -0.138 0.509 0.00 2.26675 0.00
3 0 1 2 o 1.679 13.504 180.00 2.27218 0.00
0 0 2 2 o -0.138 0.509 0.00 2.26675 0.00
3 1 -1 1 o 2.949 12.820 0.00 2.23577 0.11
3 1 -1 2 o 8.514 12.820 0.00 2.23577 0.08
1 0 -2 1 o 124.993 132.985 180.00 2.22279 1.31
1 0 -2 2 o 135.736 132.985 180.00 2.22279 0.54
2 2 -1 1 o 341.430 317.787 180.00 2.16965 7.43
2 2 -1 2 o 336.717 317.787 180.00 2.16965 2.77
1 0 2 1 o 278.250 270.139 0.00 2.14820 2.91
1 0 2 2 o 275.251 270.139 0.00 2.14820 1.09
3 1 1 1 o 98.742 98.067 180.00 2.12477 2.00
0 1 2 1 o 746.984 764.073 180.00 2.12032 15.26
3 1 1 2 o 95.540 98.067 180.00 2.12477 0.73
0 1 2 2 o 721.318 764.073 180.00 2.12032 5.58
2 2 1 1 o 117.309 111.846 0.00 2.10012 2.44
2 2 1 2 o 118.310 111.846 0.00 2.10012 0.93
1 1 -2 1 o 168.046 165.585 0.00 2.08421 3.15
1 1 -2 2 o 180.152 165.585 0.00 2.08421 1.27
4 0 0 1 o 306.597 293.393 180.00 2.04646 2.50
4 0 0 2 o 309.759 293.393 180.00 2.04646 0.96
2 0 -2 1 o 395.967 375.775 180.00 2.04116 3.11
2 0 -2 2 o 367.434 375.775 180.00 2.04116 1.10
1 1 2 1 o 123.815 117.588 180.00 2.02235 2.31
3 2 0 1 o 506.501 495.134 0.00 2.01806 9.55
1 1 2 2 o 120.177 117.588 180.00 2.02235 0.85
3 2 0 2 o 492.115 495.134 0.00 2.01806 3.51
1 3 0 1 o 35.032 36.934 180.00 1.94185 0.61
1 3 0 2 o 35.782 36.934 180.00 1.94185 0.23
4 1 0 1 o 104.708 107.524 180.00 1.93678 1.65
2 1 -2 1 o 0.338 0.354 0.00 1.93229 0.00
4 1 0 2 o 100.255 107.524 180.00 1.93678 0.60
2 0 2 1 o 48.347 60.271 0.00 1.92945 0.42
2 1 -2 2 o 0.273 0.354 0.00 1.93229 0.00
2 0 2 2 o 33.852 60.271 0.00 1.92945 0.12
4 0 -1 1 o 12.342 8.987 180.00 1.91342 0.08
4 0 -1 2 o 18.118 8.987 180.00 1.91342 0.04
3 2 -1 1 o 453.664 487.849 180.00 1.87820 6.93
3 2 -1 2 o 496.036 487.849 180.00 1.87820 2.85
2 1 2 1 o 21.310 11.484 0.00 1.83672 0.32
2 1 2 2 o 16.797 11.484 0.00 1.83672 0.10
0 3 1 1 o 33.306 26.321 180.00 1.82901 0.50
0 3 1 2 o 25.989 26.321 180.00 1.82901 0.15
4 1 -1 1 o 73.548 73.816 0.00 1.82288 1.03
4 0 1 1 o 638.996 589.669 0.00 1.82049 3.86
4 1 -1 2 o 86.718 73.816 0.00 1.82288 0.45
4 0 1 2 o 709.464 589.669 0.00 1.82049 1.61
3 2 1 1 o 1.917 1.361 180.00 1.81094 0.04
0 2 2 1 o 18.432 14.434 180.00 1.80818 0.26
3 2 1 2 o 2.138 1.361 180.00 1.81094 0.02
0 2 2 2 o 18.696 14.434 180.00 1.80818 0.10
3 0 -2 1 o 68.587 54.289 0.00 1.80338 0.36
3 0 -2 2 o 59.241 54.289 0.00 1.80338 0.12
2 3 0 1 o 237.079 214.765 180.00 1.79615 3.27
1 3 -1 1 o 690.821 618.221 0.00 1.79525 9.14
2 3 0 2 o 242.896 214.765 180.00 1.79615 1.26
1 3 -1 2 o 694.380 618.221 0.00 1.79525 3.47
1 2 -2 1 o 61.715 70.468 0.00 1.78563 0.90
1 2 -2 2 o 53.298 70.468 0.00 1.78563 0.30
1 3 1 1 o 140.899 129.259 0.00 1.77492 1.84
1 3 1 2 o 144.034 129.259 0.00 1.77492 0.71
1 2 2 1 o 113.535 145.897 180.00 1.74627 1.64
4 1 1 1 o 44.625 56.851 0.00 1.74199 0.50
1 2 2 2 o 112.173 145.897 180.00 1.74627 0.61
4 1 1 2 o 39.409 56.851 0.00 1.74199 0.17
3 1 -2 1 o 200.361 187.855 180.00 1.72698 2.22
3 1 -2 2 o 209.079 187.855 180.00 1.72698 0.87
4 2 0 1 o 191.321 196.255 0.00 1.69028 2.33
3 0 2 1 o 18.181 18.515 180.00 1.68938 0.09
2 2 -2 1 o 283.665 288.963 0.00 1.68730 3.31
2 3 -1 1 o 40.130 40.900 0.00 1.68676 0.48
4 2 0 2 o 192.852 196.255 0.00 1.69028 0.89
3 0 2 2 o 18.276 18.515 180.00 1.68938 0.04
2 2 -2 2 o 290.103 288.963 0.00 1.68730 1.28
2 3 -1 2 o 41.378 40.900 0.00 1.68676 0.19
2 3 1 1 o 355.808 327.849 0.00 1.65346 4.14
2 3 1 2 o 349.517 327.849 0.00 1.65346 1.54
5 0 0 1 o 0.301 0.275 180.00 1.63717 0.00
5 0 0 2 o 0.309 0.275 180.00 1.63717 0.00
3 1 2 1 o 748.227 724.244 0.00 1.62609 7.65
2 2 2 1 o 59.889 58.910 180.00 1.62254 0.72
3 1 2 2 o 736.603 724.244 0.00 1.62609 2.85
2 2 2 2 o 69.486 58.910 180.00 1.62254 0.31
4 2 -1 1 o 5.384 2.847 0.00 1.61297 0.05
3 3 0 1 o 0.194 0.043 180.00 1.61251 0.00
4 2 -1 2 o 8.130 2.847 0.00 1.61297 0.03
3 3 0 2 o 0.314 0.043 180.00 1.61251 0.00
5 1 0 1 o 317.318 323.629 180.00 1.57936 2.93
5 1 0 2 o 326.131 323.629 180.00 1.57936 1.14
5 0 -1 1 o 292.178 281.623 180.00 1.57354 1.24
4 0 -2 1 o 145.883 137.927 0.00 1.57173 0.59
5 0 -1 2 o 276.573 281.623 180.00 1.57354 0.45
4 0 -2 2 o 137.425 137.927 0.00 1.57173 0.21
4 2 1 1 o 320.418 345.026 180.00 1.55612 3.14
4 2 1 2 o 329.595 345.026 180.00 1.55612 1.22
3 2 -2 1 o 25.543 21.306 180.00 1.54539 0.21
3 2 -2 2 o 18.272 21.306 180.00 1.54539 0.06
3 3 -1 1 o 15.505 14.557 180.00 1.53843 0.16
3 3 -1 2 o 20.822 14.557 180.00 1.53843 0.08
5 1 -1 1 o 63.085 55.361 0.00 1.52201 0.53
4 1 -2 1 o 552.358 502.969 180.00 1.52038 4.26
5 1 -1 2 o 61.698 55.361 0.00 1.52201 0.20
4 1 -2 2 o 553.116 502.969 180.00 1.52038 1.61
0 0 3 1 o 17.981 19.156 0.00 1.51116 0.09
5 0 1 1 o 41.907 46.441 0.00 1.50821 0.17
0 0 3 2 o 16.320 19.156 0.00 1.51116 0.03
5 0 1 2 o 38.896 46.441 0.00 1.50821 0.06
1 0 -3 1 o 143.414 167.871 0.00 1.50397 0.62
3 3 1 1 o 102.451 109.105 0.00 1.50081 0.98
1 0 -3 2 o 160.943 167.871 0.00 1.50397 0.26
0 3 2 1 o 458.752 459.669 0.00 1.49924 4.22
0 4 0 1 o 600.076 600.243 0.00 1.49918 2.38
3 3 1 2 o 108.262 109.105 0.00 1.50081 0.39
0 3 2 2 o 439.451 459.669 0.00 1.49924 1.53
0 4 0 2 o 573.666 600.243 0.00 1.49918 0.86
1 3 -2 1 o 33.462 52.860 180.00 1.48631 0.33
1 3 -2 2 o 58.648 52.860 180.00 1.48631 0.20
1 4 0 1 o 71.157 63.622 0.00 1.47465 0.56
3 2 2 1 o 19.317 14.862 0.00 1.47184 0.16
4 0 2 1 o 10.531 7.223 180.00 1.47123 0.05
1 4 0 2 o 86.573 63.622 0.00 1.47465 0.26
1 0 3 1 o 15.334 13.138 180.00 1.46876 0.07
3 2 2 2 o 15.808 14.862 0.00 1.47184 0.05
4 0 2 2 o 7.151 7.223 180.00 1.47123 0.01
0 1 3 1 o 154.059 156.851 0.00 1.46535 1.29
1 0 3 2 o 13.069 13.138 180.00 1.46876 0.02
1 3 2 1 o 93.480 84.690 0.00 1.46338 0.82
5 1 1 1 o 104.436 92.122 0.00 1.46266 0.81
0 1 3 2 o 177.286 156.851 0.00 1.46535 0.56
1 3 2 2 o 82.736 84.690 0.00 1.46338 0.28
5 1 1 2 o 82.373 92.122 0.00 1.46266 0.25
1 1 -3 1 o 10.965 12.544 0.00 1.45879 0.08
1 1 -3 2 o 3.284 12.544 0.00 1.45879 0.01
2 0 -3 1 o 64.365 51.198 0.00 1.44920 0.23
2 0 -3 2 o 96.080 51.198 0.00 1.44920 0.13
5 2 0 1 o 0.181 0.019 180.00 1.43692 0.00
5 2 0 2 o 0.082 0.019 180.00 1.43692 0.00
4 3 0 1 o 77.637 74.433 0.00 1.42996 0.65
4 1 2 1 o 137.644 139.301 0.00 1.42885 1.01
2 3 -2 1 o 0.922 0.964 0.00 1.42815 0.01
1 1 3 1 o 167.862 178.468 0.00 1.42660 1.36
4 3 0 2 o 70.063 74.433 0.00 1.42996 0.23
4 1 2 2 o 134.994 139.301 0.00 1.42885 0.38
2 3 -2 2 o 0.959 0.964 0.00 1.42815 0.00
0 4 1 1 o 8.084 7.666 180.00 1.42337 0.08
1 1 3 2 o 187.290 178.468 0.00 1.42660 0.57
0 4 1 2 o 7.751 7.666 180.00 1.42337 0.03
2 1 -3 1 o 241.863 224.385 0.00 1.40865 1.66
2 4 0 1 o 35.409 31.064 180.00 1.40772 0.26
1 4 -1 1 o 21.900 19.050 0.00 1.40729 0.15
2 1 -3 2 o 258.830 224.385 0.00 1.40865 0.67
2 4 0 2 o 36.283 31.064 180.00 1.40772 0.10
1 4 -1 2 o 21.957 19.050 0.00 1.40729 0.06
1 4 1 1 o 284.471 248.136 180.00 1.39743 2.06
1 4 1 2 o 251.916 248.136 180.00 1.39743 0.70
2 3 2 1 o 13.915 12.934 180.00 1.38823 0.12
2 0 3 1 o 354.450 330.262 180.00 1.38803 1.28
5 2 -1 1 o 188.051 187.918 0.00 1.39332 1.36
4 2 -2 1 o 88.934 89.617 180.00 1.39207 0.62
2 3 2 2 o 13.060 12.934 180.00 1.38823 0.04
2 0 3 2 o 332.306 330.262 180.00 1.38803 0.45
5 2 -1 2 o 192.016 187.918 0.00 1.39332 0.52
4 2 -2 2 o 95.057 89.617 180.00 1.39207 0.25
4 3 -1 1 o 96.091 101.980 180.00 1.38223 0.75
4 3 -1 2 o 110.839 101.980 180.00 1.38223 0.32
5 0 -2 1 o 30.794 79.271 0.00 1.37106 0.11
5 0 -2 2 o 54.940 79.271 0.00 1.37106 0.07
6 0 0 1 o 49.714 40.872 0.00 1.36430 0.16
6 0 0 2 o 42.534 40.872 0.00 1.36430 0.05
3 0 -3 1 o 0.051 0.043 0.00 1.36077 0.00
3 0 -3 2 o 0.071 0.043 0.00 1.36077 0.00
2 4 -1 1 o 150.635 130.964 0.00 1.35317 1.03
2 1 3 1 o 6.620 5.729 0.00 1.35227 0.05
2 4 -1 2 o 143.015 130.964 0.00 1.35317 0.37
0 2 3 1 o 17.826 16.669 180.00 1.34946 0.14
2 1 3 2 o 5.867 5.729 0.00 1.35227 0.02
5 2 1 1 o 31.508 34.386 180.00 1.34736 0.22
0 2 3 2 o 15.198 16.669 180.00 1.34946 0.04
4 3 1 1 o 13.799 14.954 180.00 1.34595 0.10
1 2 -3 1 o 146.512 159.788 180.00 1.34433 1.03
5 2 1 2 o 31.416 34.386 180.00 1.34736 0.08
4 3 1 2 o 13.626 14.954 180.00 1.34595 0.04
1 2 -3 2 o 158.315 159.788 180.00 1.34433 0.42
3 3 -2 1 o 153.438 137.956 0.00 1.33899 1.05
5 1 -2 1 o 1.235 1.119 180.00 1.33657 0.01
2 4 1 1 o 42.825 39.540 180.00 1.33579 0.29
3 3 -2 2 o 149.209 137.956 0.00 1.33899 0.39
5 1 -2 2 o 1.062 1.119 180.00 1.33657 0.00
2 4 1 2 o 35.573 39.540 180.00 1.33579 0.09
6 0 -1 1 o 323.418 364.748 180.00 1.33102 0.93
6 1 0 1 o 0.698 0.759 0.00 1.33031 0.00
6 0 -1 2 o 320.202 364.748 180.00 1.33102 0.35
6 1 0 2 o 0.675 0.759 0.00 1.33031 0.00
3 1 -3 1 o 245.087 283.384 0.00 1.32704 1.43
3 1 -3 2 o 220.686 283.384 0.00 1.32704 0.49
4 2 2 1 o 14.177 11.034 0.00 1.32079 0.11
1 2 3 1 o 20.146 14.253 0.00 1.31901 0.14
4 2 2 2 o 14.813 11.034 0.00 1.32079 0.04
1 2 3 2 o 18.124 14.253 0.00 1.31901 0.05
3 4 0 1 o 271.169 201.868 180.00 1.31392 1.76
3 4 0 2 o 260.289 201.868 180.00 1.31392 0.64
2 2 -3 1 o 52.782 32.644 180.00 1.30479 0.32
2 2 -3 2 o 42.082 32.644 180.00 1.30479 0.10
6 1 -1 1 o 2.435 2.753 180.00 1.29940 0.02
6 1 -1 2 o 3.828 2.753 180.00 1.29940 0.01
3 3 2 1 o 396.042 376.370 180.00 1.29029 2.59
5 0 2 1 o 135.501 131.959 180.00 1.28729 0.38
3 3 2 2 o 385.610 376.370 180.00 1.29029 0.96
3 0 3 1 o 71.309 70.113 180.00 1.28630 0.22
5 0 2 2 o 143.294 131.959 180.00 1.28729 0.15
6 0 1 1 o 29.295 25.463 180.00 1.28315 0.08
3 0 3 2 o 80.803 70.113 180.00 1.28630 0.09
6 0 1 2 o 17.586 25.463 180.00 1.28315 0.02
3 4 -1 1 o 197.058 184.259 0.00 1.27291 1.20
3 4 -1 2 o 193.913 184.259 0.00 1.27291 0.45
5 3 0 1 o 186.686 185.888 0.00 1.26657 1.17
5 3 0 2 o 155.999 185.888 0.00 1.26657 0.38
2 2 3 1 o 278.425 294.224 0.00 1.25960 1.72
5 1 2 1 o 23.037 24.596 180.00 1.25861 0.12
3 1 3 1 o 0.532 0.686 180.00 1.25769 0.01
2 2 3 2 o 277.710 294.224 0.00 1.25960 0.65
4 0 -3 1 o 47.318 48.311 180.00 1.25612 0.12
5 1 2 2 o 25.724 24.596 180.00 1.25861 0.05
6 1 1 1 o 309.638 274.337 0.00 1.25475 1.61
3 1 3 2 o 0.906 0.686 180.00 1.25769 0.00
4 0 -3 2 o 56.361 48.311 180.00 1.25612 0.05
6 1 1 2 o 334.861 274.337 0.00 1.25475 0.65
3 4 1 1 o 9.238 7.149 0.00 1.25135 0.06
0 4 2 1 o 11.159 8.794 0.00 1.25044 0.06
3 4 1 2 o 7.986 7.149 0.00 1.25135 0.02
0 4 2 2 o 8.643 8.794 0.00 1.25044 0.02
5 2 -2 1 o 67.203 74.949 180.00 1.24689 0.38
5 2 -2 2 o 49.236 74.949 180.00 1.24689 0.11
1 4 -2 1 o 32.240 37.949 180.00 1.24291 0.20
6 2 0 1 o 45.527 46.532 180.00 1.24180 0.27
1 4 -2 2 o 37.476 37.949 180.00 1.24291 0.09
3 2 -3 1 o 0.728 0.725 180.00 1.23913 0.00
6 2 0 2 o 46.828 46.532 180.00 1.24180 0.11
5 3 -1 1 o 39.536 37.718 180.00 1.23641 0.24
3 2 -3 2 o 0.765 0.725 180.00 1.23913 0.00
4 3 -2 1 o 290.522 267.458 0.00 1.23553 1.61
5 3 -1 2 o 37.038 37.718 180.00 1.23641 0.08
4 3 -2 2 o 276.921 267.458 0.00 1.23553 0.58
4 1 -3 1 o 11.190 9.888 180.00 1.22943 0.05
1 4 2 1 o 84.862 73.345 0.00 1.22940 0.51
4 1 -3 2 o 11.894 9.888 180.00 1.22943 0.02
1 4 2 2 o 90.475 73.345 0.00 1.22940 0.20
6 2 -1 2 o 283.132 275.426 0.00 1.21654 0.56
6 2 -1 1 o 263.035 275.426 0.00 1.21654 1.38
4 4 0 1 o 103.676 94.033 180.00 1.20939 0.59
2 4 -2 1 o 170.002 156.405 180.00 1.20829 0.94
4 4 0 2 o 96.736 94.033 180.00 1.20939 0.21
0 3 3 1 o 86.571 83.931 180.00 1.20545 0.51
2 4 -2 2 o 161.091 156.405 180.00 1.20829 0.34
6 0 -2 1 o 14.767 14.391 0.00 1.20475 0.04
5 3 1 1 o 72.485 69.705 180.00 1.20395 0.42
0 3 3 2 o 95.589 83.931 180.00 1.20545 0.21
6 0 -2 2 o 17.382 14.391 0.00 1.20475 0.02
1 3 -3 1 o 6.323 5.320 180.00 1.20179 0.03
5 3 1 2 o 88.442 69.705 180.00 1.20395 0.19
1 3 -3 2 o 6.998 5.320 180.00 1.20179 0.01
1 5 0 1 o 33.423 18.490 0.00 1.18668 0.17
4 3 2 1 o 104.304 91.536 180.00 1.18489 0.57
2 4 2 1 o 39.395 39.682 0.00 1.18383 0.23
1 5 0 2 o 18.280 18.490 0.00 1.18668 0.04
1 3 3 1 o 109.776 111.631 180.00 1.18360 0.63
5 2 2 1 o 119.323 122.511 0.00 1.18288 0.62
3 2 3 1 o 60.550 62.918 0.00 1.18211 0.34
4 3 2 2 o 87.841 91.536 180.00 1.18489 0.18
6 1 -2 1 o 73.107 78.278 0.00 1.18115 0.34
2 4 2 2 o 36.761 39.682 0.00 1.18383 0.08
1 3 3 2 o 103.413 111.631 180.00 1.18360 0.23
4 4 -1 1 o 0.676 0.725 180.00 1.18010 0.00
5 2 2 2 o 113.295 122.511 0.00 1.18288 0.22
6 2 1 1 o 22.554 24.339 0.00 1.17967 0.11
3 2 3 2 o 58.383 62.918 0.00 1.18211 0.12
4 0 3 1 o 42.091 45.237 0.00 1.17886 0.10
6 1 -2 2 o 71.472 78.278 0.00 1.18115 0.13
4 4 -1 2 o 0.675 0.725 180.00 1.18010 0.00
6 2 1 2 o 23.359 24.339 0.00 1.17967 0.04
4 0 3 2 o 47.671 45.237 0.00 1.17886 0.04
2 3 -3 1 o 130.909 144.501 180.00 1.17329 0.69
2 3 -3 2 o 128.155 144.501 180.00 1.17329 0.26
7 0 0 1 o 254.353 264.780 0.00 1.16940 0.57
7 0 0 2 o 268.279 264.780 0.00 1.16940 0.23
0 5 1 1 o 18.627 15.213 0.00 1.15946 0.09
4 2 -3 1 o 43.631 39.886 0.00 1.15856 0.22
4 4 1 1 o 174.026 163.343 0.00 1.15728 0.93
4 1 3 1 o 137.565 134.916 180.00 1.15672 0.68
0 5 1 2 o 15.352 15.213 0.00 1.15946 0.03
4 2 -3 2 o 37.169 39.886 0.00 1.15856 0.07
4 4 1 2 o 171.092 163.343 0.00 1.15728 0.35
4 1 3 2 o 151.643 134.916 180.00 1.15672 0.28
3 4 -2 1 o 5.112 4.471 0.00 1.15284 0.02
7 0 -1 1 o 1.482 1.147 180.00 1.15095 0.00
2 5 0 1 o 120.303 96.731 0.00 1.15095 0.58
1 5 -1 1 o 281.678 227.746 180.00 1.15071 1.31
3 4 -2 2 o 5.130 4.471 0.00 1.15284 0.01
5 0 -3 1 o 118.187 114.498 180.00 1.14907 0.24
7 0 -1 2 o 1.125 1.147 180.00 1.15095 0.00
2 5 0 2 o 95.156 96.731 0.00 1.15095 0.18
1 5 -1 2 o 223.146 227.746 180.00 1.15071 0.40
7 1 0 1 o 98.658 100.889 0.00 1.14778 0.44
5 0 -3 2 o 108.817 114.498 180.00 1.14907 0.08
1 5 1 1 o 41.742 40.115 180.00 1.14530 0.19
7 1 0 2 o 109.364 100.889 0.00 1.14778 0.18
1 5 1 2 o 60.927 40.115 180.00 1.14530 0.11
2 3 3 1 o 5.873 3.331 180.00 1.14011 0.03
2 3 3 2 o 4.009 3.331 180.00 1.14011 0.01
6 0 2 1 o 1.234 1.436 180.00 1.13609 0.00
0 0 4 1 o 141.672 150.896 180.00 1.13337 0.34
6 0 2 2 o 1.334 1.436 180.00 1.13609 0.00
1 0 -4 1 o 131.650 140.200 180.00 1.13292 0.30
5 3 -2 1 o 0.651 0.762 0.00 1.13065 0.00
0 0 4 2 o 125.762 150.896 180.00 1.13337 0.12
7 1 -1 1 o 13.708 17.587 180.00 1.13032 0.07
1 0 -4 2 o 111.158 140.200 180.00 1.13292 0.10
5 1 -3 1 o 70.079 87.652 180.00 1.12854 0.30
5 3 -2 2 o 0.660 0.762 0.00 1.13065 0.00
7 1 -1 2 o 15.086 17.587 180.00 1.13032 0.03
6 3 0 1 o 0.307 0.364 0.00 1.12686 0.00
5 1 -3 2 o 82.177 87.652 180.00 1.12854 0.13
3 3 -3 1 o 197.268 201.176 180.00 1.12486 0.94
6 3 0 2 o 0.357 0.364 0.00 1.12686 0.00
3 3 -3 2 o 234.427 201.176 180.00 1.12486 0.42
3 4 2 1 o 7.545 5.903 180.00 1.12132 0.04
2 5 -1 1 o 19.939 13.787 180.00 1.12056 0.09
3 4 2 2 o 8.312 5.903 180.00 1.12132 0.01
6 2 -2 1 o 12.219 8.263 180.00 1.11789 0.06
2 5 -1 2 o 20.061 13.787 180.00 1.12056 0.04
6 1 2 1 o 115.862 89.341 180.00 1.11624 0.50
6 2 -2 2 o 7.778 8.263 180.00 1.11789 0.01
7 0 1 1 o 21.592 28.194 180.00 1.11460 0.05
0 1 4 1 o 2.404 3.011 0.00 1.11366 0.01
6 1 2 2 o 70.182 89.341 180.00 1.11624 0.12
1 1 -4 1 o 24.540 29.789 180.00 1.11323 0.12
1 0 4 1 o 2.300 2.602 180.00 1.11268 0.01
7 0 1 2 o 27.736 28.194 180.00 1.11460 0.02
2 0 -4 1 o 1.040 0.968 0.00 1.11139 0.00
0 1 4 2 o 3.428 3.011 0.00 1.11366 0.01
2 5 1 1 o 164.390 137.971 180.00 1.11063 0.77
1 1 -4 2 o 35.776 29.789 180.00 1.11323 0.06
1 0 4 2 o 2.987 2.602 180.00 1.11268 0.00
2 0 -4 2 o 1.038 0.968 0.00 1.11139 0.00
2 5 1 2 o 173.871 137.971 180.00 1.11063 0.31
6 3 -1 1 o 2.899 2.247 0.00 1.10788 0.01
5 4 0 1 o 0.047 0.263 0.00 1.10565 0.00
6 3 -1 2 o -0.451 2.247 0.00 1.10788 0.00
5 4 0 2 o -0.087 0.263 0.00 1.10565 0.00
3 5 0 1 o 0.238 0.202 0.00 1.09796 0.00
4 2 3 1 o 48.861 43.662 180.00 1.09711 0.22
7 1 1 1 o 3.238 3.046 0.00 1.09583 0.01
3 5 0 2 o 0.206 0.202 0.00 1.09796 0.00
4 2 3 2 o 44.204 43.662 180.00 1.09711 0.08
1 1 4 1 o 102.326 98.757 180.00 1.09401 0.49
7 1 1 2 o 3.274 3.046 0.00 1.09583 0.01
2 1 -4 1 o 68.815 63.886 180.00 1.09278 0.31
1 1 4 2 o 101.127 98.757 180.00 1.09401 0.18
2 1 -4 2 o 63.778 63.886 180.00 1.09278 0.11
