#------------------------------------------------------------------------------
#$Date: 2016-02-18 17:37:37 +0200 (Thu, 18 Feb 2016) $
#$Revision: 176729 $
#$URL: svn://www.crystallography.net/cod/cif/1/50/16/1501692.cif $
#------------------------------------------------------------------------------
#
# This file is available in the Crystallography Open Database (COD),
# http://www.crystallography.net/
#
# All data on this site have been placed in the public domain by the
# contributors.
#
data_1501692
loop_
_publ_author_name
'Migliorati, Valentina'
'Ballirano, Paolo'
'Gontrani, Lorenzo'
'Triolo, Alessandro'
'Caminiti, Ruggero'
_publ_section_title
;
 Thermal and structural properties of ethylammonium chloride and its
 mixture with water.
;
_journal_issue                   17
_journal_name_full               'The journal of physical chemistry. B'
_journal_page_first              4887
_journal_page_last               4899
_journal_paper_doi               10.1021/jp2010138
_journal_volume                  115
_journal_year                    2011
_chemical_formula_sum            'C2 H8 Cl N'
_chemical_formula_weight         81.55
_chemical_name_systematic        ' ?'
_space_group_IT_number           11
_symmetry_cell_setting           monoclinic
_symmetry_space_group_name_Hall  '-P 2yb'
_symmetry_space_group_name_H-M   'P 1 21/m 1'
_audit_creation_date             2010-05-18T16:38
_audit_creation_method           'from EXP file using GSAS2CIF'
_audit_update_record
' 2010-05-18T16:38  Initial CIF as created by GSAS2CIF'
_cell_angle_alpha                90.0
_cell_angle_beta                 94.1234(14)
_cell_angle_gamma                90.0
_cell_formula_units_Z            2
_cell_length_a                   8.24909(14)
_cell_length_b                   6.00107(8)
_cell_length_c                   4.56111(7)
_cell_volume                     225.206(6)
_computing_structure_refinement  GSAS
_diffrn_radiation_probe          x-ray
_exptl_absorpt_correction_T_max  0.77479
_exptl_absorpt_correction_T_min  0.76997
_exptl_absorpt_process_details
;   GSAS Absorption/surface roughness correction: function number 0
 Debye-Scherrer absorption correction
Term (= MU.r/wave) =     0.10041    
Correction is not refined.
;
_pd_block_id
2010-05-18T16:38|65_OPT|paolo|Bruker_AXS_D8_Advance
_pd_calc_method                  'Rietveld Refinement'
_pd_instr_location               ' ?'
_pd_meas_2theta_range_inc        0.022
_pd_meas_2theta_range_max        89.994
_pd_meas_2theta_range_min        8.0
_pd_meas_number_of_points        3728
_pd_phase_name                   ethyl
_pd_proc_2theta_range_inc        0.022
_pd_proc_2theta_range_max        89.994
_pd_proc_2theta_range_min        8.0
_pd_proc_info_datetime           2010-05-18T16:38:01
_pd_proc_info_excluded_regions   ' ?'
_pd_proc_ls_background_function
;   GSAS Background function number 1 with 30 terms.
 Shifted Chebyshev function of 1st kind
      1:    483.447     2:   -421.423     3:    222.606     4:   -99.3720    
      5:    66.6860     6:   -68.4546     7:    84.9129     8:   -61.3068    
      9:    19.1612    10:    10.2530    11:   -10.6473    12:   -1.03335    
     13:    16.5026    14:   -21.9038    15:    17.5356    16:   -8.33216    
     17:    5.64956    18:   -8.42933    19:    11.7801    20:   -11.9944    
     21:    10.4312    22:   -8.08686    23:    6.84866    24:   -3.66725    
     25:   0.760354    26:   0.526666    27:   0.962878    28:   -1.00198    
     29:   -2.16767    30:    2.42572    
;
_pd_proc_ls_peak_cutoff          0.00100
_pd_proc_ls_profile_function
;
 CW Profile function number 3 with  19 terms
 Pseudovoigt profile coefficients as parameterized in
 P. Thompson, D.E. Cox & J.B. Hastings (1987). J. Appl. Cryst.,20,79-83.
 Asymmetry correction of L.W. Finger, D.E. Cox & A. P. Jephcoat (1994).
 J. Appl. Cryst.,27,892-900.
 Peak tails are ignored  where the intensity is below 0.0010 times the peak
   Aniso. broadening axis   0.0   1.0   0.0
;
_pd_proc_ls_prof_R_factor        0.0463
_pd_proc_ls_prof_wR_expected     0.0426
_pd_proc_ls_prof_wR_factor       0.0604
_pd_proc_number_of_points        3728
_pd_spec_mounting                ' ?'
_refine_ls_goodness_of_fit_all   1.43
_refine_ls_matrix_type           full
_refine_ls_number_parameters     63
_refine_ls_number_restraints     27
_refine_ls_R_Fsqd_factor         0.06914
_refine_ls_shift/su_max          0.06
_refine_ls_shift/su_mean         0.00
_reflns_d_resolution_high        1.094
_reflns_d_resolution_low         8.228
_reflns_limit_h_max              7
_reflns_limit_h_min              0
_reflns_limit_k_max              5
_reflns_limit_k_min              0
_reflns_limit_l_max              4
_reflns_limit_l_min              -4
_reflns_number_total             408
_cod_data_source_file            jp2010138_si_008.cif
_cod_data_source_block           65_OPT_publ
_cod_depositor_comments
;
The following automatic conversions were performed:

'_geom_bond_publ_flag' value 'N' changed to 'n' according to
/home/saulius/struct/CIF-dictionaries/cif_core.dic dictionary named
'cif_core.dic' version 2.4.1 from 2010-06-29 (47
times).

'_geom_angle_publ_flag' value 'N' changed to 'n' according
to /home/saulius/struct/CIF-dictionaries/cif_core.dic dictionary
named 'cif_core.dic' version 2.4.1 from 2010-06-29 (23 times).

Automatic conversion script
Id: cif_fix_values 1715 2011-07-08 13:25:40Z adriana 
;
_cod_original_sg_symbol_H-M      'p 21/m'
_cod_database_code               1501692
#BEGIN Tags that were not found in dictionaries:
_gsas_exptl_extinct_corr_t_min   1.00000
_gsas_exptl_extinct_corr_t_max   1.00000
#END Tags that were not found in dictionaries
loop_
_symmetry_equiv_pos_site_id
_symmetry_equiv_pos_as_xyz
1 +x,+y,+z
2 -x,+y+1/2,-z
-1 -x,-y,-z
-2 +x,-y+1/2,+z
loop_
_atom_site_type_symbol
_atom_site_label
_atom_site_fract_x
_atom_site_fract_y
_atom_site_fract_z
_atom_site_occupancy
_atom_site_thermal_displace_type
_atom_site_U_iso_or_equiv
_atom_site_symmetry_multiplicity
Cl Cl 0.15439(20) 0.75 0.3864(4) 1.0 Uiso 0.0340(4) 2
N N 0.12508(33) 0.25 0.1429(6) 1.0 Uiso 0.0383(12) 2
C C1 0.26617(31) 0.25 -0.0349(6) 1.0 Uiso 0.0383(12) 2
C C2 0.4216(4) 0.25 0.1701(7) 1.0 Uiso 0.0383(12) 2
H H1 0.0243(5) 0.25 0.0158(14) 1.0 Uiso 0.0574(18) 2
H H2 0.5162(5) 0.25 0.0521(12) 1.0 Uiso 0.0574(18) 2
H H3 0.1285(9) 0.1166(5) 0.2675(9) 1.0 Uiso 0.0574(18) 4
H H4 0.2651(8) 0.1159(5) -0.1575(9) 1.0 Uiso 0.0574(18) 4
H H5 0.4229(9) 0.1159(5) 0.2933(9) 1.0 Uiso 0.0574(18) 4
loop_
_atom_type_symbol
_atom_type_number_in_cell
_atom_type_scat_dispersion_real
_atom_type_scat_dispersion_imag
_atom_type_scat_Cromer_Mann_a1
_atom_type_scat_Cromer_Mann_a2
_atom_type_scat_Cromer_Mann_a3
_atom_type_scat_Cromer_Mann_a4
_atom_type_scat_Cromer_Mann_b1
_atom_type_scat_Cromer_Mann_b2
_atom_type_scat_Cromer_Mann_b3
_atom_type_scat_Cromer_Mann_b4
_atom_type_scat_Cromer_Mann_c
_atom_type_scat_source
Cl 2.0 0.000 0.000 11.4604 0.01040 7.19640 1.16620 6.25560 18.5194 1.64550
47.7784 -9.5574 International_Tables_Vol_C
N 2.0 0.000 0.000 12.2126 0.00570 3.13220 9.89330 2.01250 28.9975 1.16630
0.58260 -11.529 International_Tables_Vol_C
C 4.0 0.000 0.000 2.31000 20.8439 1.02000 10.2075 1.58860 0.56870 0.86500
51.6512 0.21560 International_Tables_Vol_C
H 16.0 0.000 0.000 0.49300 10.5109 0.32291 26.1257 0.14019 3.14236 0.04081
57.7997 0.00304 International_Tables_Vol_C
loop_
_diffrn_radiation_wavelength
_diffrn_radiation_wavelength_wt
_diffrn_radiation_type
_diffrn_radiation_wavelength_id
1.540598 1.000 K\a~1~ 1
1.544390 0.380 K\a~2~ 2
loop_
_geom_angle_atom_site_label_1
_geom_angle_atom_site_label_2
_geom_angle_atom_site_label_3
_geom_angle
_geom_angle_site_symmetry_1
_geom_angle_site_symmetry_3
_geom_angle_publ_flag
H1 Cl H3 76.27(14) 2_555 1_565 n
H1 Cl H3 76.27(14) 2_555 -2_565 n
H3 Cl H3 151.04(24) 1_565 -2_565 n
C1 N H1 110.3(4) 1_555 1_555 n
C1 N H3 109.3(4) 1_555 1_555 n
C1 N H3 109.3(4) 1_555 -2_565 n
H1 N H3 109.3(5) 1_555 1_555 n
H1 N H3 109.3(5) 1_555 -2_565 n
H3 N H3 109.4(5) 1_555 -2_565 n
N C1 C2 108.97(24) 1_555 1_555 n
N C1 H4 110.0(4) 1_555 1_555 n
N C1 H4 110.0(4) 1_555 -2_565 n
C2 C1 H4 108.7(4) 1_555 1_555 n
C2 C1 H4 108.7(4) 1_555 -2_565 n
H4 C1 H4 110.5(5) 1_555 -2_565 n
C1 C2 H2 109.2(4) 1_555 1_555 n
C1 C2 H5 108.9(4) 1_555 1_555 n
C1 C2 H5 108.9(4) 1_555 -2_565 n
H2 C2 H5 109.8(5) 1_555 1_555 n
H2 C2 H5 109.8(5) 1_555 -2_565 n
H5 C2 H5 110.2(5) 1_555 -2_565 n
Cl H1 N 162.5(5) 2_545 1_555 n
Cl H3 N 157.9(4) 1_545 1_555 n
loop_
_geom_bond_atom_site_label_1
_geom_bond_atom_site_label_2
_geom_bond_distance
_geom_bond_site_symmetry_2
_geom_bond_publ_flag
Cl H1 2.269(6) 2_555 n
Cl H3 2.2721(30) 1_565 n
Cl H3 2.2721(30) -2_555 n
N C1 1.466(4) 1_555 n
N H1 0.979(6) 1_555 n
N H3 0.981(4) 1_555 n
N H3 0.981(4) -2_555 n
N H4 2.022(6) 1_555 n
N H4 2.022(6) -2_555 n
C1 N 1.466(4) 1_555 n
C1 C2 1.531(4) 1_555 n
C1 H1 2.025(5) 1_555 n
C1 H2 2.072(5) 1_555 n
C1 H3 2.015(6) 1_555 n
C1 H3 2.015(6) -2_555 n
C1 H4 0.980(4) 1_555 n
C1 H4 0.980(4) -2_555 n
C1 H5 2.069(6) 1_555 n
C1 H5 2.069(6) -2_555 n
C2 C1 1.531(4) 1_555 n
C2 H2 0.980(6) 1_555 n
C2 H4 2.066(6) 1_555 n
C2 H4 2.066(6) -2_555 n
C2 H5 0.981(4) 1_555 n
C2 H5 0.981(4) -2_555 n
H1 Cl 2.269(6) 2_545 n
H1 N 0.979(6) 1_555 n
H1 C1 2.025(5) 1_555 n
H1 H3 1.599(7) 1_555 n
H1 H3 1.599(7) -2_555 n
H2 C1 2.072(5) 1_555 n
H2 C2 0.980(6) 1_555 n
H2 H5 1.604(7) 1_555 n
H2 H5 1.604(7) -2_555 n
H3 Cl 2.2721(30) 1_545 n
H3 N 0.981(4) 1_555 n
H3 C1 2.015(6) 1_555 n
H3 H1 1.599(7) 1_555 n
H3 H3 1.601(6) -2_555 n
H4 N 2.022(6) 1_555 n
H4 C1 0.980(4) 1_555 n
H4 C2 2.066(6) 1_555 n
H4 H4 1.609(6) -2_555 n
H5 C1 2.069(6) 1_555 n
H5 C2 0.981(4) 1_555 n
H5 H2 1.604(7) 1_555 n
H5 H5 1.609(6) -2_555 n
loop_
_pd_meas_counts_total
_pd_proc_ls_weight
_pd_proc_intensity_bkg_calc
_pd_calc_intensity_total
1678.0 0.000596 1636.26904 1636.26843
1573.0 0.000636 1612.77051 1612.76965
1613.0 0.000620 1590.20325 1590.20227
1544.0 0.000648 1568.54553 1568.54492
1575.0 0.000635 1547.77002 1547.76941
1467.0 0.000682 1527.85132 1527.85071
1527.0 0.000655 1508.76489 1508.76453
1445.0 0.000692 1490.48608 1490.48572
1458.0 0.000686 1472.99158 1472.99121
1499.0 0.000667 1456.25586 1456.25562
1371.0 0.000729 1440.25378 1440.25330
1410.0 0.000709 1424.96484 1424.96484
1464.0 0.000683 1410.36328 1410.36340
1360.0 0.000735 1396.42798 1396.42786
1404.0 0.000712 1383.13477 1383.13489
1315.0 0.000760 1370.46216 1370.46179
1376.0 0.000727 1358.38879 1358.38831
1377.0 0.000726 1346.89124 1346.89111
1394.0 0.000717 1335.95056 1335.95032
1291.0 0.000775 1325.54565 1325.54565
1327.0 0.000754 1315.65515 1315.65515
1381.0 0.000724 1306.25977 1306.25989
1330.0 0.000752 1297.33936 1297.33948
1300.0 0.000769 1288.87659 1288.87622
1290.0 0.000775 1280.85071 1280.85034
1289.0 0.000776 1273.24377 1273.24353
1270.0 0.000787 1266.03870 1266.03870
1246.0 0.000803 1259.21765 1259.21753
1274.0 0.000785 1252.76306 1252.76343
1236.0 0.000809 1246.65942 1246.65906
1216.0 0.000822 1240.88940 1240.88953
1197.0 0.000835 1235.43799 1235.43787
1179.0 0.000848 1230.28918 1230.28906
1299.0 0.000770 1225.42859 1225.42834
1263.0 0.000792 1220.84131 1220.84106
1212.0 0.000825 1216.51294 1216.51318
1224.0 0.000817 1212.43005 1212.43018
1236.0 0.000809 1208.57983 1208.57947
1232.0 0.000812 1204.94824 1204.94800
1184.0 0.000845 1201.52332 1201.52332
1256.0 0.000796 1198.29260 1198.29248
1264.0 0.000791 1195.24524 1195.24451
1202.0 0.000832 1192.36853 1192.36841
1214.0 0.000824 1189.65247 1189.65234
1160.0 0.000862 1187.08606 1187.08569
1171.0 0.000854 1184.65857 1184.65857
1266.0 0.000790 1182.36060 1182.36011
1179.0 0.000848 1180.18250 1180.18250
1189.0 0.000841 1178.11511 1178.11499
1199.0 0.000834 1176.14941 1176.14966
1202.0 0.000832 1174.27698 1174.27686
1150.0 0.000870 1172.48987 1172.48950
1101.0 0.000908 1170.77954 1170.77905
1188.0 0.000842 1169.13855 1169.13831
1143.0 0.000875 1167.56042 1167.56018
1122.0 0.000891 1166.03760 1166.03760
1156.0 0.000865 1164.56360 1164.56311
1118.0 0.000894 1163.13171 1163.13171
1074.0 0.000931 1161.73645 1161.73621
1143.0 0.000875 1160.37195 1160.37183
1211.0 0.000826 1159.03247 1159.03223
1138.0 0.000879 1157.71265 1157.71277
1168.0 0.000856 1156.40784 1156.40784
1080.0 0.000926 1155.11316 1155.11292
1129.0 0.000886 1153.82458 1153.82446
1137.0 0.000880 1152.53687 1152.53674
1076.0 0.000929 1151.24707 1151.24670
1099.0 0.000910 1149.95093 1149.95068
1149.0 0.000870 1148.64514 1148.64478
1092.0 0.000916 1147.32593 1147.32568
1111.0 0.000900 1145.99084 1145.99072
1121.0 0.000892 1144.63635 1144.63611
1078.0 0.000928 1143.26025 1143.25989
1091.0 0.000917 1141.85925 1141.85889
1130.0 0.000885 1140.43213 1140.43152
1117.0 0.000895 1138.97559 1138.97522
1171.0 0.000854 1137.48828 1137.48816
1184.0 0.000845 1135.96826 1135.96814
1182.0 0.000846 1134.41467 1134.41431
1147.0 0.000872 1132.82446 1132.82422
1165.0 0.000858 1131.19751 1131.19702
1131.0 0.000884 1129.53186 1129.53149
1123.0 0.000890 1127.82703 1127.82678
1062.0 0.000942 1126.08154 1126.08142
1100.0 0.000909 1124.29553 1124.29504
1129.0 0.000886 1122.46729 1122.46704
1146.0 0.000873 1120.59656 1120.59644
1125.0 0.000889 1118.68323 1118.68298
1185.0 0.000844 1116.72705 1116.72656
1179.0 0.000848 1114.72693 1114.72681
1107.0 0.000903 1112.68408 1112.68359
1111.0 0.000900 1110.59705 1110.59656
1111.0 0.000900 1108.46667 1108.46643
1101.0 0.000908 1106.29333 1108.85071
1073.0 0.000932 1104.07690 1107.76318
1055.0 0.000948 1101.81763 1105.75891
1049.0 0.000953 1099.51599 1103.73975
1137.0 0.000880 1097.17200 1101.71045
1009.0 0.000991 1094.78723 1099.67664
1065.0 0.000939 1092.36169 1097.64478
1051.0 0.000951 1089.89624 1095.62280
1129.0 0.000886 1087.39026 1093.62073
1128.0 0.000887 1084.84668 1091.65002
1105.0 0.000905 1082.26514 1089.72595
1129.0 0.000886 1079.64648 1087.86682
1077.0 0.000929 1076.99121 1086.09558
1127.0 0.000887 1074.30139 1084.44409
1130.0 0.000885 1071.57690 1082.95093
1144.0 0.000874 1068.81921 1081.67285
1163.0 0.000860 1066.02954 1080.69324
1124.0 0.000890 1063.20850 1080.18140
1189.0 0.000841 1060.35754 1080.61401
1195.0 0.000837 1057.47766 1083.44897
1174.0 0.000852 1054.56958 1092.54382
1269.0 0.000788 1051.63550 1115.90967
1278.0 0.000782 1048.67529 1166.08997
1412.0 0.000708 1045.69080 1257.42297
1412.0 0.000708 1042.68347 1401.51123
1652.0 0.000605 1039.65393 1605.96204
1797.0 0.000556 1036.60364 1879.79285
2249.0 0.000445 1033.53345 2244.39526
2710.0 0.000369 1030.44507 2747.10278
3506.0 0.0002852 1027.33984 3464.72144
4417.0 0.0002264 1024.21814 4455.40186
5090.0 0.0001965 1021.08215 5620.58057
5977.0 0.0001673 1017.93268 6570.35791
6704.0 0.0001492 1014.77039 6742.49902
6672.0 0.0001499 1011.59692 5872.08105
5119.0 0.0001954 1008.41376 4346.22510
3172.0 0.0003153 1005.22174 2860.03101
1891.0 0.000529 1002.02209 1850.71033
1328.0 0.000753 998.81604 1337.31409
1176.0 0.000850 995.60425 1131.92139
1114.0 0.000898 992.38861 1061.21912
1023.0 0.000978 989.16980 1035.17517
994.0 0.001006 985.94885 1021.63788
984.0 0.001016 982.72717 1011.92212
940.0 0.001064 979.50555 1003.93719
942.0 0.001062 976.28503 997.04285
984.0 0.001016 973.06647 990.92340
953.0 0.001049 969.85156 985.37689
992.0 0.001008 966.64069 980.26404
909.0 0.001100 963.43475 975.48608
975.0 0.001026 960.23529 970.97205
926.0 0.001080 957.04297 966.66986
913.0 0.001095 953.85822 962.53943
926.0 0.001080 950.68256 958.55084
896.0 0.001116 947.51636 954.68134
974.0 0.001027 944.36090 950.91296
910.0 0.001099 941.21661 947.23108
938.0 0.001066 938.08472 939.71820
894.0 0.001119 934.96576 934.96552
894.0 0.001119 931.86017 931.85980
926.0 0.001080 928.76880 928.76868
893.0 0.001120 925.69287 925.69287
899.0 0.001112 922.63287 922.63269
951.0 0.001052 919.58911 919.58881
917.0 0.001091 916.56183 916.56158
1002.0 0.000998 913.55267 913.55255
899.0 0.001112 910.56146 910.56140
938.0 0.001066 907.58917 907.58911
883.0 0.001133 904.63629 904.63617
880.0 0.001136 901.70294 901.70288
887.0 0.001127 898.78973 898.78992
848.0 0.001179 895.89752 895.89752
867.0 0.001153 893.02667 893.02655
886.0 0.001129 890.17700 890.17700
861.0 0.001161 887.34955 887.34930
929.0 0.001076 884.54388 884.54382
873.0 0.001145 881.76160 881.76166
850.0 0.001176 879.00195 879.00189
873.0 0.001145 876.26593 876.26587
839.0 0.001192 873.55273 873.55249
860.0 0.001163 870.86389 870.86359
877.0 0.001140 868.19904 868.19897
838.0 0.001193 865.55823 865.55835
853.0 0.001172 862.94226 862.94232
836.0 0.001196 860.35089 860.35089
811.0 0.001233 857.78406 857.78387
864.0 0.001157 855.24255 855.24243
801.0 0.001248 852.72577 852.72565
839.0 0.001192 850.23450 850.23438
804.0 0.001244 847.76776 847.76807
820.0 0.001220 845.32703 845.32690
844.0 0.001185 842.91132 842.91119
876.0 0.001142 840.52118 840.52142
848.0 0.001179 838.15631 838.15631
893.0 0.001120 835.81689 835.81677
822.0 0.001217 833.50287 833.50275
809.0 0.001236 831.21411 831.21399
793.0 0.001261 828.95087 828.95062
761.0 0.001314 826.71265 826.71252
818.0 0.001222 824.49951 824.49933
811.0 0.001233 822.31146 822.31134
827.0 0.001209 820.14862 820.14850
791.0 0.001264 818.01038 818.01044
826.0 0.001211 815.89703 815.89703
831.0 0.001203 813.80804 813.80792
826.0 0.001211 811.74365 811.74353
836.0 0.001196 809.70343 809.70337
854.0 0.001171 807.68750 807.68750
849.0 0.001178 805.69531 805.69519
817.0 0.001224 803.72687 803.72675
795.0 0.001258 801.78168 801.78149
813.0 0.001230 799.86035 799.86011
806.0 0.001241 797.96173 797.96143
789.0 0.001267 796.08594 796.08606
798.0 0.001253 794.23291 794.23309
772.0 0.001295 792.40216 792.40210
763.0 0.001311 790.59381 790.59369
770.0 0.001299 788.80701 788.80695
769.0 0.001300 787.04193 787.04187
811.0 0.001233 785.29810 785.29810
788.0 0.001269 783.57550 783.57532
750.0 0.001333 781.87360 781.87372
766.0 0.001305 780.19232 780.19263
761.0 0.001314 778.53125 778.53131
796.0 0.001256 776.88995 776.89001
765.0 0.001307 775.26868 775.26855
762.0 0.001312 773.66632 773.66632
784.0 0.001276 772.08337 772.08319
800.0 0.001250 770.51874 770.51868
833.0 0.001200 768.97278 768.97278
739.0 0.001353 767.44489 767.44495
762.0 0.001312 765.93481 765.93469
756.0 0.001323 764.44226 764.44220
792.0 0.001263 762.96698 762.96698
755.0 0.001325 761.50818 761.50824
747.0 0.001339 760.06641 760.06635
788.0 0.001269 758.64069 758.64075
771.0 0.001297 757.23090 757.23083
783.0 0.001277 755.83673 755.83667
761.0 0.001314 754.45801 754.45795
747.0 0.001339 753.09375 753.09387
780.0 0.001282 751.74487 751.74493
740.0 0.001351 750.40997 750.41010
793.0 0.001261 749.08923 749.08929
761.0 0.001314 747.78229 747.78229
753.0 0.001328 746.48846 746.48846
781.0 0.001280 745.20819 745.20819
780.0 0.001282 743.94067 743.94073
744.0 0.001344 742.68573 742.68573
718.0 0.001393 741.44287 741.44281
770.0 0.001299 740.21191 740.21191
732.0 0.001366 738.99274 738.99286
788.0 0.001269 737.78485 737.78491
770.0 0.001299 736.58795 736.58826
749.0 0.001335 735.40204 735.40216
781.0 0.001280 734.22668 734.22668
717.0 0.001395 733.06140 733.06158
773.0 0.001294 731.90631 731.90619
740.0 0.001351 730.76074 730.76086
709.0 0.001410 729.62445 729.62476
728.0 0.001374 728.49792 728.49762
763.0 0.001311 727.37982 727.37982
736.0 0.001359 726.27063 726.27069
728.0 0.001374 725.16956 725.16943
735.0 0.001361 724.07703 724.07697
704.0 0.001420 722.99219 722.99225
771.0 0.001297 721.91516 721.91522
709.0 0.001410 720.84583 720.84589
725.0 0.001379 719.78351 719.78363
738.0 0.001355 718.72845 718.72858
734.0 0.001362 717.68011 717.67993
684.0 0.001462 716.63837 716.63837
702.0 0.001425 715.60327 715.60321
657.0 0.001522 714.57422 714.57428
716.0 0.001397 713.55103 713.55121
764.0 0.001309 712.53375 712.53381
720.0 0.001389 711.52271 711.52271
727.0 0.001376 710.51678 710.51672
669.0 0.001495 709.51587 709.51587
702.0 0.001425 708.52032 708.52039
656.0 0.001524 707.52985 707.52997
722.0 0.001385 706.54419 706.54419
751.0 0.001332 705.56317 705.56305
712.0 0.001404 704.58655 704.58667
714.0 0.001401 703.61456 703.61475
675.0 0.001481 702.64655 702.64661
692.0 0.001445 701.68286 701.68286
703.0 0.001422 700.72308 700.72302
715.0 0.001399 699.76727 699.76727
702.0 0.001425 698.81525 698.81512
694.0 0.001441 697.86658 697.86670
709.0 0.001410 696.92151 696.92163
676.0 0.001479 695.98016 695.98010
666.0 0.001502 695.04199 695.04211
680.0 0.001471 694.10681 694.10693
699.0 0.001431 693.17511 693.17511
677.0 0.001477 692.24652 692.24670
730.0 0.001370 691.32074 691.32062
711.0 0.001406 690.39777 690.39807
684.0 0.001462 689.47815 689.47809
685.0 0.001460 688.56073 688.56104
699.0 0.001431 687.64636 687.64636
714.0 0.001401 686.73474 686.73480
705.0 0.001418 685.82562 685.82550
706.0 0.001416 684.91882 684.91907
691.0 0.001447 684.01508 684.01514
678.0 0.001475 683.11359 683.11365
720.0 0.001389 682.21454 682.21472
651.0 0.001536 681.31812 681.31805
700.0 0.001429 680.42377 680.42377
661.0 0.001513 679.53204 679.53210
666.0 0.001502 678.64252 678.64264
694.0 0.001441 677.75543 677.75562
638.0 0.001567 676.87079 676.87097
661.0 0.001513 675.98853 675.98859
696.0 0.001437 675.10840 675.10840
731.0 0.001368 674.23083 674.23090
655.0 0.001527 673.35565 673.35559
673.0 0.001486 672.48254 672.48267
689.0 0.001451 671.61200 671.61206
599.0 0.001669 670.74371 670.74384
647.0 0.001546 669.87775 669.87787
669.0 0.001495 669.01440 669.01453
655.0 0.001527 668.15344 668.15344
668.0 0.001497 667.29480 667.29480
674.0 0.001484 666.43854 666.43872
647.0 0.001546 665.58514 665.58514
666.0 0.001502 664.73395 664.73401
663.0 0.001508 663.88568 663.88580
648.0 0.001543 663.03961 663.03979
669.0 0.001495 662.19647 662.19678
658.0 0.001520 661.35614 661.35608
651.0 0.001536 660.51849 660.51831
650.0 0.001538 659.68317 659.68317
637.0 0.001570 658.85107 658.85126
653.0 0.001531 658.02197 658.02203
663.0 0.001508 657.19568 657.19556
678.0 0.001475 656.37244 656.37244
640.0 0.001563 655.55206 655.55225
635.0 0.001575 654.73486 654.73486
656.0 0.001524 653.92084 653.92084
637.0 0.001570 653.10980 653.10999
624.0 0.001603 652.30286 652.30261
682.0 0.001466 651.49847 651.49854
583.0 0.001715 650.69763 650.69781
622.0 0.001608 649.90033 649.90039
659.0 0.001517 649.10657 649.10675
622.0 0.001608 648.31647 648.31659
631.0 0.001585 647.52997 647.53021
653.0 0.001531 646.74719 646.74731
636.0 0.001572 645.96820 645.96844
638.0 0.001567 645.19330 645.19324
601.0 0.001664 644.42200 644.42218
609.0 0.001642 643.65515 643.65533
646.0 0.001548 642.89215 642.89221
631.0 0.001585 642.13312 642.13318
640.0 0.001563 641.37878 641.37872
674.0 0.001484 640.62817 640.62848
597.0 0.001675 639.88220 639.88232
584.0 0.001712 639.14093 639.14117
633.0 0.001580 638.40399 638.40417
631.0 0.001585 637.67163 637.67169
617.0 0.001621 636.94385 636.94403
677.0 0.001477 636.22119 636.22119
677.0 0.001477 635.50293 635.50299
684.0 0.001462 634.78943 634.78961
630.0 0.001587 634.08130 634.08130
657.0 0.001522 633.37805 633.37836
649.0 0.001541 632.68024 632.68024
649.0 0.001541 631.98700 631.98724
630.0 0.001587 631.29932 631.29938
660.0 0.001515 630.61676 630.61682
640.0 0.001563 629.93982 629.94006
658.0 0.001520 629.26831 629.26831
621.0 0.001610 628.60211 628.60229
707.0 0.001414 627.94171 627.94171
634.0 0.001577 627.28693 627.28705
639.0 0.001565 626.63788 626.63794
580.0 0.001724 625.99475 625.99493
625.0 0.001600 625.35724 625.35730
630.0 0.001587 624.72546 624.72571
634.0 0.001577 624.10028 624.10022
640.0 0.001563 623.48065 623.48083
624.0 0.001603 622.86725 622.86761
660.0 0.001515 622.26001 622.26025
660.0 0.001515 621.65887 621.65906
590.0 0.001695 621.06439 621.06464
604.0 0.001656 620.47607 620.47614
622.0 0.001608 619.89423 619.89435
613.0 0.001631 619.31860 619.31873
582.0 0.001718 618.74963 618.74994
596.0 0.001678 618.18732 618.18732
649.0 0.001541 617.63147 617.63165
663.0 0.001508 617.08228 617.08240
640.0 0.001563 616.53992 616.54004
657.0 0.001522 616.00421 616.00433
615.0 0.001626 615.47540 615.47546
597.0 0.001675 614.95337 614.95374
626.0 0.001597 614.43823 614.43842
632.0 0.001582 613.93011 613.93011
649.0 0.001541 613.42902 613.42926
573.0 0.001745 612.93463 612.93512
627.0 0.001595 612.44763 612.44794
508.0 0.001969 611.96796 611.96814
645.0 0.001550 611.49506 611.49512
631.0 0.001585 611.02942 611.02966
599.0 0.001669 610.57098 610.57117
633.0 0.001580 610.11987 610.12000
622.0 0.001608 609.67603 609.67633
573.0 0.001745 609.23907 609.23956
628.0 0.001592 608.81000 608.81000
637.0 0.001570 608.38812 608.38824
567.0 0.001764 607.97375 607.97375
614.0 0.001629 607.56635 607.56665
579.0 0.001727 607.16693 607.16711
612.0 0.001634 606.77454 606.77496
580.0 0.001724 606.38989 606.39001
539.0 0.001855 606.01270 606.01282
591.0 0.001692 605.64282 605.64319
634.0 0.001577 605.28058 605.28088
595.0 0.001681 604.92609 604.92621
650.0 0.001538 604.57892 604.57922
610.0 0.001639 604.23944 604.23956
598.0 0.001672 603.90747 603.90784
609.0 0.001642 603.58313 603.58356
626.0 0.001597 603.26636 603.26691
583.0 0.001715 602.95770 602.95776
580.0 0.001724 602.65588 602.65619
611.0 0.001637 602.36200 602.36230
598.0 0.001672 602.07574 602.07599
605.0 0.001653 601.79712 601.79724
629.0 0.001590 601.52612 601.52637
658.0 0.001520 601.26294 601.26312
598.0 0.001672 601.00702 601.00732
611.0 0.001637 600.75897 600.75916
596.0 0.001678 600.51837 600.51868
650.0 0.001538 600.28552 600.28589
566.0 0.001767 600.06036 600.06061
631.0 0.001585 599.84247 599.84296
631.0 0.001585 599.63269 599.63287
585.0 0.001709 599.43018 599.43024
668.0 0.001497 599.23529 599.23541
588.0 0.001701 599.04773 599.04785
595.0 0.001681 598.86804 598.98627
614.0 0.001629 598.69556 598.82159
649.0 0.001541 598.53070 598.71002
620.0 0.001613 598.37347 598.56512
589.0 0.001698 598.22375 598.42896
559.0 0.001789 598.08179 598.30188
599.0 0.001669 597.94672 598.18390
625.0 0.001600 597.81921 598.07562
661.0 0.001513 597.69928 597.97699
609.0 0.001642 597.58667 597.88849
589.0 0.001698 597.48157 597.81067
598.0 0.001672 597.38348 597.74445
597.0 0.001675 597.29279 597.68994
577.0 0.001733 597.20947 597.64838
638.0 0.001567 597.13354 597.62140
543.0 0.001842 597.06458 597.61029
581.0 0.001721 597.00311 597.61700
603.0 0.001658 596.94873 597.64490
602.0 0.001661 596.90125 597.69806
558.0 0.001792 596.86139 597.78156
597.0 0.001675 596.82825 597.90552
580.0 0.001724 596.80231 598.08887
670.0 0.001493 596.78351 598.38080
661.0 0.001513 596.77136 598.91772
662.0 0.001511 596.76630 600.03430
597.0 0.001675 596.76837 602.43884
621.0 0.001610 596.77692 607.40576
636.0 0.001572 596.79254 616.90338
601.0 0.001664 596.81506 633.46088
606.0 0.001650 596.84430 659.26117
661.0 0.001513 596.88049 693.77655
690.0 0.001449 596.92334 730.65485
687.0 0.001456 596.97266 757.30548
693.0 0.001443 597.02856 760.82227
715.0 0.001399 597.09125 738.87268
616.0 0.001623 597.16064 701.99921
638.0 0.001567 597.23615 663.82422
657.0 0.001522 597.31842 634.09436
645.0 0.001550 597.40692 615.59747
594.0 0.001684 597.50195 606.09631
558.0 0.001792 597.60345 601.96344
618.0 0.001618 597.71112 600.36084
605.0 0.001653 597.82495 599.74225
637.0 0.001570 597.94507 599.47113
572.0 0.001748 598.07159 599.33612
592.0 0.001689 598.20410 599.27307
611.0 0.001637 598.34265 599.25879
571.0 0.001751 598.48724 599.28119
580.0 0.001724 598.63806 599.33276
603.0 0.001658 598.79456 599.40753
588.0 0.001701 598.95709 599.50171
587.0 0.001704 599.12549 599.61292
604.0 0.001656 599.29962 599.73840
612.0 0.001634 599.47968 599.87640
624.0 0.001603 599.66541 600.02631
602.0 0.001661 599.85687 600.22589
629.0 0.001590 600.05383 600.39819
617.0 0.001621 600.25659 600.59436
615.0 0.001626 600.46490 600.78540
583.0 0.001715 600.67865 600.98456
609.0 0.001642 600.89795 601.19189
601.0 0.001664 601.12268 601.40686
618.0 0.001618 601.35266 601.62976
606.0 0.001650 601.58807 601.85968
573.0 0.001745 601.82874 602.09711
579.0 0.001727 602.07452 602.23175
584.0 0.001712 602.32550 602.49036
629.0 0.001590 602.58167 602.71362
604.0 0.001656 602.84308 602.98883
578.0 0.001730 603.10925 603.27075
593.0 0.001686 603.38068 603.56091
610.0 0.001639 603.65674 603.85950
611.0 0.001637 603.93817 604.16724
571.0 0.001751 604.22388 604.48535
659.0 0.001517 604.51477 604.81580
572.0 0.001748 604.81049 605.16101
627.0 0.001595 605.11066 605.52576
593.0 0.001686 605.41577 605.92114
628.0 0.001592 605.72534 606.37781
622.0 0.001608 606.03949 606.97559
614.0 0.001629 606.35822 607.89862
645.0 0.001550 606.68134 609.51050
632.0 0.001582 607.00897 612.42194
649.0 0.001541 607.34088 617.47150
611.0 0.001637 607.67725 625.45087
615.0 0.001626 608.01782 636.38696
661.0 0.001513 608.36285 648.57343
665.0 0.001504 608.71210 658.29150
666.0 0.001502 609.06531 661.34082
715.0 0.001399 609.42255 656.30884
652.0 0.001534 609.78400 645.93378
662.0 0.001511 610.14941 634.27679
624.0 0.001603 610.51886 624.57336
604.0 0.001656 610.89227 618.19617
614.0 0.001629 611.26929 614.81903
634.0 0.001577 611.65033 613.42267
597.0 0.001675 612.03522 613.05713
592.0 0.001689 612.42395 613.12958
645.0 0.001550 612.81604 613.36511
638.0 0.001567 613.21216 613.66290
623.0 0.001605 613.61151 613.99109
636.0 0.001572 614.01459 614.33881
637.0 0.001570 614.42108 614.70135
651.0 0.001536 614.83118 615.07599
640.0 0.001563 615.24463 615.46027
572.0 0.001748 615.66144 615.85266
647.0 0.001546 616.08167 616.25269
606.0 0.001650 616.50531 616.65887
587.0 0.001704 616.93188 617.07074
604.0 0.001656 617.36176 617.48792
617.0 0.001621 617.79468 617.90973
610.0 0.001639 618.23108 618.33643
613.0 0.001631 618.67010 618.76703
590.0 0.001695 619.11255 619.20178
612.0 0.001634 619.55750 619.64026
609.0 0.001642 620.00580 620.08246
622.0 0.001608 620.45697 620.52826
623.0 0.001605 620.91058 620.97729
568.0 0.001761 621.36737 621.42975
602.0 0.001661 621.82666 621.88519
598.0 0.001672 622.28888 622.30591
599.0 0.001669 622.75348 622.76959
614.0 0.001629 623.22107 623.22144
562.0 0.001779 623.69104 623.69135
632.0 0.001582 624.16364 624.16394
576.0 0.001736 624.63861 624.63885
585.0 0.001709 625.11603 625.11639
580.0 0.001724 625.59601 625.59625
598.0 0.001672 626.07806 626.07843
576.0 0.001736 626.56244 626.56287
591.0 0.001692 627.04919 627.04980
606.0 0.001650 627.53821 627.53857
652.0 0.001534 628.02948 628.02991
629.0 0.001590 628.52283 628.52325
650.0 0.001538 629.01813 629.01843
601.0 0.001664 629.51538 629.51587
621.0 0.001610 630.01489 630.01538
620.0 0.001613 630.51624 630.51685
602.0 0.001661 631.01947 631.01978
615.0 0.001626 631.52460 631.52515
668.0 0.001497 632.03180 632.03235
626.0 0.001597 632.54041 632.99115
624.0 0.001603 633.05096 633.95251
644.0 0.001553 633.56305 634.67749
663.0 0.001508 634.07709 635.24908
669.0 0.001495 634.59253 635.99359
660.0 0.001515 635.10925 636.58618
669.0 0.001495 635.62799 637.18701
689.0 0.001451 636.14801 637.79663
670.0 0.001493 636.66949 638.41486
668.0 0.001497 637.19214 639.04382
629.0 0.001590 637.71600 639.68390
719.0 0.001391 638.24152 640.33673
650.0 0.001538 638.76819 641.00342
680.0 0.001471 639.29608 641.68604
685.0 0.001460 639.82507 642.38635
753.0 0.001328 640.35498 643.10651
704.0 0.001420 640.88629 643.85028
664.0 0.001506 641.41833 644.62061
684.0 0.001462 641.95166 645.42151
642.0 0.001558 642.48560 646.25879
691.0 0.001447 643.02057 647.13837
654.0 0.001529 643.55646 648.06885
679.0 0.001473 644.09302 649.05933
644.0 0.001553 644.63037 650.12268
606.0 0.001650 645.16852 651.27533
654.0 0.001529 645.70685 652.53784
667.0 0.001499 646.24615 653.93817
602.0 0.001661 646.78607 655.51318
675.0 0.001481 647.32629 657.31342
664.0 0.001506 647.86737 659.41272
711.0 0.001406 648.40826 661.92682
722.0 0.001385 648.94977 665.09247
690.0 0.001449 649.49164 669.48883
664.0 0.001506 650.03394 676.64868
725.0 0.001379 650.57635 690.39612
785.0 0.001274 651.11871 719.11151
812.0 0.001232 651.66168 778.54034
931.0 0.001074 652.20453 892.76624
1154.0 0.000867 652.74695 1088.45227
1359.0 0.000736 653.28998 1377.61365
1677.0 0.000596 653.83276 1731.65173
2022.0 0.000495 654.37518 2066.84131
2258.0 0.000443 654.91766 2266.44702
2379.0 0.000420 655.45996 2250.76245
2198.0 0.000455 656.00201 2032.73169
1884.0 0.000531 656.54352 1701.30200
1471.0 0.000680 657.08508 1359.66980
1123.0 0.000890 657.62598 1079.31958
894.0 0.001119 658.16626 888.09937
687.0 0.001456 658.70612 777.10620
710.0 0.001408 659.24554 721.27765
629.0 0.001590 659.78430 696.14948
633.0 0.001580 660.32251 685.25873
631.0 0.001585 660.85980 680.10120
672.0 0.001488 661.39655 677.16638
691.0 0.001447 661.93225 675.22388
664.0 0.001506 662.46716 673.84814
689.0 0.001451 663.00134 672.85999
627.0 0.001595 663.53448 672.15796
692.0 0.001445 664.06659 671.67334
651.0 0.001536 664.59747 671.35760
696.0 0.001437 665.12756 671.17474
632.0 0.001582 665.65625 671.09772
642.0 0.001558 666.18359 671.10657
696.0 0.001437 666.70978 674.72394
679.0 0.001473 667.23480 675.03748
683.0 0.001464 667.75842 676.71503
670.0 0.001493 668.28064 677.20941
657.0 0.001522 668.80096 677.75879
699.0 0.001431 669.32019 678.36066
720.0 0.001389 669.83783 679.01276
687.0 0.001456 670.35352 679.71564
648.0 0.001543 670.86768 680.46930
661.0 0.001513 671.38019 681.27545
670.0 0.001493 671.89087 682.13745
728.0 0.001374 672.39960 683.05841
697.0 0.001435 672.90637 684.04407
714.0 0.001401 673.41144 685.10046
665.0 0.001504 673.91418 686.23523
753.0 0.001328 674.41510 687.45929
707.0 0.001414 674.91376 688.78412
700.0 0.001429 675.41046 690.22534
756.0 0.001323 675.90485 691.80145
698.0 0.001433 676.39679 693.10034
742.0 0.001348 676.88635 694.61298
715.0 0.001399 677.37396 696.62427
719.0 0.001391 677.85858 699.07581
728.0 0.001374 678.34106 701.69171
754.0 0.001326 678.82092 704.86670
726.0 0.001377 679.29803 708.53558
715.0 0.001399 679.77283 712.82501
755.0 0.001325 680.24463 717.91101
687.0 0.001456 680.71399 724.03357
774.0 0.001292 681.18018 731.54395
694.0 0.001441 681.64386 741.03754
747.0 0.001339 682.10413 753.76215
723.0 0.001383 682.56165 772.97089
847.0 0.001181 683.01636 807.44067
926.0 0.001080 683.46753 878.96613
1097.0 0.000912 683.91614 1034.41235
1397.0 0.000716 684.36115 1357.03308
2099.0 0.000476 684.80298 1960.90845
2977.0 0.0003359 685.24176 2938.92822
4083.0 0.0002449 685.67676 4257.18994
5431.0 0.0001841 686.10889 5657.61963
6576.0 0.0001521 686.53717 6678.23730
6958.0 0.0001437 686.96185 6881.93066
6548.0 0.0001527 687.38348 6217.28857
5310.0 0.0001883 687.80109 5033.03857
3707.0 0.0002698 688.21527 3717.76611
2586.0 0.000387 688.62537 2569.42261
1662.0 0.000602 689.03198 1743.24548
1139.0 0.000878 689.43469 1239.63354
818.0 0.001222 689.83374 975.29254
815.0 0.001227 690.22858 852.62421
731.0 0.001368 690.61963 798.62677
734.0 0.001362 691.00647 772.84076
704.0 0.001420 691.38940 757.88232
700.0 0.001429 691.76837 747.54999
673.0 0.001486 692.14288 739.74561
721.0 0.001387 692.51318 733.63391
694.0 0.001441 692.87909 728.75775
657.0 0.001522 693.24084 724.81909
657.0 0.001522 693.59833 721.60590
669.0 0.001495 693.95111 718.96039
666.0 0.001502 694.29968 716.76788
630.0 0.001587 694.64368 714.93890
652.0 0.001534 694.98303 713.40607
642.0 0.001558 695.31775 712.11652
637.0 0.001570 695.64783 711.02771
620.0 0.001613 695.97333 710.10687
693.0 0.001443 696.29401 709.32660
627.0 0.001595 696.60986 708.66541
724.0 0.001381 696.92072 708.10547
682.0 0.001466 697.22668 707.64520
766.0 0.001305 697.52783 707.24591
788.0 0.001269 697.82397 706.91028
802.0 0.001247 698.11499 706.63477
785.0 0.001274 698.40094 706.40179
763.0 0.001311 698.68195 706.21021
702.0 0.001425 698.95740 706.05432
844.0 0.001185 699.22803 705.92987
779.0 0.001284 699.49316 705.83270
798.0 0.001253 699.75317 705.75952
762.0 0.001312 700.00793 705.70697
732.0 0.001366 700.25696 705.67267
821.0 0.001218 700.50079 705.65399
776.0 0.001289 700.73914 702.24469
790.0 0.001266 700.97198 702.40845
822.0 0.001217 701.19934 701.24384
798.0 0.001253 701.42072 701.46887
806.0 0.001241 701.63678 701.68903
730.0 0.001370 701.84735 701.90381
747.0 0.001339 702.05200 702.11340
714.0 0.001401 702.25098 702.31793
638.0 0.001567 702.44409 702.51752
624.0 0.001603 702.63129 702.71216
626.0 0.001597 702.81293 702.90240
630.0 0.001587 702.98853 703.08820
598.0 0.001672 703.15839 703.26984
617.0 0.001621 703.32202 703.44751
641.0 0.001560 703.47974 703.62250
650.0 0.001538 703.63153 703.79510
640.0 0.001563 703.77728 703.96661
703.0 0.001422 703.91681 704.13892
679.0 0.001473 704.05042 704.31580
594.0 0.001684 704.17767 704.50580
685.0 0.001460 704.29907 704.73389
632.0 0.001582 704.41370 705.06293
625.0 0.001600 704.52271 705.63770
651.0 0.001536 704.62531 706.73016
634.0 0.001577 704.72150 708.74396
600.0 0.001667 704.81134 712.06006
652.0 0.001534 704.89471 716.68353
670.0 0.001493 704.97198 721.86243
648.0 0.001543 705.04266 726.06207
691.0 0.001447 705.10699 727.62726
710.0 0.001408 705.16504 726.03442
686.0 0.001458 705.21637 722.31561
670.0 0.001493 705.26129 717.81519
668.0 0.001497 705.29980 713.56470
733.0 0.001364 705.33185 710.24506
668.0 0.001497 705.35706 708.04730
651.0 0.001536 705.37598 706.79346
684.0 0.001462 705.38824 706.16809
687.0 0.001456 705.39362 705.88177
662.0 0.001511 705.39264 705.74512
639.0 0.001565 705.38507 705.66449
666.0 0.001502 705.37067 705.60291
666.0 0.001502 705.34949 705.54681
628.0 0.001592 705.32202 705.49170
638.0 0.001567 705.28754 705.43530
676.0 0.001479 705.24622 705.37616
687.0 0.001456 705.19843 705.31360
689.0 0.001451 705.14398 705.24652
639.0 0.001565 705.08264 705.17456
683.0 0.001464 705.01440 705.09741
757.0 0.001321 704.93939 705.01471
736.0 0.001359 704.85797 704.92651
720.0 0.001389 704.76935 704.83197
719.0 0.001391 704.67413 704.73169
721.0 0.001387 704.57202 704.62506
748.0 0.001337 704.46313 704.51227
748.0 0.001337 704.34753 704.39288
732.0 0.001366 704.22485 704.26721
717.0 0.001395 704.09540 704.13501
725.0 0.001379 703.95935 703.99622
725.0 0.001379 703.81616 703.85089
774.0 0.001292 703.66632 703.69885
753.0 0.001328 703.50977 703.54022
766.0 0.001305 703.34613 703.37488
765.0 0.001307 703.17578 703.20294
733.0 0.001364 702.99860 705.62097
744.0 0.001344 702.81451 714.43524
748.0 0.001337 702.62372 714.83026
760.0 0.001316 702.42615 716.24829
722.0 0.001385 702.22156 720.13727
762.0 0.001312 702.01019 720.87317
757.0 0.001321 701.79211 721.69617
829.0 0.001206 701.56708 722.60144
796.0 0.001256 701.33533 723.59363
818.0 0.001222 701.09680 724.69586
779.0 0.001284 700.85168 725.91614
824.0 0.001214 700.59949 727.27014
799.0 0.001252 700.34064 728.77710
873.0 0.001145 700.07513 730.45862
835.0 0.001198 699.80273 732.34064
840.0 0.001190 699.52380 734.45374
853.0 0.001172 699.23798 736.83319
880.0 0.001136 698.94543 739.52411
804.0 0.001244 698.64630 742.57690
777.0 0.001287 698.34052 746.05725
859.0 0.001164 698.02808 750.04236
851.0 0.001175 697.70892 754.62775
867.0 0.001153 697.38318 759.93530
830.0 0.001205 697.05084 766.11450
847.0 0.001181 696.71204 773.36060
883.0 0.001133 696.36658 781.92169
877.0 0.001140 696.01440 792.11987
901.0 0.001110 695.65607 804.39227
916.0 0.001092 695.29083 819.31677
948.0 0.001055 694.91949 837.71716
976.0 0.001025 694.54144 860.81812
989.0 0.001011 694.15710 890.77216
1053.0 0.000950 693.76630 932.35779
1155.0 0.000866 693.36914 997.89038
1245.0 0.000803 692.96564 1119.73364
1663.0 0.000601 692.55579 1374.79883
2150.0 0.000465 692.13953 1918.53320
3232.0 0.0003094 691.71692 3003.42896
5050.0 0.0001980 691.28821 4921.31104
7760.0 0.0001289 690.85327 7818.01416
11135.0 0.0000898 690.41223 11417.64160
14434.0 0.0000693 689.96509 14877.75684
16792.0 0.0000596 689.51178 17032.77344
17131.0 0.0000584 689.05212 17068.63867
15664.0 0.0000638 688.58667 15165.58691
12508.0 0.0000799 688.11493 12211.79980
8883.0 0.0001126 687.63739 9018.45996
6025.0 0.0001660 687.15393 6151.18652
3925.0 0.0002548 686.66431 3959.95898
2260.0 0.000442 686.16876 2512.57861
1353.0 0.000739 685.66748 1678.10596
1131.0 0.000884 685.16046 1252.18066
924.0 0.001082 684.64758 1050.69604
917.0 0.001091 684.12885 955.34393
838.0 0.001193 683.60443 901.17627
828.0 0.001208 683.07434 865.14795
787.0 0.001271 682.53857 838.96582
820.0 0.001220 681.99719 817.70416
823.0 0.001215 681.45026 800.47791
758.0 0.001319 680.89771 786.28876
749.0 0.001335 680.34003 774.45386
735.0 0.001361 679.77655 764.47589
724.0 0.001381 679.20782 755.97919
765.0 0.001307 678.63379 748.68561
701.0 0.001427 678.05426 742.37750
728.0 0.001374 677.46948 736.88953
738.0 0.001355 676.87970 732.09247
776.0 0.001289 676.28442 727.88184
739.0 0.001353 675.68420 724.17871
730.0 0.001370 675.07855 720.91858
762.0 0.001312 674.46826 718.05304
696.0 0.001437 673.85254 715.54425
709.0 0.001410 673.23206 713.36395
714.0 0.001401 672.60681 711.49500
735.0 0.001361 671.97650 709.92560
768.0 0.001302 671.34137 708.65607
729.0 0.001372 670.70123 707.69427
758.0 0.001319 670.05664 707.05878
753.0 0.001328 669.40741 706.78094
723.0 0.001383 668.75342 706.90900
697.0 0.001435 668.09448 707.51184
703.0 0.001422 667.43152 708.68860
721.0 0.001387 666.76373 710.58246
695.0 0.001439 666.09210 710.92664
717.0 0.001395 665.41516 706.60736
730.0 0.001370 664.73438 713.41315
712.0 0.001404 664.04913 723.61987
712.0 0.001404 663.35974 742.72394
760.0 0.001316 662.66614 789.10651
862.0 0.001160 661.96820 889.65930
988.0 0.001012 661.26642 1092.17468
1374.0 0.000728 660.56049 1448.96289
1965.0 0.000509 659.85046 1981.00977
2683.0 0.000373 659.13647 2625.22363
3362.0 0.0002974 658.41870 3216.24292
3593.0 0.0002783 657.69696 3540.40796
3799.0 0.0002632 656.97150 3476.64575
3382.0 0.0002957 656.24219 3105.34277
2778.0 0.000360 655.50916 2590.98071
2150.0 0.000465 654.77258 2051.45337
1632.0 0.000613 654.03235 1571.52112
1229.0 0.000814 653.28876 1205.89783
906.0 0.001104 652.54138 964.02710
759.0 0.001318 651.79083 824.21747
715.0 0.001399 651.03668 752.49847
675.0 0.001481 650.27899 718.18921
699.0 0.001431 649.51855 701.21167
634.0 0.001577 648.75452 691.46570
641.0 0.001560 647.98755 684.83777
623.0 0.001605 647.21735 679.83435
607.0 0.001647 646.44366 675.89386
616.0 0.001623 645.66766 672.75482
632.0 0.001582 644.88824 670.26538
632.0 0.001582 644.10608 668.33661
644.0 0.001553 643.32086 666.91864
654.0 0.001529 642.53296 666.00262
629.0 0.001590 641.74225 665.61829
633.0 0.001580 640.94891 665.85767
621.0 0.001610 640.15302 666.95502
626.0 0.001597 639.35425 669.54993
654.0 0.001529 638.55298 675.41040
658.0 0.001520 637.74915 689.01764
705.0 0.001418 636.94305 720.07996
764.0 0.001309 636.13458 785.44385
930.0 0.001075 635.32361 906.49768
1072.0 0.000933 634.51013 1097.00830
1331.0 0.000751 633.69495 1343.23816
1626.0 0.000615 632.87701 1591.01306
1828.0 0.000547 632.05725 1757.46289
1883.0 0.000531 631.23547 1777.91150
1864.0 0.000536 630.41144 1662.05151
1576.0 0.000635 629.58563 1472.94067
1231.0 0.000812 628.75745 1261.98145
984.0 0.001016 627.92786 1062.70056
880.0 0.001136 627.09631 900.57379
704.0 0.001420 626.26270 786.12341
640.0 0.001563 625.42780 713.26837
656.0 0.001524 624.59082 674.62158
633.0 0.001580 623.75226 655.22803
641.0 0.001560 622.91217 644.66412
550.0 0.001818 622.07025 639.12158
587.0 0.001704 621.22742 635.32727
629.0 0.001590 620.38269 632.34888
642.0 0.001558 619.53662 629.84546
620.0 0.001613 618.68933 627.66663
604.0 0.001656 617.84058 625.72961
607.0 0.001647 616.99066 623.97827
614.0 0.001629 616.13947 622.37158
612.0 0.001634 615.28729 620.88037
588.0 0.001701 614.43365 619.48132
588.0 0.001701 613.57928 618.15723
626.0 0.001597 612.72363 616.89508
612.0 0.001634 611.86713 615.68353
630.0 0.001587 611.00964 614.51477
601.0 0.001664 610.15118 613.38153
623.0 0.001605 609.29205 612.27856
628.0 0.001592 608.43188 611.20166
619.0 0.001616 607.57111 610.14661
595.0 0.001681 606.70959 609.11053
608.0 0.001645 605.84735 613.14368
624.0 0.001603 604.98425 612.39008
610.0 0.001639 604.12103 611.66827
640.0 0.001563 603.25696 610.97827
653.0 0.001531 602.39252 612.29199
571.0 0.001751 601.52753 611.76941
591.0 0.001692 600.66199 611.29163
639.0 0.001565 599.79620 610.86139
605.0 0.001653 598.92999 610.48303
535.0 0.001869 598.06348 610.16174
608.0 0.001645 597.19678 609.90308
640.0 0.001563 596.32953 608.88239
631.0 0.001585 595.46252 608.80963
618.0 0.001618 594.59509 608.82202
590.0 0.001695 593.72784 608.61346
639.0 0.001565 592.86017 608.84924
594.0 0.001684 591.99237 609.21259
637.0 0.001570 591.12500 609.72339
633.0 0.001580 590.25714 610.40680
688.0 0.001453 589.38977 611.29193
613.0 0.001631 588.52222 612.41669
599.0 0.001669 587.65466 613.82593
622.0 0.001608 586.78766 615.57629
608.0 0.001645 585.92059 617.74011
662.0 0.001511 585.05396 620.40790
626.0 0.001597 584.18744 624.18652
621.0 0.001610 583.32098 628.27887
627.0 0.001595 582.45538 633.35516
673.0 0.001486 581.58960 639.87689
627.0 0.001595 580.72479 647.88129
683.0 0.001464 579.85968 658.14240
696.0 0.001437 578.99536 671.74323
730.0 0.001370 578.13184 691.16608
766.0 0.001305 577.26825 722.99750
831.0 0.001203 576.40564 784.38220
1044.0 0.000958 575.54321 914.94415
1218.0 0.000821 574.68164 1190.07068
1713.0 0.000584 573.82050 1719.46631
2556.0 0.000391 572.96014 2605.26172
3736.0 0.0002677 572.10034 3847.43994
5126.0 0.0001951 571.24121 5248.69678
6335.0 0.0001579 570.38287 6410.68799
6948.0 0.0001439 569.52521 6903.44629
6789.0 0.0001473 568.66833 6590.34473
5880.0 0.0001701 567.81256 5738.53809
4473.0 0.0002236 566.95697 4673.20215
3345.0 0.0002990 566.10254 3581.66870
2472.0 0.000405 565.24915 2598.84644
1683.0 0.000594 564.39624 1827.67090
1127.0 0.000887 563.54462 1298.20837
825.0 0.001212 562.69354 978.87842
727.0 0.001376 561.84363 808.17834
670.0 0.001493 560.99475 723.99976
646.0 0.001548 560.14667 682.22308
671.0 0.001490 559.29987 659.01276
602.0 0.001661 558.45355 643.96497
623.0 0.001605 557.60846 633.21161
592.0 0.001689 556.76483 625.49799
642.0 0.001558 555.92181 620.84760
612.0 0.001634 555.08008 620.72955
601.0 0.001664 554.23938 629.07202
620.0 0.001613 553.39960 653.34198
710.0 0.001408 552.56122 703.84644
795.0 0.001258 551.72375 788.92841
951.0 0.001052 550.88782 905.67255
1083.0 0.000923 550.05261 1032.03577
1197.0 0.000835 549.21875 1128.90613
1183.0 0.000845 548.38623 1158.95923
1211.0 0.000826 547.55493 1116.98291
1130.0 0.000885 546.72479 1031.63501
946.0 0.001057 545.89575 930.84387
825.0 0.001212 545.06793 829.53882
755.0 0.001325 544.24158 739.23242
639.0 0.001565 543.41638 668.63629
619.0 0.001616 542.59253 619.99451
582.0 0.001718 541.76971 590.22302
593.0 0.001686 540.94843 573.68884
552.0 0.001812 540.12866 564.81860
564.0 0.001773 539.30981 559.70532
526.0 0.001901 538.49237 556.67981
520.0 0.001923 537.67627 553.99426
561.0 0.001783 536.86151 551.70508
523.0 0.001912 536.04822 549.67261
594.0 0.001684 535.23621 542.91840
545.0 0.001835 534.42548 541.46564
621.0 0.001610 533.61615 540.11646
562.0 0.001779 532.80823 536.89050
573.0 0.001745 532.00165 535.78577
540.0 0.001852 531.19629 534.73193
536.0 0.001866 530.39258 533.80420
546.0 0.001832 529.59003 532.83276
564.0 0.001773 528.78888 531.89203
529.0 0.001890 527.98926 530.97906
533.0 0.001876 527.19098 530.12219
497.0 0.002012 526.39417 529.25690
514.0 0.001946 525.59857 528.41180
511.0 0.001957 524.80438 527.58496
497.0 0.002012 524.01184 526.77673
535.0 0.001869 523.22046 525.98523
482.0 0.002075 522.43048 525.21100
499.0 0.002004 521.64166 524.45374
516.0 0.001938 520.85474 523.71350
498.0 0.002008 520.06903 522.99146
506.0 0.001976 519.28473 522.28827
550.0 0.001818 518.50171 521.60529
504.0 0.001984 517.72028 520.94391
540.0 0.001852 516.94000 520.30627
465.0 0.002151 516.16156 519.69568
505.0 0.001980 515.38416 518.63257
526.0 0.001901 514.60828 518.10870
455.0 0.002198 513.83356 517.62305
482.0 0.002075 513.06018 516.99530
544.0 0.001838 512.28864 516.61713
518.0 0.001931 511.51807 516.30280
545.0 0.001835 510.74921 516.06702
533.0 0.001876 509.98154 515.92749
540.0 0.001852 509.21503 515.90826
535.0 0.001869 508.45035 516.04211
531.0 0.001883 507.68683 516.37354
539.0 0.001855 506.92471 516.96759
525.0 0.001905 506.16373 517.93469
530.0 0.001887 505.40417 520.45410
538.0 0.001859 504.64612 523.25586
543.0 0.001842 503.88931 528.79584
511.0 0.001957 503.13385 541.11047
596.0 0.001678 502.37976 566.95166
645.0 0.001550 501.62683 618.41144
761.0 0.001314 500.87540 708.34760
895.0 0.001117 500.12509 841.79572
1028.0 0.000973 499.37650 1004.00964
1267.0 0.000789 498.62878 1155.72693
1276.0 0.000784 497.88245 1244.99512
1304.0 0.000767 497.13760 1240.97498
1302.0 0.000768 496.39389 1162.74609
1172.0 0.000853 495.65140 1052.22314
900.0 0.001111 494.91037 936.34052
839.0 0.001192 494.17035 829.88281
784.0 0.001276 493.43170 747.24451
720.0 0.001389 492.69427 696.85498
709.0 0.001410 491.95834 675.51233
669.0 0.001495 491.22324 670.06445
720.0 0.001389 490.48965 664.23779
667.0 0.001499 489.75723 648.90405
626.0 0.001597 489.02588 625.98901
626.0 0.001597 488.29590 600.52753
563.0 0.001776 487.56705 575.12939
568.0 0.001761 486.83923 551.57800
567.0 0.001764 486.11292 531.97791
532.0 0.001880 485.38757 517.46210
494.0 0.002024 484.66357 507.86856
480.0 0.002083 483.94040 502.14529
472.0 0.002119 483.21869 498.96082
479.0 0.002088 482.49811 497.20926
456.0 0.002193 481.77863 496.21243
496.0 0.002016 481.06027 495.64862
478.0 0.002092 480.34283 495.39969
484.0 0.002066 479.62677 495.44232
500.0 0.002000 478.91180 495.79526
497.0 0.002012 478.19781 496.50629
537.0 0.001862 477.48499 497.64941
516.0 0.001938 476.77319 499.34198
489.0 0.002045 476.06244 501.77951
502.0 0.001992 475.35294 505.36154
522.0 0.001916 474.64429 511.08087
549.0 0.001821 473.93686 521.54797
600.0 0.001667 473.23041 543.17114
655.0 0.001527 472.52512 589.34491
805.0 0.001242 471.82071 682.43671
986.0 0.001014 471.11731 849.49091
1252.0 0.000799 470.41510 1106.31299
1524.0 0.000656 469.71381 1433.90356
1728.0 0.000579 469.01340 1762.67065
1868.0 0.000535 468.31418 1987.30054
1825.0 0.000548 467.61597 2026.09668
1876.0 0.000533 466.91867 1893.86609
1623.0 0.000616 466.22235 1674.41443
1313.0 0.000762 465.52698 1432.01624
1055.0 0.000948 464.83258 1187.77844
921.0 0.001086 464.13922 965.05206
802.0 0.001247 463.44699 785.34937
618.0 0.001618 462.75537 658.13068
512.0 0.001953 462.06479 577.59863
502.0 0.001992 461.37534 532.46594
516.0 0.001938 460.68658 508.63516
482.0 0.002075 459.99896 496.48880
483.0 0.002070 459.31213 489.48248
480.0 0.002083 458.62625 484.60037
501.0 0.001996 457.94138 481.02292
446.0 0.002242 457.25729 478.12793
477.0 0.002096 456.57422 475.71426
505.0 0.001980 455.89197 473.66721
496.0 0.002016 455.21069 471.91122
467.0 0.002141 454.53030 470.30850
494.0 0.002024 453.85086 468.99005
487.0 0.002053 453.17218 467.83945
486.0 0.002058 452.49445 466.83499
454.0 0.002203 451.81760 465.92990
515.0 0.001942 451.14172 465.17746
467.0 0.002141 450.46649 464.53735
458.0 0.002183 449.79251 464.00653
430.0 0.002326 449.11905 463.58362
486.0 0.002058 448.44650 463.27084
523.0 0.001912 447.77512 463.07281
489.0 0.002045 447.10434 462.99722
469.0 0.002132 446.43457 463.05499
540.0 0.001852 445.76547 463.26086
473.0 0.002114 445.09726 463.63385
473.0 0.002114 444.43008 464.19846
500.0 0.002000 443.76370 464.98624
520.0 0.001923 443.09830 466.03693
500.0 0.002000 442.43365 467.40253
514.0 0.001946 441.76981 469.14996
505.0 0.001980 441.10696 471.36499
488.0 0.002049 440.44464 474.16455
513.0 0.001949 439.78357 477.70169
484.0 0.002066 439.12329 482.19144
508.0 0.001969 438.46378 487.94666
510.0 0.001961 437.80518 495.49252
539.0 0.001855 437.14749 505.93799
555.0 0.001802 436.49060 522.04553
595.0 0.001681 435.83463 550.98529
584.0 0.001712 435.17950 609.64471
763.0 0.001311 434.52536 731.56323
996.0 0.001004 433.87189 969.43152
1427.0 0.000701 433.21951 1379.86621
2030.0 0.000493 432.56793 1988.92310
2844.0 0.000352 431.91721 2734.54907
3332.0 0.0003001 431.26740 3445.79614
3690.0 0.0002710 430.61841 3888.34888
3851.0 0.0002597 429.97061 3908.76880
3654.0 0.0002737 429.32346 3577.80078
3042.0 0.0003287 428.67722 3087.49707
2301.0 0.000435 428.03214 2559.71362
1838.0 0.000544 427.38773 2034.83606
1476.0 0.000678 426.74435 1551.93677
1124.0 0.000890 426.10172 1156.45923
806.0 0.001241 425.46017 870.04822
644.0 0.001553 424.81970 686.72394
546.0 0.001832 424.18008 582.19659
506.0 0.001976 423.54141 527.36633
503.0 0.001988 422.90366 498.88876
469.0 0.002132 422.26672 482.73026
463.0 0.002160 421.63107 472.09686
502.0 0.001992 420.99622 464.16333
448.0 0.002232 420.36258 457.81659
445.0 0.002247 419.72961 452.55734
448.0 0.002232 419.09790 448.11179
421.0 0.002375 418.46716 444.29800
430.0 0.002326 417.83737 440.98221
428.0 0.002336 417.20874 438.06705
462.0 0.002165 416.58099 435.47586
466.0 0.002146 415.95441 433.15125
441.0 0.002268 415.32883 431.04727
452.0 0.002212 414.70432 429.12717
449.0 0.002227 414.08090 427.36249
466.0 0.002146 413.45865 425.72922
413.0 0.002421 412.83740 424.20828
412.0 0.002427 412.21732 422.78452
392.0 0.002551 411.59830 421.44376
392.0 0.002551 410.98038 420.17596
377.0 0.002653 410.36374 418.97156
405.0 0.002469 409.74805 417.82281
411.0 0.002433 409.13382 416.72385
408.0 0.002451 408.52069 415.66800
414.0 0.002415 407.90866 414.65125
379.0 0.002639 407.29767 413.66898
397.0 0.002519 406.68811 412.72067
405.0 0.002469 406.07965 411.79779
385.0 0.002597 405.47260 410.89993
355.0 0.002817 404.86673 410.02530
384.0 0.002604 404.26205 409.17230
409.0 0.002445 403.65869 408.33722
371.0 0.002695 403.05667 407.51984
393.0 0.002545 402.45584 406.72620
384.0 0.002604 401.85648 405.93976
402.0 0.002488 401.25830 405.16638
402.0 0.002488 400.66159 404.40576
412.0 0.002427 400.06607 403.65982
376.0 0.002660 399.47202 402.92172
368.0 0.002717 398.87936 402.19366
414.0 0.002415 398.28802 399.28159
383.0 0.002611 397.69821 398.65372
381.0 0.002625 397.10974 398.02975
380.0 0.002632 396.52280 397.40933
401.0 0.002494 395.93732 395.96445
362.0 0.002762 395.35327 395.38174
340.0 0.002941 394.77054 394.80057
380.0 0.002632 394.18973 394.22137
374.0 0.002674 393.61005 393.64359
404.0 0.002475 393.03214 393.06744
392.0 0.002551 392.45560 392.49316
402.0 0.002488 391.88068 391.92050
404.0 0.002475 391.30750 391.34995
360.0 0.002778 390.73572 390.78094
369.0 0.002710 390.16571 390.21408
399.0 0.002506 389.59714 389.64911
366.0 0.002732 389.03021 389.08618
378.0 0.002646 388.46515 388.52536
363.0 0.002755 387.90158 387.96686
359.0 0.002786 387.33978 387.41064
385.0 0.002597 386.77972 386.85712
374.0 0.002674 386.22122 386.30585
378.0 0.002646 385.66461 385.75797
390.0 0.002564 385.10962 385.21280
410.0 0.002439 384.55673 384.67151
410.0 0.002439 384.00531 384.13400
365.0 0.002740 383.45572 383.60141
363.0 0.002755 382.90814 383.07455
390.0 0.002564 382.36218 382.55646
390.0 0.002564 381.81830 382.05344
351.0 0.002849 381.27597 381.58054
342.0 0.002924 380.73590 381.16946
379.0 0.002639 380.19748 380.87350
378.0 0.002646 379.66113 380.76151
444.0 0.002252 379.12659 380.88489
355.0 0.002817 378.59415 381.22723
389.0 0.002571 378.06351 381.66245
392.0 0.002551 377.53497 381.98126
367.0 0.002725 377.00839 382.02548
373.0 0.002681 376.48386 381.90512
419.0 0.002387 375.96149 383.01022
364.0 0.002747 375.44073 383.70831
378.0 0.002646 374.92258 385.13629
406.0 0.002463 374.40610 386.72858
394.0 0.002538 373.89200 388.06482
405.0 0.002469 373.37979 387.91223
377.0 0.002653 372.86981 386.61432
380.0 0.002632 372.36215 384.65631
396.0 0.002525 371.85641 382.51944
386.0 0.002591 371.35306 380.43201
381.0 0.002625 370.85168 378.40982
378.0 0.002646 370.35251 376.55331
349.0 0.002865 369.85577 374.99048
370.0 0.002703 369.36108 373.77585
368.0 0.002717 368.86896 372.88712
374.0 0.002674 368.37866 372.24835
387.0 0.002584 367.89090 371.77292
383.0 0.002611 367.40546 371.39359
356.0 0.002809 366.92224 371.07092
372.0 0.002688 366.44156 370.78726
392.0 0.002551 365.96292 370.53635
400.0 0.002500 365.48679 370.31738
372.0 0.002688 365.01312 370.13193
381.0 0.002625 364.54175 369.98291
346.0 0.002890 364.07269 369.87384
375.0 0.002667 363.60632 369.80975
356.0 0.002809 363.14197 369.79617
361.0 0.002770 362.68036 369.84009
369.0 0.002710 362.22119 369.95032
394.0 0.002538 361.76443 370.13712
359.0 0.002786 361.31018 370.41382
426.0 0.002347 360.85840 370.79599
371.0 0.002695 360.40921 371.30356
399.0 0.002506 359.96243 371.96173
397.0 0.002519 359.51834 372.80173
442.0 0.002262 359.07654 373.86493
396.0 0.002525 358.63757 375.20425
406.0 0.002463 358.20105 376.88907
402.0 0.002488 357.76697 379.01550
433.0 0.002309 357.33582 381.71704
375.0 0.002667 356.90698 385.20889
425.0 0.002353 356.48068 389.90155
397.0 0.002519 356.05725 398.23267
451.0 0.002217 355.63641 409.67480
449.0 0.002227 355.21835 431.24631
499.0 0.002004 354.80264 474.36948
598.0 0.001672 354.38974 558.59717
780.0 0.001282 353.97946 706.64911
976.0 0.001025 353.57190 936.95898
1295.0 0.000772 353.16714 1243.62256
1571.0 0.000637 352.76492 1581.98730
1784.0 0.000561 352.36551 1869.75378
1866.0 0.000536 351.96875 2022.63110
1967.0 0.000508 351.57477 2017.59448
1825.0 0.000548 351.18350 1897.78284
1740.0 0.000575 350.79498 1711.46448
1383.0 0.000723 350.40918 1488.83459
1201.0 0.000833 350.02612 1252.77930
1034.0 0.000967 349.64594 1027.77246
805.0 0.001242 349.26849 832.44159
678.0 0.001475 348.89383 676.14972
564.0 0.001773 348.52176 561.84985
567.0 0.001764 348.15271 485.47226
446.0 0.002242 347.78625 438.25229
417.0 0.002398 347.42276 410.75577
434.0 0.002304 347.06201 395.18637
409.0 0.002445 346.70401 386.19830
420.0 0.002381 346.34900 380.62988
367.0 0.002725 345.99658 376.84439
396.0 0.002525 345.64713 374.08173
367.0 0.002725 345.30042 371.99835
405.0 0.002469 344.95648 370.43320
351.0 0.002849 344.61551 369.30066
394.0 0.002538 344.27731 368.55179
361.0 0.002770 343.94180 368.16113
360.0 0.002778 343.60925 368.12186
407.0 0.002457 343.27957 368.44397
363.0 0.002755 342.95276 369.15570
371.0 0.002695 342.62866 370.30499
347.0 0.002882 342.30753 371.96609
403.0 0.002481 341.98917 374.24817
399.0 0.002506 341.67343 377.31650
386.0 0.002591 341.36075 381.44836
412.0 0.002427 341.05084 387.21381
391.0 0.002558 340.74390 395.97882
398.0 0.002513 340.43958 411.18396
442.0 0.002262 340.13818 440.80276
483.0 0.002070 339.83969 500.66046
567.0 0.001764 339.54391 616.10999
785.0 0.001274 339.25095 816.65015
1193.0 0.000838 338.96094 1119.82556
1498.0 0.000668 338.67355 1507.06958
1901.0 0.000526 338.38919 1906.30652
2120.0 0.000472 338.10739 2201.22412
2229.0 0.000449 337.82852 2287.84961
2131.0 0.000469 337.55240 2165.54639
2020.0 0.000495 337.27905 1932.71484
1686.0 0.000593 337.00861 1677.28992
1284.0 0.000779 336.74075 1426.01086
1168.0 0.000856 336.47592 1176.69531
918.0 0.001089 336.21359 941.44476
785.0 0.001274 335.95410 742.52496
554.0 0.001805 335.69760 593.14282
452.0 0.002212 335.44363 492.52029
424.0 0.002358 335.19250 433.16098
393.0 0.002545 334.94388 400.40250
383.0 0.002611 334.69812 382.76022
391.0 0.002558 334.45517 372.37564
384.0 0.002604 334.21469 365.89563
367.0 0.002725 333.97711 361.14951
382.0 0.002618 333.74210 357.27802
390.0 0.002564 333.50977 354.19901
384.0 0.002604 333.28015 351.61594
350.0 0.002857 333.05310 349.41724
360.0 0.002778 332.82880 347.52441
351.0 0.002849 332.60703 345.88889
400.0 0.002500 332.38800 344.44333
325.0 0.003077 332.17151 343.16528
361.0 0.002770 331.95749 342.02359
337.0 0.002967 331.74628 341.00211
354.0 0.002825 331.53735 340.07434
350.0 0.002857 331.33115 339.23056
319.0 0.003135 331.12741 338.45932
325.0 0.003077 330.92624 337.74966
317.0 0.003155 330.72763 337.09415
339.0 0.002950 330.53149 336.48611
355.0 0.002817 330.33771 335.91977
353.0 0.002833 330.14664 335.39026
348.0 0.002874 329.95792 334.89349
319.0 0.003135 329.77142 334.42636
336.0 0.002976 329.58755 333.98511
304.0 0.003289 329.40594 333.56769
372.0 0.002688 329.22684 333.17191
352.0 0.002841 329.04999 332.79523
345.0 0.002899 328.87573 332.43686
305.0 0.003279 328.70358 332.09436
331.0 0.003021 328.53375 331.76694
335.0 0.002985 328.36624 331.45343
311.0 0.003215 328.20105 331.17474
335.0 0.002985 328.03812 330.88693
354.0 0.002825 327.87735 330.61011
322.0 0.003106 327.71893 330.34393
321.0 0.003115 327.56253 330.09579
304.0 0.003289 327.40842 329.84930
336.0 0.002976 327.25650 329.61176
306.0 0.003268 327.10660 327.90466
321.0 0.003115 326.95889 327.73962
326.0 0.003067 326.81326 327.57965
311.0 0.003215 326.66977 327.42493
324.0 0.003086 326.52829 327.27579
302.0 0.003311 326.38882 326.58469
313.0 0.003195 326.25137 326.57269
339.0 0.002950 326.11591 326.46548
315.0 0.003175 325.98245 326.36514
289.0 0.003460 325.85092 326.27298
305.0 0.003279 325.72128 326.19165
311.0 0.003215 325.59363 326.16605
301.0 0.003322 325.46780 326.12857
293.0 0.003413 325.34372 326.14557
298.0 0.003356 325.22156 326.27884
308.0 0.003247 325.10129 326.64771
328.0 0.003049 324.98260 327.43686
314.0 0.003185 324.86584 328.85651
303.0 0.003300 324.75070 331.03076
329.0 0.003040 324.63739 333.83374
351.0 0.002849 324.52560 336.77130
374.0 0.002674 324.41550 339.03094
332.0 0.003012 324.30719 339.86774
334.0 0.002994 324.20029 339.20480
345.0 0.002899 324.09515 337.64209
339.0 0.002950 323.99139 335.77109
336.0 0.002976 323.88928 333.84851
313.0 0.003195 323.78867 331.90869
357.0 0.002801 323.68939 330.02551
326.0 0.003067 323.59174 328.35004
345.0 0.002899 323.49551 326.99731
315.0 0.003175 323.40057 326.01666
352.0 0.002841 323.30713 325.38300
307.0 0.003257 323.21494 325.02383
341.0 0.002933 323.12408 324.86353
345.0 0.002899 323.03448 324.85962
326.0 0.003067 322.94614 325.03177
345.0 0.002899 322.85925 325.49371
343.0 0.002915 322.77328 326.48517
305.0 0.003279 322.68860 328.35901
312.0 0.003205 322.60504 331.47006
330.0 0.003030 322.52264 335.92596
307.0 0.003257 322.44138 341.29605
325.0 0.003077 322.36121 346.46338
291.0 0.003436 322.28207 349.86853
318.0 0.003145 322.20383 350.42007
358.0 0.002793 322.12674 348.53156
343.0 0.002915 322.05042 345.65768
330.0 0.003030 321.97519 342.89063
350.0 0.002857 321.90091 340.60562
319.0 0.003135 321.82739 339.06827
327.0 0.003058 321.75467 339.21173
350.0 0.002857 321.68292 342.72299
365.0 0.002740 321.61182 351.59772
377.0 0.002653 321.54150 367.29990
387.0 0.002584 321.47198 390.05841
394.0 0.002538 321.40317 415.42551
410.0 0.002439 321.33499 437.41968
462.0 0.002165 321.26749 448.57440
425.0 0.002353 321.20062 445.62952
471.0 0.002123 321.13434 433.07053
402.0 0.002488 321.06857 417.27075
393.0 0.002545 321.00339 401.97293
365.0 0.002740 320.93869 387.18079
383.0 0.002611 320.87454 372.33099
376.0 0.002660 320.81082 358.31790
391.0 0.002558 320.74741 346.51456
363.0 0.002755 320.68457 337.67633
338.0 0.002959 320.62195 331.78442
318.0 0.003145 320.55969 328.25626
280.0 0.00357 320.49777 326.29984
287.0 0.003484 320.43613 325.23816
292.0 0.003425 320.37476 324.63171
311.0 0.003215 320.31366 324.23694
343.0 0.002915 320.25278 323.97183
345.0 0.002899 320.19205 323.78015
312.0 0.003205 320.13135 323.64102
295.0 0.003390 320.07086 323.54773
329.0 0.003040 320.01050 323.73285
345.0 0.002899 319.95016 323.72305
319.0 0.003135 319.88992 323.74655
337.0 0.002967 319.82950 323.80429
335.0 0.002985 319.76926 323.89618
317.0 0.003155 319.70889 324.11685
308.0 0.003247 319.64844 324.28748
332.0 0.003012 319.58798 324.50122
319.0 0.003135 319.52737 324.76395
331.0 0.003021 319.46664 325.08289
318.0 0.003145 319.40558 325.46735
358.0 0.002793 319.34445 326.04608
357.0 0.002801 319.28308 326.60593
331.0 0.003021 319.22137 328.19669
327.0 0.003058 319.15958 329.04218
320.0 0.003125 319.09735 330.06723
350.0 0.002857 319.03482 331.36719
314.0 0.003185 318.97202 332.93307
354.0 0.002825 318.90863 335.27631
326.0 0.003067 318.84497 338.06812
388.0 0.002577 318.78085 342.37378
349.0 0.002865 318.71646 349.95288
360.0 0.002778 318.65128 364.47427
372.0 0.002688 318.58591 392.33746
451.0 0.002217 318.51987 442.31168
549.0 0.001821 318.45334 522.45520
645.0 0.001550 318.38614 634.14386
771.0 0.001297 318.31845 765.49475
890.0 0.001124 318.25021 888.26056
978.0 0.001022 318.18121 964.44330
952.0 0.001050 318.11157 969.14838
1012.0 0.000988 318.04126 914.69879
935.0 0.001070 317.97028 836.30609
749.0 0.001335 317.89865 758.70972
661.0 0.001513 317.82623 685.94794
589.0 0.001698 317.75302 613.00482
572.0 0.001748 317.67905 540.72845
534.0 0.001873 317.60419 476.28235
467.0 0.002141 317.52866 425.01657
364.0 0.002747 317.45224 388.96030
327.0 0.003058 317.37491 366.50626
382.0 0.002618 317.29663 354.09418
377.0 0.002653 317.21762 348.14166
330.0 0.003030 317.13770 346.08871
348.0 0.002874 317.05673 347.14548
339.0 0.002950 316.97479 352.14197
367.0 0.002725 316.89203 363.72244
393.0 0.002545 316.80811 385.04514
455.0 0.002198 316.72324 419.50485
509.0 0.001965 316.63736 467.30496
515.0 0.001942 316.55042 522.93823
539.0 0.001855 316.46249 574.13763
617.0 0.001621 316.37338 604.74658
620.0 0.001613 316.28320 605.08240
619.0 0.001616 316.19202 581.29242
527.0 0.001898 316.09976 548.44574
513.0 0.001949 316.00620 516.57916
483.0 0.002070 315.91147 487.09518
454.0 0.002203 315.81570 457.66071
434.0 0.002304 315.71884 428.56613
431.0 0.002320 315.62061 402.78784
413.0 0.002421 315.52127 382.85291
355.0 0.002817 315.42068 369.71350
373.0 0.002681 315.31888 362.88971
364.0 0.002747 315.21582 361.13489
399.0 0.002506 315.11163 363.32932
412.0 0.002427 315.00604 369.29730
425.0 0.002353 314.89920 380.61929
416.0 0.002404 314.79114 401.79828
434.0 0.002304 314.68173 441.85748
522.0 0.001916 314.57108 515.56207
594.0 0.001684 314.45898 642.09674
884.0 0.001131 314.34573 838.66284
1143.0 0.000875 314.23102 1108.04761
1502.0 0.000666 314.11502 1424.58057
1736.0 0.000576 313.99765 1729.00024
1788.0 0.000559 313.87894 1940.64941
1914.0 0.000522 313.75879 1993.07813
1985.0 0.000504 313.63739 1887.82068
1854.0 0.000539 313.51468 1697.92810
1612.0 0.000620 313.39053 1495.28040
1202.0 0.000832 313.26492 1306.50830
979.0 0.001021 313.13794 1125.35962
939.0 0.001065 313.00952 943.77722
832.0 0.001202 312.87973 772.77899
694.0 0.001441 312.74860 628.91559
508.0 0.001969 312.61603 520.38452
424.0 0.002358 312.48190 447.55276
397.0 0.002519 312.34653 403.47263
396.0 0.002525 312.20966 378.86444
330.0 0.003030 312.07141 365.85971
387.0 0.002584 311.93167 359.50110
357.0 0.002801 311.79047 357.49429
367.0 0.002725 311.64786 360.06262
399.0 0.002506 311.50388 369.05353
397.0 0.002519 311.35846 387.16763
433.0 0.002309 311.21155 416.41434
520.0 0.001923 311.06320 455.96448
469.0 0.002132 310.91345 500.24179
529.0 0.001890 310.76224 538.64294
582.0 0.001718 310.60959 559.27423
576.0 0.001736 310.45547 558.09369
555.0 0.001802 310.30002 544.89874
581.0 0.001721 310.14313 535.25610
537.0 0.001862 309.98480 539.78870
565.0 0.001770 309.82501 561.77881
627.0 0.001595 309.66382 596.99072
618.0 0.001618 309.50131 636.85736
652.0 0.001534 309.33719 667.66241
601.0 0.001664 309.17163 673.75061
630.0 0.001587 309.00485 650.20911
681.0 0.001468 308.83658 608.67230
556.0 0.001799 308.66708 564.88257
500.0 0.002000 308.49606 526.17139
454.0 0.002203 308.32358 491.11124
454.0 0.002203 308.14990 455.76080
463.0 0.002160 307.97458 421.31580
416.0 0.002404 307.79813 389.99612
362.0 0.002762 307.62018 364.97076
325.0 0.003077 307.44092 347.13702
335.0 0.002985 307.26044 335.62253
328.0 0.003049 307.07840 328.78641
344.0 0.002907 306.89536 325.09344
321.0 0.003115 306.71069 322.80289
328.0 0.003049 306.52484 321.35028
327.0 0.003058 306.33774 320.34586
369.0 0.002710 306.14917 319.61612
328.0 0.003049 305.95956 319.08752
304.0 0.003289 305.76871 318.72873
333.0 0.003003 305.57632 318.52728
313.0 0.003195 305.38275 318.48160
306.0 0.003268 305.18823 318.59891
310.0 0.003226 304.99225 318.89587
353.0 0.002833 304.79517 319.40295
346.0 0.002890 304.59671 320.17380
320.0 0.003125 304.39728 321.31595
304.0 0.003289 304.19647 323.06787
362.0 0.002762 303.99475 325.85367
322.0 0.003106 303.79172 331.07294
350.0 0.002857 303.58749 340.77658
368.0 0.002717 303.38239 357.50119
400.0 0.002500 303.17596 387.52759
449.0 0.002227 302.96854 433.95264
541.0 0.001848 302.76001 498.39435
626.0 0.001597 302.55060 577.05792
684.0 0.001462 302.33984 658.77667
755.0 0.001325 302.12823 728.63153
779.0 0.001284 301.91565 773.90765
804.0 0.001244 301.70200 789.35278
760.0 0.001316 301.48743 773.25110
743.0 0.001346 301.27179 730.74341
664.0 0.001506 301.05533 674.48822
595.0 0.001681 300.83795 615.79150
533.0 0.001876 300.61960 560.53546
520.0 0.001923 300.40039 509.35147
448.0 0.002232 300.18033 461.55222
459.0 0.002179 299.95935 419.09311
387.0 0.002584 299.73758 384.61795
348.0 0.002874 299.51501 359.16745
338.0 0.002959 299.29153 342.11343
296.0 0.003378 299.06741 331.74078
339.0 0.002950 298.84253 325.99841
298.0 0.003356 298.61682 323.11829
306.0 0.003268 298.39041 321.76550
313.0 0.003195 298.16336 321.56940
299.0 0.003344 297.93558 322.10339
342.0 0.002924 297.70721 323.31546
322.0 0.003106 297.47812 325.32925
333.0 0.003003 297.24841 328.46594
335.0 0.002985 297.01819 333.71298
349.0 0.002865 296.78726 342.91766
361.0 0.002770 296.55591 359.79132
378.0 0.002646 296.32401 390.47742
458.0 0.002183 296.09152 444.54416
616.0 0.001623 295.85861 532.11731
659.0 0.001517 295.62512 660.35883
879.0 0.001138 295.39130 826.31036
1070.0 0.000935 295.15701 1010.68829
1155.0 0.000866 294.92242 1178.50793
1230.0 0.000813 294.68729 1287.73584
1279.0 0.000782 294.45190 1306.62012
1289.0 0.000776 294.21613 1239.17505
1260.0 0.000794 293.98010 1126.12292
1065.0 0.000939 293.74374 1007.26294
868.0 0.001152 293.50714 898.83948
734.0 0.001362 293.27014 797.08978
663.0 0.001508 293.03317 694.55865
627.0 0.001595 292.79587 594.30408
527.0 0.001898 292.55838 505.70135
377.0 0.002653 292.32086 435.51730
360.0 0.002778 292.08307 385.50385
327.0 0.003058 291.84528 353.19962
292.0 0.003425 291.60736 333.87573
309.0 0.003236 291.36945 322.71249
305.0 0.003279 291.13144 316.08517
331.0 0.003021 290.89331 311.78833
305.0 0.003279 290.65536 308.68369
294.0 0.003401 290.41742 306.24039
276.0 0.00362 290.17957 304.21811
338.0 0.002959 289.94171 302.49728
301.0 0.003322 289.70398 301.00803
266.0 0.00376 289.46649 299.70316
280.0 0.00357 289.22910 298.54703
286.0 0.003497 288.99179 297.61224
277.0 0.00361 288.75473 296.68256
295.0 0.003390 288.51801 295.87323
283.0 0.00353 288.28152 295.10236
302.0 0.003311 288.04535 294.39108
300.0 0.003333 287.80939 293.73169
301.0 0.003322 287.57364 292.99963
302.0 0.003311 287.33847 292.43018
272.0 0.00368 287.10352 291.90887
280.0 0.00357 286.86911 291.21594
270.0 0.00370 286.63495 290.74240
253.0 0.00395 286.40134 290.23251
281.0 0.00356 286.16809 289.80432
310.0 0.003226 285.93549 289.39432
285.0 0.00351 285.70340 288.92950
290.0 0.003448 285.47174 288.58313
309.0 0.003236 285.24069 288.22125
293.0 0.003413 285.01025 287.87161
301.0 0.003322 284.78043 287.53333
303.0 0.003300 284.55130 287.20572
317.0 0.003155 284.32266 286.88773
265.0 0.00377 284.09464 286.59048
300.0 0.003333 283.86746 286.29279
290.0 0.003448 283.64111 286.00125
301.0 0.003322 283.41544 285.71768
288.0 0.003472 283.19052 285.44147
304.0 0.003289 282.96637 285.17267
283.0 0.00353 282.74295 284.91104
289.0 0.003460 282.52048 284.65732
254.0 0.00394 282.29907 284.40985
268.0 0.00373 282.07834 284.16934
298.0 0.003356 281.85834 283.93600
271.0 0.00369 281.63937 283.71011
248.0 0.00403 281.42151 283.49176
267.0 0.00375 281.20459 283.28131
292.0 0.003425 280.98856 283.07925
239.0 0.00418 280.77356 282.88620
269.0 0.00372 280.55957 282.57535
284.0 0.00352 280.34668 282.40640
325.0 0.003077 280.13504 282.24884
276.0 0.00362 279.92422 281.53448
282.0 0.00355 279.71460 281.42154
275.0 0.00364 279.50616 281.32413
269.0 0.00372 279.29883 281.19760
290.0 0.003448 279.09277 281.14096
267.0 0.00375 278.88782 280.89215
296.0 0.003378 278.68414 280.89761
288.0 0.003472 278.48166 280.93964
270.0 0.00370 278.28046 281.02612
289.0 0.003460 278.08047 281.16861
287.0 0.003484 277.88177 281.38300
273.0 0.00366 277.68454 281.69437
318.0 0.003145 277.48846 282.14954
250.0 0.00400 277.29385 282.85025
258.0 0.00388 277.10049 284.02972
310.0 0.003226 276.90854 286.19080
309.0 0.003236 276.71796 290.29367
311.0 0.003215 276.52890 297.88052
303.0 0.003300 276.34128 310.91022
320.0 0.003125 276.15509 331.09286
350.0 0.002857 275.97028 358.74911
363.0 0.002755 275.78705 391.56802
450.0 0.002222 275.60526 423.82870
430.0 0.002326 275.42505 447.17343
458.0 0.002183 275.24628 455.47128
441.0 0.002268 275.06912 449.69937
468.0 0.002137 274.89352 435.00552
460.0 0.002174 274.71942 416.71332
417.0 0.002398 274.54691 398.35077
390.0 0.002564 274.37616 380.44824
359.0 0.002786 274.20682 363.18921
341.0 0.002933 274.03928 346.19373
346.0 0.002890 273.87329 331.11249
291.0 0.003436 273.70908 319.49954
328.0 0.003049 273.54626 312.67682
292.0 0.003425 273.38541 310.91690
290.0 0.003448 273.22614 313.39871
335.0 0.002985 273.06848 317.55487
285.0 0.00351 272.91272 320.65298
267.0 0.00375 272.75861 320.33331
299.0 0.003344 272.60626 316.63620
294.0 0.003401 272.45566 311.53714
307.0 0.003257 272.30676 306.80841
311.0 0.003215 272.15967 303.00235
316.0 0.003165 272.01428 299.55215
283.0 0.00353 271.87097 295.67694
265.0 0.00377 271.72906 291.32101
262.0 0.00382 271.58920 287.01175
297.0 0.003367 271.45105 283.28937
313.0 0.003195 271.31482 280.43057
325.0 0.003077 271.18042 278.42078
264.0 0.00379 271.04770 277.05023
244.0 0.00410 270.91684 276.08197
267.0 0.00375 270.78806 275.36011
250.0 0.00400 270.66107 274.80356
254.0 0.00394 270.53595 274.37280
304.0 0.003289 270.41248 274.04584
276.0 0.00362 270.29120 273.80380
271.0 0.00369 270.17163 273.62759
319.0 0.003135 270.05402 273.50064
326.0 0.003067 269.93823 273.41116
269.0 0.00372 269.82419 273.35199
275.0 0.00364 269.71231 273.31979
270.0 0.00370 269.60229 273.31354
288.0 0.003472 269.49423 273.33337
281.0 0.00356 269.38803 273.38037
258.0 0.00388 269.28369 273.45651
259.0 0.00386 269.18130 273.56430
251.0 0.00398 269.08075 273.70688
274.0 0.00365 268.98227 273.88840
276.0 0.00362 268.88568 274.11423
280.0 0.00357 268.79105 274.39072
231.0 0.00433 268.69818 274.72565
270.0 0.00370 268.60736 275.12918
257.0 0.00389 268.51846 275.61374
258.0 0.00388 268.43140 276.19516
288.0 0.003472 268.34644 276.89389
275.0 0.00364 268.26328 277.73578
300.0 0.003333 268.18210 278.75507
306.0 0.003268 268.10281 279.99789
312.0 0.003205 268.02545 281.53238
296.0 0.003378 267.95001 283.46854
284.0 0.00352 267.87653 286.02328
282.0 0.00355 267.80490 289.67801
273.0 0.00366 267.73520 295.52744
314.0 0.003185 267.66727 305.88541
269.0 0.00372 267.60144 324.92767
346.0 0.002890 267.53760 359.43900
390.0 0.002564 267.47537 417.14001
494.0 0.002024 267.41528 503.83423
626.0 0.001597 267.35696 618.47595
707.0 0.001414 267.30054 748.13855
761.0 0.001314 267.24600 866.14478
826.0 0.001211 267.19330 936.62573
902.0 0.001109 267.14252 936.20013
923.0 0.001083 267.09366 878.62994
920.0 0.001087 267.04642 799.66779
800.0 0.001250 267.00131 726.57562
660.0 0.001515 266.95789 666.89600
569.0 0.001757 266.91626 612.37378
522.0 0.001916 266.87653 553.08252
495.0 0.002020 266.83856 489.77527
466.0 0.002146 266.80252 429.80881
416.0 0.002404 266.76804 379.40933
343.0 0.002915 266.73553 341.52155
290.0 0.003448 266.70474 315.87991
297.0 0.003367 266.67587 299.99893
301.0 0.003322 266.64856 290.69904
309.0 0.003236 266.62311 285.28323
281.0 0.00356 266.59930 282.19302
289.0 0.003460 266.57733 279.93674
279.0 0.00358 266.55701 278.25757
285.0 0.00351 266.53839 276.92624
283.0 0.00353 266.52164 275.83365
290.0 0.003448 266.50635 274.91922
292.0 0.003425 266.49280 274.23978
269.0 0.00372 266.48099 273.58459
283.0 0.00353 266.47073 273.02362
277.0 0.00361 266.46207 272.54114
275.0 0.00364 266.45511 272.12473
284.0 0.00352 266.44965 271.76431
273.0 0.00366 266.44586 271.46857
294.0 0.003401 266.44373 271.19879
267.0 0.00375 266.44308 270.96579
278.0 0.00360 266.44403 270.76688
274.0 0.00365 266.44644 270.59525
273.0 0.00366 266.45038 270.46671
265.0 0.00377 266.45596 270.35239
281.0 0.00356 266.46292 270.25397
273.0 0.00366 266.47141 270.17648
273.0 0.00366 266.48138 270.11932
266.0 0.00376 266.49271 270.08054
286.0 0.003497 266.50543 270.06659
248.0 0.00403 266.51968 270.06500
251.0 0.00398 266.53528 270.08200
278.0 0.00360 266.55225 270.11816
256.0 0.00391 266.57059 270.17426
266.0 0.00376 266.59036 270.25165
285.0 0.00351 266.61139 270.35193
280.0 0.00357 266.63370 270.47791
291.0 0.003436 266.65735 270.63269
262.0 0.00382 266.68231 270.82144
306.0 0.003268 266.70853 271.05212
271.0 0.00369 266.73596 271.33920
267.0 0.00375 266.76453 271.71228
288.0 0.003472 266.79443 272.99976
274.0 0.00365 266.82538 273.79349
326.0 0.003067 266.85757 275.00751
283.0 0.00353 266.89096 276.85767
263.0 0.00380 266.92545 279.55243
296.0 0.003378 266.96109 283.20325
278.0 0.00360 266.99783 287.83051
274.0 0.00365 267.03555 293.28189
296.0 0.003378 267.07437 298.93491
285.0 0.00351 267.11429 305.08752
335.0 0.002985 267.15515 312.75186
338.0 0.002959 267.19702 322.63593
325.0 0.003077 267.23981 336.27072
317.0 0.003155 267.28372 351.74673
330.0 0.003030 267.32828 365.79333
347.0 0.002882 267.37399 374.40549
373.0 0.002681 267.42053 376.16055
352.0 0.002841 267.46793 373.66135
379.0 0.002639 267.51617 371.47116
309.0 0.003236 267.56522 372.11050
322.0 0.003106 267.61514 376.97937
401.0 0.002494 267.66583 387.85507
442.0 0.002262 267.71735 407.95905
473.0 0.002114 267.76953 440.31540
558.0 0.001792 267.82248 484.30103
563.0 0.001776 267.87601 533.13007
602.0 0.001661 267.93045 573.60748
576.0 0.001736 267.98547 590.39795
648.0 0.001543 268.04105 577.50531
655.0 0.001527 268.09723 544.81042
581.0 0.001721 268.15414 507.68753
496.0 0.002016 268.21161 476.15317
468.0 0.002137 268.26965 451.60156
433.0 0.002309 268.32819 429.73575
416.0 0.002404 268.38715 406.30212
423.0 0.002364 268.44669 381.90320
432.0 0.002315 268.50681 359.79718
367.0 0.002725 268.56717 342.63647
347.0 0.002882 268.62814 331.24374
334.0 0.002994 268.68936 324.86908
342.0 0.002924 268.75104 321.76767
349.0 0.002865 268.81314 320.52957
325.0 0.003077 268.87558 320.45770
354.0 0.002825 268.93829 320.89435
356.0 0.002809 269.00119 320.86377
349.0 0.002865 269.06458 319.47275
344.0 0.002907 269.12823 316.68887
300.0 0.003333 269.19196 313.35315
349.0 0.002865 269.25604 310.44464
346.0 0.002890 269.32022 308.51355
337.0 0.002967 269.38467 307.60867
325.0 0.003077 269.44928 307.60510
318.0 0.003145 269.51392 308.71222
297.0 0.003367 269.57874 311.74661
329.0 0.003040 269.64355 318.38889
347.0 0.002882 269.70853 331.84332
374.0 0.002674 269.77350 357.67862
367.0 0.002725 269.83871 404.14957
423.0 0.002364 269.90359 480.85669
573.0 0.001745 269.96863 594.96527
854.0 0.001171 270.03366 745.40045
942.0 0.001062 270.09860 917.13342
1071.0 0.000934 270.16345 1078.35498
1134.0 0.000882 270.22830 1184.71179
1209.0 0.000827 270.29288 1202.24146
1393.0 0.000718 270.35751 1139.07056
1419.0 0.000705 270.42188 1038.49438
1210.0 0.000826 270.48611 941.58655
933.0 0.001072 270.55014 866.92212
791.0 0.001264 270.61386 809.64325
736.0 0.001359 270.67749 753.26947
785.0 0.001274 270.74088 687.73456
722.0 0.001385 270.80386 615.71112
612.0 0.001634 270.86670 543.84851
526.0 0.001901 270.92926 478.78638
426.0 0.002347 270.99142 426.01297
397.0 0.002519 271.05322 387.84756
365.0 0.002740 271.11462 362.58038
334.0 0.002994 271.17572 346.29309
332.0 0.003012 271.23648 334.77847
313.0 0.003195 271.29669 325.05078
321.0 0.003115 271.35651 316.21796
293.0 0.003413 271.41586 308.53265
304.0 0.003289 271.47485 302.38434
268.0 0.00373 271.53323 298.08661
302.0 0.003311 271.59125 295.86752
320.0 0.003125 271.64862 296.14450
277.0 0.00361 271.70554 299.31693
265.0 0.00377 271.76190 306.61880
269.0 0.00372 271.81772 319.31039
305.0 0.003279 271.87283 337.88251
385.0 0.002597 271.92737 362.02658
392.0 0.002551 271.98148 388.39822
398.0 0.002513 272.03485 411.37250
395.0 0.002532 272.08759 423.77341
444.0 0.002252 272.13965 421.70837
403.0 0.002481 272.19104 408.44833
413.0 0.002421 272.24173 391.40955
389.0 0.002571 272.29178 375.97809
391.0 0.002558 272.34109 363.91803
314.0 0.003185 272.38962 353.70377
331.0 0.003021 272.43747 342.76593
337.0 0.002967 272.48447 330.36777
332.0 0.003012 272.53067 317.71976
339.0 0.002950 272.57623 306.35629
289.0 0.003460 272.62094 297.21780
264.0 0.00379 272.66495 290.60101
282.0 0.00355 272.70807 286.22418
307.0 0.003257 272.75034 283.56323
288.0 0.003472 272.79169 282.00638
260.0 0.00385 272.83231 281.10950
270.0 0.00370 272.87201 280.57620
263.0 0.00380 272.91089 280.25058
249.0 0.00402 272.94879 280.04913
313.0 0.003195 272.98590 279.95053
254.0 0.00394 273.02200 279.93436
273.0 0.00366 273.05719 279.99579
280.0 0.00357 273.09161 280.13544
255.0 0.00392 273.12485 280.35864
278.0 0.00360 273.15720 280.67606
281.0 0.00356 273.18869 281.10550
324.0 0.003086 273.21921 281.68195
271.0 0.00369 273.24872 282.47595
271.0 0.00369 273.27722 283.64041
258.0 0.00388 273.30481 285.50131
283.0 0.00353 273.33139 288.69287
284.0 0.00352 273.35693 294.09195
314.0 0.003185 273.38156 303.09497
299.0 0.003344 273.40503 318.37537
339.0 0.002950 273.42755 340.60254
354.0 0.002825 273.44907 369.61197
394.0 0.002538 273.46948 402.93320
419.0 0.002387 273.48889 435.22476
424.0 0.002358 273.50723 459.01089
446.0 0.002242 273.52460 469.13055
474.0 0.002110 273.54080 466.72101
453.0 0.002208 273.55597 457.47418
439.0 0.002278 273.57016 445.73792
418.0 0.002392 273.58316 432.41290
396.0 0.002525 273.59512 417.71524
352.0 0.002841 273.60602 401.79434
400.0 0.002500 273.61584 385.43619
362.0 0.002762 273.62466 371.49692
342.0 0.002924 273.63220 362.68311
331.0 0.003021 273.63885 360.80399
336.0 0.002976 273.64429 366.87503
392.0 0.002551 273.64862 380.99768
405.0 0.002469 273.65186 400.60437
410.0 0.002439 273.65411 420.53812
416.0 0.002404 273.65512 433.40509
413.0 0.002421 273.65521 433.26706
423.0 0.002364 273.65414 420.92093
406.0 0.002463 273.65186 402.88159
441.0 0.002268 273.64856 385.44632
385.0 0.002597 273.64423 371.62445
359.0 0.002786 273.63867 360.86017
347.0 0.002882 273.63205 350.45093
345.0 0.002899 273.62430 338.35104
308.0 0.003247 273.61560 325.30136
305.0 0.003279 273.60565 312.75305
307.0 0.003257 273.59467 302.00989
299.0 0.003344 273.58261 293.72855
255.0 0.00392 273.56949 287.92401
257.0 0.00389 273.55527 284.11859
280.0 0.00357 273.53989 281.80902
281.0 0.00356 273.52356 280.40161
281.0 0.00356 273.50610 279.50815
277.0 0.00361 273.48752 278.89508
309.0 0.003236 273.46783 278.43851
249.0 0.00402 273.44720 278.07785
289.0 0.003460 273.42551 277.78284
320.0 0.003125 273.40277 277.53796
250.0 0.00400 273.37885 277.33328
270.0 0.00370 273.35406 277.16278
270.0 0.00370 273.32813 277.02106
300.0 0.003333 273.30112 276.90457
269.0 0.00372 273.27316 276.81058
252.0 0.00397 273.24420 276.73700
283.0 0.00353 273.21411 276.68210
244.0 0.00410 273.18304 276.64487
249.0 0.00402 273.15109 276.62500
285.0 0.00351 273.11804 276.62180
273.0 0.00366 273.08408 276.63562
282.0 0.00355 273.04910 276.66656
290.0 0.003448 273.01303 276.71552
287.0 0.003484 272.97610 276.78363
288.0 0.003472 272.93826 276.87198
284.0 0.00352 272.89954 276.98300
269.0 0.00372 272.85980 277.11847
261.0 0.00383 272.81906 277.28162
268.0 0.00373 272.77744 277.47601
286.0 0.003497 272.73492 277.70642
296.0 0.003378 272.69147 277.97787
296.0 0.003378 272.64719 278.29742
259.0 0.00386 272.60193 278.67358
293.0 0.003413 272.55588 279.11728
280.0 0.00357 272.50894 279.49582
288.0 0.003472 272.46118 280.12283
268.0 0.00373 272.41257 280.87003
318.0 0.003145 272.36307 281.76865
275.0 0.00364 272.31290 282.81607
280.0 0.00357 272.26184 284.19217
285.0 0.00351 272.20981 285.99829
288.0 0.003472 272.15726 288.49362
270.0 0.00370 272.10370 292.61597
303.0 0.003300 272.04956 299.09506
302.0 0.003311 271.99466 310.08542
288.0 0.003472 271.93884 328.39178
354.0 0.002825 271.88251 357.39786
408.0 0.002451 271.82535 400.03198
443.0 0.002257 271.76755 457.31982
521.0 0.001919 271.70901 526.55640
559.0 0.001789 271.64987 599.44751
620.0 0.001613 271.58990 663.06702
651.0 0.001536 271.52939 705.52515
721.0 0.001387 271.46823 720.25952
709.0 0.001410 271.40646 707.33746
690.0 0.001449 271.34412 675.55829
600.0 0.001667 271.28116 638.62366
620.0 0.001613 271.21768 605.26898
532.0 0.001880 271.15350 576.28223
523.0 0.001912 271.08887 547.62811
452.0 0.002212 271.02368 514.71045
456.0 0.002193 270.95789 476.17130
476.0 0.002101 270.89172 435.63153
424.0 0.002358 270.82495 398.31305
369.0 0.002710 270.75775 367.56848
322.0 0.003106 270.69006 344.13885
296.0 0.003378 270.62183 326.87372
315.0 0.003175 270.55338 313.99796
329.0 0.003040 270.48438 304.16641
297.0 0.003367 270.41501 296.59659
281.0 0.00356 270.34518 290.80710
318.0 0.003145 270.27493 286.46921
298.0 0.003356 270.20450 283.30688
269.0 0.00372 270.13367 281.05127
322.0 0.003106 270.06232 279.44681
284.0 0.00352 269.99084 278.27863
273.0 0.00366 269.91904 277.39014
258.0 0.00388 269.84689 276.68115
268.0 0.00373 269.77454 276.09213
277.0 0.00361 269.70190 275.59012
277.0 0.00361 269.62894 275.15546
278.0 0.00360 269.55591 274.77634
248.0 0.00403 269.48254 274.44403
245.0 0.00408 269.40909 274.15234
234.0 0.00427 269.33548 273.89642
281.0 0.00356 269.26154 273.67282
292.0 0.003425 269.18759 273.47864
289.0 0.003460 269.11356 273.70932
264.0 0.00379 269.03928 273.57889
293.0 0.003413 268.96503 273.47369
259.0 0.00386 268.89059 273.39343
251.0 0.00398 268.81610 273.33856
250.0 0.00400 268.74149 273.30936
300.0 0.003333 268.66702 273.34088
292.0 0.003425 268.59238 273.51965
276.0 0.00362 268.51782 273.58310
280.0 0.00357 268.44318 273.68164
245.0 0.00408 268.36865 273.81979
265.0 0.00377 268.29419 274.00327
257.0 0.00389 268.21967 274.24051
272.0 0.00368 268.14536 274.55243
297.0 0.003367 268.07111 274.92682
247.0 0.00405 267.99692 275.39273
272.0 0.00368 267.92279 275.97406
294.0 0.003401 267.84882 276.70642
301.0 0.003322 267.77502 277.65421
270.0 0.00370 267.70151 278.94650
299.0 0.003344 267.62796 280.85443
272.0 0.00368 267.55475 283.93521
274.0 0.00365 267.48175 289.22913
305.0 0.003279 267.40894 298.44791
339.0 0.002950 267.33630 313.95572
383.0 0.002611 267.26395 338.31628
399.0 0.002506 267.19202 373.25040
440.0 0.002273 267.12018 418.17853
473.0 0.002114 267.04865 468.91449
505.0 0.001980 266.97745 516.90936
526.0 0.001901 266.90671 550.01648
554.0 0.001805 266.83612 557.77716
572.0 0.001748 266.76593 540.53705
579.0 0.001727 266.69608 509.58069
558.0 0.001792 266.62674 477.37625
466.0 0.002146 266.55774 451.18970
385.0 0.002597 266.48911 431.98724
439.0 0.002278 266.42090 415.75061
372.0 0.002688 266.35309 397.42343
385.0 0.002597 266.28580 375.58224
399.0 0.002506 266.21893 352.32471
383.0 0.002611 266.15250 330.79907
301.0 0.003322 266.08676 312.69794
291.0 0.003436 266.02121 299.20197
279.0 0.00358 265.95633 289.92212
292.0 0.003425 265.89194 284.01028
298.0 0.003356 265.82800 280.38809
279.0 0.00358 265.76480 278.26196
299.0 0.003344 265.70197 276.94919
308.0 0.003247 265.63986 276.07071
267.0 0.00375 265.57822 275.54471
277.0 0.00361 265.51727 275.21237
277.0 0.00361 265.45685 275.03018
280.0 0.00357 265.39703 274.97467
293.0 0.003413 265.33780 275.03998
301.0 0.003322 265.27924 275.21097
282.0 0.00355 265.22141 275.51440
256.0 0.00391 265.16415 275.94962
275.0 0.00364 265.10757 276.53357
298.0 0.003356 265.05164 277.28824
323.0 0.003096 264.99640 278.24536
275.0 0.00364 264.94180 279.45230
321.0 0.003115 264.88791 280.98386
289.0 0.003460 264.83484 282.98074
301.0 0.003322 264.78244 285.72675
283.0 0.00353 264.73080 289.81754
308.0 0.003247 264.67981 296.44421
278.0 0.00360 264.62961 307.76740
348.0 0.002874 264.58017 327.22049
350.0 0.002857 264.53146 359.36395
404.0 0.002475 264.48346 408.89093
507.0 0.001972 264.43631 478.58624
596.0 0.001678 264.39008 566.65338
632.0 0.001582 264.34439 664.46289
710.0 0.001408 264.29959 755.52661
703.0 0.001422 264.25568 816.78204
750.0 0.001333 264.21234 830.35956
822.0 0.001217 264.17007 799.30066
807.0 0.001239 264.12851 745.77222
747.0 0.001339 264.08783 692.32306
630.0 0.001587 264.04788 651.16010
528.0 0.001894 264.00882 622.12164
549.0 0.001821 263.97055 595.50568
541.0 0.001848 263.93323 560.72156
515.0 0.001942 263.89673 515.72571
484.0 0.002066 263.86099 466.54614
429.0 0.002331 263.82611 420.35367
391.0 0.002558 263.79218 381.72458
331.0 0.003021 263.75916 352.13748
296.0 0.003378 263.72684 330.58591
347.0 0.002882 263.69550 314.99036
310.0 0.003226 263.66510 303.53958
273.0 0.00366 263.63541 295.01080
286.0 0.003497 263.60663 288.60596
318.0 0.003145 263.57889 283.81085
302.0 0.003311 263.55191 280.25870
291.0 0.003436 263.52579 277.64816
281.0 0.00356 263.50058 275.72025
262.0 0.00382 263.47626 274.26447
279.0 0.00358 263.45273 273.12930
286.0 0.003497 263.43030 272.21686
270.0 0.00370 263.40854 271.46597
302.0 0.003311 263.38788 270.83734
255.0 0.00392 263.36795 270.30341
277.0 0.00361 263.34897 269.84262
254.0 0.00394 263.33084 269.43927
260.0 0.00385 263.31363 268.88467
282.0 0.00355 263.29739 268.57712
267.0 0.00375 263.28186 268.30786
280.0 0.00357 263.26730 268.07349
260.0 0.00385 263.25357 267.87054
295.0 0.003390 263.24078 267.69638
266.0 0.00376 263.22885 267.54788
276.0 0.00362 263.21771 267.34787
311.0 0.003215 263.20758 267.24637
273.0 0.00366 263.19827 267.16473
274.0 0.00365 263.18973 267.10217
248.0 0.00403 263.18213 267.05801
283.0 0.00353 263.17545 267.03207
284.0 0.00352 263.16940 267.02423
271.0 0.00369 263.16446 267.03482
275.0 0.00364 263.16025 267.06427
305.0 0.003279 263.15677 267.11365
292.0 0.003425 263.15436 267.18427
257.0 0.00389 263.15265 267.45987
295.0 0.003390 263.15173 267.58270
269.0 0.00372 263.15167 267.73315
269.0 0.00372 263.15237 267.91455
266.0 0.00376 263.15399 268.13101
293.0 0.003413 263.15634 268.38763
295.0 0.003390 263.15948 268.69095
274.0 0.00365 263.16345 269.04929
258.0 0.00388 263.16815 269.54337
285.0 0.00351 263.17371 270.04788
302.0 0.003311 263.18005 270.64996
285.0 0.00351 263.18701 271.37674
254.0 0.00394 263.19467 272.28250
296.0 0.003378 263.20328 273.43695
278.0 0.00360 263.21249 275.01987
272.0 0.00368 263.22250 277.37436
289.0 0.003460 263.23315 281.13980
281.0 0.00356 263.24460 287.38681
303.0 0.003300 263.25662 297.66214
322.0 0.003106 263.26953 313.81546
319.0 0.003135 263.28290 337.46317
353.0 0.002833 263.29718 369.21317
392.0 0.002551 263.31192 407.79739
422.0 0.002370 263.32748 449.40955
438.0 0.002283 263.34354 487.52512
480.0 0.002083 263.36029 514.38440
491.0 0.002037 263.37769 526.08356
567.0 0.001764 263.39557 525.99951
520.0 0.001923 263.41422 522.05786
516.0 0.001938 263.43341 517.88098
482.0 0.002075 263.45306 512.67438
446.0 0.002242 263.47339 503.08279
485.0 0.002062 263.49435 486.27618
443.0 0.002257 263.51575 462.14450
430.0 0.002326 263.53763 433.89111
411.0 0.002433 263.56018 406.48972
415.0 0.002410 263.58319 382.59314
356.0 0.002809 263.60657 362.57822
337.0 0.002967 263.63058 345.44388
329.0 0.003040 263.65506 330.23013
349.0 0.002865 263.67990 316.60345
319.0 0.003135 263.70523 304.75211
292.0 0.003425 263.73102 294.94174
291.0 0.003436 263.75723 287.28430
233.0 0.00429 263.78381 281.65302
276.0 0.00362 263.81079 277.73538
302.0 0.003311 263.83823 275.12579
268.0 0.00373 263.86594 273.42914
262.0 0.00382 263.89413 272.32532
284.0 0.00352 263.92242 271.58984
298.0 0.003356 263.95120 271.08365
275.0 0.00364 263.98029 270.72778
269.0 0.00372 264.00967 270.48022
299.0 0.003344 264.03925 270.31894
275.0 0.00364 264.06915 270.26227
264.0 0.00379 264.09943 270.24689
282.0 0.00355 264.12976 270.53531
281.0 0.00356 264.16043 270.66333
263.0 0.00380 264.19125 270.86496
269.0 0.00372 264.22229 271.14679
273.0 0.00366 264.25348 271.52054
289.0 0.003460 264.28491 272.00345
271.0 0.00369 264.31647 272.63586
314.0 0.003185 264.34811 273.53729
295.0 0.003390 264.37988 274.65091
267.0 0.00375 264.41174 276.28058
265.0 0.00377 264.44379 278.85495
284.0 0.00352 264.47580 283.14865
293.0 0.003413 264.50800 290.39719
254.0 0.00394 264.54013 302.28619
310.0 0.003226 264.57236 320.65140
346.0 0.002890 264.60455 346.82642
374.0 0.002674 264.63675 380.71396
429.0 0.002331 264.66895 419.85712
423.0 0.002364 264.70117 458.84579
469.0 0.002132 264.73325 489.36722
471.0 0.002123 264.76529 502.65298
454.0 0.002203 264.79721 495.58350
461.0 0.002169 264.82916 474.06082
482.0 0.002075 264.86093 447.89200
448.0 0.002232 264.89255 424.70627
396.0 0.002525 264.92407 407.87131
352.0 0.002841 264.95541 396.56772
389.0 0.002571 264.98645 387.01526
355.0 0.002817 265.01755 375.39020
355.0 0.002817 265.04831 360.73639
339.0 0.002950 265.07889 344.52560
322.0 0.003106 265.10916 328.59250
338.0 0.002959 265.13922 314.28156
290.0 0.003448 265.16907 302.47009
260.0 0.00385 265.19864 293.53043
297.0 0.003367 265.22781 287.28940
299.0 0.003344 265.25677 283.22754
296.0 0.003378 265.28537 280.66269
264.0 0.00379 265.31354 278.96692
292.0 0.003425 265.34146 277.64871
269.0 0.00372 265.36896 276.49985
285.0 0.00351 265.39612 275.42325
246.0 0.00407 265.42282 274.54044
283.0 0.00353 265.44913 273.95340
315.0 0.003175 265.47504 273.75629
278.0 0.00360 265.50043 273.83725
265.0 0.00377 265.52545 274.53293
255.0 0.00392 265.54990 275.61063
297.0 0.003367 265.57391 276.92770
276.0 0.00362 265.59744 278.19821
283.0 0.00353 265.62045 279.04340
277.0 0.00361 265.64285 279.28928
286.0 0.003497 265.66473 278.87747
295.0 0.003390 265.68610 278.18585
265.0 0.00377 265.70679 277.48575
285.0 0.00351 265.72699 276.99872
265.0 0.00377 265.74643 276.79706
266.0 0.00376 265.76547 276.85507
300.0 0.003333 265.78384 277.20099
280.0 0.00357 265.80148 277.32211
290.0 0.003448 265.81848 277.47058
289.0 0.003460 265.83484 277.76050
253.0 0.00395 265.85052 278.47330
304.0 0.003289 265.86542 279.52106
260.0 0.00385 265.87970 281.34344
282.0 0.00355 265.89325 284.40079
269.0 0.00372 265.90607 289.69388
272.0 0.00368 265.91809 298.46472
322.0 0.003106 265.92935 312.79599
340.0 0.002941 265.93991 334.97980
355.0 0.002817 265.94958 366.98761
412.0 0.002427 265.95856 409.19867
460.0 0.002174 265.96674 459.50128
553.0 0.001808 265.97409 512.22363
566.0 0.001767 265.98050 558.11530
557.0 0.001795 265.98618 586.15143
615.0 0.001626 265.99106 588.61414
572.0 0.001748 265.99493 567.56787
624.0 0.001603 265.99792 533.91852
580.0 0.001724 266.00015 499.37479
519.0 0.001927 266.00140 471.10770
443.0 0.002257 266.00192 450.78909
406.0 0.002463 266.00143 435.50803
404.0 0.002475 265.99985 420.13687
404.0 0.002475 265.99762 400.96411
421.0 0.002375 265.99420 378.28391
367.0 0.002725 265.98999 354.81024
327.0 0.003058 265.98471 333.25528
314.0 0.003185 265.97858 315.33768
293.0 0.003413 265.97147 301.70282
291.0 0.003436 265.96332 292.10876
252.0 0.00397 265.95410 285.79639
309.0 0.003236 265.94403 281.81451
255.0 0.00392 265.93289 279.35281
259.0 0.00386 265.92075 277.81616
296.0 0.003378 265.90762 276.83469
305.0 0.003279 265.89337 276.02985
285.0 0.00351 265.87823 275.68439
287.0 0.003484 265.86188 275.58896
287.0 0.003484 265.84460 275.74878
268.0 0.00373 265.82623 276.17249
294.0 0.003401 265.80682 276.85358
256.0 0.00391 265.78625 277.76154
255.0 0.00392 265.76477 278.77365
291.0 0.003436 265.74213 279.97229
278.0 0.00360 265.71841 281.29309
298.0 0.003356 265.69360 282.91049
293.0 0.003413 265.66776 285.14844
276.0 0.00362 265.64081 288.36880
309.0 0.003236 265.61270 292.78662
285.0 0.00351 265.58353 298.40677
282.0 0.00355 265.55325 304.93991
307.0 0.003257 265.52179 311.88269
304.0 0.003289 265.48923 318.75833
295.0 0.003390 265.45572 325.08472
303.0 0.003300 265.42099 329.89285
316.0 0.003165 265.38516 331.95334
328.0 0.003049 265.34824 330.65015
297.0 0.003367 265.31006 326.81982
363.0 0.002755 265.27090 322.06070
316.0 0.003165 265.23047 317.80066
299.0 0.003344 265.18900 314.96759
295.0 0.003390 265.14648 313.99200
286.0 0.003497 265.10269 314.92407
342.0 0.002924 265.05792 317.98596
290.0 0.003448 265.01190 324.28540
309.0 0.003236 264.96475 336.18460
336.0 0.002976 264.91650 356.47086
355.0 0.002817 264.86713 387.95627
429.0 0.002331 264.81665 432.15533
466.0 0.002146 264.76508 488.26108
521.0 0.001919 264.71231 552.14154
570.0 0.001754 264.65836 615.88202
656.0 0.001524 264.60333 668.98877
767.0 0.001304 264.54724 701.91614
866.0 0.001155 264.49005 711.74683
751.0 0.001332 264.43167 703.61261
706.0 0.001416 264.37228 684.46918
671.0 0.001490 264.31161 658.06830
635.0 0.001575 264.24997 626.90570
656.0 0.001524 264.18726 593.80658
616.0 0.001623 264.12329 560.32056
563.0 0.001776 264.05823 526.32703
560.0 0.001786 263.99228 492.25647
471.0 0.002123 263.92505 459.54388
433.0 0.002309 263.85681 428.82254
411.0 0.002433 263.78757 399.79822
375.0 0.002667 263.71716 372.72723
374.0 0.002674 263.64569 348.76688
340.0 0.002941 263.57318 328.95001
310.0 0.003226 263.49954 313.76529
271.0 0.00369 263.42499 302.87769
279.0 0.00358 263.34924 296.41318
319.0 0.003135 263.27252 293.61200
300.0 0.003333 263.19482 293.84760
300.0 0.003333 263.11609 296.38239
293.0 0.003413 263.03625 300.26379
290.0 0.003448 262.95547 304.31519
305.0 0.003279 262.87357 307.15225
297.0 0.003367 262.79083 307.43954
291.0 0.003436 262.70703 305.10416
302.0 0.003311 262.62228 300.99655
307.0 0.003257 262.53647 296.45374
302.0 0.003311 262.44983 292.47580
288.0 0.003472 262.36218 289.48755
271.0 0.00369 262.27365 287.37897
266.0 0.00376 262.18405 285.62723
271.0 0.00369 262.09360 283.63889
301.0 0.003322 262.00220 281.17587
290.0 0.003448 261.91000 278.42239
256.0 0.00391 261.81671 275.70361
265.0 0.00377 261.72266 273.28241
264.0 0.00379 261.62766 271.30981
279.0 0.00358 261.53186 269.82733
261.0 0.00383 261.43512 268.79349
284.0 0.00352 261.33765 268.12341
233.0 0.00429 261.23929 267.72739
269.0 0.00372 261.14008 267.53979
251.0 0.00398 261.04004 267.53302
255.0 0.00392 260.93921 267.72980
282.0 0.00355 260.83759 268.20786
278.0 0.00360 260.73529 269.12393
269.0 0.00372 260.63208 270.68640
269.0 0.00372 260.52817 273.14001
311.0 0.003215 260.42352 276.69315
282.0 0.00355 260.31812 281.42294
308.0 0.003247 260.21198 287.17004
342.0 0.002924 260.10526 293.44193
331.0 0.003021 259.99774 299.41977
314.0 0.003185 259.88953 304.02560
361.0 0.002770 259.78070 306.54260
304.0 0.003289 259.67114 307.27823
353.0 0.002833 259.56100 307.31509
302.0 0.003311 259.45016 307.88541
318.0 0.003145 259.33884 309.78949
323.0 0.003096 259.22687 313.66418
329.0 0.003040 259.11426 319.97150
340.0 0.002941 259.00110 328.73969
327.0 0.003058 258.88733 339.54297
309.0 0.003236 258.77310 351.51642
352.0 0.002841 258.65823 363.17374
377.0 0.002653 258.54294 371.97617
336.0 0.002976 258.42712 375.67819
323.0 0.003096 258.31085 374.28040
348.0 0.002874 258.19400 370.40067
325.0 0.003077 258.07684 367.50873
370.0 0.002703 257.95905 367.77875
352.0 0.002841 257.84097 371.49390
363.0 0.002755 257.72241 376.85464
353.0 0.002833 257.60345 380.88702
369.0 0.002710 257.48416 381.66180
377.0 0.002653 257.36447 378.05368
356.0 0.002809 257.24429 370.24084
389.0 0.002571 257.12390 359.03119
349.0 0.002865 257.00320 346.44202
346.0 0.002890 256.88211 334.22470
354.0 0.002825 256.76080 323.55615
320.0 0.003125 256.63925 314.55853
303.0 0.003300 256.51730 307.21512
316.0 0.003165 256.39514 301.02353
292.0 0.003425 256.27274 295.38049
276.0 0.00362 256.15009 289.76767
283.0 0.00353 256.02731 284.34210
291.0 0.003436 255.90428 279.47968
257.0 0.00389 255.78113 275.61948
266.0 0.00376 255.65770 273.01544
298.0 0.003356 255.53424 271.70377
273.0 0.00366 255.41069 271.49728
279.0 0.00358 255.28688 272.00522
247.0 0.00405 255.16307 272.67139
298.0 0.003356 255.03911 272.88376
286.0 0.003497 254.91510 272.23532
235.0 0.00426 254.79105 270.78284
261.0 0.00383 254.66695 268.93524
289.0 0.003460 254.54291 267.09512
295.0 0.003390 254.41870 265.59955
271.0 0.00369 254.29462 264.55972
264.0 0.00379 254.17050 263.74786
277.0 0.00361 254.04648 263.00870
264.0 0.00379 253.92249 262.14160
243.0 0.00412 253.79848 261.09558
241.0 0.00415 253.67462 259.95703
243.0 0.00412 253.55086 258.83282
261.0 0.00383 253.42717 257.83673
281.0 0.00356 253.30359 257.02982
255.0 0.00392 253.18022 256.37390
268.0 0.00373 253.05692 255.87439
272.0 0.00368 252.93384 255.49876
270.0 0.00370 252.81096 255.21176
288.0 0.003472 252.68823 254.98399
237.0 0.00422 252.56575 254.79459
261.0 0.00383 252.44348 254.63029
256.0 0.00391 252.32149 254.49934
244.0 0.00410 252.19966 254.36731
254.0 0.00394 252.07814 254.24745
252.0 0.00397 251.95694 254.13879
257.0 0.00389 251.83598 254.04123
242.0 0.00413 251.71532 253.95468
258.0 0.00388 251.59492 253.87965
228.0 0.00439 251.47496 253.81648
267.0 0.00375 251.35533 253.76961
241.0 0.00415 251.23607 253.73462
243.0 0.00412 251.11716 253.71193
269.0 0.00372 250.99852 253.70490
271.0 0.00369 250.88045 253.71584
244.0 0.00410 250.76276 253.71780
266.0 0.00376 250.64536 253.77472
273.0 0.00366 250.52853 253.86104
256.0 0.00391 250.41203 253.98322
267.0 0.00375 250.29610 254.14084
286.0 0.003497 250.18059 254.37070
257.0 0.00389 250.06557 254.69159
263.0 0.00380 249.95103 255.20825
280.0 0.00357 249.83691 255.89662
286.0 0.003497 249.72340 257.00119
252.0 0.00397 249.61043 258.66354
255.0 0.00392 249.49791 261.16501
279.0 0.00358 249.38600 264.68216
264.0 0.00379 249.27464 269.66476
257.0 0.00389 249.16383 275.92569
299.0 0.003344 249.05356 283.40530
257.0 0.00389 248.94386 291.77814
271.0 0.00369 248.83481 300.47836
298.0 0.003356 248.72639 309.08203
319.0 0.003135 248.61853 317.85562
340.0 0.002941 248.51132 328.07034
365.0 0.002740 248.40469 341.04654
364.0 0.002747 248.29880 357.06244
339.0 0.002950 248.19351 374.69565
380.0 0.002632 248.08878 391.17850
368.0 0.002717 247.98480 403.06433
392.0 0.002551 247.88148 407.76904
398.0 0.002513 247.77888 404.15161
379.0 0.002639 247.67682 393.13934
360.0 0.002778 247.57562 377.86014
355.0 0.002817 247.47502 362.11258
344.0 0.002907 247.37526 348.45456
303.0 0.003300 247.27606 337.68674
303.0 0.003300 247.17755 329.24777
320.0 0.003125 247.07991 321.89270
314.0 0.003185 246.98297 314.53574
275.0 0.00364 246.88666 306.41733
292.0 0.003425 246.79121 297.62256
277.0 0.00361 246.69646 288.84448
285.0 0.00351 246.60246 280.77087
285.0 0.00351 246.50929 273.83548
267.0 0.00375 246.41675 268.15982
273.0 0.00366 246.32501 263.79398
254.0 0.00394 246.23413 260.64606
263.0 0.00380 246.14397 258.51547
271.0 0.00369 246.05458 257.17245
256.0 0.00391 245.96594 256.39929
223.0 0.00448 245.87807 256.02032
264.0 0.00379 245.79106 255.93219
245.0 0.00408 245.70483 256.16129
249.0 0.00402 245.61943 256.86911
243.0 0.00412 245.53476 258.40045
250.0 0.00400 245.45079 261.23489
301.0 0.003322 245.36775 265.94409
286.0 0.003497 245.28552 273.06689
282.0 0.00355 245.20404 282.90857
303.0 0.003300 245.12338 295.29187
297.0 0.003367 245.04349 309.33240
331.0 0.003021 244.96440 323.24594
331.0 0.003021 244.88625 334.41254
336.0 0.002976 244.80872 339.96823
317.0 0.003155 244.73213 338.49417
351.0 0.002849 244.65622 331.32315
343.0 0.002915 244.58115 321.51370
321.0 0.003115 244.50694 311.94092
325.0 0.003077 244.43355 304.38235
282.0 0.00355 244.36092 299.38550
311.0 0.003215 244.28899 296.42169
290.0 0.003448 244.21791 294.22418
303.0 0.003300 244.14764 291.56531
279.0 0.00358 244.07826 288.10089
296.0 0.003378 244.00955 284.38391
317.0 0.003155 243.94165 281.17395
312.0 0.003205 243.87450 278.92987
270.0 0.00370 243.80823 277.65308
292.0 0.003425 243.74266 276.89294
272.0 0.00368 243.67784 275.92487
291.0 0.003436 243.61382 274.19034
309.0 0.003236 243.55066 271.70215
304.0 0.003289 243.48814 268.93896
254.0 0.00394 243.42650 266.43890
294.0 0.003401 243.36543 264.55853
254.0 0.00394 243.30522 263.42047
283.0 0.00353 243.24580 262.90515
265.0 0.00377 243.18701 262.75412
246.0 0.00407 243.12901 262.72433
262.0 0.00382 243.07172 262.82581
274.0 0.00365 243.01518 263.41238
271.0 0.00369 242.95927 265.09290
272.0 0.00368 242.90414 268.62137
279.0 0.00358 242.84979 274.81158
269.0 0.00372 242.79594 284.40970
314.0 0.003185 242.74294 297.88416
299.0 0.003344 242.69054 315.21738
343.0 0.002915 242.63885 335.67624
321.0 0.003115 242.58781 357.64465
344.0 0.002907 242.53746 378.64343
347.0 0.002882 242.48775 396.08548
423.0 0.002364 242.43866 408.73370
425.0 0.002353 242.39023 417.20929
397.0 0.002519 242.34238 422.86441
430.0 0.002326 242.29515 426.13889
425.0 0.002353 242.24860 425.81522
402.0 0.002488 242.20253 420.17761
456.0 0.002193 242.15717 409.08813
441.0 0.002268 242.11235 394.22488
430.0 0.002326 242.06815 377.76602
383.0 0.002611 242.02444 361.67142
363.0 0.002755 241.98126 347.40335
328.0 0.003049 241.93875 335.57751
321.0 0.003115 241.89667 325.75211
302.0 0.003311 241.85510 316.83649
313.0 0.003195 241.81409 308.12335
327.0 0.003058 241.77365 299.97473
311.0 0.003215 241.73352 293.41287
304.0 0.003289 241.69403 289.61273
311.0 0.003215 241.65494 289.28265
278.0 0.00360 241.61633 292.85681
292.0 0.003425 241.57823 299.97006
307.0 0.003257 241.54054 309.67877
333.0 0.003003 241.50320 320.26544
347.0 0.002882 241.46628 329.45206
371.0 0.002695 241.42987 335.03864
362.0 0.002762 241.39383 336.35266
358.0 0.002793 241.35809 334.55688
378.0 0.002646 241.32269 331.95001
356.0 0.002809 241.28775 330.28156
318.0 0.003145 241.25314 330.19339
317.0 0.003155 241.21887 330.98373
317.0 0.003155 241.18486 330.87454
346.0 0.002890 241.15129 327.97894
323.0 0.003096 241.11786 321.61960
322.0 0.003106 241.08478 312.65912
317.0 0.003155 241.05205 302.78665
319.0 0.003135 241.01949 293.53268
314.0 0.003185 240.98717 285.84897
248.0 0.00403 240.95517 279.97659
277.0 0.00361 240.92323 275.59909
268.0 0.00373 240.89169 272.09274
287.0 0.003484 240.86029 268.99466
283.0 0.00353 240.82904 266.31552
260.0 0.00385 240.79796 264.15009
251.0 0.00398 240.76704 262.69833
254.0 0.00394 240.73630 261.91849
264.0 0.00379 240.70566 261.57693
243.0 0.00412 240.67520 261.23636
258.0 0.00388 240.64473 260.44669
266.0 0.00376 240.61444 259.01401
230.0 0.00435 240.58430 257.12436
263.0 0.00380 240.55408 255.09969
255.0 0.00392 240.52405 253.34456
262.0 0.00382 240.49399 251.98586
272.0 0.00368 240.46399 251.03807
256.0 0.00391 240.43396 250.42198
219.0 0.00457 240.40395 249.84576
261.0 0.00383 240.37401 249.14954
258.0 0.00388 240.34401 248.26555
239.0 0.00418 240.31392 247.26237
228.0 0.00439 240.28381 246.23148
240.0 0.00417 240.25368 245.31995
247.0 0.00405 240.22348 244.56960
230.0 0.00435 240.19315 244.03227
220.0 0.00455 240.16283 243.69542
235.0 0.00426 240.13232 243.58073
272.0 0.00368 240.10165 243.69476
252.0 0.00397 240.07089 244.03326
237.0 0.00422 240.04001 244.65840
251.0 0.00398 240.00896 245.44295
251.0 0.00398 239.97774 246.36279
250.0 0.00400 239.94630 247.29660
245.0 0.00408 239.91469 248.06732
247.0 0.00405 239.88290 248.47432
244.0 0.00410 239.85089 248.39749
269.0 0.00372 239.81862 247.90935
253.0 0.00395 239.78615 247.17514
235.0 0.00426 239.75342 246.44110
245.0 0.00408 239.72040 245.80055
245.0 0.00408 239.68715 245.33040
225.0 0.00444 239.65359 245.01611
253.0 0.00395 239.61975 244.86601
229.0 0.00437 239.58566 244.61641
267.0 0.00375 239.55109 244.28119
232.0 0.00431 239.51631 243.86728
246.0 0.00407 239.48119 243.41389
240.0 0.00417 239.44569 242.97736
240.0 0.00417 239.40988 242.59428
254.0 0.00394 239.37361 242.22803
228.0 0.00439 239.33699 241.97231
235.0 0.00426 239.30000 241.85008
246.0 0.00407 239.26260 241.76015
233.0 0.00429 239.22485 241.72017
247.0 0.00405 239.18660 241.71898
263.0 0.00380 239.14801 241.67004
254.0 0.00394 239.10893 241.72784
257.0 0.00389 239.06941 241.78868
266.0 0.00376 239.02951 241.89815
232.0 0.00431 238.98906 242.02782
228.0 0.00439 238.94809 242.20592
247.0 0.00405 238.90669 242.43721
273.0 0.00366 238.86487 242.74936
249.0 0.00402 238.82256 243.16321
251.0 0.00398 238.77960 243.82809
241.0 0.00415 238.73622 244.85493
249.0 0.00402 238.69237 246.44937
266.0 0.00376 238.64803 248.87158
273.0 0.00366 238.60300 252.39876
238.0 0.00420 238.55760 257.24704
247.0 0.00405 238.51151 263.46307
272.0 0.00368 238.46500 270.81732
266.0 0.00376 238.41789 278.71133
288.0 0.003472 238.37016 286.12949
289.0 0.003460 238.32195 291.65805
316.0 0.003165 238.27312 294.18054
296.0 0.003378 238.22368 293.39523
299.0 0.003344 238.17378 290.30167
280.0 0.00357 238.12314 286.42468
275.0 0.00364 238.07196 283.05338
303.0 0.003300 238.02025 280.98929
256.0 0.00391 237.96779 280.47467
258.0 0.00388 237.91489 281.45239
288.0 0.003472 237.86128 283.53165
288.0 0.003472 237.80710 286.44415
288.0 0.003472 237.75232 290.13065
273.0 0.00366 237.69688 294.78632
302.0 0.003311 237.64090 300.47815
325.0 0.003077 237.58423 306.93347
336.0 0.002976 237.52695 313.60297
288.0 0.003472 237.46902 319.59531
302.0 0.003311 237.41048 323.62015
301.0 0.003322 237.35126 324.31390
305.0 0.003279 237.29149 321.30182
328.0 0.003049 237.23108 315.64261
284.0 0.00352 237.16997 309.17377
306.0 0.003268 237.10828 303.41663
301.0 0.003322 237.04596 299.60757
287.0 0.003484 236.98299 298.35843
280.0 0.00357 236.91939 299.68851
284.0 0.00352 236.85515 302.91360
298.0 0.003356 236.79022 306.89648
310.0 0.003226 236.72478 310.48459
297.0 0.003367 236.65860 312.71191
321.0 0.003115 236.59184 312.67166
290.0 0.003448 236.52434 309.64236
332.0 0.003012 236.45642 303.92612
316.0 0.003165 236.38773 296.89713
287.0 0.003484 236.31845 290.29721
297.0 0.003367 236.24854 285.53656
274.0 0.00365 236.17796 283.51208
286.0 0.003497 236.10683 284.54391
284.0 0.00352 236.03510 288.44122
290.0 0.003448 235.96272 294.48541
247.0 0.00405 235.88979 301.61990
306.0 0.003268 235.81619 308.73596
300.0 0.003333 235.74202 314.73297
298.0 0.003356 235.66730 318.36874
311.0 0.003215 235.59195 318.60837
302.0 0.003311 235.51601 315.56415
360.0 0.002778 235.43951 310.80206
298.0 0.003356 235.36238 306.50403
316.0 0.003165 235.28476 304.50854
274.0 0.00365 235.20656 305.93384
321.0 0.003115 235.12775 311.10852
301.0 0.003322 235.04839 319.52426
319.0 0.003135 234.96851 330.02298
354.0 0.002825 234.88814 341.16357
309.0 0.003236 234.80725 351.51758
407.0 0.002457 234.72575 359.52356
325.0 0.003077 234.64372 363.21991
343.0 0.002915 234.56125 360.87646
344.0 0.002907 234.47823 352.48718
396.0 0.002525 234.39479 340.17148
342.0 0.002924 234.31079 326.77057
316.0 0.003165 234.22635 314.54300
278.0 0.00360 234.14142 304.77881
265.0 0.00377 234.05600 297.81604
259.0 0.00386 233.97017 293.08414
247.0 0.00405 233.88385 289.31232
259.0 0.00386 233.79716 285.07751
250.0 0.00400 233.70999 279.59442
246.0 0.00407 233.62247 273.04382
255.0 0.00392 233.53450 266.12708
249.0 0.00402 233.44618 259.53687
251.0 0.00398 233.35738 253.75465
272.0 0.00368 233.26823 249.02457
232.0 0.00431 233.17873 245.38646
243.0 0.00412 233.08890 242.72867
237.0 0.00422 232.99864 240.85939
250.0 0.00400 232.90816 239.57085
232.0 0.00431 232.81728 238.68143
202.0 0.00495 232.72620 238.05533
233.0 0.00429 232.63467 237.60455
237.0 0.00422 232.54285 237.28084
227.0 0.00441 232.45084 237.06700
214.0 0.00467 232.35852 236.96831
227.0 0.00441 232.26599 237.00844
239.0 0.00418 232.17319 237.22267
272.0 0.00368 232.08014 237.65129
239.0 0.00418 231.98682 238.32735
258.0 0.00388 231.89336 239.26147
245.0 0.00408 231.79965 240.42377
255.0 0.00392 231.70586 241.72696
246.0 0.00407 231.61185 242.98036
273.0 0.00366 231.51765 244.06792
266.0 0.00376 231.42331 244.89415
265.0 0.00377 231.32890 245.10980
246.0 0.00407 231.23438 244.82735
259.0 0.00386 231.13963 244.18106
232.0 0.00431 231.04489 243.41832
237.0 0.00422 230.95004 242.81406
255.0 0.00392 230.85510 242.60080
270.0 0.00370 230.76015 242.90633
205.0 0.00488 230.66507 243.94719
248.0 0.00403 230.57007 245.96202
226.0 0.00442 230.47498 249.13608
227.0 0.00441 230.37994 253.76599
269.0 0.00372 230.28490 260.10907
296.0 0.003378 230.18983 268.18369
305.0 0.003279 230.09485 277.64444
289.0 0.003460 229.99989 287.59848
295.0 0.003390 229.90514 296.69809
329.0 0.003040 229.81036 303.01474
315.0 0.003175 229.71562 304.87234
326.0 0.003067 229.62106 301.94058
376.0 0.002660 229.52657 295.55875
332.0 0.003012 229.43228 287.82434
302.0 0.003311 229.33807 280.54874
272.0 0.00368 229.24406 274.86023
292.0 0.003425 229.15018 271.15466
262.0 0.00382 229.05656 269.22812
280.0 0.00357 228.96310 268.29492
284.0 0.00352 228.86990 267.37738
266.0 0.00376 228.77689 265.76184
283.0 0.00353 228.68407 263.46628
247.0 0.00405 228.59160 260.78864
269.0 0.00372 228.49930 258.04956
252.0 0.00397 228.40733 255.34875
293.0 0.003413 228.31564 252.59660
259.0 0.00386 228.22432 249.70898
236.0 0.00424 228.13324 246.77946
227.0 0.00441 228.04253 244.04114
238.0 0.00420 227.95221 241.69330
257.0 0.00389 227.86215 239.88120
253.0 0.00395 227.77252 238.59953
229.0 0.00437 227.68327 237.76166
221.0 0.00452 227.59442 237.14790
260.0 0.00385 227.50601 236.64212
261.0 0.00383 227.41797 236.00528
236.0 0.00424 227.33035 235.16946
243.0 0.00412 227.24313 234.19214
249.0 0.00402 227.15646 233.18056
228.0 0.00439 227.07028 232.22845
220.0 0.00455 226.98450 231.45421
241.0 0.00415 226.89928 230.76102
248.0 0.00403 226.81447 230.20993
220.0 0.00455 226.73021 229.80566
237.0 0.00422 226.64659 229.49820
226.0 0.00442 226.56339 229.25835
224.0 0.00446 226.48076 228.98387
236.0 0.00424 226.39867 228.82762
220.0 0.00455 226.31712 228.69885
234.0 0.00427 226.23621 228.61519
233.0 0.00429 226.15585 228.52748
231.0 0.00433 226.07611 228.46504
237.0 0.00422 225.99693 228.42221
230.0 0.00435 225.91841 228.39799
228.0 0.00439 225.84058 228.39220
253.0 0.00395 225.76331 228.37370
225.0 0.00444 225.68668 228.46216
231.0 0.00433 225.61073 228.51599
251.0 0.00398 225.53535 228.59204
203.0 0.00493 225.46075 228.69307
237.0 0.00422 225.38683 228.82257
245.0 0.00408 225.31351 228.98486
256.0 0.00391 225.24095 229.18590
203.0 0.00493 225.16908 229.43304
227.0 0.00441 225.09792 229.73741
247.0 0.00405 225.02744 230.11577
232.0 0.00431 224.95775 230.61760
235.0 0.00426 224.88866 231.24983
237.0 0.00422 224.82040 232.12164
272.0 0.00368 224.75287 233.38676
252.0 0.00397 224.68613 235.29776
223.0 0.00448 224.62009 238.23717
253.0 0.00395 224.55473 242.72975
246.0 0.00407 224.49028 249.40489
259.0 0.00386 224.42659 258.89590
280.0 0.00357 224.36360 271.66513
282.0 0.00355 224.30141 287.74832
313.0 0.003195 224.23994 306.56134
309.0 0.003236 224.17935 326.68460
337.0 0.002967 224.11949 345.75595
329.0 0.003040 224.06047 360.58560
363.0 0.002755 224.00214 368.11404
371.0 0.002695 223.94472 367.26926
402.0 0.002488 223.88806 359.91589
387.0 0.002584 223.83215 349.51959
350.0 0.002857 223.77708 339.26358
320.0 0.003125 223.72289 330.81439
293.0 0.003413 223.66946 324.85434
296.0 0.003378 223.61684 321.02026
336.0 0.002976 223.56497 318.28806
286.0 0.003497 223.51399 315.13266
316.0 0.003165 223.46373 310.10977
309.0 0.003236 223.41434 302.71869
317.0 0.003155 223.36580 293.59348
284.0 0.00352 223.31796 283.92944
281.0 0.00356 223.27103 274.46027
264.0 0.00379 223.22491 265.89008
253.0 0.00395 223.17941 258.51834
225.0 0.00444 223.13495 252.44188
235.0 0.00426 223.09119 247.55338
241.0 0.00415 223.04825 243.78883
248.0 0.00403 223.00609 240.80742
241.0 0.00415 222.96471 238.35555
230.0 0.00435 222.92418 236.27187
218.0 0.00459 222.88441 234.48694
227.0 0.00441 222.84540 232.92004
232.0 0.00431 222.80719 231.59315
236.0 0.00424 222.76979 230.52487
253.0 0.00395 222.73312 229.64389
217.0 0.00461 222.69722 228.99725
226.0 0.00442 222.66208 228.53468
243.0 0.00412 222.62770 228.22737
260.0 0.00385 222.59412 228.05133
235.0 0.00426 222.56125 227.99112
221.0 0.00452 222.52910 228.02625
217.0 0.00461 222.49771 228.19293
227.0 0.00441 222.46704 228.51721
214.0 0.00467 222.43704 229.08182
248.0 0.00403 222.40785 229.99474
222.0 0.00450 222.37941 231.44981
241.0 0.00415 222.35153 233.69263
206.0 0.00485 222.32442 237.00180
273.0 0.00366 222.29793 241.63364
264.0 0.00379 222.27220 247.73825
236.0 0.00424 222.24709 255.23083
252.0 0.00397 222.22263 263.75381
284.0 0.00352 222.19887 272.53848
287.0 0.003484 222.17566 280.40240
301.0 0.003322 222.15312 285.84808
286.0 0.003497 222.13124 287.62207
342.0 0.002924 222.10997 285.52359
336.0 0.002976 222.08926 280.63757
297.0 0.003367 222.06918 274.63559
284.0 0.00352 222.04968 269.01746
252.0 0.00397 222.03073 264.80682
241.0 0.00415 222.01231 262.51096
248.0 0.00403 221.99442 262.27283
258.0 0.00388 221.97716 263.67523
257.0 0.00389 221.96031 266.24683
259.0 0.00386 221.94409 269.51050
310.0 0.003226 221.92828 273.30444
289.0 0.003460 221.91304 277.69699
262.0 0.00382 221.89822 282.61502
268.0 0.00373 221.88387 287.54016
293.0 0.003413 221.86992 291.43613
256.0 0.00391 221.85652 292.96698
299.0 0.003344 221.84348 291.23834
267.0 0.00375 221.83078 286.43201
275.0 0.00364 221.81863 279.82492
265.0 0.00377 221.80669 272.90842
258.0 0.00388 221.79526 266.83115
265.0 0.00377 221.78421 262.24329
268.0 0.00373 221.77333 259.29263
224.0 0.00446 221.76295 257.67798
259.0 0.00386 221.75287 256.74606
273.0 0.00366 221.74301 255.71175
273.0 0.00366 221.73344 254.02406
248.0 0.00403 221.72420 251.63776
247.0 0.00405 221.71521 248.90884
224.0 0.00446 221.70642 246.29192
245.0 0.00408 221.69788 244.15919
259.0 0.00386 221.68954 242.76668
247.0 0.00405 221.68150 242.27063
237.0 0.00422 221.67352 242.77202
238.0 0.00420 221.66580 244.38753
248.0 0.00403 221.65807 247.34137
248.0 0.00403 221.65063 252.00810
237.0 0.00422 221.64328 258.82581
269.0 0.00372 221.63609 268.10416
295.0 0.003390 221.62885 279.83478
298.0 0.003356 221.62181 293.41626
328.0 0.003049 221.61478 308.03149
272.0 0.00368 221.60776 321.81567
312.0 0.003205 221.60091 332.62469
361.0 0.002770 221.59390 338.65881
369.0 0.002710 221.58702 339.69019
353.0 0.002833 221.58006 337.39850
368.0 0.002717 221.57306 334.40750
328.0 0.003049 221.56610 332.94116
311.0 0.003215 221.55902 334.22363
326.0 0.003067 221.55190 338.16348
339.0 0.002950 221.54466 343.53140
313.0 0.003195 221.53732 347.85297
369.0 0.002710 221.52985 348.38965
390.0 0.002564 221.52222 343.55576
411.0 0.002433 221.51451 333.84778
363.0 0.002755 221.50659 321.34375
311.0 0.003215 221.49854 308.45633
296.0 0.003378 221.49023 297.08224
280.0 0.00357 221.48169 288.35675
275.0 0.00364 221.47290 282.62140
272.0 0.00368 221.46400 279.49814
270.0 0.00370 221.45480 278.03064
240.0 0.00417 221.44530 277.05469
279.0 0.00358 221.43553 275.67175
262.0 0.00382 221.42549 273.45358
246.0 0.00407 221.41508 270.27475
272.0 0.00368 221.40440 266.23557
247.0 0.00405 221.39340 261.52802
250.0 0.00400 221.38200 256.74542
247.0 0.00405 221.37021 252.42274
248.0 0.00403 221.35812 248.89053
242.0 0.00413 221.34563 246.22781
241.0 0.00415 221.33273 244.31509
246.0 0.00407 221.31937 242.91873
238.0 0.00420 221.30562 241.77141
243.0 0.00412 221.29146 240.62975
237.0 0.00422 221.27679 239.35318
241.0 0.00415 221.26169 237.88440
233.0 0.00429 221.24612 236.36633
226.0 0.00442 221.23004 234.97003
221.0 0.00452 221.21352 233.83917
244.0 0.00410 221.19646 233.06549
235.0 0.00426 221.17886 232.69797
235.0 0.00426 221.16077 232.76030
230.0 0.00435 221.14217 233.26535
224.0 0.00446 221.12294 234.21184
259.0 0.00386 221.10321 235.56519
253.0 0.00395 221.08287 237.17642
257.0 0.00389 221.06201 238.99316
239.0 0.00418 221.04051 240.72206
273.0 0.00366 221.01843 242.12468
261.0 0.00383 220.99582 243.09169
235.0 0.00426 220.97247 243.69899
263.0 0.00380 220.94855 244.10219
249.0 0.00402 220.92409 244.39804
241.0 0.00415 220.89893 244.59476
229.0 0.00437 220.87308 244.70937
237.0 0.00422 220.84668 244.88135
251.0 0.00398 220.81961 245.48779
281.0 0.00356 220.79185 246.92691
234.0 0.00427 220.76338 249.62891
276.0 0.00362 220.73434 254.00621
274.0 0.00365 220.70461 260.40643
270.0 0.00370 220.67415 268.96851
247.0 0.00405 220.64308 279.39508
288.0 0.003472 220.61134 291.05060
304.0 0.003289 220.57878 302.60767
302.0 0.003311 220.54556 312.25626
311.0 0.003215 220.51178 318.11249
323.0 0.003096 220.47719 318.69739
325.0 0.003077 220.44191 314.03830
339.0 0.002950 220.40594 305.68188
302.0 0.003311 220.36925 295.84952
307.0 0.003257 220.33185 286.46222
274.0 0.00365 220.29378 278.82349
277.0 0.00361 220.25499 273.44101
265.0 0.00377 220.21547 270.17432
250.0 0.00400 220.17529 268.29712
252.0 0.00397 220.13440 266.77142
276.0 0.00362 220.09279 264.55923
268.0 0.00373 220.05048 261.07343
262.0 0.00382 220.00740 256.42932
267.0 0.00375 219.96370 251.13269
247.0 0.00405 219.91933 245.76657
215.0 0.00465 219.87418 240.78374
212.0 0.00472 219.82835 236.49771
234.0 0.00427 219.78181 233.01765
216.0 0.00463 219.73466 230.36095
214.0 0.00467 219.68680 228.43692
246.0 0.00407 219.63821 227.11604
240.0 0.00417 219.58904 226.23804
226.0 0.00442 219.53911 225.68623
229.0 0.00437 219.48859 225.28261
221.0 0.00452 219.43742 225.17482
208.0 0.00481 219.38567 225.27577
231.0 0.00433 219.33318 225.65892
242.0 0.00413 219.28003 226.38463
217.0 0.00461 219.22630 227.53815
221.0 0.00452 219.17200 229.17711
244.0 0.00410 219.11694 231.30617
206.0 0.00485 219.06136 233.84799
232.0 0.00431 219.00520 236.54773
230.0 0.00435 218.94844 239.20685
261.0 0.00383 218.89113 241.39406
233.0 0.00429 218.83325 242.60791
253.0 0.00395 218.77481 242.56601
263.0 0.00380 218.71582 241.36142
264.0 0.00379 218.65628 239.42096
236.0 0.00424 218.59622 237.25467
228.0 0.00439 218.53563 235.27229
230.0 0.00435 218.47458 233.72716
241.0 0.00415 218.41306 232.71324
255.0 0.00392 218.35104 232.18106
221.0 0.00452 218.28857 231.96140
216.0 0.00463 218.22563 231.81664
234.0 0.00427 218.16226 231.53764
238.0 0.00420 218.09846 231.05865
263.0 0.00380 218.03421 230.49368
195.0 0.00513 217.96962 230.07375
237.0 0.00422 217.90462 230.08067
214.0 0.00467 217.83925 230.82220
205.0 0.00488 217.77356 232.62225
210.0 0.00476 217.70757 235.79486
219.0 0.00457 217.64116 240.59505
250.0 0.00400 217.57451 247.14348
232.0 0.00431 217.50755 255.33502
241.0 0.00415 217.44029 264.75684
271.0 0.00369 217.37282 274.61499
265.0 0.00377 217.30511 283.69485
284.0 0.00352 217.23708 290.42972
318.0 0.003145 217.16890 293.32913
293.0 0.003413 217.10056 291.79648
309.0 0.003236 217.03204 286.59885
298.0 0.003356 216.96336 279.37936
273.0 0.00366 216.89456 271.81540
232.0 0.00431 216.82561 265.14926
246.0 0.00407 216.75652 260.07407
220.0 0.00455 216.68741 256.75259
264.0 0.00379 216.61824 254.87859
241.0 0.00415 216.54901 253.75993
230.0 0.00435 216.47969 252.48895
241.0 0.00415 216.41034 250.41864
245.0 0.00408 216.34111 247.29695
229.0 0.00437 216.27184 243.39384
256.0 0.00391 216.20267 239.17863
229.0 0.00437 216.13353 235.08009
232.0 0.00431 216.06441 231.40190
227.0 0.00441 215.99547 228.32620
220.0 0.00455 215.92664 225.88867
187.0 0.00535 215.85793 224.06862
219.0 0.00457 215.78937 222.78134
242.0 0.00413 215.72102 221.91997
214.0 0.00467 215.65283 221.38264
252.0 0.00397 215.58495 221.08812
215.0 0.00465 215.51726 220.97858
212.0 0.00472 215.44980 221.04253
227.0 0.00441 215.38264 221.28099
230.0 0.00435 215.31578 221.73068
240.0 0.00417 215.24925 222.46616
223.0 0.00448 215.18300 223.60713
233.0 0.00429 215.11714 225.26129
232.0 0.00431 215.05167 227.67258
229.0 0.00437 214.98656 230.99327
221.0 0.00452 214.92186 235.43599
260.0 0.00385 214.85765 241.15344
253.0 0.00395 214.79385 248.09499
277.0 0.00361 214.73051 256.10538
295.0 0.003390 214.66763 264.73810
281.0 0.00356 214.60533 273.21716
269.0 0.00372 214.54350 280.48349
300.0 0.003333 214.48221 285.38596
322.0 0.003106 214.42149 287.13254
321.0 0.003115 214.36131 285.66083
310.0 0.003226 214.30185 281.64737
288.0 0.003472 214.24292 276.56085
269.0 0.00372 214.18457 271.75586
252.0 0.00397 214.12691 268.26831
241.0 0.00415 214.06992 266.67545
263.0 0.00380 214.01361 267.02499
265.0 0.00377 213.95805 268.88208
291.0 0.003436 213.90312 271.42969
291.0 0.003436 213.84895 273.63953
275.0 0.00364 213.79559 274.57394
291.0 0.003436 213.74294 273.69501
287.0 0.003484 213.69104 271.19931
282.0 0.00355 213.63995 267.71307
277.0 0.00361 213.58971 263.93631
259.0 0.00386 213.54022 260.30057
239.0 0.00418 213.49165 256.89804
259.0 0.00386 213.44391 253.62877
266.0 0.00376 213.39697 250.41710
235.0 0.00426 213.35094 247.29210
248.0 0.00403 213.30582 244.32393
277.0 0.00361 213.26155 241.43417
230.0 0.00435 213.21826 238.63611
220.0 0.00455 213.17587 235.99416
235.0 0.00426 213.13437 233.61174
218.0 0.00459 213.09384 231.54024
221.0 0.00452 213.05434 229.72879
218.0 0.00459 213.01575 228.05428
222.0 0.00450 212.97812 226.40053
250.0 0.00400 212.94148 224.75612
211.0 0.00474 212.90584 223.11787
232.0 0.00431 212.87126 221.58733
204.0 0.00490 212.83763 220.19646
246.0 0.00407 212.80505 218.98788
246.0 0.00407 212.77350 217.97501
206.0 0.00485 212.74301 217.15462
240.0 0.00417 212.71352 216.49359
229.0 0.00437 212.68517 215.99773
218.0 0.00459 212.65773 215.62126
212.0 0.00472 212.63139 215.33601
216.0 0.00463 212.60617 215.12689
208.0 0.00481 212.58200 214.95737
220.0 0.00455 212.55887 214.82233
220.0 0.00455 212.53687 214.71260
193.0 0.00518 212.51590 214.62209
238.0 0.00420 212.49597 214.54654
229.0 0.00437 212.47723 214.48358
255.0 0.00392 212.45952 214.42560
202.0 0.00495 212.44289 214.38351
243.0 0.00412 212.42735 214.35057
227.0 0.00441 212.41289 214.32619
224.0 0.00446 212.39952 214.31023
234.0 0.00427 212.38724 214.30240
201.0 0.00498 212.37601 214.30267
236.0 0.00424 212.36589 214.31120
265.0 0.00377 212.35680 214.32814
219.0 0.00457 212.34880 214.35385
204.0 0.00490 212.34200 214.38869
223.0 0.00448 212.33611 214.43329
216.0 0.00463 212.33128 214.48849
214.0 0.00467 212.32756 214.55527
223.0 0.00448 212.32487 214.63512
206.0 0.00485 212.32323 214.67378
195.0 0.00513 212.32263 214.78810
215.0 0.00465 212.32306 214.92558
240.0 0.00417 212.32457 215.09419
232.0 0.00431 212.32704 215.30695
237.0 0.00422 212.33051 215.59010
199.0 0.00503 212.33495 215.96181
212.0 0.00472 212.34039 216.46910
204.0 0.00490 212.34682 217.16336
228.0 0.00439 212.35425 218.10271
211.0 0.00474 212.36261 219.32069
229.0 0.00437 212.37189 220.89905
238.0 0.00420 212.38217 222.82213
247.0 0.00405 212.39330 225.04971
227.0 0.00441 212.40533 227.48480
240.0 0.00417 212.41830 229.96611
223.0 0.00448 212.43213 232.27383
239.0 0.00418 212.44687 234.18932
227.0 0.00441 212.46237 235.61778
248.0 0.00403 212.47876 236.73225
259.0 0.00386 212.49597 237.94232
233.0 0.00429 212.51398 239.74048
245.0 0.00408 212.53278 242.55948
225.0 0.00444 212.55234 246.69484
290.0 0.003448 212.57260 252.27299
267.0 0.00375 212.59372 259.23740
258.0 0.00388 212.61549 267.31686
255.0 0.00392 212.63799 276.00717
283.0 0.00353 212.66110 284.57043
311.0 0.003215 212.68494 292.21158
285.0 0.00351 212.70943 298.31067
312.0 0.003205 212.73451 302.55396
316.0 0.003165 212.76016 304.77051
304.0 0.003289 212.78650 305.08817
279.0 0.00358 212.81334 303.62476
300.0 0.003333 212.84070 300.73157
304.0 0.003289 212.86865 296.95731
281.0 0.00356 212.89703 292.89090
279.0 0.00358 212.92592 288.87802
274.0 0.00365 212.95525 284.90869
296.0 0.003378 212.98502 280.94003
264.0 0.00379 213.01524 276.89349
255.0 0.00392 213.04578 272.75772
265.0 0.00377 213.07671 268.63077
288.0 0.003472 213.10805 264.55603
249.0 0.00402 213.13963 260.58279
256.0 0.00391 213.17152 256.74210
245.0 0.00408 213.20369 253.14207
229.0 0.00437 213.23615 249.88324
261.0 0.00383 213.26880 246.98639
253.0 0.00395 213.30164 244.38373
203.0 0.00493 213.33469 242.07722
245.0 0.00408 213.36784 240.14575
234.0 0.00427 213.40120 238.82127
256.0 0.00391 213.43466 238.32848
246.0 0.00407 213.46815 238.84271
217.0 0.00461 213.50171 240.42303
239.0 0.00418 213.53532 242.97884
239.0 0.00418 213.56891 246.25208
249.0 0.00402 213.60254 249.85794
253.0 0.00395 213.63608 253.11583
264.0 0.00379 213.66957 255.43990
237.0 0.00422 213.70299 256.43112
235.0 0.00426 213.73625 256.18622
269.0 0.00372 213.76947 255.29225
239.0 0.00418 213.80247 254.45514
272.0 0.00368 213.83530 254.20645
239.0 0.00418 213.86794 254.80243
225.0 0.00444 213.90036 256.16135
237.0 0.00422 213.93246 257.86960
259.0 0.00386 213.96432 259.27255
285.0 0.00351 213.99593 259.62808
260.0 0.00385 214.02711 258.42691
268.0 0.00373 214.05807 255.68259
263.0 0.00380 214.08856 251.83501
269.0 0.00372 214.11873 247.51326
251.0 0.00398 214.14850 243.30531
243.0 0.00412 214.17778 239.64072
241.0 0.00415 214.20673 236.72891
205.0 0.00488 214.23506 234.59280
224.0 0.00446 214.26295 233.07663
228.0 0.00439 214.29039 231.90402
212.0 0.00472 214.31721 230.76990
217.0 0.00461 214.34357 229.46707
221.0 0.00452 214.36931 227.93875
252.0 0.00397 214.39445 226.27988
208.0 0.00481 214.41899 224.61742
195.0 0.00513 214.44292 223.06534
224.0 0.00446 214.46619 221.69629
210.0 0.00476 214.48885 220.55347
208.0 0.00481 214.51074 219.64481
215.0 0.00465 214.53203 218.95465
226.0 0.00442 214.55261 218.45390
205.0 0.00488 214.57243 218.10544
210.0 0.00476 214.59154 217.87520
229.0 0.00437 214.60991 217.73816
216.0 0.00463 214.62749 217.66995
207.0 0.00483 214.64427 217.66547
193.0 0.00518 214.66034 217.72653
226.0 0.00442 214.67558 217.86316
243.0 0.00412 214.68996 218.09233
205.0 0.00488 214.70360 218.43454
209.0 0.00478 214.71628 218.90616
210.0 0.00476 214.72824 219.51816
214.0 0.00467 214.73933 220.26389
253.0 0.00395 214.74951 221.11644
195.0 0.00513 214.75888 222.02254
221.0 0.00452 214.76743 222.89444
221.0 0.00452 214.77501 223.61835
213.0 0.00469 214.78172 224.06967
212.0 0.00472 214.78758 224.17128
228.0 0.00439 214.79251 223.94057
211.0 0.00474 214.79657 223.48502
252.0 0.00397 214.79973 222.94347
205.0 0.00488 214.80202 222.43924
196.0 0.00510 214.80339 222.05817
223.0 0.00448 214.80382 221.84962
216.0 0.00463 214.80339 221.82928
222.0 0.00450 214.80200 221.99887
220.0 0.00455 214.79976 222.29691
205.0 0.00488 214.79659 222.71638
249.0 0.00402 214.79254 223.19572
231.0 0.00433 214.78763 223.81033
203.0 0.00493 214.78180 224.64763
214.0 0.00467 214.77509 225.86938
214.0 0.00467 214.76747 227.62895
213.0 0.00469 214.75903 230.13428
239.0 0.00418 214.74966 233.56099
235.0 0.00426 214.73949 238.05103
247.0 0.00405 214.72844 243.66693
275.0 0.00364 214.71660 250.37537
264.0 0.00379 214.70384 257.99185
252.0 0.00397 214.69032 266.12521
268.0 0.00373 214.67595 274.12155
280.0 0.00357 214.66087 281.12756
285.0 0.00351 214.64494 286.19949
331.0 0.003021 214.62820 288.78061
339.0 0.002950 214.61075 288.73300
320.0 0.003125 214.59254 286.42838
327.0 0.003058 214.57353 282.67017
296.0 0.003378 214.55392 278.24841
270.0 0.00370 214.53360 273.81372
234.0 0.00427 214.51250 269.77396
278.0 0.00360 214.49080 266.36551
275.0 0.00364 214.46846 263.67563
277.0 0.00361 214.44548 261.59656
261.0 0.00383 214.42184 259.88950
262.0 0.00382 214.39763 258.32828
267.0 0.00375 214.37286 256.74786
259.0 0.00386 214.34756 255.20618
272.0 0.00368 214.32173 253.94437
236.0 0.00424 214.29535 253.30382
223.0 0.00448 214.26851 253.50417
237.0 0.00422 214.24120 254.80113
236.0 0.00424 214.21347 257.31995
235.0 0.00426 214.18529 261.05832
238.0 0.00420 214.15668 265.88480
247.0 0.00405 214.12784 271.48804
271.0 0.00369 214.09848 277.49435
293.0 0.003413 214.06894 283.53482
297.0 0.003367 214.03900 289.21494
316.0 0.003165 214.00882 293.92703
340.0 0.002941 213.97844 296.79257
370.0 0.002703 213.94780 296.96869
337.0 0.002967 213.91693 294.15817
358.0 0.002793 213.88603 288.87430
308.0 0.003247 213.85484 282.25095
290.0 0.003448 213.82358 275.37836
298.0 0.003356 213.79225 269.04575
261.0 0.00383 213.76093 263.71808
236.0 0.00424 213.72945 259.56351
240.0 0.00417 213.69804 256.54993
250.0 0.00400 213.66661 254.44308
252.0 0.00397 213.63528 252.79594
248.0 0.00403 213.60402 251.05840
300.0 0.003333 213.57286 248.75055
301.0 0.003322 213.54179 245.77422
281.0 0.00356 213.51096 242.29482
233.0 0.00429 213.48024 238.68948
245.0 0.00408 213.44986 235.30591
222.0 0.00450 213.41965 232.40024
224.0 0.00446 213.38965 230.12039
233.0 0.00429 213.36000 228.51324
250.0 0.00400 213.33070 227.52541
242.0 0.00413 213.30170 227.03578
230.0 0.00435 213.27316 226.82285
248.0 0.00403 213.24498 226.65002
251.0 0.00398 213.21724 226.32158
229.0 0.00437 213.18990 225.71123
240.0 0.00417 213.16310 224.82922
222.0 0.00450 213.13686 223.79292
214.0 0.00467 213.11104 222.73938
226.0 0.00442 213.08585 221.78577
232.0 0.00431 213.06117 221.00639
214.0 0.00467 213.03719 220.43703
231.0 0.00433 213.01376 220.07227
215.0 0.00465 212.99097 219.87190
223.0 0.00448 212.96887 219.77274
226.0 0.00442 212.94746 219.68138
230.0 0.00435 212.92679 219.53087
222.0 0.00450 212.90681 219.28874
209.0 0.00478 212.88760 218.96895
237.0 0.00422 212.86906 218.60745
215.0 0.00465 212.85147 218.24348
223.0 0.00448 212.83461 217.90616
241.0 0.00415 212.81854 217.61383
224.0 0.00446 212.80333 217.38165
221.0 0.00452 212.78897 217.22752
221.0 0.00452 212.77545 217.17239
226.0 0.00442 212.76285 217.24358
213.0 0.00469 212.75116 217.47546
230.0 0.00435 212.74025 217.91753
223.0 0.00448 212.73045 218.63451
232.0 0.00431 212.72147 219.70461
206.0 0.00485 212.71342 221.23247
240.0 0.00417 212.70638 223.30762
203.0 0.00493 212.70021 226.03015
216.0 0.00463 212.69504 229.39299
223.0 0.00448 212.69080 233.39488
227.0 0.00441 212.68764 237.91017
214.0 0.00467 212.68532 242.70367
216.0 0.00463 212.68407 247.40674
259.0 0.00386 212.68373 251.53699
258.0 0.00388 212.68443 254.63925
283.0 0.00353 212.68611 256.40948
241.0 0.00415 212.68877 256.80371
240.0 0.00417 212.69235 255.99702
256.0 0.00391 212.69698 254.25060
263.0 0.00380 212.70262 251.82870
231.0 0.00433 212.70924 249.03284
265.0 0.00377 212.71672 246.17912
244.0 0.00410 212.72528 243.58020
222.0 0.00450 212.73473 241.42249
237.0 0.00422 212.74515 239.71577
256.0 0.00391 212.75652 238.34785
219.0 0.00457 212.76877 237.13402
239.0 0.00418 212.78200 235.91469
224.0 0.00446 212.79616 234.60291
235.0 0.00426 212.81119 233.17415
242.0 0.00413 212.82712 231.60945
231.0 0.00433 212.84390 230.01073
224.0 0.00446 212.86160 228.39534
181.0 0.00552 212.88007 226.95313
232.0 0.00431 212.89937 225.82329
223.0 0.00448 212.91956 225.17587
232.0 0.00431 212.94040 225.16318
222.0 0.00450 212.96214 225.91360
225.0 0.00444 212.98465 227.55460
235.0 0.00426 213.00783 230.14163
238.0 0.00420 213.03181 233.66051
231.0 0.00433 213.05637 237.99216
240.0 0.00417 213.08168 242.92958
230.0 0.00435 213.10760 248.06279
242.0 0.00413 213.13422 252.83438
254.0 0.00394 213.16139 256.55560
248.0 0.00403 213.18918 258.52551
253.0 0.00395 213.21750 258.34930
254.0 0.00394 213.24640 256.17545
241.0 0.00415 213.27583 252.63260
253.0 0.00395 213.30573 248.50443
260.0 0.00385 213.33601 244.46837
240.0 0.00417 213.36681 240.98360
222.0 0.00450 213.39801 238.36021
224.0 0.00446 213.42961 236.64420
220.0 0.00455 213.46156 235.72943
216.0 0.00463 213.49385 235.35399
237.0 0.00422 213.52647 235.15247
227.0 0.00441 213.55940 234.68100
245.0 0.00408 213.59253 233.79659
215.0 0.00465 213.62592 232.39241
235.0 0.00426 213.65950 230.61237
228.0 0.00439 213.69327 228.67346
232.0 0.00431 213.72726 226.77477
212.0 0.00472 213.76134 225.04483
199.0 0.00503 213.79553 223.57616
231.0 0.00433 213.82982 222.38684
210.0 0.00476 213.86423 221.43938
220.0 0.00455 213.89862 220.70186
215.0 0.00465 213.93304 220.14194
219.0 0.00457 213.96745 219.72812
187.0 0.00535 214.00182 219.49625
192.0 0.00521 214.03632 219.43388
248.0 0.00403 214.07056 219.53935
223.0 0.00448 214.10480 219.81541
236.0 0.00424 214.13892 220.20251
203.0 0.00493 214.17300 220.66914
228.0 0.00439 214.20689 221.14816
219.0 0.00457 214.24066 221.55527
256.0 0.00391 214.27434 221.81403
231.0 0.00433 214.30777 221.87297
224.0 0.00446 214.34109 221.75378
216.0 0.00463 214.37422 221.53189
259.0 0.00386 214.40712 221.33029
242.0 0.00413 214.43979 221.26076
251.0 0.00398 214.47238 221.42924
220.0 0.00455 214.50462 221.92386
248.0 0.00403 214.53671 222.84569
229.0 0.00437 214.56854 224.15894
220.0 0.00455 214.60025 225.89314
243.0 0.00412 214.63168 227.98885
200.0 0.00500 214.66287 230.33510
226.0 0.00442 214.69392 232.76620
277.0 0.00361 214.72472 235.05362
213.0 0.00469 214.75539 236.92680
271.0 0.00369 214.78577 238.12018
230.0 0.00435 214.81606 238.47046
253.0 0.00395 214.84615 238.00352
242.0 0.00413 214.87611 236.90210
221.0 0.00452 214.90598 235.40979
240.0 0.00417 214.93564 233.72879
236.0 0.00424 214.96527 232.06793
230.0 0.00435 214.99481 230.59309
215.0 0.00465 215.02428 229.41881
222.0 0.00450 215.05368 228.57990
217.0 0.00461 215.08311 228.03508
256.0 0.00391 215.11255 227.67503
217.0 0.00461 215.14215 227.35677
229.0 0.00437 215.17166 226.95505
259.0 0.00386 215.20140 226.40971
218.0 0.00459 215.23120 225.73193
223.0 0.00448 215.26122 224.98384
227.0 0.00441 215.29149 224.20540
227.0 0.00441 215.32198 223.47012
198.0 0.00505 215.35271 222.86525
231.0 0.00433 215.38376 222.47717
236.0 0.00424 215.41522 222.38870
199.0 0.00503 215.44708 222.66182
232.0 0.00431 215.47939 223.39125
225.0 0.00444 215.51227 224.59637
232.0 0.00431 215.54552 226.33125
196.0 0.00510 215.57945 228.56430
226.0 0.00442 215.61403 231.22800
270.0 0.00370 215.64925 234.17068
210.0 0.00476 215.68517 237.19067
255.0 0.00392 215.72191 239.95558
273.0 0.00366 215.75937 242.06705
257.0 0.00389 215.79781 243.14528
276.0 0.00362 215.83705 242.98674
259.0 0.00386 215.87729 241.68849
255.0 0.00392 215.91858 239.62000
233.0 0.00429 215.96083 237.20598
234.0 0.00427 216.00423 234.83867
242.0 0.00413 216.04874 232.78868
227.0 0.00441 216.09445 231.21059
227.0 0.00441 216.14137 230.15231
220.0 0.00455 216.18954 229.57759
246.0 0.00407 216.23915 229.34201
215.0 0.00465 216.28996 229.24979
220.0 0.00455 216.34222 229.07762
242.0 0.00413 216.39594 228.64578
238.0 0.00420 216.45102 227.88544
253.0 0.00395 216.50774 226.84653
228.0 0.00439 216.56586 225.67587
212.0 0.00472 216.62558 224.43849
251.0 0.00398 216.68692 223.26216
240.0 0.00417 216.74986 222.21225
199.0 0.00503 216.81441 221.32559
191.0 0.00524 216.88063 220.61673
256.0 0.00391 216.94853 220.07866
230.0 0.00435 217.01813 219.69098
193.0 0.00518 217.08932 219.42795
210.0 0.00476 217.16234 219.26259
222.0 0.00450 217.23697 219.17062
208.0 0.00481 217.31339 219.13100
256.0 0.00391 217.39146 219.12927
233.0 0.00429 217.47121 219.16530
218.0 0.00459 217.55276 219.22638
231.0 0.00433 217.63591 219.28839
219.0 0.00457 217.72076 219.36386
230.0 0.00435 217.80728 219.45100
212.0 0.00472 217.89537 219.54915
250.0 0.00400 217.98520 219.65810
208.0 0.00481 218.07648 219.77756
231.0 0.00433 218.16940 219.91428
225.0 0.00444 218.26384 220.05653
222.0 0.00450 218.35968 220.21167
193.0 0.00518 218.45702 220.38139
213.0 0.00469 218.55582 220.56815
227.0 0.00441 218.65604 220.77623
206.0 0.00485 218.75745 221.02438
202.0 0.00495 218.86020 221.29518
216.0 0.00463 218.96420 221.61459
212.0 0.00472 219.06947 222.00072
241.0 0.00415 219.17589 222.47771
216.0 0.00463 219.28334 223.07317
213.0 0.00469 219.39194 223.82861
201.0 0.00498 219.50166 224.78900
229.0 0.00437 219.61235 225.95680
246.0 0.00407 219.72403 227.45679
216.0 0.00463 219.83659 229.27924
234.0 0.00427 219.95018 231.43915
233.0 0.00429 220.06483 233.92856
236.0 0.00424 220.18037 236.70401
217.0 0.00461 220.29689 239.68028
229.0 0.00437 220.41431 242.71957
276.0 0.00362 220.53276 245.65094
248.0 0.00403 220.65239 248.30400
240.0 0.00417 220.77310 250.55341
260.0 0.00385 220.89513 252.36247
270.0 0.00370 221.01840 253.76585
238.0 0.00420 221.14311 254.85130
228.0 0.00439 221.26959 255.68889
248.0 0.00403 221.39781 256.27246
231.0 0.00433 221.52809 256.54547
229.0 0.00437 221.66058 256.50052
259.0 0.00386 221.79561 256.27682
246.0 0.00407 221.93361 256.14212
259.0 0.00386 222.07474 256.38217
285.0 0.00351 222.21968 257.20993
284.0 0.00352 222.36852 258.71692
252.0 0.00397 222.52202 260.89282
253.0 0.00395 222.68085 263.60538
275.0 0.00364 222.84531 266.59390
262.0 0.00382 223.01645 269.46686
273.0 0.00366 223.19478 271.68225
304.0 0.003289 223.38126 272.66068
312.0 0.003205 223.57692 271.99481
302.0 0.003311 223.78247 269.68201
301.0 0.003322 223.99945 266.13086
281.0 0.00356 224.22870 261.96527
254.0 0.00394 224.47165 257.77768
248.0 0.00403 224.72990 254.01892
242.0 0.00413 225.00467 250.99071
217.0 0.00461 225.29819 248.82535
243.0 0.00412 225.61159 247.51384
241.0 0.00415 225.94717 246.96362
269.0 0.00372 226.30754 246.95140
251.0 0.00398 226.69405 247.21384
267.0 0.00375 227.11006 247.50104
252.0 0.00397 227.55753 247.68108
279.0 0.00358 228.03937 247.77455
260.0 0.00385 228.55942 247.93758
295.0 0.003390 229.12000 248.36792
216.0 0.00463 229.72543 249.22697
250.0 0.00400 230.37862 250.60393
217.0 0.00461 231.08377 252.49886
256.0 0.00391 231.84607 254.80951
239.0 0.00418 232.66899 257.33588
257.0 . . .
loop_
_refln_index_h
_refln_index_k
_refln_index_l
_pd_refln_wavelength_id
_refln_observed_status
_refln_F_squared_meas
_refln_F_squared_calc
_refln_phase_calc
_refln_d_spacing
_gsas_i100_meas
1 0 0 1 o 247.086 241.239 0.00 8.22773 39.92
1 0 0 2 o 253.510 241.239 0.00 8.22773 15.46
1 1 0 1 o 9.898 10.923 180.00 4.84844 0.99
1 1 0 2 o 9.113 10.923 180.00 4.84844 0.34
0 0 1 1 o 11.141 8.530 0.00 4.54931 0.49
0 0 1 2 o 6.931 8.530 0.00 4.54931 0.10
2 0 0 1 o 172.958 155.997 180.00 4.11387 6.62
1 0 -1 1 o 177.609 160.634 0.00 4.10831 6.39
2 0 0 2 o 173.387 155.997 180.00 4.11387 2.51
1 0 -1 2 o 173.166 160.634 0.00 4.10831 2.36
1 0 1 1 o 1210.221 1196.133 180.00 3.86530 44.79
1 0 1 2 o 1207.187 1196.133 180.00 3.86530 16.89
0 1 1 1 o -1.559 0.858 0.00 3.62533 0.00
0 1 1 2 o -1.559 0.858 0.00 3.62533 0.00
2 1 0 1 o 487.976 471.094 0.00 3.39313 29.43
1 1 -1 1 o 1762.664 1720.483 180.00 3.39001 100.00
2 1 0 2 o 477.908 471.094 0.00 3.39313 10.91
1 1 -1 2 o 1720.943 1720.483 180.00 3.39001 36.94
1 1 1 1 o 408.903 400.985 180.00 3.24956 22.53
1 1 1 2 o 409.963 400.985 180.00 3.24956 8.54
2 0 -1 1 o 416.762 423.555 0.00 3.16668 8.75
2 0 -1 2 o 383.765 423.555 0.00 3.16668 3.06
0 2 0 1 o 2496.873 2505.961 180.00 3.00054 49.99
0 2 0 2 o 2388.608 2505.961 180.00 3.00054 18.10
2 0 1 1 o 268.878 247.484 180.00 2.94768 5.11
2 0 1 2 o 263.084 247.484 180.00 2.94768 1.89
1 2 0 1 o 179.646 160.321 180.00 2.81893 6.85
1 2 0 2 o 175.659 160.321 180.00 2.81893 2.54
2 1 -1 1 o 34.144 30.563 180.00 2.80067 1.31
2 1 -1 2 o 33.906 30.563 180.00 2.80067 0.49
3 0 0 1 o 823.052 806.886 180.00 2.74258 13.26
3 0 0 2 o 744.331 806.886 180.00 2.74258 4.56
2 1 1 1 o 880.583 885.618 180.00 2.64574 29.74
2 1 1 2 o 825.715 885.618 180.00 2.64574 10.57
0 2 1 1 o -1.197 0.057 0.00 2.50478 0.00
0 2 1 2 o -1.197 0.057 0.00 2.50478 0.00
3 1 0 1 o 0.364 4.131 180.00 2.49443 0.00
3 1 0 2 o 0.364 4.131 180.00 2.49443 0.00
3 0 -1 1 o 1088.421 1056.649 0.00 2.42721 12.62
2 2 0 1 o 70.389 70.076 0.00 2.42422 2.06
1 2 -1 1 o 66.174 66.014 180.00 2.42308 1.82
3 0 -1 2 o 1062.862 1056.649 0.00 2.42721 4.66
2 2 0 2 o 72.828 70.076 0.00 2.42422 0.80
1 2 -1 2 o 70.181 66.014 180.00 2.42308 0.73
1 2 1 1 o 630.293 630.957 0.00 2.37020 17.67
1 2 1 2 o 619.837 630.957 0.00 2.37020 6.57
3 0 1 1 o 1.710 14.610 180.00 2.27748 0.00
0 0 2 1 o 0.477 1.208 0.00 2.27465 0.01
3 0 1 2 o 14.401 14.610 180.00 2.27748 0.05
0 0 2 2 o 2.300 1.208 0.00 2.27465 0.01
3 1 -1 1 o -0.584 10.089 0.00 2.25013 0.03
3 1 -1 2 o 5.421 10.089 0.00 2.25013 0.06
1 0 -2 1 o 99.228 110.659 180.00 2.23406 1.08
1 0 -2 2 o 114.616 110.659 180.00 2.23406 0.47
2 2 -1 1 o 293.951 278.959 180.00 2.17807 6.59
2 2 -1 2 o 297.293 278.959 180.00 2.17807 2.52
1 0 2 1 o 262.990 250.527 0.00 2.15301 2.82
1 0 2 2 o 265.447 250.527 0.00 2.15301 1.07
3 1 1 1 o 92.638 90.013 180.00 2.12930 1.92
0 1 2 1 o 721.711 707.934 180.00 2.12699 15.10
3 1 1 2 o 91.595 90.013 180.00 2.12930 0.72
0 1 2 2 o 714.761 707.934 180.00 2.12699 5.65
2 2 1 1 o 112.120 103.659 0.00 2.10276 2.38
2 2 1 2 o 107.535 103.659 0.00 2.10276 0.86
1 1 -2 1 o 163.906 165.025 0.00 2.09368 3.17
1 1 -2 2 o 169.113 165.025 0.00 2.09368 1.23
4 0 0 1 o 309.816 285.412 180.00 2.05693 2.60
2 0 -2 1 o 365.900 357.010 180.00 2.05415 2.98
4 0 0 2 o 283.599 285.412 180.00 2.05693 0.90
2 0 -2 2 o 349.845 357.010 180.00 2.05415 1.08
1 1 2 1 o 102.144 99.177 180.00 2.02653 1.96
3 2 0 1 o 453.088 447.989 0.00 2.02436 8.78
1 1 2 2 o 98.281 99.177 180.00 2.02653 0.71
3 2 0 2 o 423.143 447.989 0.00 2.02436 3.11
4 1 0 1 o 88.395 88.034 180.00 1.94580 1.44
1 3 0 1 o 30.994 29.328 180.00 1.94374 0.54
2 1 -2 1 o 1.547 1.479 0.00 1.94345 0.02
4 1 0 2 o 92.102 88.034 180.00 1.94580 0.56
1 3 0 2 o 28.195 29.328 180.00 1.94374 0.19
2 1 -2 2 o 1.421 1.479 0.00 1.94345 0.01
2 0 2 1 o 31.203 49.851 0.00 1.93265 0.29
2 0 2 2 o 44.902 49.851 0.00 1.93265 0.15
4 0 -1 1 o 4.571 4.580 180.00 1.92699 0.03
4 0 -1 2 o 3.359 4.580 180.00 1.92699 0.01
3 2 -1 1 o 446.321 456.735 180.00 1.88709 7.01
3 2 -1 2 o 482.507 456.735 180.00 1.88709 2.85
2 1 2 1 o 11.553 11.593 0.00 1.83960 0.19
2 1 2 2 o 9.944 11.593 0.00 1.83960 0.06
4 1 -1 1 o 51.144 59.841 0.00 1.83472 0.76
0 3 1 1 o 17.223 18.862 180.00 1.83116 0.28
4 1 -1 2 o 58.649 59.841 0.00 1.83472 0.32
0 3 1 2 o 22.218 18.862 180.00 1.83116 0.13
4 0 1 1 o 620.376 527.309 0.00 1.82562 3.83
4 0 1 2 o 651.742 527.309 0.00 1.82562 1.52
3 0 -2 1 o 56.310 41.881 0.00 1.81618 0.30
3 2 1 1 o 1.270 0.633 180.00 1.81410 0.03
0 2 2 1 o 22.257 15.149 180.00 1.81267 0.32
3 0 -2 2 o 60.559 41.881 0.00 1.81618 0.12
3 2 1 2 o 1.350 0.633 180.00 1.81410 0.01
0 2 2 2 o 21.472 15.149 180.00 1.81267 0.12
2 3 0 1 o 209.604 189.958 180.00 1.79896 2.96
1 3 -1 1 o 621.738 555.587 0.00 1.79850 8.41
2 3 0 2 o 221.448 189.958 180.00 1.79896 1.18
1 3 -1 2 o 642.518 555.587 0.00 1.79850 3.28
1 2 -2 1 o 60.821 53.332 0.00 1.79192 0.89
1 2 -2 2 o 49.331 53.332 0.00 1.79192 0.28
1 3 1 1 o 111.450 120.963 0.00 1.77655 1.49
1 3 1 2 o 120.052 120.963 0.00 1.77655 0.61
1 2 2 1 o 110.921 127.743 180.00 1.74928 1.62
4 1 1 1 o 48.355 54.481 0.00 1.74659 0.56
1 2 2 2 o 109.446 127.743 180.00 1.74928 0.60
4 1 1 2 o 46.503 54.481 0.00 1.74659 0.20
3 1 -2 1 o 141.914 148.247 180.00 1.73831 1.65
3 1 -2 2 o 139.533 148.247 180.00 1.73831 0.61
4 2 0 1 o 167.481 181.400 0.00 1.69656 2.10
2 2 -2 1 o 246.763 262.126 0.00 1.69500 2.98
4 2 0 2 o 170.622 181.400 0.00 1.69656 0.81
3 0 2 1 o 17.829 18.876 180.00 1.69207 0.09
2 3 -1 1 o 37.093 39.312 0.00 1.69120 0.46
2 2 -2 2 o 248.597 262.126 0.00 1.69500 1.13
3 0 2 2 o 18.851 18.876 180.00 1.69207 0.04
2 3 -1 2 o 41.341 39.312 0.00 1.69120 0.19
2 3 1 1 o 315.125 285.211 0.00 1.65521 3.74
2 3 1 2 o 324.161 285.211 0.00 1.65521 1.45
5 0 0 1 o 0.575 0.369 180.00 1.64555 0.00
5 0 0 2 o 0.618 0.369 180.00 1.64555 0.00
3 1 2 1 o 643.675 636.610 0.00 1.62857 6.74
2 2 2 1 o 46.144 45.811 180.00 1.62478 0.57
3 1 2 2 o 641.441 636.610 0.00 1.62857 2.54
4 2 -1 1 o 1.203 1.131 0.00 1.62142 0.01
2 2 2 2 o 51.151 45.811 180.00 1.62478 0.24
4 2 -1 2 o 1.669 1.131 0.00 1.62142 0.01
3 3 0 1 o 0.191 0.081 180.00 1.61615 0.00
3 3 0 2 o 0.156 0.081 180.00 1.61615 0.00
5 1 0 1 o 273.790 278.243 180.00 1.58697 2.61
5 0 -1 1 o 235.413 235.629 180.00 1.58429 1.04
4 0 -2 1 o 119.158 118.157 0.00 1.58334 0.50
5 1 0 2 o 282.078 278.243 180.00 1.58697 1.01
5 0 -1 2 o 255.353 235.629 180.00 1.58429 0.42
4 0 -2 2 o 128.014 118.157 0.00 1.58334 0.20
4 2 1 1 o 278.142 293.726 180.00 1.55963 2.79
4 2 1 2 o 279.572 293.726 180.00 1.55963 1.06
3 2 -2 1 o 14.975 15.310 180.00 1.55373 0.12
3 2 -2 2 o 17.547 15.310 180.00 1.55373 0.06
3 3 -1 1 o 11.867 9.835 180.00 1.54368 0.12
3 3 -1 2 o 11.907 9.835 180.00 1.54368 0.05
5 1 -1 1 o 54.060 52.171 0.00 1.53181 0.48
4 1 -2 1 o 487.136 456.855 180.00 1.53095 3.90
5 1 -1 2 o 55.954 52.171 0.00 1.53181 0.19
4 1 -2 2 o 477.702 456.855 180.00 1.53095 1.45
0 0 3 1 o 11.163 11.597 0.00 1.51644 0.06
5 0 1 1 o 36.384 44.510 0.00 1.51302 0.15
0 0 3 2 o 9.093 11.597 0.00 1.51644 0.02
1 0 -3 1 o 109.933 137.654 0.00 1.51081 0.49
5 0 1 2 o 37.693 44.510 0.00 1.51302 0.06
1 0 -3 2 o 109.945 137.654 0.00 1.51081 0.19
3 3 1 1 o 87.669 90.231 0.00 1.50295 0.86
0 3 2 1 o 402.893 393.207 0.00 1.50213 3.78
0 4 0 1 o 561.761 516.653 0.00 1.50027 2.26
3 3 1 2 o 99.760 90.231 0.00 1.50295 0.37
0 3 2 2 o 435.221 393.207 0.00 1.50213 1.54
0 4 0 2 o 553.292 516.653 0.00 1.50027 0.84
1 3 -2 1 o 44.154 48.764 180.00 1.49026 0.42
1 3 -2 2 o 38.866 48.764 180.00 1.49026 0.14
1 4 0 1 o 83.240 53.832 0.00 1.47593 0.66
3 2 2 1 o 18.116 14.773 0.00 1.47387 0.15
4 0 2 1 o 5.973 4.486 180.00 1.47384 0.03
1 0 3 1 o 14.424 13.534 180.00 1.47256 0.06
1 4 0 2 o 55.518 53.832 0.00 1.47593 0.17
3 2 2 2 o 12.821 14.773 0.00 1.47387 0.04
0 1 3 1 o 118.961 139.010 0.00 1.47022 1.04
4 0 2 2 o 3.595 4.486 180.00 1.47384 0.01
1 0 3 2 o 11.280 13.534 180.00 1.47256 0.02
5 1 1 1 o 65.080 71.307 0.00 1.46711 0.53
0 1 3 2 o 131.643 139.010 0.00 1.47022 0.43
1 3 2 1 o 68.234 66.340 0.00 1.46546 0.61
1 1 -3 1 o 7.705 7.338 0.00 1.46509 0.06
5 1 1 2 o 78.525 71.307 0.00 1.46711 0.24
1 3 2 2 o 69.652 66.340 0.00 1.46546 0.24
1 1 -3 2 o 7.639 7.338 0.00 1.46509 0.02
2 0 -3 1 o 58.287 47.766 0.00 1.45726 0.22
2 0 -3 2 o 59.591 47.766 0.00 1.45726 0.08
5 2 0 1 o 0.022 0.011 0.00 1.44282 0.00
5 2 0 2 o 0.053 0.011 0.00 1.44282 0.00
4 1 2 1 o 112.038 116.728 0.00 1.43131 0.84
4 3 0 2 o 53.153 56.785 0.00 1.43405 0.18
1 1 3 1 o 131.506 141.974 0.00 1.43014 1.09
2 3 -2 2 o 0.149 0.174 0.00 1.43311 0.00
4 3 0 1 o 55.804 56.785 0.00 1.43405 0.49
4 1 2 2 o 102.102 116.728 0.00 1.43131 0.29
2 3 -2 1 o 0.170 0.174 0.00 1.43311 0.00
1 1 3 2 o 126.235 141.974 0.00 1.43014 0.40
0 4 1 1 o 5.539 5.551 180.00 1.42479 0.05
0 4 1 2 o 3.139 5.551 180.00 1.42479 0.01
2 1 -3 1 o 188.353 177.075 0.00 1.41610 1.33
2 1 -3 2 o 211.740 177.075 0.00 1.41610 0.56
2 4 0 1 o 36.000 24.732 180.00 1.40947 0.27
1 4 -1 1 o 22.128 15.250 0.00 1.40924 0.16
2 4 0 2 o 29.966 24.732 180.00 1.40947 0.08
1 4 -1 2 o 18.005 15.250 0.00 1.40924 0.05
5 2 -1 1 o 139.081 147.757 0.00 1.40100 1.04
4 2 -2 1 o 68.551 71.404 180.00 1.40034 0.50
1 4 1 1 o 216.491 203.897 180.00 1.39861 1.61
5 2 -1 2 o 164.703 147.757 0.00 1.40100 0.46
4 2 -2 2 o 80.273 71.404 180.00 1.40034 0.22
1 4 1 2 o 229.019 203.897 180.00 1.39861 0.64
2 0 3 1 o 325.954 277.215 180.00 1.39076 1.20
2 3 2 1 o 13.562 11.364 180.00 1.38991 0.12
4 3 -1 1 o 86.905 78.240 180.00 1.38780 0.69
2 0 3 2 o 306.645 277.215 180.00 1.39076 0.43
2 3 2 2 o 12.772 11.364 180.00 1.38991 0.04
4 3 -1 2 o 82.971 78.240 180.00 1.38780 0.25
5 0 -2 1 o 52.047 60.242 0.00 1.38125 0.17
5 0 -2 2 o 42.008 60.242 0.00 1.38125 0.05
6 0 0 1 o 32.619 27.242 0.00 1.37129 0.11
3 0 -3 1 o 0.671 0.795 0.00 1.36944 0.00
6 0 0 2 o 20.195 27.242 0.00 1.37129 0.03
3 0 -3 2 o 0.734 0.795 0.00 1.36944 0.00
2 4 -1 1 o 107.344 99.935 0.00 1.35581 0.76
2 1 3 1 o 3.401 3.279 0.00 1.35486 0.03
0 2 3 1 o 9.009 9.428 180.00 1.35341 0.07
2 4 -1 2 o 93.985 99.935 0.00 1.35581 0.25
2 1 3 2 o 3.091 3.279 0.00 1.35486 0.01
5 2 1 1 o 28.875 30.630 180.00 1.35098 0.21
0 2 3 2 o 8.647 9.428 180.00 1.35341 0.03
1 2 -3 1 o 114.024 126.153 180.00 1.34941 0.82
4 3 1 1 o 12.042 13.433 180.00 1.34846 0.09
5 2 1 2 o 27.048 30.630 180.00 1.35098 0.07
1 2 -3 2 o 114.050 126.153 180.00 1.34941 0.31
5 1 -2 1 o 3.246 3.561 180.00 1.34605 0.02
4 3 1 2 o 12.847 13.433 180.00 1.34846 0.03
3 3 -2 1 o 98.672 100.565 0.00 1.34464 0.71
5 1 -2 2 o 3.423 3.561 180.00 1.34605 0.01
3 3 -2 2 o 87.661 100.565 0.00 1.34464 0.24
6 0 -1 1 o 279.393 307.762 180.00 1.33983 0.83
2 4 1 1 o 30.475 32.533 180.00 1.33705 0.21
6 1 0 1 o 0.171 0.185 0.00 1.33683 0.00
6 0 -1 2 o 288.128 307.762 180.00 1.33983 0.32
3 1 -3 1 o 231.700 248.183 0.00 1.33511 1.38
2 4 1 2 o 27.054 32.533 180.00 1.33705 0.07
6 1 0 2 o 0.142 0.185 0.00 1.33683 0.00
3 1 -3 2 o 150.578 248.183 0.00 1.33511 0.35
4 2 2 1 o 15.035 6.957 0.00 1.32287 0.11
1 2 3 1 o 23.922 13.764 0.00 1.32195 0.17
4 2 2 2 o 6.849 6.957 0.00 1.32287 0.02
1 2 3 2 o 12.894 13.764 0.00 1.32195 0.04
3 4 0 1 o 211.670 159.546 180.00 1.31621 1.40
3 4 0 2 o 205.019 159.546 180.00 1.31621 0.51
2 2 -3 1 o 37.512 29.299 180.00 1.31084 0.24
6 1 -1 1 o 2.216 1.186 180.00 1.30764 0.01
2 2 -3 2 o 52.480 29.299 180.00 1.31084 0.12
6 1 -1 2 o 2.028 1.186 180.00 1.30764 0.00
3 3 2 1 o 326.700 306.079 180.00 1.29187 2.18
5 0 2 1 o 104.156 101.688 180.00 1.28993 0.30
3 3 2 2 o 308.717 306.079 180.00 1.29187 0.78
3 0 3 1 o 50.868 50.519 180.00 1.28843 0.16
6 0 1 1 o 19.667 20.084 180.00 1.28761 0.05
5 0 2 2 o 92.994 101.688 180.00 1.28993 0.10
3 0 3 2 o 44.806 50.519 180.00 1.28843 0.05
6 0 1 2 o 20.092 20.084 180.00 1.28761 0.02
3 4 -1 1 o 182.873 151.876 0.00 1.27616 1.13
3 4 -1 2 o 145.835 151.876 0.00 1.27616 0.35
5 3 0 1 o 131.447 146.906 0.00 1.27081 0.85
5 3 0 2 o 144.996 146.906 0.00 1.27081 0.35
4 0 -3 1 o 27.811 29.334 180.00 1.26480 0.08
2 2 3 1 o 239.957 236.452 0.00 1.26181 1.51
4 0 -3 2 o 29.926 29.334 180.00 1.26480 0.03
5 1 2 1 o 21.748 21.118 180.00 1.26112 0.12
3 1 3 1 o 0.346 0.301 180.00 1.25972 0.01
6 1 1 1 o 235.655 218.216 0.00 1.25895 1.26
2 2 3 2 o 257.096 236.452 0.00 1.26181 0.61
5 1 2 2 o 22.749 21.118 180.00 1.26112 0.05
0 4 2 1 o 7.443 8.105 0.00 1.25239 0.04
3 1 3 2 o 0.240 0.301 180.00 1.25972 0.00
5 2 -2 2 o 50.891 55.120 180.00 1.25469 0.11
6 1 1 2 o 188.507 218.216 0.00 1.25895 0.39
5 2 -2 1 o 45.687 55.120 180.00 1.25469 0.27
3 4 1 2 o 4.585 4.222 0.00 1.25286 0.01
0 4 2 2 o 9.398 8.105 0.00 1.25239 0.02
3 4 1 1 o 3.725 4.222 0.00 1.25286 0.03
6 2 0 1 o 44.067 30.360 180.00 1.24721 0.26
3 2 -3 1 o 2.240 1.895 180.00 1.24582 0.01
1 4 -2 1 o 29.163 24.448 180.00 1.24549 0.18
6 2 0 2 o 34.418 30.360 180.00 1.24721 0.08
3 2 -3 2 o 1.968 1.895 180.00 1.24582 0.00
1 4 -2 2 o 25.393 24.448 180.00 1.24549 0.06
5 3 -1 1 o 33.117 31.997 180.00 1.24195 0.20
4 3 -2 1 o 233.858 224.772 0.00 1.24150 1.34
5 3 -1 2 o 30.830 31.997 180.00 1.24195 0.07
4 3 -2 2 o 210.353 224.772 0.00 1.24150 0.46
4 1 -3 1 o 4.235 4.847 180.00 1.23761 0.02
4 1 -3 2 o 4.845 4.847 180.00 1.23761 0.01
1 4 2 1 o 60.334 55.168 0.00 1.23090 0.37
1 4 2 2 o 51.459 55.168 0.00 1.23090 0.12
6 2 -1 1 o 190.442 223.242 0.00 1.22340 1.04
6 2 -1 2 o 172.351 223.242 0.00 1.22340 0.36
6 0 -2 1 o 18.324 13.593 0.00 1.21361 0.04
4 4 0 1 o 96.266 75.804 180.00 1.21211 0.55
2 4 -2 1 o 152.967 123.632 180.00 1.21154 0.86
6 0 -2 2 o 15.840 13.593 0.00 1.21361 0.01
4 4 0 2 o 86.898 75.804 180.00 1.21211 0.19
2 4 -2 2 o 145.277 123.632 180.00 1.21154 0.31
0 3 3 1 o 80.311 67.918 180.00 1.20844 0.47
5 3 1 1 o 58.859 49.899 180.00 1.20671 0.34
1 3 -3 1 o 3.105 2.746 180.00 1.20559 0.02
0 3 3 2 o 77.204 67.918 180.00 1.20844 0.17
5 3 1 2 o 70.314 49.899 180.00 1.20671 0.15
1 3 -3 2 o 5.599 2.746 180.00 1.20559 0.01
6 1 -2 1 o 72.212 53.519 0.00 1.18953 0.34
1 5 0 1 o 13.147 11.279 0.00 1.18764 0.07
6 1 -2 2 o 57.762 53.519 0.00 1.18953 0.10
4 3 2 1 o 76.299 71.006 180.00 1.18656 0.43
1 3 3 1 o 84.703 80.984 180.00 1.18589 0.49
2 4 2 1 o 26.612 26.251 0.00 1.18510 0.16
5 2 2 1 o 90.598 89.575 0.00 1.18506 0.48
1 5 0 2 o 11.269 11.279 0.00 1.18764 0.02
3 2 3 1 o 42.179 43.217 0.00 1.18390 0.24
4 4 -1 1 o 0.209 0.214 180.00 1.18379 0.00
4 3 2 2 o 68.977 71.006 180.00 1.18656 0.15
6 2 1 1 o 17.506 18.150 0.00 1.18326 0.09
1 3 3 2 o 77.660 80.984 180.00 1.18589 0.17
2 4 2 2 o 24.583 26.251 0.00 1.18510 0.06
5 2 2 2 o 84.062 89.575 0.00 1.18506 0.17
3 2 3 2 o 39.216 43.217 0.00 1.18390 0.08
4 4 -1 2 o 0.197 0.214 180.00 1.18379 0.00
4 0 3 1 o 36.542 40.138 0.00 1.18071 0.09
6 2 1 2 o 16.463 18.150 0.00 1.18326 0.03
2 3 -3 1 o 90.254 102.946 180.00 1.17785 0.49
4 0 3 2 o 35.353 40.138 0.00 1.18071 0.03
7 0 0 1 o 202.439 209.353 0.00 1.17539 0.46
2 3 -3 2 o 101.399 102.946 180.00 1.17785 0.21
7 0 0 2 o 101.613 209.353 0.00 1.17539 0.09
4 2 -3 1 o 8.685 22.525 0.00 1.16549 0.06
4 2 -3 2 o 12.153 22.525 0.00 1.16549 0.03
0 5 1 1 o 7.599 8.892 0.00 1.16051 0.04
4 4 1 1 o 136.011 121.494 0.00 1.15909 0.74
4 1 3 1 o 117.074 100.094 180.00 1.15850 0.58
7 0 -1 1 o 2.866 2.404 180.00 1.15837 0.01
0 5 1 2 o 10.370 8.892 0.00 1.16051 0.02
5 0 -3 1 o 108.597 96.079 180.00 1.15738 0.23
3 4 -2 1 o 3.082 2.886 0.00 1.15667 0.01
4 4 1 2 o 126.780 121.494 0.00 1.15909 0.26
4 1 3 2 o 96.913 100.094 180.00 1.15850 0.18
7 0 -1 2 o 2.268 2.404 180.00 1.15837 0.00
5 0 -3 2 o 80.072 96.079 180.00 1.15738 0.06
3 4 -2 2 o 2.591 2.886 0.00 1.15667 0.00
7 1 0 1 o 74.268 78.073 0.00 1.15347 0.34
2 5 0 1 o 89.799 70.859 0.00 1.15218 0.44
1 5 -1 1 o 221.240 173.272 180.00 1.15206 1.05
7 1 0 2 o 98.097 78.073 0.00 1.15347 0.17
2 5 0 2 o 98.641 70.859 0.00 1.15218 0.18
1 5 -1 2 o 242.985 173.272 180.00 1.15206 0.43
1 5 1 1 o 53.662 32.579 180.00 1.14623 0.25
1 5 1 2 o 55.177 32.579 180.00 1.14623 0.10
2 3 3 1 o 3.755 1.728 180.00 1.14190 0.02
2 3 3 2 o 1.668 1.728 180.00 1.14190 0.00
6 0 2 1 o 0.882 1.049 180.00 1.13874 0.00
1 0 -4 1 o 97.864 116.635 180.00 1.13777 0.23
7 1 -1 1 o 7.142 8.407 180.00 1.13738 0.04
0 0 4 1 o 94.238 107.095 180.00 1.13733 0.24
5 3 -2 1 o 1.884 2.014 0.00 1.13661 0.01
5 1 -3 1 o 59.120 62.999 180.00 1.13644 0.25
6 0 2 2 o 0.977 1.049 180.00 1.13874 0.00
1 0 -4 2 o 105.279 116.635 180.00 1.13777 0.09
7 1 -1 2 o 7.113 8.407 180.00 1.13738 0.02
0 0 4 2 o 92.950 107.095 180.00 1.13733 0.09
5 3 -2 2 o 1.636 2.014 0.00 1.13661 0.00
5 1 -3 2 o 49.634 62.999 180.00 1.13644 0.08
6 3 0 2 o 0.285 0.471 0.00 1.13104 0.00
6 3 0 1 o 0.367 0.471 0.00 1.13104 0.00
3 3 -3 2 o 113.478 162.239 180.00 1.13000 0.22
3 3 -3 1 o 138.007 162.239 180.00 1.13000 0.68
6 2 -2 1 o 2.366 7.733 180.00 1.12507 0.02
3 4 2 1 o 10.444 5.626 180.00 1.12256 0.05
2 5 -1 1 o 23.758 11.021 180.00 1.12231 0.11
6 2 -2 2 o 17.063 7.733 180.00 1.12507 0.03
3 4 2 2 o 8.830 5.626 180.00 1.12256 0.02
2 5 -1 2 o 16.771 11.021 180.00 1.12231 0.03
6 1 2 1 o 80.691 63.178 180.00 1.11878 0.36
7 0 1 1 o 22.012 17.104 180.00 1.11870 0.05
1 1 -4 1 o 20.516 18.151 180.00 1.11785 0.10
0 1 4 1 o 1.852 1.719 0.00 1.11744 0.01
2 0 -4 1 o 0.011 0.010 0.00 1.11703 0.00
6 1 2 2 o 72.808 63.178 180.00 1.11878 0.12
7 0 1 2 o 19.968 17.104 180.00 1.11870 0.02
1 0 4 1 o 0.745 0.627 180.00 1.11578 0.00
1 1 -4 2 o 19.332 18.151 180.00 1.11785 0.04
0 1 4 2 o 1.709 1.719 0.00 1.11744 0.00
2 0 -4 2 o 0.009 0.010 0.00 1.11703 0.00
6 3 -1 1 o 0.908 0.924 0.00 1.11320 0.01
1 0 4 2 o 0.636 0.627 180.00 1.11578 0.00
2 5 1 1 o 133.436 100.436 180.00 1.11160 0.63
6 3 -1 2 o 1.202 0.924 0.00 1.11320 0.00
2 5 1 2 o 139.080 100.436 180.00 1.11160 0.25
5 4 0 1 o 0.080 0.049 0.00 1.10866 0.00
5 4 0 2 o 0.163 0.049 0.00 1.10866 0.00
7 1 1 1 o 1.774 3.163 0.00 1.09976 0.01
3 5 0 1 o 0.078 0.159 0.00 1.09954 0.00
4 2 3 1 o 30.452 37.369 180.00 1.09871 0.14
2 1 -4 1 o 36.688 44.689 180.00 1.09817 0.17
7 1 1 2 o 2.645 3.163 0.00 1.09976 0.00
1 1 4 1 o 62.475 73.968 180.00 1.09698 0.31
3 5 0 2 o 0.128 0.159 0.00 1.09954 0.00
4 2 3 2 o 37.903 37.369 180.00 1.09871 0.07
2 1 -4 2 o 49.680 44.689 180.00 1.09817 0.09
7 2 0 1 o 179.912 148.308 180.00 1.09442 0.81
1 1 4 2 o 90.212 73.968 180.00 1.09698 0.16
7 2 0 2 o 188.302 148.308 180.00 1.09442 0.32
