#------------------------------------------------------------------------------
#$Date: 2016-02-18 17:37:37 +0200 (Thu, 18 Feb 2016) $
#$Revision: 176729 $
#$URL: svn://www.crystallography.net/cod/cif/1/50/16/1501689.cif $
#------------------------------------------------------------------------------
#
# This file is available in the Crystallography Open Database (COD),
# http://www.crystallography.net/
#
# All data on this site have been placed in the public domain by the
# contributors.
#
data_1501689
loop_
_publ_author_name
'Migliorati, Valentina'
'Ballirano, Paolo'
'Gontrani, Lorenzo'
'Triolo, Alessandro'
'Caminiti, Ruggero'
_publ_section_title
;
 Thermal and structural properties of ethylammonium chloride and its
 mixture with water.
;
_journal_issue                   17
_journal_name_full               'The journal of physical chemistry. B'
_journal_page_first              4887
_journal_page_last               4899
_journal_paper_doi               10.1021/jp2010138
_journal_volume                  115
_journal_year                    2011
_chemical_formula_sum            'C2 H8 Cl N'
_chemical_formula_weight         81.55
_chemical_name_systematic        ' ?'
_space_group_IT_number           11
_symmetry_cell_setting           monoclinic
_symmetry_space_group_name_Hall  '-P 2yb'
_symmetry_space_group_name_H-M   'P 1 21/m 1'
_audit_creation_date             2010-05-18T16:15
_audit_creation_method           'from EXP file using GSAS2CIF'
_audit_update_record
' 2010-05-18T16:15  Initial CIF as created by GSAS2CIF'
_cell_angle_alpha                90.0
_cell_angle_beta                 93.9808(14)
_cell_angle_gamma                90.0
_cell_formula_units_Z            2
_cell_length_a                   8.22913(14)
_cell_length_b                   5.99941(8)
_cell_length_c                   4.55352(7)
_cell_volume                     224.265(6)
_computing_structure_refinement  GSAS
_diffrn_radiation_probe          x-ray
_exptl_absorpt_correction_T_max  0.77480
_exptl_absorpt_correction_T_min  0.76997
_exptl_absorpt_process_details
;   GSAS Absorption/surface roughness correction: function number 0
 Debye-Scherrer absorption correction
Term (= MU.r/wave) =     0.10041    
Correction is not refined.
;
_pd_block_id
2010-05-18T16:15|50_OPT|paolo|Bruker_AXS_D8_Advance
_pd_calc_method                  'Rietveld Refinement'
_pd_instr_location               ' ?'
_pd_meas_2theta_range_inc        0.022
_pd_meas_2theta_range_max        89.994
_pd_meas_2theta_range_min        8.0
_pd_meas_number_of_points        3728
_pd_phase_name                   ethyl
_pd_proc_2theta_range_inc        0.022
_pd_proc_2theta_range_max        89.994
_pd_proc_2theta_range_min        8.0
_pd_proc_info_datetime           2010-05-18T16:15:05
_pd_proc_info_excluded_regions   ' ?'
_pd_proc_ls_background_function
;   GSAS Background function number 1 with 30 terms.
 Shifted Chebyshev function of 1st kind
      1:    485.996     2:   -437.017     3:    233.700     4:   -106.529    
      5:    70.3704     6:   -70.1858     7:    86.4859     8:   -63.5453    
      9:    20.9745    10:    8.82004    11:   -9.13729    12:   -3.50388    
     13:    18.0895    14:   -24.1699    15:    19.0880    16:   -10.0067    
     17:    7.41840    18:   -10.2678    19:    13.0752    20:   -13.2288    
     21:    13.1939    22:   -8.07597    23:    7.64958    24:   -4.10483    
     25:    1.01641    26:    1.64553    27:   0.293318    28:  -0.649408    
     29:   -2.21877    30:    2.45585    
;
_pd_proc_ls_peak_cutoff          0.00100
_pd_proc_ls_profile_function
;
 CW Profile function number 3 with  19 terms
 Pseudovoigt profile coefficients as parameterized in
 P. Thompson, D.E. Cox & J.B. Hastings (1987). J. Appl. Cryst.,20,79-83.
 Asymmetry correction of L.W. Finger, D.E. Cox & A. P. Jephcoat (1994).
 J. Appl. Cryst.,27,892-900.
 Peak tails are ignored  where the intensity is below 0.0010 times the peak
   Aniso. broadening axis   0.0   1.0   0.0
;
_pd_proc_ls_prof_R_factor        0.0457
_pd_proc_ls_prof_wR_expected     0.0426
_pd_proc_ls_prof_wR_factor       0.0604
_pd_proc_number_of_points        3728
_pd_spec_mounting                ' ?'
_refine_ls_goodness_of_fit_all   1.43
_refine_ls_matrix_type           full
_refine_ls_number_parameters     63
_refine_ls_number_restraints     27
_refine_ls_R_Fsqd_factor         0.06301
_refine_ls_shift/su_max          0.09
_refine_ls_shift/su_mean         0.01
_reflns_d_resolution_high        1.092
_reflns_d_resolution_low         8.209
_reflns_limit_h_max              7
_reflns_limit_h_min              0
_reflns_limit_k_max              5
_reflns_limit_k_min              0
_reflns_limit_l_max              4
_reflns_limit_l_min              -4
_reflns_number_total             407
_cod_data_source_file            jp2010138_si_005.cif
_cod_data_source_block           50_OPT_publ
_cod_depositor_comments
;
The following automatic conversions were performed:

'_geom_bond_publ_flag' value 'N' changed to 'n' according to
/home/saulius/struct/CIF-dictionaries/cif_core.dic dictionary named
'cif_core.dic' version 2.4.1 from 2010-06-29 (47
times).

'_geom_angle_publ_flag' value 'N' changed to 'n' according
to /home/saulius/struct/CIF-dictionaries/cif_core.dic dictionary
named 'cif_core.dic' version 2.4.1 from 2010-06-29 (23 times).

Automatic conversion script
Id: cif_fix_values 1715 2011-07-08 13:25:40Z adriana 
;
_cod_original_sg_symbol_H-M      'p 21/m'
_cod_database_code               1501689
#BEGIN Tags that were not found in dictionaries:
_gsas_exptl_extinct_corr_t_min   1.00000
_gsas_exptl_extinct_corr_t_max   1.00000
#END Tags that were not found in dictionaries
loop_
_symmetry_equiv_pos_site_id
_symmetry_equiv_pos_as_xyz
1 +x,+y,+z
2 -x,+y+1/2,-z
-1 -x,-y,-z
-2 +x,-y+1/2,+z
loop_
_atom_site_type_symbol
_atom_site_label
_atom_site_fract_x
_atom_site_fract_y
_atom_site_fract_z
_atom_site_occupancy
_atom_site_thermal_displace_type
_atom_site_U_iso_or_equiv
_atom_site_symmetry_multiplicity
Cl Cl 0.15463(20) 0.75 0.3849(4) 1.0 Uiso 0.0293(4) 2
N N 0.12526(33) 0.25 0.1427(6) 1.0 Uiso 0.0336(11) 2
C C1 0.26711(31) 0.25 -0.0351(6) 1.0 Uiso 0.0336(11) 2
C C2 0.4234(4) 0.25 0.1692(7) 1.0 Uiso 0.0336(11) 2
H H1 0.0246(5) 0.25 0.0144(13) 1.0 Uiso 0.0504(17) 2
H H2 0.5176(5) 0.25 0.0488(12) 1.0 Uiso 0.0504(17) 2
H H3 0.1279(9) 0.1165(5) 0.2673(9) 1.0 Uiso 0.0504(17) 4
H H4 0.2659(8) 0.1161(5) -0.1583(9) 1.0 Uiso 0.0504(17) 4
H H5 0.4253(9) 0.1159(5) 0.2925(9) 1.0 Uiso 0.0504(17) 4
loop_
_atom_type_symbol
_atom_type_number_in_cell
_atom_type_scat_dispersion_real
_atom_type_scat_dispersion_imag
_atom_type_scat_Cromer_Mann_a1
_atom_type_scat_Cromer_Mann_a2
_atom_type_scat_Cromer_Mann_a3
_atom_type_scat_Cromer_Mann_a4
_atom_type_scat_Cromer_Mann_b1
_atom_type_scat_Cromer_Mann_b2
_atom_type_scat_Cromer_Mann_b3
_atom_type_scat_Cromer_Mann_b4
_atom_type_scat_Cromer_Mann_c
_atom_type_scat_source
Cl 2.0 0.000 0.000 11.4604 0.01040 7.19640 1.16620 6.25560 18.5194 1.64550
47.7784 -9.5574 International_Tables_Vol_C
N 2.0 0.000 0.000 12.2126 0.00570 3.13220 9.89330 2.01250 28.9975 1.16630
0.58260 -11.529 International_Tables_Vol_C
C 4.0 0.000 0.000 2.31000 20.8439 1.02000 10.2075 1.58860 0.56870 0.86500
51.6512 0.21560 International_Tables_Vol_C
H 16.0 0.000 0.000 0.49300 10.5109 0.32291 26.1257 0.14019 3.14236 0.04081
57.7997 0.00304 International_Tables_Vol_C
loop_
_diffrn_radiation_wavelength
_diffrn_radiation_wavelength_wt
_diffrn_radiation_type
_diffrn_radiation_wavelength_id
1.540598 1.000 K\a~1~ 1
1.544390 0.380 K\a~2~ 2
loop_
_geom_angle_atom_site_label_1
_geom_angle_atom_site_label_2
_geom_angle_atom_site_label_3
_geom_angle
_geom_angle_site_symmetry_1
_geom_angle_site_symmetry_3
_geom_angle_publ_flag
H1 Cl H3 76.30(14) 2_555 1_565 n
H1 Cl H3 76.30(14) 2_555 -2_565 n
H3 Cl H3 151.19(24) 1_565 -2_565 n
C1 N H1 110.1(4) 1_555 1_555 n
C1 N H3 109.4(4) 1_555 1_555 n
C1 N H3 109.4(4) 1_555 -2_565 n
H1 N H3 109.2(5) 1_555 1_555 n
H1 N H3 109.2(5) 1_555 -2_565 n
H3 N H3 109.5(5) 1_555 -2_565 n
N C1 C2 109.36(24) 1_555 1_555 n
N C1 H4 109.9(4) 1_555 1_555 n
N C1 H4 109.9(4) 1_555 -2_565 n
C2 C1 H4 108.8(4) 1_555 1_555 n
C2 C1 H4 108.8(4) 1_555 -2_565 n
H4 C1 H4 110.2(5) 1_555 -2_565 n
C1 C2 H2 108.9(4) 1_555 1_555 n
C1 C2 H5 109.1(4) 1_555 1_555 n
C1 C2 H5 109.1(4) 1_555 -2_565 n
H2 C2 H5 109.8(5) 1_555 1_555 n
H2 C2 H5 109.8(5) 1_555 -2_565 n
H5 C2 H5 110.2(5) 1_555 -2_565 n
Cl H1 N 163.1(5) 2_545 1_555 n
Cl H3 N 157.7(4) 1_545 1_555 n
loop_
_geom_bond_atom_site_label_1
_geom_bond_atom_site_label_2
_geom_bond_distance
_geom_bond_site_symmetry_2
_geom_bond_publ_flag
Cl H1 2.261(6) 2_555 n
Cl H3 2.2703(30) 1_565 n
Cl H3 2.2703(30) -2_555 n
N C1 1.466(4) 1_555 n
N H1 0.980(6) 1_555 n
N H3 0.981(4) 1_555 n
N H3 0.981(4) -2_555 n
N H4 2.021(6) 1_555 n
N H4 2.021(6) -2_555 n
C1 N 1.466(4) 1_555 n
C1 C2 1.534(4) 1_555 n
C1 H1 2.024(5) 1_555 n
C1 H2 2.070(5) 1_555 n
C1 H3 2.017(6) 1_555 n
C1 H3 2.017(6) -2_555 n
C1 H4 0.980(4) 1_555 n
C1 H4 0.980(4) -2_555 n
C1 H5 2.073(6) 1_555 n
C1 H5 2.073(6) -2_555 n
C2 C1 1.534(4) 1_555 n
C2 H2 0.980(6) 1_555 n
C2 H4 2.069(6) 1_555 n
C2 H4 2.069(6) -2_555 n
C2 H5 0.981(4) 1_555 n
C2 H5 0.981(4) -2_555 n
H1 Cl 2.261(6) 2_545 n
H1 N 0.980(6) 1_555 n
H1 C1 2.024(5) 1_555 n
H1 H3 1.598(7) 1_555 n
H1 H3 1.598(7) -2_555 n
H2 C1 2.070(5) 1_555 n
H2 C2 0.980(6) 1_555 n
H2 H5 1.604(7) 1_555 n
H2 H5 1.604(7) -2_555 n
H3 Cl 2.2703(30) 1_545 n
H3 N 0.981(4) 1_555 n
H3 C1 2.017(6) 1_555 n
H3 H1 1.598(7) 1_555 n
H3 H3 1.601(6) -2_555 n
H4 N 2.021(6) 1_555 n
H4 C1 0.980(4) 1_555 n
H4 C2 2.069(6) 1_555 n
H4 H4 1.607(6) -2_555 n
H5 C1 2.073(6) 1_555 n
H5 C2 0.981(4) 1_555 n
H5 H2 1.604(7) 1_555 n
H5 H5 1.609(6) -2_555 n
loop_
_pd_meas_counts_total
_pd_proc_ls_weight
_pd_proc_intensity_bkg_calc
_pd_calc_intensity_total
1679.0 0.000596 1704.35803 1704.35718
1699.0 0.000589 1678.42017 1678.41968
1646.0 0.000608 1653.48535 1653.48450
1571.0 0.000637 1629.53113 1629.53052
1612.0 0.000620 1606.53003 1606.52979
1511.0 0.000662 1584.45764 1584.45740
1547.0 0.000646 1563.28857 1563.28882
1591.0 0.000629 1542.99854 1542.99866
1485.0 0.000673 1523.56311 1523.56299
1570.0 0.000637 1504.95740 1504.95752
1443.0 0.000693 1487.15552 1487.15564
1468.0 0.000681 1470.13513 1470.13538
1454.0 0.000688 1453.87158 1453.87122
1473.0 0.000679 1438.34155 1438.34180
1430.0 0.000699 1423.52063 1423.52100
1481.0 0.000675 1409.38647 1409.38672
1429.0 0.000700 1395.91638 1395.91687
1412.0 0.000708 1383.08643 1383.08679
1414.0 0.000707 1370.87671 1370.87708
1384.0 0.000723 1359.26416 1359.26440
1343.0 0.000745 1348.22607 1348.22644
1359.0 0.000736 1337.74292 1337.74365
1360.0 0.000735 1327.79382 1327.79395
1400.0 0.000714 1318.35803 1318.35840
1313.0 0.000762 1309.41553 1309.41565
1343.0 0.000745 1300.94580 1300.94617
1266.0 0.000790 1292.93115 1292.93188
1268.0 0.000789 1285.35193 1285.35217
1246.0 0.000803 1278.18933 1278.18970
1208.0 0.000828 1271.42615 1271.42700
1187.0 0.000842 1265.04504 1265.04565
1254.0 0.000797 1259.02783 1259.02832
1227.0 0.000815 1253.35754 1253.35815
1203.0 0.000831 1248.01892 1248.01953
1292.0 0.000774 1242.99573 1242.99609
1271.0 0.000787 1238.27148 1238.27222
1233.0 0.000811 1233.83167 1233.83203
1278.0 0.000782 1229.66150 1229.66174
1248.0 0.000801 1225.74695 1225.74719
1173.0 0.000853 1222.07349 1222.07422
1254.0 0.000797 1218.62781 1218.62817
1228.0 0.000814 1215.39709 1215.39771
1260.0 0.000794 1212.36816 1212.36841
1230.0 0.000813 1209.52917 1209.52954
1150.0 0.000870 1206.86755 1206.86780
1150.0 0.000870 1204.37219 1204.37231
1167.0 0.000857 1202.03174 1202.03186
1207.0 0.000829 1199.83533 1199.83557
1233.0 0.000811 1197.77283 1197.77307
1217.0 0.000822 1195.83398 1195.83423
1127.0 0.000887 1194.00867 1194.00854
1219.0 0.000820 1192.28772 1192.28809
1212.0 0.000825 1190.66260 1190.66333
1209.0 0.000827 1189.12451 1189.12451
1210.0 0.000826 1187.66431 1187.66418
1170.0 0.000855 1186.27478 1186.27527
1225.0 0.000816 1184.94836 1184.94824
1146.0 0.000873 1183.67676 1183.67700
1155.0 0.000866 1182.45447 1182.45471
1189.0 0.000841 1181.27332 1181.27380
1193.0 0.000838 1180.12744 1180.12732
1165.0 0.000858 1179.01074 1179.01050
1125.0 0.000889 1177.91724 1177.91687
1218.0 0.000821 1176.84058 1176.84070
1122.0 0.000891 1175.77710 1175.77722
1176.0 0.000850 1174.72046 1174.72070
1149.0 0.000870 1173.66626 1173.66663
1140.0 0.000877 1172.61047 1172.61047
1162.0 0.000861 1171.54846 1171.54822
1148.0 0.000871 1170.47546 1170.47546
1193.0 0.000838 1169.38855 1169.38879
1121.0 0.000892 1168.28430 1168.28455
1125.0 0.000889 1167.15906 1167.15881
1106.0 0.000904 1166.00903 1166.00928
1132.0 0.000883 1164.83228 1164.83228
1184.0 0.000845 1163.62573 1163.62598
1139.0 0.000878 1162.38696 1162.38647
1155.0 0.000866 1161.11304 1161.11279
1187.0 0.000842 1159.80273 1159.80286
1196.0 0.000836 1158.45398 1158.45410
1174.0 0.000852 1157.06409 1157.06421
1179.0 0.000848 1155.63257 1155.63220
1163.0 0.000860 1154.15723 1154.15674
1116.0 0.000896 1152.63660 1152.63660
1126.0 0.000888 1151.07007 1151.07007
1069.0 0.000935 1149.45728 1149.45728
1130.0 0.000885 1147.79578 1147.79590
1114.0 0.000898 1146.08557 1146.08582
1183.0 0.000845 1144.32642 1144.32593
1148.0 0.000871 1142.51709 1142.51709
1104.0 0.000906 1140.65845 1140.65833
1161.0 0.000861 1138.74866 1138.74902
1162.0 0.000861 1136.78918 1136.78906
1150.0 0.000870 1134.77832 1134.77844
1109.0 0.000902 1132.71777 1135.11975
1142.0 0.000876 1130.60632 1134.06799
1159.0 0.000863 1128.44531 1132.14563
1149.0 0.000870 1126.23450 1130.19934
1049.0 0.000953 1123.97461 1128.23315
1099.0 0.000910 1121.66565 1126.25281
1098.0 0.000911 1119.30859 1124.26367
1067.0 0.000937 1116.90405 1122.27417
1109.0 0.000902 1114.45227 1120.29211
1149.0 0.000870 1111.95532 1118.32983
1235.0 0.000810 1109.41235 1116.40015
1164.0 0.000859 1106.82544 1114.52075
1189.0 0.000841 1104.19507 1112.71387
1194.0 0.000838 1101.52209 1111.00659
1143.0 0.000875 1098.80786 1109.43665
1169.0 0.000855 1096.05286 1108.05530
1205.0 0.000830 1093.25879 1106.93835
1157.0 0.000864 1090.42725 1106.23743
1190.0 0.000840 1087.55786 1106.37244
1169.0 0.000855 1084.65356 1108.62976
1207.0 0.000829 1081.71423 1116.45081
1231.0 0.000812 1078.74146 1137.11157
1271.0 0.000787 1075.73694 1182.27979
1340.0 0.000746 1072.70190 1265.73706
1400.0 0.000714 1069.63721 1399.09973
1552.0 0.000644 1066.54443 1590.16309
1769.0 0.000565 1063.42505 1847.49927
2147.0 0.000466 1060.28015 2190.56250
2615.0 0.000382 1057.11133 2662.67993
3437.0 0.0002910 1053.91931 3335.25562
4295.0 0.0002328 1050.70593 4266.18164
5001.0 0.0002000 1047.47302 5374.91357
5576.0 0.0001793 1044.22095 6311.17920
6616.0 0.0001511 1040.95142 6545.71289
6571.0 0.0001522 1037.66675 5791.51270
5310.0 0.0001883 1034.36658 4367.18164
3262.0 0.0003066 1031.05334 2925.04956
1897.0 0.000527 1027.72839 1912.93250
1358.0 0.000736 1024.39258 1381.75635
1180.0 0.000847 1021.04700 1163.19019
1067.0 0.000937 1017.69379 1086.78308
1082.0 0.000924 1014.33325 1059.11462
1037.0 0.000964 1010.96765 1045.30200
983.0 0.001017 1007.59772 1035.58557
1013.0 0.000987 1004.22437 1027.61096
962.0 0.001040 1000.84943 1020.69897
996.0 0.001004 997.47357 1014.53442
1019.0 0.000981 994.09869 1008.92035
966.0 0.001035 990.72485 1003.72198
996.0 0.001004 987.35382 998.84448
1009.0 0.000991 983.98737 994.21912
997.0 0.001003 980.62549 989.79541
957.0 0.001045 977.26941 985.53497
939.0 0.001065 973.92053 981.40930
961.0 0.001041 970.57959 977.39679
919.0 0.001088 967.24805 973.47961
980.0 0.001020 963.92633 969.64545
935.0 0.001070 960.61584 962.16949
953.0 0.001049 957.31708 957.31732
894.0 0.001119 954.03119 954.03131
942.0 0.001062 950.75916 950.75922
912.0 0.001096 947.50128 947.50159
960.0 0.001042 944.25934 944.25958
913.0 0.001095 941.03290 941.03296
914.0 0.001094 937.82336 937.82361
906.0 0.001104 934.63232 934.63208
879.0 0.001138 931.45856 931.45862
942.0 0.001062 928.30444 928.30438
934.0 0.001071 925.16956 925.16980
895.0 0.001117 922.05518 922.05518
908.0 0.001101 918.96179 918.96191
886.0 0.001129 915.88983 915.89014
905.0 0.001105 912.84021 912.84033
891.0 0.001122 909.81281 909.81293
863.0 0.001159 906.80823 906.80829
879.0 0.001138 903.82782 903.82776
926.0 0.001080 900.87109 900.87128
852.0 0.001174 897.93878 897.93866
856.0 0.001168 895.03101 895.03131
877.0 0.001140 892.14874 892.14893
849.0 0.001178 889.29218 889.29230
910.0 0.001099 886.46106 886.46143
899.0 0.001112 883.65643 883.65656
846.0 0.001182 880.87811 880.87823
847.0 0.001181 878.12634 878.12653
854.0 0.001171 875.40198 875.40216
823.0 0.001215 872.70471 872.70483
832.0 0.001202 870.03448 870.03485
885.0 0.001130 867.39160 867.39191
879.0 0.001138 864.77667 864.77679
852.0 0.001174 862.18951 862.18970
863.0 0.001159 859.63049 859.63049
870.0 0.001149 857.09924 857.09924
886.0 0.001129 854.59564 854.59583
862.0 0.001160 852.12048 852.12054
854.0 0.001171 849.67346 849.67340
838.0 0.001193 847.25452 847.25476
808.0 0.001238 844.86389 844.86377
846.0 0.001182 842.50098 842.50122
861.0 0.001161 840.16620 840.16626
845.0 0.001183 837.85980 837.85962
847.0 0.001181 835.58118 835.58112
831.0 0.001203 833.32990 833.33020
883.0 0.001133 831.10681 831.10663
809.0 0.001236 828.91125 828.91125
861.0 0.001161 826.74335 826.74323
826.0 0.001211 824.60242 824.60248
812.0 0.001232 822.48889 822.48889
810.0 0.001235 820.40192 820.40198
829.0 0.001206 818.34235 818.34235
774.0 0.001292 816.30920 816.30908
845.0 0.001183 814.30237 814.30243
818.0 0.001222 812.32202 812.32178
840.0 0.001190 810.36731 810.36737
823.0 0.001215 808.43823 808.43817
790.0 0.001266 806.53503 806.53503
817.0 0.001224 804.65686 804.65668
775.0 0.001290 802.80353 802.80347
767.0 0.001304 800.97479 800.97479
830.0 0.001205 799.17053 799.17041
780.0 0.001282 797.39026 797.39056
744.0 0.001344 795.63428 795.63434
764.0 0.001309 793.90125 793.90125
818.0 0.001222 792.19189 792.19177
832.0 0.001202 790.50488 790.50470
772.0 0.001295 788.84076 788.84064
837.0 0.001195 787.19879 787.19855
768.0 0.001302 785.57861 785.57849
816.0 0.001225 783.97992 783.97986
823.0 0.001215 782.40265 782.40222
825.0 0.001212 780.84589 780.84595
847.0 0.001181 779.31006 779.31006
787.0 0.001271 777.79425 777.79413
788.0 0.001269 776.29822 776.29803
770.0 0.001299 774.82147 774.82153
809.0 0.001236 773.36420 773.36414
764.0 0.001309 771.92548 771.92535
785.0 0.001274 770.50525 770.50507
784.0 0.001276 769.10284 769.10278
757.0 0.001321 767.71826 767.71796
819.0 0.001221 766.35077 766.35089
737.0 0.001357 765.00055 765.00037
811.0 0.001233 763.66669 763.66663
782.0 0.001279 762.34912 762.34918
795.0 0.001258 761.04736 761.04718
782.0 0.001279 759.76135 759.76105
750.0 0.001333 758.49036 758.49017
718.0 0.001393 757.23419 757.23389
761.0 0.001314 755.99237 755.99213
758.0 0.001319 754.76440 754.76440
813.0 0.001230 753.55060 753.55029
797.0 0.001255 752.34991 752.34985
778.0 0.001285 751.16235 751.16235
750.0 0.001333 749.98724 749.98730
757.0 0.001321 748.82483 748.82489
697.0 0.001435 747.67432 747.67419
721.0 0.001387 746.53564 746.53546
776.0 0.001289 745.40833 745.40802
723.0 0.001383 744.29187 744.29163
761.0 0.001314 743.18616 743.18610
757.0 0.001321 742.09088 742.09076
783.0 0.001277 741.00592 741.00586
758.0 0.001319 739.93042 739.93030
768.0 0.001302 738.86450 738.86444
728.0 0.001374 737.80780 737.80768
722.0 0.001385 736.75983 736.75964
754.0 0.001326 735.72058 735.72028
726.0 0.001377 734.68976 734.68958
698.0 0.001433 733.66669 733.66669
760.0 0.001316 732.65155 732.65131
723.0 0.001383 731.64368 731.64362
740.0 0.001351 730.64319 730.64307
760.0 0.001316 729.64972 729.64966
716.0 0.001397 728.66272 728.66254
683.0 0.001464 727.68219 727.68213
747.0 0.001339 726.70795 726.70795
752.0 0.001330 725.73981 725.73975
713.0 0.001403 724.77740 724.77728
731.0 0.001368 723.82013 723.82001
723.0 0.001383 722.86835 722.86829
730.0 0.001370 721.92188 721.92139
760.0 0.001316 720.97998 720.97980
749.0 0.001335 720.04272 720.04248
719.0 0.001391 719.11011 719.10999
725.0 0.001379 718.18170 718.18146
713.0 0.001403 717.25708 717.25702
731.0 0.001368 716.33655 716.33643
735.0 0.001361 715.41992 715.41980
724.0 0.001381 714.50641 714.50635
704.0 0.001420 713.59662 713.59668
693.0 0.001443 712.69006 712.68988
684.0 0.001462 711.78656 711.78656
693.0 0.001443 710.88593 710.88580
728.0 0.001374 709.98810 709.98798
695.0 0.001439 709.09283 709.09277
727.0 0.001376 708.20013 708.20001
676.0 0.001479 707.31018 707.30975
684.0 0.001462 706.42206 706.42163
665.0 0.001504 705.53613 705.53601
706.0 0.001416 704.65240 704.65222
687.0 0.001456 703.77063 703.77063
710.0 0.001408 702.89075 702.89056
679.0 0.001473 702.01239 702.01227
697.0 0.001435 701.13593 701.13599
700.0 0.001429 700.26093 700.26105
661.0 0.001513 699.38770 699.38788
666.0 0.001502 698.51605 698.51587
650.0 0.001538 697.64545 697.64539
685.0 0.001460 696.77637 696.77625
699.0 0.001431 695.90845 695.90826
681.0 0.001468 695.04187 695.04175
691.0 0.001447 694.17639 694.17639
646.0 0.001548 693.31219 693.31201
743.0 0.001346 692.44910 692.44879
689.0 0.001451 691.58691 691.58679
710.0 0.001408 690.72565 690.72571
675.0 0.001481 689.86584 689.86566
723.0 0.001383 689.00696 689.00671
735.0 0.001361 688.14874 688.14880
669.0 0.001495 687.29193 687.29169
694.0 0.001441 686.43579 686.43573
713.0 0.001403 685.58081 685.58051
670.0 0.001493 684.72675 684.72662
650.0 0.001538 683.87347 683.87354
688.0 0.001453 683.02155 683.02148
677.0 0.001477 682.17041 682.17035
721.0 0.001387 681.32056 681.32043
686.0 0.001458 680.47144 680.47137
702.0 0.001425 679.62360 679.62360
668.0 0.001497 678.77679 678.77661
661.0 0.001513 677.93121 677.93109
646.0 0.001548 677.08667 677.08655
652.0 0.001534 676.24353 676.24347
645.0 0.001550 675.40149 675.40137
631.0 0.001585 674.56067 674.56049
647.0 0.001546 673.72131 673.72101
653.0 0.001531 672.88354 672.88324
691.0 0.001447 672.04669 672.04681
688.0 0.001453 671.21155 671.21155
699.0 0.001431 670.37817 670.37793
675.0 0.001481 669.54626 669.54614
625.0 0.001600 668.71582 668.71606
668.0 0.001497 667.88733 667.88715
647.0 0.001546 667.06085 667.06061
642.0 0.001558 666.23553 666.23547
702.0 0.001425 665.41284 665.41260
685.0 0.001460 664.59186 664.59155
683.0 0.001464 663.77271 663.77277
657.0 0.001522 662.95605 662.95593
637.0 0.001570 662.14142 662.14148
657.0 0.001522 661.32928 661.32904
665.0 0.001504 660.51953 660.51929
644.0 0.001553 659.71204 659.71191
700.0 0.001429 658.90717 658.90710
675.0 0.001481 658.10486 658.10474
610.0 0.001639 657.30524 657.30511
684.0 0.001462 656.50873 656.50824
652.0 0.001534 655.71454 655.71454
641.0 0.001560 654.92377 654.92352
651.0 0.001536 654.13562 654.13556
646.0 0.001548 653.35107 653.35065
653.0 0.001531 652.56958 652.56940
607.0 0.001647 651.79108 651.79114
665.0 0.001504 651.01599 651.01605
670.0 0.001493 650.24487 650.24481
671.0 0.001490 649.47717 649.47687
682.0 0.001466 648.71295 648.71283
724.0 0.001381 647.95251 647.95233
677.0 0.001477 647.19604 647.19568
640.0 0.001563 646.44336 646.44318
587.0 0.001704 645.69482 645.69452
645.0 0.001550 644.95026 644.95032
600.0 0.001667 644.21021 644.20984
639.0 0.001565 643.47418 643.47406
663.0 0.001508 642.74261 642.74243
602.0 0.001661 642.01544 642.01556
635.0 0.001575 641.29309 641.29291
624.0 0.001603 640.57532 640.57507
676.0 0.001479 639.86212 639.86200
684.0 0.001462 639.15393 639.15369
694.0 0.001441 638.45056 638.45038
615.0 0.001626 637.75214 637.75201
649.0 0.001541 637.05890 637.05890
663.0 0.001508 636.37085 636.37067
630.0 0.001587 635.68793 635.68781
620.0 0.001613 635.01068 635.01050
623.0 0.001605 634.33875 634.33838
626.0 0.001597 633.67218 633.67181
621.0 0.001610 633.01135 633.01117
638.0 0.001567 632.35620 632.35590
639.0 0.001565 631.70685 631.70648
626.0 0.001597 631.06329 631.06287
629.0 0.001590 630.42572 630.42535
592.0 0.001689 629.79395 629.79370
656.0 0.001524 629.16840 629.16809
644.0 0.001553 628.54883 628.54877
592.0 0.001689 627.93567 627.93549
603.0 0.001658 627.32892 627.32867
610.0 0.001639 626.72833 626.72809
629.0 0.001590 626.13422 626.13391
602.0 0.001661 625.54663 625.54633
643.0 0.001555 624.96552 624.96527
624.0 0.001603 624.39124 624.39111
632.0 0.001582 623.82361 623.82343
607.0 0.001647 623.26257 623.26239
632.0 0.001582 622.70868 622.70837
602.0 0.001661 622.16144 622.16132
635.0 0.001575 621.62115 621.62103
614.0 0.001629 621.08795 621.08765
652.0 0.001534 620.56201 620.56165
648.0 0.001543 620.04291 620.04279
624.0 0.001603 619.53088 619.53064
614.0 0.001629 619.02631 619.02625
614.0 0.001629 618.52905 618.52881
674.0 0.001484 618.03864 618.03870
604.0 0.001656 617.55621 617.55609
609.0 0.001642 617.08105 617.08075
618.0 0.001618 616.61334 616.61292
655.0 0.001527 616.15302 616.15271
628.0 0.001592 615.70026 615.69989
607.0 0.001647 615.25531 615.25494
580.0 0.001724 614.81763 614.81738
656.0 0.001524 614.38794 614.38757
588.0 0.001701 613.96588 613.96564
644.0 0.001553 613.55151 613.55109
596.0 0.001678 613.14478 613.14459
645.0 0.001550 612.74597 612.74597
638.0 0.001567 612.35510 612.35480
593.0 0.001686 611.97198 611.97162
615.0 0.001626 611.59662 611.59625
645.0 0.001550 611.22931 611.22876
657.0 0.001522 610.86987 610.86963
626.0 0.001597 610.51855 610.51831
609.0 0.001642 610.17499 610.17474
602.0 0.001661 609.83948 609.83942
621.0 0.001610 609.51233 609.51172
612.0 0.001634 609.19257 609.19238
635.0 0.001575 608.88135 608.88080
609.0 0.001642 608.57782 608.57745
583.0 0.001715 608.28271 608.28217
629.0 0.001590 607.99554 607.99518
644.0 0.001553 607.71619 607.71594
601.0 0.001664 607.44525 607.44489
652.0 0.001534 607.18225 607.28754
587.0 0.001704 606.92749 607.03967
605.0 0.001653 606.68073 606.84015
598.0 0.001672 606.44202 606.61273
615.0 0.001626 606.21155 606.39453
609.0 0.001642 605.98889 606.18579
565.0 0.001770 605.77460 605.98688
601.0 0.001664 605.56830 605.79761
612.0 0.001634 605.37024 605.61890
635.0 0.001575 605.18024 605.45068
635.0 0.001575 604.99811 605.29364
609.0 0.001642 604.82416 605.14825
573.0 0.001745 604.65826 605.01514
606.0 0.001650 604.50043 604.89569
673.0 0.001486 604.35052 604.79022
628.0 0.001592 604.20886 604.70123
634.0 0.001577 604.07501 604.63013
588.0 0.001701 603.94916 604.58026
603.0 0.001658 603.83130 604.55457
620.0 0.001613 603.72131 604.55927
647.0 0.001546 603.61932 604.60364
625.0 0.001600 603.52509 604.70923
621.0 0.001610 603.43903 604.93250
631.0 0.001585 603.36060 605.42639
566.0 0.001767 603.29028 606.55371
621.0 0.001610 603.22729 609.05231
589.0 0.001698 603.17261 614.20044
636.0 0.001572 603.12524 623.90051
611.0 0.001637 603.08588 640.44287
642.0 0.001558 603.05396 665.42206
651.0 0.001536 603.02985 697.36072
713.0 0.001403 603.01349 729.21875
648.0 0.001543 603.00458 749.15491
676.0 0.001479 603.00323 747.06628
672.0 0.001488 603.00964 723.69586
690.0 0.001449 603.02338 689.62787
603.0 0.001658 603.04480 656.56683
608.0 0.001645 603.07330 631.97852
634.0 0.001577 603.10950 617.20831
666.0 0.001502 603.15265 609.82819
673.0 0.001486 603.20337 606.66992
584.0 0.001712 603.26160 605.43463
607.0 0.001647 603.32635 604.93146
562.0 0.001779 603.39893 604.68848
632.0 0.001582 603.47858 604.55237
629.0 0.001590 603.56506 604.47583
660.0 0.001515 603.65894 604.44135
596.0 0.001678 603.75977 604.43909
629.0 0.001590 603.86743 604.46283
616.0 0.001623 603.98212 604.50824
650.0 0.001538 604.10364 604.57196
594.0 0.001684 604.23199 604.65155
587.0 0.001704 604.36719 604.74506
592.0 0.001689 604.50922 604.85132
615.0 0.001626 604.65790 604.96906
580.0 0.001724 604.81317 605.14264
576.0 0.001736 604.97485 605.28387
602.0 0.001661 605.14349 605.45154
590.0 0.001695 605.31812 605.61267
646.0 0.001548 605.49982 605.78284
579.0 0.001727 605.68750 605.96173
625.0 0.001600 605.88184 606.14911
576.0 0.001736 606.08203 606.34467
634.0 0.001577 606.28882 606.54877
603.0 0.001658 606.50165 606.65875
571.0 0.001751 606.72058 606.88513
589.0 0.001698 606.94586 607.08057
611.0 0.001637 607.17706 607.32465
576.0 0.001736 607.41418 607.57697
606.0 0.001650 607.65717 607.83771
593.0 0.001686 607.90619 608.10724
578.0 0.001730 608.16089 608.38654
621.0 0.001610 608.42139 608.67615
630.0 0.001587 608.68756 608.97766
561.0 0.001783 608.95959 609.29224
625.0 0.001600 609.23706 609.62317
636.0 0.001572 609.52014 609.97491
561.0 0.001783 609.80859 610.35712
595.0 0.001681 610.10242 610.79663
616.0 0.001623 610.40173 611.36591
615.0 0.001626 610.70642 612.23712
585.0 0.001709 611.01636 613.76642
619.0 0.001616 611.33154 616.58105
608.0 0.001645 611.65173 621.60138
640.0 0.001563 611.97699 629.82782
701.0 0.001427 612.30756 641.66339
698.0 0.001433 612.64276 655.80463
659.0 0.001517 612.98315 668.55548
716.0 0.001397 613.32831 674.88788
690.0 0.001449 613.67804 671.76520
721.0 0.001387 614.03290 661.03900
663.0 0.001508 614.39233 647.31061
641.0 0.001560 614.75610 634.81879
635.0 0.001575 615.12482 625.93921
624.0 0.001603 615.49780 620.83734
637.0 0.001570 615.87549 618.47711
673.0 0.001486 616.25714 617.66376
591.0 0.001692 616.64368 617.55518
613.0 0.001631 617.03406 617.71875
640.0 0.001563 617.42896 617.98303
611.0 0.001637 617.82776 618.29102
560.0 0.001786 618.23071 618.62488
624.0 0.001603 618.63800 618.97729
629.0 0.001590 619.04889 619.34430
602.0 0.001661 619.46405 619.72321
632.0 0.001582 619.88269 620.11224
545.0 0.001835 620.30554 620.51001
583.0 0.001715 620.73206 620.91534
628.0 0.001592 621.16193 621.32721
593.0 0.001686 621.59576 621.74554
586.0 0.001706 622.03308 622.16949
646.0 0.001548 622.47382 622.59875
601.0 0.001664 622.91821 623.03278
622.0 0.001608 623.36584 623.47137
637.0 0.001570 623.81677 623.91449
653.0 0.001531 624.27118 624.36157
608.0 0.001645 624.72870 624.81256
665.0 0.001504 625.18945 625.26758
615.0 0.001626 625.65332 625.72638
599.0 0.001669 626.12036 626.18866
636.0 0.001572 626.59015 626.60925
602.0 0.001661 627.06305 627.08099
577.0 0.001733 627.53864 627.53821
596.0 0.001678 628.01727 628.01660
571.0 0.001751 628.49854 628.49805
628.0 0.001592 628.98254 628.98218
598.0 0.001672 629.46924 629.46863
571.0 0.001751 629.95837 629.95795
606.0 0.001650 630.45007 630.44952
627.0 0.001595 630.94415 630.94391
602.0 0.001661 631.44104 631.44049
606.0 0.001650 631.94012 631.93970
595.0 0.001681 632.44141 632.44080
611.0 0.001637 632.94476 632.94427
636.0 0.001572 633.45062 633.45013
567.0 0.001764 633.95837 633.95789
655.0 0.001527 634.46832 634.46790
640.0 0.001563 634.98029 634.97992
590.0 0.001695 635.49414 635.49359
650.0 0.001538 636.01019 636.00964
680.0 0.001471 636.52747 636.52728
657.0 0.001522 637.04712 637.04651
673.0 0.001486 637.56836 637.99078
663.0 0.001508 638.09113 638.53461
647.0 0.001546 638.61542 639.66370
711.0 0.001406 639.14130 640.24347
678.0 0.001475 639.66895 640.98669
654.0 0.001529 640.19818 641.58630
623.0 0.001605 640.72833 642.19293
654.0 0.001529 641.26001 642.80743
640.0 0.001563 641.79291 643.43036
629.0 0.001590 642.32733 644.06281
769.0 0.001300 642.86237 644.70551
698.0 0.001433 643.39880 645.35931
735.0 0.001361 643.93634 646.02612
719.0 0.001391 644.47498 646.70685
736.0 0.001359 645.01422 647.40387
702.0 0.001425 645.55457 648.11908
738.0 0.001355 646.09552 648.85480
677.0 0.001477 646.63757 649.61456
717.0 0.001395 647.18005 650.40192
700.0 0.001429 647.72327 651.22125
684.0 0.001462 648.26746 652.07861
660.0 0.001515 648.81177 652.98047
668.0 0.001497 649.35651 653.93597
651.0 0.001536 649.90210 654.95526
650.0 0.001538 650.44763 656.05341
607.0 0.001647 650.99384 657.24774
634.0 0.001577 651.53998 658.56165
654.0 0.001529 652.08667 660.02747
661.0 0.001513 652.63318 661.68683
670.0 0.001493 653.18011 663.60175
649.0 0.001541 653.72705 665.86658
671.0 0.001490 654.27380 668.66364
658.0 0.001520 654.82050 672.42932
668.0 0.001497 655.36707 678.30133
694.0 0.001441 655.91357 689.13666
752.0 0.001330 656.45972 711.31573
764.0 0.001309 657.00555 757.13055
864.0 0.001157 657.55133 846.28436
970.0 0.001031 658.09650 1002.57428
1227.0 0.000815 658.64124 1241.90295
1584.0 0.000631 659.18542 1551.97961
1781.0 0.000561 659.72925 1876.17029
2105.0 0.000475 660.27228 2121.36450
2248.0 0.000445 660.81458 2203.49902
2290.0 0.000437 661.35638 2096.45703
2077.0 0.000481 661.89734 1839.19897
1646.0 0.000608 662.43732 1520.16467
1260.0 0.000794 662.97650 1221.81885
1012.0 0.000988 663.51483 991.57635
859.0 0.001164 664.05194 841.19354
705.0 0.001418 664.58813 756.54895
685.0 0.001460 665.12311 714.74438
663.0 0.001508 665.65723 695.99249
692.0 0.001445 666.18958 687.72662
675.0 0.001481 666.72107 683.67017
653.0 0.001531 667.25116 681.28760
661.0 0.001513 667.77985 679.68805
695.0 0.001439 668.30707 678.55554
653.0 0.001531 668.83282 677.74939
716.0 0.001397 669.35712 677.18591
670.0 0.001493 669.87976 676.80884
701.0 0.001427 670.40051 676.57715
660.0 0.001515 670.92010 679.82367
676.0 0.001479 671.43750 679.96521
701.0 0.001427 671.95313 680.19354
662.0 0.001511 672.46710 681.79535
626.0 0.001597 672.97900 682.22858
689.0 0.001451 673.48877 682.72528
670.0 0.001493 673.99664 683.28119
735.0 0.001361 674.50262 683.89319
729.0 0.001372 675.00635 684.56055
749.0 0.001335 675.50769 685.28204
669.0 0.001495 676.00702 686.06042
698.0 0.001433 676.50397 686.89636
690.0 0.001449 676.99866 687.79492
714.0 0.001401 677.49078 688.76050
682.0 0.001466 677.98053 689.79913
734.0 0.001362 678.46765 690.91943
735.0 0.001361 678.95233 692.13104
732.0 0.001366 679.43457 693.44720
712.0 0.001404 679.91394 694.88306
679.0 0.001473 680.39069 696.45752
690.0 0.001449 680.86469 698.19513
697.0 0.001435 681.33582 699.70874
741.0 0.001350 681.80389 701.88794
733.0 0.001364 682.26941 703.76929
707.0 0.001414 682.73169 706.58759
757.0 0.001321 683.19073 709.66040
712.0 0.001404 683.64703 713.41760
700.0 0.001429 684.10016 717.83026
738.0 0.001355 684.55023 723.08563
793.0 0.001261 684.99683 729.44458
778.0 0.001285 685.44025 737.30951
742.0 0.001348 685.88049 747.39893
773.0 0.001294 686.31708 761.38605
839.0 0.001192 686.75043 783.74738
920.0 0.001087 687.18018 826.36017
1029.0 0.000972 687.60651 917.48993
1221.0 0.000819 688.02911 1114.30249
1549.0 0.000646 688.44812 1511.32227
2325.0 0.000430 688.86365 2222.86621
3213.0 0.0003112 689.27533 3313.62183
4438.0 0.0002253 689.68304 4688.36279
5832.0 0.0001715 690.08698 6019.13525
6703.0 0.0001492 690.48718 6826.11719
6874.0 0.0001455 690.88361 6758.35400
6203.0 0.0001612 691.27582 5906.37061
4895.0 0.0002043 691.66382 4654.82373
3359.0 0.0002977 692.04822 3367.15332
2344.0 0.000427 692.42828 2305.08740
1497.0 0.000668 692.80420 1576.14282
1018.0 0.000982 693.17590 1149.49268
847.0 0.001181 693.54333 933.17865
760.0 0.001316 693.90656 835.05780
715.0 0.001399 694.26544 791.61682
721.0 0.001387 694.61981 770.04041
678.0 0.001475 694.96979 756.91132
648.0 0.001543 695.31537 747.57117
733.0 0.001364 695.65643 740.42542
699.0 0.001431 695.99292 734.78674
644.0 0.001553 696.32471 730.26563
634.0 0.001577 696.65192 726.59668
661.0 0.001513 696.97437 723.58844
631.0 0.001585 697.29199 721.10229
682.0 0.001466 697.60510 719.03162
668.0 0.001497 697.91321 717.29688
644.0 0.001553 698.21649 715.83649
631.0 0.001585 698.51477 714.60095
675.0 0.001481 698.80835 713.55255
635.0 0.001575 699.09656 712.66040
673.0 0.001486 699.38000 711.89941
647.0 0.001546 699.65845 711.24951
655.0 0.001527 699.93158 710.69409
705.0 0.001418 700.19977 710.23706
787.0 0.001271 700.46265 709.83228
733.0 0.001364 700.72021 709.48712
762.0 0.001312 700.97284 709.20032
814.0 0.001229 701.21973 708.95148
784.0 0.001276 701.46155 708.74139
785.0 0.001274 701.69794 708.56512
782.0 0.001279 701.92914 708.41760
719.0 0.001391 702.15442 708.29620
723.0 0.001383 702.37451 708.19678
741.0 0.001350 702.58893 708.11713
804.0 0.001244 702.79803 708.05408
753.0 0.001328 703.00159 704.54291
816.0 0.001225 703.19922 704.66949
805.0 0.001242 703.39130 704.79626
842.0 0.001188 703.57782 703.63446
771.0 0.001297 703.75854 703.81976
836.0 0.001196 703.93347 703.99969
727.0 0.001376 704.10266 704.17438
774.0 0.001292 704.26630 704.34412
759.0 0.001318 704.42383 704.50897
698.0 0.001433 704.57550 704.66888
635.0 0.001575 704.72144 704.82416
600.0 0.001667 704.86121 704.97498
635.0 0.001575 704.99506 705.12177
646.0 0.001548 705.12299 705.26477
654.0 0.001529 705.24506 705.40466
592.0 0.001689 705.36108 705.54236
662.0 0.001511 705.47070 705.67828
620.0 0.001613 705.57458 705.81439
618.0 0.001618 705.67218 705.95319
617.0 0.001621 705.76373 706.09839
645.0 0.001550 705.84912 706.26068
621.0 0.001610 705.92834 706.46802
689.0 0.001451 706.00140 706.79449
686.0 0.001458 706.06812 707.41101
649.0 0.001541 706.12866 708.65063
630.0 0.001587 706.18298 711.02368
633.0 0.001580 706.23077 715.05585
692.0 0.001445 706.27240 720.86383
689.0 0.001451 706.30798 727.62592
708.0 0.001412 706.33685 733.46704
677.0 0.001477 706.35962 736.15021
722.0 0.001385 706.37585 734.64502
714.0 0.001401 706.38550 730.02844
736.0 0.001359 706.38916 724.09705
689.0 0.001451 706.38617 718.28009
679.0 0.001473 706.37683 713.57813
627.0 0.001595 706.36102 710.35706
649.0 0.001541 706.33862 708.44684
664.0 0.001506 706.30981 707.44843
686.0 0.001458 706.27454 706.96332
708.0 0.001412 706.23297 706.71588
651.0 0.001536 706.18451 706.56183
643.0 0.001555 706.12964 706.44073
693.0 0.001443 706.06824 706.33154
686.0 0.001458 706.00031 706.22662
636.0 0.001572 705.92584 706.12219
660.0 0.001515 705.84491 706.01703
732.0 0.001366 705.75739 705.90924
629.0 0.001590 705.66333 705.79858
696.0 0.001437 705.56256 705.68372
703.0 0.001422 705.45526 705.56445
667.0 0.001499 705.34131 705.44006
715.0 0.001399 705.22095 705.31073
709.0 0.001410 705.09387 705.17578
722.0 0.001385 704.96033 705.03546
742.0 0.001348 704.81982 704.88910
710.0 0.001408 704.67310 704.73694
702.0 0.001425 704.51978 704.57898
715.0 0.001399 704.35974 704.41461
755.0 0.001325 704.19299 704.24414
734.0 0.001362 704.01971 704.06732
672.0 0.001488 703.83978 703.88458
687.0 0.001456 703.65326 703.69537
743.0 0.001346 703.46045 703.49969
696.0 0.001437 703.26074 703.29779
731.0 0.001368 703.05457 703.08942
742.0 0.001348 702.84192 702.87476
749.0 0.001335 702.62256 705.19385
754.0 0.001326 702.39667 713.62701
779.0 0.001284 702.16418 713.95618
765.0 0.001307 701.92542 715.28510
776.0 0.001289 701.67975 718.95667
777.0 0.001287 701.42767 719.62598
790.0 0.001266 701.16919 720.36420
793.0 0.001261 700.90405 721.17346
835.0 0.001198 700.63251 722.07788
771.0 0.001297 700.35449 723.08081
775.0 0.001290 700.06982 724.19574
766.0 0.001305 699.77887 725.43756
843.0 0.001186 699.48163 726.82410
813.0 0.001230 699.17749 728.37561
804.0 0.001244 698.86743 730.11584
770.0 0.001299 698.55060 732.07361
847.0 0.001181 698.22778 734.28290
859.0 0.001164 697.89813 736.78455
848.0 0.001179 697.56238 739.62671
827.0 0.001209 697.22028 742.86816
820.0 0.001220 696.87207 746.58301
887.0 0.001127 696.51709 750.85803
820.0 0.001220 696.15607 755.80688
852.0 0.001174 695.78882 761.56757
900.0 0.001111 695.41553 768.31622
943.0 0.001060 695.03571 776.28320
800.0 0.001250 694.64990 785.76196
829.0 0.001206 694.25787 797.14990
918.0 0.001089 693.85950 810.97516
914.0 0.001094 693.45526 827.97241
944.0 0.001059 693.04474 849.25946
979.0 0.001021 692.62842 876.77350
982.0 0.001018 692.20587 914.77362
1117.0 0.000895 691.77722 974.03546
1279.0 0.000782 691.34277 1082.28345
1550.0 0.000645 690.90210 1304.91711
1986.0 0.000504 690.45575 1774.15063
2799.0 0.000357 690.00342 2708.72437
4566.0 0.0002190 689.54523 4376.85449
7132.0 0.0001402 689.08105 6953.72803
10304.0 0.0000970 688.61115 10290.94824
13364.0 0.0000748 688.13550 13736.89160
15825.0 0.0000632 687.65393 16264.83594
16881.0 0.0000592 687.16681 16971.13086
15837.0 0.0000631 686.67401 15672.70996
13269.0 0.0000754 686.17535 13039.29883
9980.0 0.0001002 685.67114 9935.99023
6745.0 0.0001483 685.16138 6983.33105
4546.0 0.0002200 684.64600 4592.58887
2800.0 0.000357 684.12488 2924.45483
1613.0 0.000620 683.59875 1908.06580
1152.0 0.000868 683.06683 1362.69543
965.0 0.001036 682.52954 1099.59387
870.0 0.001149 681.98688 974.25000
871.0 0.001148 681.43884 909.27380
840.0 0.001190 680.88562 869.83746
793.0 0.001261 680.32697 841.01935
820.0 0.001220 679.76288 818.63818
735.0 0.001361 679.19385 800.64069
793.0 0.001261 678.61951 785.89618
725.0 0.001379 678.04028 773.64441
767.0 0.001304 677.45575 763.35236
778.0 0.001285 676.86615 754.61639
720.0 0.001389 676.27161 747.14014
752.0 0.001330 675.67218 740.69623
762.0 0.001312 675.06757 735.10638
751.0 0.001332 674.45856 730.23633
748.0 0.001337 673.84418 725.97742
733.0 0.001364 673.22510 722.24719
738.0 0.001355 672.60126 718.98163
702.0 0.001425 671.97284 716.12970
751.0 0.001332 671.33978 713.65509
732.0 0.001366 670.70184 711.53088
707.0 0.001414 670.05939 709.74243
762.0 0.001312 669.41254 708.28418
712.0 0.001404 668.76093 707.16058
669.0 0.001495 668.10498 706.38824
773.0 0.001294 667.44446 705.99811
736.0 0.001359 666.77972 706.03882
724.0 0.001381 666.11078 706.58160
692.0 0.001445 665.43738 707.73065
712.0 0.001404 664.75983 709.63837
717.0 0.001395 664.07788 712.55066
705.0 0.001418 663.39197 714.51575
756.0 0.001323 662.70184 713.02502
739.0 0.001353 662.00775 726.08417
781.0 0.001280 661.30963 751.66693
785.0 0.001274 660.60748 806.57574
911.0 0.001098 659.90125 931.03259
1166.0 0.000858 659.19141 1172.82227
1569.0 0.000637 658.47742 1576.95508
2068.0 0.000484 657.75989 2143.15503
2739.0 0.000365 657.03864 2778.70825
3370.0 0.0002967 656.31360 3297.93872
3662.0 0.0002731 655.58496 3504.42651
3676.0 0.0002720 654.85248 3337.14551
3197.0 0.0003128 654.11676 2917.17212
2603.0 0.000384 653.37726 2395.83643
1957.0 0.000511 652.63452 1876.12268
1498.0 0.000668 651.88861 1434.81213
1081.0 0.000925 651.13898 1112.18860
849.0 0.001178 650.38611 906.80878
753.0 0.001328 649.62982 792.13495
739.0 0.001353 648.87042 734.80511
599.0 0.001669 648.10791 707.44458
663.0 0.001508 647.34235 693.45410
651.0 0.001536 646.57355 684.98981
603.0 0.001658 645.80164 678.97058
630.0 0.001587 645.02686 674.29047
669.0 0.001495 644.24939 670.50995
613.0 0.001631 643.46844 667.40442
615.0 0.001626 642.68512 664.83698
624.0 0.001603 641.89899 662.71387
674.0 0.001484 641.11005 660.97479
628.0 0.001592 640.31830 659.58356
581.0 0.001721 639.52386 658.52344
585.0 0.001709 638.72711 657.79932
599.0 0.001669 637.92737 657.43658
621.0 0.001610 637.12543 657.48907
658.0 0.001520 636.32123 658.05939
606.0 0.001650 635.51392 659.36639
615.0 0.001626 634.70471 661.96631
599.0 0.001669 633.89331 667.38330
679.0 0.001473 633.07935 679.54651
659.0 0.001517 632.26349 707.21783
744.0 0.001344 631.44501 766.34247
813.0 0.001230 630.62476 878.55817
1060.0 0.000943 629.80219 1061.04224
1324.0 0.000755 628.97760 1306.91724
1609.0 0.000622 628.15106 1568.92615
1829.0 0.000547 627.32269 1765.76221
1917.0 0.000522 626.49237 1821.84692
1838.0 0.000544 625.65991 1728.71887
1637.0 0.000611 624.82587 1545.03198
1322.0 0.000756 623.99011 1328.99426
1149.0 0.000870 623.15247 1115.69849
973.0 0.001028 622.31323 937.82214
746.0 0.001340 621.47223 807.96729
720.0 0.001389 620.62952 724.25183
631.0 0.001585 619.78571 677.57758
620.0 0.001613 618.93994 653.79065
601.0 0.001664 618.09314 641.99579
621.0 0.001610 617.24463 635.57654
592.0 0.001689 616.39478 631.39594
611.0 0.001637 615.54376 628.21356
630.0 0.001587 614.69135 625.57385
643.0 0.001555 613.83777 623.29443
573.0 0.001745 612.98279 621.27740
617.0 0.001621 612.12653 619.46130
599.0 0.001669 611.26935 617.80170
608.0 0.001645 610.41101 616.26593
599.0 0.001669 609.55188 614.82959
620.0 0.001613 608.69165 613.47321
616.0 0.001623 607.83026 612.18280
601.0 0.001664 606.96796 610.94690
584.0 0.001712 606.10480 609.75604
580.0 0.001724 605.24103 608.60358
661.0 0.001513 604.37616 612.39655
595.0 0.001681 603.51074 611.54535
633.0 0.001580 602.64459 610.73608
620.0 0.001613 601.77740 609.96735
631.0 0.001585 600.91010 611.15350
628.0 0.001592 600.04187 610.56012
604.0 0.001656 599.17310 610.01477
597.0 0.001675 598.30389 609.52032
598.0 0.001672 597.43384 609.07947
597.0 0.001675 596.56372 608.69598
596.0 0.001678 595.69287 608.37573
601.0 0.001664 594.82196 608.12354
603.0 0.001658 593.95038 607.94800
613.0 0.001631 593.07849 607.85712
620.0 0.001613 592.20648 607.86200
610.0 0.001639 591.33417 607.11530
577.0 0.001733 590.46155 607.39136
636.0 0.001572 589.58899 607.80652
606.0 0.001650 588.71582 608.05426
671.0 0.001490 587.84296 608.83563
651.0 0.001536 586.96960 609.83850
713.0 0.001403 586.09637 611.10419
612.0 0.001634 585.22339 612.68420
628.0 0.001592 584.34985 614.64362
641.0 0.001560 583.47687 617.06366
603.0 0.001658 582.60358 620.05121
649.0 0.001541 581.73035 624.23846
658.0 0.001520 580.85742 628.84039
694.0 0.001441 579.98456 634.57574
686.0 0.001458 579.11206 641.96344
704.0 0.001420 578.23969 651.14551
722.0 0.001385 577.36749 663.13336
722.0 0.001385 576.49554 679.69751
733.0 0.001364 575.62372 705.40375
794.0 0.001259 574.75275 752.41150
907.0 0.001103 573.88153 850.45190
1071.0 0.000934 573.01074 1060.75195
1435.0 0.000697 572.14044 1482.92261
2148.0 0.000466 571.27087 2231.12524
3275.0 0.0003053 570.40131 3357.00000
4704.0 0.0002126 569.53235 4745.31982
5882.0 0.0001700 568.66394 6063.18848
6806.0 0.0001469 567.79602 6859.84521
6977.0 0.0001433 566.92865 6847.60791
6442.0 0.0001552 566.06177 6158.94971
5222.0 0.0001915 565.19556 5140.19678
3714.0 0.0002693 564.32959 4032.26245
2808.0 0.000356 563.46466 2982.18823
2085.0 0.000480 562.60016 2112.49683
1358.0 0.000736 561.73657 1483.43481
963.0 0.001038 560.87341 1083.82593
646.0 0.001548 560.01099 860.18994
658.0 0.001520 559.14941 747.19159
676.0 0.001479 558.28839 692.07837
642.0 0.001558 557.42834 663.22430
604.0 0.001656 556.56891 645.62146
607.0 0.001647 555.71027 633.34338
594.0 0.001684 554.85242 624.26874
593.0 0.001686 553.99536 617.73639
598.0 0.001672 553.13959 613.99432
611.0 0.001637 552.28394 614.63300
621.0 0.001610 551.42963 623.71094
649.0 0.001541 550.57611 648.88074
737.0 0.001357 549.72357 700.76776
830.0 0.001205 548.87195 788.04297
1007.0 0.000993 548.02106 908.18103
1057.0 0.000946 547.17108 1039.03406
1140.0 0.000877 546.32251 1140.85632
1240.0 0.000806 545.47467 1174.98938
1198.0 0.000835 544.62775 1134.50269
1137.0 0.000880 543.78198 1047.78137
913.0 0.001095 542.93689 944.02972
803.0 0.001245 542.09332 839.21649
774.0 0.001292 541.25043 745.27032
673.0 0.001486 540.40863 671.43646
596.0 0.001678 539.56781 620.23816
562.0 0.001779 538.72821 588.74316
601.0 0.001664 537.88977 571.21130
559.0 0.001789 537.05212 561.84357
566.0 0.001767 536.21576 556.51776
534.0 0.001873 535.38062 553.39819
585.0 0.001709 534.54633 550.67358
547.0 0.001828 533.71344 548.36200
607.0 0.001647 532.88153 541.19031
556.0 0.001799 532.05066 539.73260
577.0 0.001733 531.22095 538.25360
571.0 0.001751 530.39258 536.88007
542.0 0.001845 529.56519 533.70551
569.0 0.001757 528.73920 532.57343
561.0 0.001783 527.91412 531.49359
545.0 0.001835 527.09033 530.45660
526.0 0.001901 526.26752 529.45660
566.0 0.001767 525.44629 528.48816
510.0 0.001961 524.62579 527.61829
511.0 0.001957 523.80682 526.70447
531.0 0.001883 522.98901 525.81256
470.0 0.002128 522.17236 524.96735
498.0 0.002008 521.35699 524.11523
494.0 0.002024 520.54272 523.28113
503.0 0.001988 519.72980 522.46466
545.0 0.001835 518.91779 521.66412
498.0 0.002008 518.10718 520.88123
494.0 0.002024 517.29791 520.11493
445.0 0.002247 516.48981 519.36658
572.0 0.001748 515.68304 518.63666
508.0 0.001969 514.87720 517.92664
493.0 0.002028 514.07263 517.23804
478.0 0.002092 513.26959 516.57379
501.0 0.001996 512.46753 515.93549
494.0 0.002024 511.66678 514.83606
505.0 0.001980 510.86731 514.28503
518.0 0.001931 510.06894 513.77203
505.0 0.001980 509.27216 513.11401
514.0 0.001946 508.47610 512.70929
514.0 0.001946 507.68173 512.36908
510.0 0.001961 506.88824 512.10809
505.0 0.001980 506.09610 511.94522
489.0 0.002045 505.30548 511.90570
461.0 0.002169 504.51569 512.02344
517.0 0.001934 503.72739 512.34570
545.0 0.001835 502.94028 512.94446
538.0 0.001859 502.15430 513.94873
512.0 0.001953 501.36963 515.65137
572.0 0.001748 500.58618 518.81854
554.0 0.001805 499.80389 526.36774
549.0 0.001821 499.02295 541.00989
601.0 0.001664 498.24310 572.25104
658.0 0.001520 497.46460 632.56763
776.0 0.001289 496.68701 734.01941
892.0 0.001121 495.91119 876.46252
1111.0 0.000900 495.13605 1038.97546
1170.0 0.000855 494.36224 1177.23694
1241.0 0.000806 493.58990 1241.67163
1336.0 0.000749 492.81854 1213.89734
1240.0 0.000806 492.04868 1122.71484
1067.0 0.000937 491.27972 1006.36530
851.0 0.001175 490.51187 885.30957
799.0 0.001252 489.74545 771.74359
719.0 0.001391 488.98026 678.36072
625.0 0.001600 488.21613 613.40332
573.0 0.001745 487.45309 578.56934
584.0 0.001712 486.69138 570.36737
561.0 0.001783 485.93091 581.28351
608.0 0.001645 485.17130 600.96448
628.0 0.001592 484.41327 617.77069
672.0 0.001488 483.65613 622.26013
644.0 0.001553 482.90002 612.57782
647.0 0.001546 482.14545 594.36450
578.0 0.001730 481.39188 573.30255
560.0 0.001786 480.63962 552.07837
494.0 0.002024 479.88824 532.50781
499.0 0.002004 479.13809 516.43115
482.0 0.002075 478.38925 504.70645
484.0 0.002066 477.64148 497.08630
462.0 0.002165 476.89471 492.63184
517.0 0.001934 476.14902 490.21252
492.0 0.002033 475.40475 488.93262
486.0 0.002058 474.66150 488.26147
455.0 0.002198 473.91937 487.95993
511.0 0.001957 473.17807 487.95001
478.0 0.002092 472.43835 488.23105
506.0 0.001976 471.69934 488.83817
477.0 0.002096 470.96179 489.83612
464.0 0.002155 470.22519 491.32355
496.0 0.002016 469.48965 493.45831
496.0 0.002016 468.75525 496.53943
485.0 0.002062 468.02188 501.26077
540.0 0.001852 467.28967 509.44525
528.0 0.001894 466.55847 525.75726
599.0 0.001669 465.82880 560.63446
693.0 0.001443 465.09973 633.30322
996.0 0.001004 464.37167 770.57605
1160.0 0.000862 463.64493 995.64838
1427.0 0.000701 462.91916 1306.13196
1651.0 0.000606 462.19464 1652.03503
1863.0 0.000537 461.47119 1936.84253
1998.0 0.000501 460.74850 2058.09204
1936.0 0.000517 460.02725 1988.49561
1799.0 0.000556 459.30679 1791.48499
1490.0 0.000671 458.58768 1548.42261
1136.0 0.000880 457.86945 1297.14600
960.0 0.001042 457.15213 1058.95032
848.0 0.001179 456.43613 855.69525
672.0 0.001488 455.72095 702.55444
587.0 0.001704 455.00714 601.26080
539.0 0.001855 454.29401 541.74371
484.0 0.002066 453.58224 510.09555
491.0 0.002037 452.87143 493.76279
477.0 0.002096 452.16168 484.99170
435.0 0.002299 451.45303 479.49872
462.0 0.002165 450.74521 475.52457
471.0 0.002123 450.03860 472.38785
455.0 0.002198 449.33310 469.80869
453.0 0.002208 448.62857 467.64346
465.0 0.002151 447.92511 465.80463
466.0 0.002146 447.22256 464.23041
464.0 0.002155 446.52115 462.80545
488.0 0.002049 445.82101 461.64282
482.0 0.002075 445.12158 460.64462
440.0 0.002273 444.42355 459.79529
525.0 0.001905 443.72635 459.05679
476.0 0.002101 443.03003 458.47708
473.0 0.002114 442.33505 458.02637
495.0 0.002020 441.64096 457.70566
477.0 0.002096 440.94812 457.52026
475.0 0.002105 440.25620 457.47852
487.0 0.002053 439.56522 457.59323
435.0 0.002299 438.87573 457.88208
471.0 0.002123 438.18686 458.36816
504.0 0.001984 437.49927 459.08157
513.0 0.001949 436.81256 460.06149
513.0 0.001949 436.12711 461.35855
444.0 0.002252 435.44278 463.03745
514.0 0.001946 434.75925 465.18484
501.0 0.001996 434.07718 467.91370
508.0 0.001969 433.39578 471.37756
489.0 0.002045 432.71585 475.78778
525.0 0.001905 432.03683 481.45203
535.0 0.001869 431.35892 488.89624
538.0 0.001859 430.68207 499.21704
544.0 0.001838 430.00644 515.18555
589.0 0.001698 429.33170 543.98096
632.0 0.001582 428.65820 602.55731
723.0 0.001383 427.98590 724.75671
959.0 0.001043 427.31464 963.70593
1416.0 0.000706 426.64462 1378.14026
2134.0 0.000469 425.97549 1993.18311
2905.0 0.0003442 425.30786 2747.45020
3447.0 0.0002901 424.64105 3471.96948
3704.0 0.0002700 423.97565 3928.98657
3792.0 0.0002637 423.31110 3959.88672
3693.0 0.0002708 422.64792 3630.53125
3179.0 0.0003146 421.98590 3134.90991
2306.0 0.000434 421.32483 2598.57715
1833.0 0.000546 420.66541 2064.95337
1534.0 0.000652 420.00687 1572.88696
1104.0 0.000906 419.34946 1168.70154
778.0 0.001285 418.69342 874.96387
642.0 0.001558 418.03848 686.19727
514.0 0.001946 417.38501 578.34534
498.0 0.002008 416.73236 521.75177
498.0 0.002008 416.08105 492.49963
482.0 0.002075 415.43130 476.04385
474.0 0.002110 414.78250 465.29709
481.0 0.002079 414.13513 457.31934
459.0 0.002179 413.48895 450.94489
454.0 0.002203 412.84402 445.66647
464.0 0.002155 412.20050 441.20554
417.0 0.002398 411.55820 437.37634
472.0 0.002119 410.91730 434.04797
454.0 0.002203 410.27756 431.12000
436.0 0.002294 409.63910 428.51755
457.0 0.002188 409.00208 426.18243
416.0 0.002404 408.36646 424.06805
423.0 0.002364 407.73224 422.13855
423.0 0.002364 407.09924 420.36432
413.0 0.002421 406.46762 418.72202
441.0 0.002268 405.83752 417.19275
422.0 0.002370 405.20874 415.76022
388.0 0.002577 404.58136 414.41174
414.0 0.002415 403.95554 413.13623
438.0 0.002283 403.33087 411.92441
430.0 0.002326 402.70795 410.76898
394.0 0.002538 402.08624 409.66275
399.0 0.002506 401.46622 408.60062
410.0 0.002439 400.84735 407.57742
436.0 0.002294 400.23010 406.58911
344.0 0.002907 399.61456 405.63498
403.0 0.002481 399.00031 404.70633
423.0 0.002364 398.38788 403.80365
395.0 0.002532 397.77664 402.92383
359.0 0.002786 397.16693 402.06610
376.0 0.002660 396.55911 401.22681
388.0 0.002577 395.95261 400.40509
404.0 0.002475 395.34796 399.59967
348.0 0.002874 394.74475 398.80896
358.0 0.002793 394.14313 398.04102
362.0 0.002762 393.54315 397.27731
364.0 0.002747 392.94485 396.52554
373.0 0.002681 392.34818 395.78488
387.0 0.002584 391.75305 395.05768
357.0 0.002801 391.15976 392.14838
382.0 0.002618 390.56802 391.51865
388.0 0.002577 389.97821 390.89294
335.0 0.002985 389.38998 390.27121
377.0 0.002653 388.80356 388.82697
395.0 0.002532 388.21872 388.24347
367.0 0.002725 387.63596 387.66190
373.0 0.002681 387.05450 387.08203
408.0 0.002451 386.47519 386.50415
384.0 0.002604 385.89758 385.92825
396.0 0.002525 385.32175 385.35437
359.0 0.002786 384.74792 384.78253
371.0 0.002695 384.17572 384.21240
355.0 0.002817 383.60553 383.64478
360.0 0.002778 383.03714 383.07910
363.0 0.002755 382.47055 382.51550
376.0 0.002660 381.90613 381.95425
352.0 0.002841 381.34329 381.39532
404.0 0.002475 380.78265 380.83878
394.0 0.002538 380.22388 380.28455
391.0 0.002558 379.66690 379.73300
384.0 0.002604 379.11206 379.18436
379.0 0.002639 378.55902 378.63828
357.0 0.002801 378.00836 378.09546
358.0 0.002793 377.45938 377.55603
389.0 0.002571 376.91257 377.02039
338.0 0.002959 376.36777 376.48904
373.0 0.002681 375.82495 375.96280
381.0 0.002625 375.28436 375.44415
361.0 0.002770 374.74564 374.93744
362.0 0.002762 374.20929 374.45517
347.0 0.002882 373.67490 374.02185
370.0 0.002703 373.14264 373.68127
377.0 0.002653 372.61246 373.49005
354.0 0.002825 372.08441 373.49222
367.0 0.002725 371.55869 373.67416
367.0 0.002725 371.03503 373.92624
382.0 0.002618 370.51361 374.04895
382.0 0.002618 369.99442 373.84842
361.0 0.002770 369.47742 373.31628
356.0 0.002809 368.96259 372.69238
411.0 0.002433 368.45020 372.29782
373.0 0.002681 367.93982 372.40302
403.0 0.002481 367.43207 373.36215
401.0 0.002494 366.92621 375.97870
345.0 0.002899 366.42279 377.90402
402.0 0.002488 365.92169 379.50830
407.0 0.002457 365.42291 380.04788
381.0 0.002625 364.92664 379.15280
366.0 0.002732 364.43246 377.62848
357.0 0.002801 363.94058 375.44119
377.0 0.002653 363.45142 373.24277
392.0 0.002551 362.96442 371.07867
370.0 0.002703 362.47992 369.04849
362.0 0.002762 361.99774 367.30371
361.0 0.002770 361.51785 365.92908
374.0 0.002674 361.04077 364.91830
381.0 0.002625 360.56586 364.19800
339.0 0.002950 360.09354 363.67264
368.0 0.002717 359.62354 363.26129
382.0 0.002618 359.15610 362.91446
378.0 0.002646 358.69119 362.60754
375.0 0.002667 358.22867 362.33148
385.0 0.002597 357.76871 362.08340
393.0 0.002545 357.31134 361.86429
347.0 0.002882 356.85645 361.67511
370.0 0.002703 356.40408 361.51895
349.0 0.002865 355.95428 361.39896
378.0 0.002646 355.50690 361.31921
373.0 0.002681 355.06232 361.28476
348.0 0.002874 354.62027 361.30161
327.0 0.003058 354.18079 361.37695
371.0 0.002695 353.74374 361.51984
357.0 0.002801 353.30954 361.74133
370.0 0.002703 352.87793 362.05450
383.0 0.002611 352.44870 362.47610
369.0 0.002710 352.02231 363.02667
389.0 0.002571 351.59842 363.73224
364.0 0.002747 351.17743 364.62531
384.0 0.002604 350.75885 365.74899
375.0 0.002667 350.34290 367.15857
391.0 0.002558 349.92981 370.37808
391.0 0.002558 349.51926 372.66360
413.0 0.002421 349.11142 375.55771
431.0 0.002320 348.70624 379.30307
428.0 0.002336 348.30368 384.38092
412.0 0.002427 347.90402 392.47351
411.0 0.002433 347.50690 405.20032
455.0 0.002198 347.11267 429.25662
505.0 0.001980 346.72092 476.84357
568.0 0.001761 346.33197 567.92224
778.0 0.001285 345.94583 727.42645
996.0 0.001004 345.56229 974.27496
1311.0 0.000763 345.18155 1302.07935
1728.0 0.000579 344.80347 1662.31726
1949.0 0.000513 344.42825 1965.68701
2081.0 0.000481 344.05560 2116.93945
1942.0 0.000515 343.68591 2075.72217
1848.0 0.000541 343.31885 1893.85266
1691.0 0.000591 342.95450 1657.74280
1373.0 0.000728 342.59286 1416.27673
1097.0 0.000912 342.23416 1179.89172
902.0 0.001109 341.87808 955.75952
772.0 0.001295 341.52481 761.89050
612.0 0.001634 341.17429 612.23694
512.0 0.001953 340.82639 509.48962
476.0 0.002101 340.48148 446.61365
381.0 0.002625 340.13916 411.68848
370.0 0.002703 339.79968 393.29224
397.0 0.002519 339.46286 383.39050
376.0 0.002660 339.12878 377.53714
446.0 0.002242 338.79758 373.67221
373.0 0.002681 338.46909 370.94250
426.0 0.002347 338.14334 369.00293
417.0 0.002398 337.82034 367.69650
398.0 0.002513 337.50000 366.94672
380.0 0.002632 337.18259 366.71918
406.0 0.002463 336.86774 367.01193
359.0 0.002786 336.55576 367.85385
414.0 0.002415 336.24646 369.30807
391.0 0.002558 335.93991 371.48114
402.0 0.002488 335.63608 374.54733
386.0 0.002591 335.33499 378.82880
412.0 0.002427 335.03653 385.02280
433.0 0.002309 334.74081 394.87982
409.0 0.002445 334.44775 412.76999
471.0 0.002123 334.15762 448.54379
521.0 0.001919 333.87000 520.95276
605.0 0.001653 333.58505 658.08044
826.0 0.001211 333.30295 889.47638
1232.0 0.000812 333.02350 1226.33752
1683.0 0.000594 332.74664 1636.73157
1891.0 0.000529 332.47241 2032.76697
2244.0 0.000446 332.20078 2289.83936
2340.0 0.000427 331.93201 2320.00903
2215.0 0.000451 331.66577 2154.92358
1983.0 0.000504 331.40219 1903.58252
1600.0 0.000625 331.14124 1641.46228
1319.0 0.000758 330.88278 1384.00769
1021.0 0.000979 330.62695 1129.67358
878.0 0.001139 330.37387 895.51318
713.0 0.001403 330.12329 703.20404
539.0 0.001855 329.87531 562.97638
440.0 0.002273 329.63000 472.29431
393.0 0.002545 329.38708 419.63293
348.0 0.002874 329.14664 391.17343
367.0 0.002725 328.90881 375.66513
354.0 0.002825 328.67349 366.51053
375.0 0.002667 328.44077 359.51068
349.0 0.002865 328.21048 355.01691
398.0 0.002513 327.98264 351.35812
370.0 0.002703 327.75723 348.32880
349.0 0.002865 327.53439 345.45602
353.0 0.002833 327.31403 343.33417
371.0 0.002695 327.09589 341.50275
361.0 0.002770 326.88034 339.90656
339.0 0.002950 326.66714 338.51465
345.0 0.002899 326.45633 337.27017
328.0 0.003049 326.24799 336.15857
322.0 0.003106 326.04172 335.15894
337.0 0.002967 325.83804 334.25754
330.0 0.003030 325.63657 333.43298
335.0 0.002985 325.43750 332.67783
348.0 0.002874 325.24060 331.98325
302.0 0.003311 325.04617 331.34079
299.0 0.003344 324.85394 330.74420
350.0 0.002857 324.66391 330.18814
347.0 0.002882 324.47604 329.66776
296.0 0.003378 324.29041 329.17926
315.0 0.003175 324.10693 328.71924
317.0 0.003155 323.92566 328.28455
315.0 0.003175 323.74661 327.87308
336.0 0.002976 323.56964 327.48209
313.0 0.003195 323.39487 327.11038
296.0 0.003378 323.22202 326.75546
355.0 0.002817 323.05145 326.41635
334.0 0.002994 322.88287 326.09192
312.0 0.003205 322.71619 325.78073
313.0 0.003195 322.55173 325.48193
327.0 0.003058 322.38919 325.19452
345.0 0.002899 322.22873 324.91791
326.0 0.003067 322.06998 324.65115
291.0 0.003436 321.91333 324.41541
310.0 0.003226 321.75854 324.16794
362.0 0.002762 321.60571 323.92883
317.0 0.003155 321.45477 322.22516
316.0 0.003165 321.30569 322.05713
339.0 0.002950 321.15839 321.90210
345.0 0.002899 321.01282 321.74353
342.0 0.002924 320.86911 321.02298
342.0 0.002924 320.72720 320.89563
324.0 0.003086 320.58710 320.77222
336.0 0.002976 320.44861 320.65378
329.0 0.003040 320.31186 320.54041
287.0 0.003484 320.17676 320.54489
304.0 0.003289 320.04333 320.45023
352.0 0.002841 319.91153 320.36633
328.0 0.003049 319.78131 320.29846
322.0 0.003106 319.65274 320.25995
305.0 0.003279 319.52567 320.32492
315.0 0.003175 319.40002 320.48083
350.0 0.002857 319.27606 320.90106
345.0 0.002899 319.15350 321.78287
305.0 0.003279 319.03244 323.33426
323.0 0.003096 318.91275 325.64468
318.0 0.003145 318.79446 328.51801
338.0 0.002959 318.67773 331.37012
351.0 0.002849 318.56229 333.34625
307.0 0.003257 318.44812 333.78009
351.0 0.002849 318.33530 332.79019
340.0 0.002941 318.22379 331.09637
320.0 0.003125 318.11346 329.24536
313.0 0.003195 318.00436 327.37003
342.0 0.002924 317.89667 325.44940
275.0 0.00364 317.79001 323.58469
312.0 0.003205 317.68454 321.95416
331.0 0.003021 317.58005 320.66632
317.0 0.003155 317.47699 319.74216
310.0 0.003226 317.37491 319.13721
334.0 0.002994 317.27365 318.76904
303.0 0.003300 317.17371 318.55682
328.0 0.003049 317.07455 318.44214
276.0 0.00362 316.97656 318.39212
314.0 0.003185 316.87949 318.39456
302.0 0.003311 316.78326 318.45966
330.0 0.003030 316.68790 318.63120
309.0 0.003236 316.59357 319.01602
290.0 0.003448 316.49997 319.82504
290.0 0.003448 316.40729 321.38858
298.0 0.003356 316.31519 324.08908
323.0 0.003096 316.22412 328.15283
299.0 0.003344 316.13367 333.35645
274.0 0.00365 316.04398 338.80585
293.0 0.003413 315.95508 343.01727
291.0 0.003436 315.86661 344.61563
297.0 0.003367 315.77893 343.48828
307.0 0.003257 315.69180 340.95944
301.0 0.003322 315.60526 338.45798
358.0 0.002793 315.51938 336.81268
307.0 0.003257 315.43393 336.70712
345.0 0.002899 315.34909 339.52759
330.0 0.003030 315.26456 347.45456
344.0 0.002907 315.18057 362.48080
391.0 0.002558 315.09708 385.49084
411.0 0.002433 315.01398 412.44919
429.0 0.002331 314.93124 437.38214
475.0 0.002105 314.84879 451.94678
439.0 0.002278 314.76675 451.26575
459.0 0.002179 314.68509 438.87369
441.0 0.002268 314.60361 421.83847
424.0 0.002358 314.52237 405.06387
382.0 0.002618 314.44122 389.05997
386.0 0.002591 314.36057 372.99707
379.0 0.002639 314.27985 357.53586
366.0 0.002732 314.19931 344.19260
371.0 0.002695 314.11905 333.96582
319.0 0.003135 314.03870 327.00397
312.0 0.003205 313.95862 322.75998
293.0 0.003413 313.87839 320.38489
314.0 0.003185 313.79837 319.08633
335.0 0.002985 313.71823 318.36053
310.0 0.003226 313.63821 317.90842
332.0 0.003012 313.55798 317.59628
340.0 0.002941 313.47772 317.37012
301.0 0.003322 313.39740 317.44287
319.0 0.003135 313.31693 317.33688
316.0 0.003165 313.23630 317.27460
326.0 0.003067 313.15558 317.25174
315.0 0.003175 313.07468 317.26730
295.0 0.003390 312.99344 317.41260
324.0 0.003086 312.91202 317.50818
324.0 0.003086 312.83035 317.64496
330.0 0.003030 312.74847 317.82654
332.0 0.003012 312.66623 318.05795
323.0 0.003096 312.58371 318.34601
346.0 0.002890 312.50085 318.69992
328.0 0.003049 312.41766 319.13107
320.0 0.003125 312.33389 319.65485
320.0 0.003125 312.24982 320.29068
319.0 0.003135 312.16541 321.06445
311.0 0.003215 312.08035 322.01132
336.0 0.002976 311.99496 323.17859
322.0 0.003106 311.90906 324.63657
330.0 0.003030 311.82275 326.50574
346.0 0.002890 311.73572 329.03732
360.0 0.002778 311.64822 332.81131
342.0 0.002924 311.56015 339.48438
381.0 0.002625 311.47141 351.86859
345.0 0.002899 311.38211 376.00516
427.0 0.002342 311.29233 420.66888
516.0 0.001938 311.20178 496.70084
641.0 0.001560 311.11047 605.83527
815.0 0.001227 311.01855 741.43964
890.0 0.001124 310.92593 878.36987
919.0 0.001088 310.83264 977.49646
983.0 0.001017 310.73849 1005.46179
1051.0 0.000951 310.64368 962.04700
944.0 0.001059 310.54807 882.44867
848.0 0.001179 310.45160 798.61798
713.0 0.001403 310.35449 720.93451
631.0 0.001585 310.25638 644.78827
578.0 0.001730 310.15756 567.82489
528.0 0.001894 310.05786 496.43192
469.0 0.002132 309.95721 437.75143
365.0 0.002740 309.85587 395.05475
393.0 0.002545 309.75348 367.73331
332.0 0.003012 309.65018 352.39948
361.0 0.002770 309.54593 345.34164
354.0 0.002825 309.44086 344.10773
371.0 0.002695 309.33478 348.41833
369.0 0.002710 309.22775 360.21475
357.0 0.002801 309.11963 382.86975
416.0 0.002404 309.01071 419.47946
492.0 0.002033 308.90060 469.16983
581.0 0.001721 308.78964 525.53247
545.0 0.001835 308.67755 575.11652
571.0 0.001751 308.56442 601.71667
622.0 0.001608 308.45029 597.47754
608.0 0.001645 308.33514 570.78119
564.0 0.001773 308.21881 537.03101
537.0 0.001862 308.10150 505.10971
478.0 0.002092 307.98303 475.41873
468.0 0.002137 307.86353 445.55460
438.0 0.002283 307.74292 416.29529
359.0 0.002786 307.62115 390.74176
368.0 0.002717 307.49820 371.26501
395.0 0.002532 307.37427 358.61661
347.0 0.002882 307.24905 352.11606
342.0 0.002924 307.12271 350.39438
375.0 0.002667 306.99536 352.28104
395.0 0.002532 306.86679 357.49734
403.0 0.002481 306.73703 367.20334
407.0 0.002457 306.60605 384.70999
457.0 0.002188 306.47391 416.50351
449.0 0.002227 306.34058 473.35294
566.0 0.001767 306.20612 570.50922
730.0 0.001370 306.07037 724.99219
1022.0 0.000978 305.93350 947.90900
1325.0 0.000755 305.79550 1232.53735
1578.0 0.000634 305.65622 1545.51416
1753.0 0.000570 305.51563 1825.80896
1847.0 0.000541 305.37399 1993.87195
1903.0 0.000525 305.23105 1993.38770
1921.0 0.000521 305.08698 1848.72021
1770.0 0.000565 304.94168 1642.14685
1450.0 0.000690 304.79510 1437.24792
1143.0 0.000875 304.64716 1249.28088
957.0 0.001045 304.49835 1066.79028
953.0 0.001049 304.34814 885.67645
718.0 0.001393 304.19672 720.49701
549.0 0.001821 304.04398 585.66547
452.0 0.002212 303.89014 487.40945
401.0 0.002494 303.73499 423.81738
382.0 0.002618 303.57870 386.93353
376.0 0.002660 303.42120 367.39828
330.0 0.003030 303.26236 358.80859
362.0 0.002762 303.10245 357.99435
362.0 0.002762 302.94122 365.17419
376.0 0.002660 302.77884 382.49716
405.0 0.002469 302.61542 411.76266
487.0 0.002053 302.45068 452.23248
575.0 0.001739 302.28464 498.06470
567.0 0.001764 302.11737 537.89020
544.0 0.001838 301.94910 558.35059
570.0 0.001754 301.77963 553.39465
605.0 0.001653 301.60889 530.73108
541.0 0.001848 301.43701 503.71194
508.0 0.001969 301.26395 480.89276
454.0 0.002203 301.08978 464.47681
453.0 0.002208 300.91443 456.02328
500.0 0.002000 300.73788 459.60791
512.0 0.001953 300.56018 480.56924
533.0 0.001876 300.38153 519.50244
612.0 0.001634 300.20157 568.56647
611.0 0.001637 300.02060 611.78107
609.0 0.001642 299.83847 630.52881
608.0 0.001645 299.65524 617.38696
625.0 0.001600 299.47092 583.09436
528.0 0.001894 299.28552 543.97827
491.0 0.002037 299.09921 508.15765
461.0 0.002169 298.91165 475.08084
467.0 0.002141 298.72318 441.99011
457.0 0.002188 298.53354 408.24954
369.0 0.002710 298.34296 377.85736
348.0 0.002874 298.15125 353.42422
321.0 0.003115 297.95859 335.93265
327.0 0.003058 297.76498 324.68027
317.0 0.003155 297.57037 318.24863
329.0 0.003040 297.37476 314.46826
317.0 0.003155 297.17816 312.26224
297.0 0.003367 296.98074 310.69342
339.0 0.002950 296.78220 309.72504
309.0 0.003236 296.58289 309.01099
310.0 0.003226 296.38278 307.08453
306.0 0.003268 296.18161 306.75690
297.0 0.003367 295.97958 306.49893
319.0 0.003135 295.77667 306.43866
304.0 0.003289 295.57294 306.51193
325.0 0.003077 295.36835 306.20074
320.0 0.003125 295.16312 306.60132
286.0 0.003497 294.95697 307.19730
295.0 0.003390 294.74982 308.04727
284.0 0.00352 294.54218 309.27524
319.0 0.003135 294.33383 311.16019
310.0 0.003226 294.12457 314.33334
338.0 0.002959 293.91455 320.09146
310.0 0.003226 293.70386 330.72174
384.0 0.002604 293.49258 349.53253
409.0 0.002445 293.28070 380.15515
499.0 0.002004 293.06787 425.02487
492.0 0.002033 292.85461 483.48254
538.0 0.001859 292.64072 550.27319
586.0 0.001706 292.42621 615.73962
644.0 0.001553 292.21109 670.22064
717.0 0.001395 291.99561 710.98267
805.0 0.001242 291.77924 739.02325
707.0 0.001414 291.56262 748.91418
719.0 0.001391 291.34528 731.39032
708.0 0.001412 291.12756 686.83691
647.0 0.001546 290.90939 628.37286
582.0 0.001718 290.69073 570.39380
506.0 0.001976 290.47174 519.43805
456.0 0.002193 290.25214 474.42029
445.0 0.002247 290.03229 433.28622
428.0 0.002336 289.81210 397.05392
368.0 0.002717 289.59155 367.68326
336.0 0.002976 289.37051 345.92990
345.0 0.002899 289.14935 331.67899
310.0 0.003226 288.92789 323.39651
299.0 0.003344 288.70612 319.34094
297.0 0.003367 288.48413 318.03534
319.0 0.003135 288.26190 318.53796
321.0 0.003115 288.03934 320.74954
350.0 0.002857 287.81662 325.15955
345.0 0.002899 287.59396 333.32355
318.0 0.003145 287.37106 348.22797
359.0 0.002786 287.14792 374.66571
414.0 0.002415 286.92468 419.24951
543.0 0.001842 286.70154 489.44208
622.0 0.001608 286.47821 592.32831
745.0 0.001342 286.25488 729.49817
971.0 0.001030 286.03146 893.12866
1121.0 0.000892 285.80820 1064.88489
1223.0 0.000818 285.58496 1217.48621
1282.0 0.000780 285.36172 1314.04614
1301.0 0.000769 285.13855 1321.20752
1241.0 0.000806 284.91541 1242.77161
1222.0 0.000818 284.69247 1120.39148
1021.0 0.000979 284.46970 994.89703
814.0 0.001229 284.24719 883.06366
682.0 0.001466 284.02466 779.67554
720.0 0.001389 283.80252 676.41626
578.0 0.001730 283.58047 576.60437
491.0 0.002037 283.35873 489.37955
449.0 0.002227 283.13724 420.95245
343.0 0.002915 282.91608 372.67773
311.0 0.003215 282.69522 341.82468
296.0 0.003378 282.47461 323.53879
304.0 0.003289 282.25464 313.02090
315.0 0.003175 282.03491 306.74728
273.0 0.00366 281.81564 302.63281
297.0 0.003367 281.59668 299.62445
252.0 0.00397 281.37820 297.23965
287.0 0.003484 281.16019 295.25964
297.0 0.003367 280.94287 293.57278
289.0 0.003460 280.72589 292.11261
281.0 0.00356 280.50943 290.83353
309.0 0.003236 280.29373 289.70169
273.0 0.00366 280.07843 288.69083
287.0 0.003484 279.86383 287.81866
283.0 0.00353 279.64993 287.09668
297.0 0.003367 279.43637 286.34601
290.0 0.003448 279.22388 285.65622
291.0 0.003436 279.01187 285.01959
263.0 0.00380 278.80072 284.44156
293.0 0.003413 278.59012 283.77292
299.0 0.003344 278.38037 283.26047
303.0 0.003300 278.17139 282.77805
278.0 0.00360 277.96335 282.32220
279.0 0.00358 277.75604 281.69986
308.0 0.003247 277.54962 281.29477
264.0 0.00379 277.34396 280.85144
296.0 0.003378 277.13928 280.51523
276.0 0.00362 276.93539 280.16406
309.0 0.003236 276.73270 279.82675
268.0 0.00373 276.53067 279.43161
279.0 0.00358 276.32977 279.12109
273.0 0.00366 276.12988 278.83313
280.0 0.00357 275.93082 278.54401
280.0 0.00357 275.73300 278.26431
286.0 0.003497 275.53613 277.99368
277.0 0.00361 275.34024 277.73157
240.0 0.00417 275.14557 277.47751
258.0 0.00388 274.95206 277.23145
254.0 0.00394 274.75958 276.99582
256.0 0.00391 274.56827 276.76477
295.0 0.003390 274.37811 276.54108
265.0 0.00377 274.18915 276.32468
248.0 0.00403 274.00140 276.11539
277.0 0.00361 273.81488 275.91367
261.0 0.00383 273.62958 275.72043
271.0 0.00369 273.44547 275.53384
293.0 0.003413 273.26282 275.35519
250.0 0.00400 273.08130 275.18481
275.0 0.00364 272.90106 274.88763
238.0 0.00420 272.72217 274.73984
310.0 0.003226 272.54468 274.60223
283.0 0.00353 272.36847 274.47549
260.0 0.00385 272.19379 273.78113
263.0 0.00380 272.02036 273.64587
273.0 0.00366 271.84839 273.57870
263.0 0.00380 271.67789 273.52829
252.0 0.00397 271.50864 273.49695
311.0 0.003215 271.34109 273.26669
281.0 0.00356 271.17490 273.29156
296.0 0.003378 271.01010 273.34830
283.0 0.00353 270.84689 273.44351
287.0 0.003484 270.68512 273.58640
275.0 0.00364 270.52499 273.78864
289.0 0.003460 270.36633 274.06680
286.0 0.003497 270.20923 274.44745
253.0 0.00395 270.05371 274.97913
273.0 0.00366 269.89969 275.76590
280.0 0.00357 269.74741 277.04187
265.0 0.00377 269.59668 279.31250
262.0 0.00382 269.44745 283.55573
262.0 0.00382 269.29999 291.38330
303.0 0.003300 269.15405 304.94571
341.0 0.002933 269.00980 326.29178
375.0 0.002667 268.86731 356.13791
393.0 0.002545 268.72638 392.36395
392.0 0.002551 268.58707 429.01389
461.0 0.002169 268.44962 457.10193
456.0 0.002193 268.31369 468.47070
457.0 0.002188 268.17960 461.49689
483.0 0.002070 268.04727 442.68738
433.0 0.002309 267.91650 420.62082
420.0 0.002381 267.78754 399.81519
366.0 0.002732 267.66037 380.47437
354.0 0.002825 267.53503 361.78690
341.0 0.002933 267.41122 345.38541
359.0 0.002786 267.28943 332.58151
341.0 0.002933 267.16919 325.18530
288.0 0.003472 267.05087 322.62570
317.0 0.003155 266.93439 322.49292
277.0 0.00361 266.81961 321.43991
293.0 0.003413 266.70663 317.64532
316.0 0.003165 266.59546 311.52396
270.0 0.00370 266.48608 305.22076
262.0 0.00382 266.37863 299.93637
240.0 0.00417 266.27289 295.64377
274.0 0.00365 266.16907 291.58646
291.0 0.003436 266.06702 287.37964
277.0 0.00361 265.96674 283.37036
264.0 0.00379 265.86838 280.04489
278.0 0.00360 265.77191 277.63916
309.0 0.003236 265.67712 276.05988
285.0 0.00351 265.58432 274.95624
239.0 0.00418 265.49332 273.97540
282.0 0.00355 265.40421 273.01016
256.0 0.00391 265.31693 272.13474
298.0 0.003356 265.23145 271.41766
298.0 0.003356 265.14786 270.84464
271.0 0.00369 265.06616 270.33270
272.0 0.00368 264.98621 269.81952
251.0 0.00398 264.90836 269.31790
282.0 0.00355 264.83212 268.87259
285.0 0.00351 264.75772 268.51678
268.0 0.00373 264.68530 268.26279
250.0 0.00400 264.61478 268.10303
268.0 0.00373 264.54602 268.01874
231.0 0.00433 264.47913 267.99033
267.0 0.00375 264.41400 268.00241
277.0 0.00361 264.35077 268.04700
286.0 0.003497 264.28946 268.12000
260.0 0.00385 264.22983 268.22125
280.0 0.00357 264.17212 268.35211
264.0 0.00379 264.11624 268.51501
246.0 0.00407 264.06216 268.71317
250.0 0.00400 264.00995 268.95078
268.0 0.00373 263.95963 269.23373
243.0 0.00412 263.91104 269.56839
283.0 0.00353 263.86411 269.96304
273.0 0.00366 263.81918 270.42825
296.0 0.003378 263.77591 270.97720
286.0 0.003497 263.73456 271.62674
290.0 0.003448 263.69495 272.39786
287.0 0.003484 263.65704 273.31824
305.0 0.003279 263.62091 274.42432
254.0 0.00394 263.58667 275.76520
273.0 0.00366 263.55408 277.41431
285.0 0.00351 263.52313 279.49420
313.0 0.003195 263.49399 282.25131
291.0 0.003436 263.46671 286.24225
300.0 0.003333 263.44110 292.73734
293.0 0.003413 263.41711 304.36157
307.0 0.003257 263.39484 325.91953
326.0 0.003067 263.37427 364.81873
403.0 0.002481 263.35538 429.07904
548.0 0.001825 263.33810 523.97150
681.0 0.001468 263.32260 646.39636
728.0 0.001374 263.30869 780.19348
758.0 0.001319 263.29630 894.86475
740.0 0.001351 263.28568 952.92896
890.0 0.001124 263.27667 936.90399
935.0 0.001070 263.26913 868.93945
869.0 0.001151 263.26324 786.82538
784.0 0.001276 263.25909 715.00177
641.0 0.001560 263.25623 657.07947
558.0 0.001792 263.25513 602.15063
538.0 0.001859 263.25543 541.03589
505.0 0.001980 263.25726 476.66534
517.0 0.001934 263.26068 416.95825
401.0 0.002494 263.26556 367.96301
354.0 0.002825 263.27191 332.09567
303.0 0.003300 263.27969 308.48322
305.0 0.003279 263.28894 294.17917
290.0 0.003448 263.29974 286.18277
317.0 0.003155 263.31192 281.39096
302.0 0.003311 263.32541 278.40396
310.0 0.003226 263.34027 276.34039
271.0 0.00369 263.35657 274.78754
284.0 0.00352 263.37424 273.55069
283.0 0.00353 263.39325 272.63315
270.0 0.00370 263.41354 271.79193
289.0 0.003460 263.43509 271.08536
283.0 0.00353 263.45798 270.48740
298.0 0.003356 263.48224 269.98117
269.0 0.00372 263.50760 269.55045
248.0 0.00403 263.53436 269.18323
298.0 0.003356 263.56238 268.87042
268.0 0.00373 263.59131 268.60574
266.0 0.00376 263.62155 268.38013
259.0 0.00386 263.65305 268.19034
262.0 0.00382 263.68567 268.06741
264.0 0.00379 263.71933 267.93881
255.0 0.00392 263.75421 267.83640
277.0 0.00361 263.79010 267.75812
283.0 0.00353 263.82718 267.70142
275.0 0.00364 263.86520 267.66592
288.0 0.003472 263.90417 267.66367
268.0 0.00373 263.94434 267.66824
263.0 0.00380 263.98544 267.69235
259.0 0.00386 264.02740 267.73608
283.0 0.00353 264.07050 267.80045
256.0 0.00391 264.11438 267.88605
268.0 0.00373 264.15927 267.99484
276.0 0.00362 264.20514 268.12946
292.0 0.003425 264.25168 268.29407
292.0 0.003425 264.29919 268.49622
253.0 0.00395 264.34741 268.75244
250.0 0.00400 264.39664 269.30264
254.0 0.00394 264.44644 270.38980
279.0 0.00358 264.49719 271.19302
243.0 0.00412 264.54858 272.45029
296.0 0.003378 264.60071 274.35843
280.0 0.00357 264.65366 277.04538
262.0 0.00382 264.70718 280.44672
302.0 0.003311 264.76141 284.49960
252.0 0.00397 264.81619 287.92664
298.0 0.003356 264.87161 290.17365
308.0 0.003247 264.92764 290.87277
324.0 0.003086 264.98441 290.68716
317.0 0.003155 265.04156 290.95480
296.0 0.003378 265.09924 292.84409
301.0 0.003322 265.15765 297.60718
308.0 0.003247 265.21625 305.78448
331.0 0.003021 265.27548 319.24625
348.0 0.002874 265.33514 337.61740
330.0 0.003030 265.39520 359.55722
333.0 0.003003 265.45560 381.58365
375.0 0.002667 265.51651 398.88376
384.0 0.002604 265.57770 408.04929
411.0 0.002433 265.63925 412.13998
417.0 0.002398 265.70114 419.41541
447.0 0.002237 265.76321 438.68130
478.0 0.002092 265.82571 474.14032
538.0 0.001859 265.88834 522.85925
553.0 0.001808 265.95126 574.56708
621.0 0.001610 266.01428 613.81030
627.0 0.001595 266.07755 625.04370
603.0 0.001658 266.14105 604.06201
640.0 0.001563 266.20459 563.63684
606.0 0.001650 266.26825 520.68732
536.0 0.001866 266.33212 485.44904
446.0 0.002242 266.39606 458.65140
472.0 0.002119 266.45984 434.53748
429.0 0.002331 266.52374 408.05673
431.0 0.002320 266.58768 379.89395
394.0 0.002538 266.65164 353.61343
371.0 0.002695 266.71564 332.51755
349.0 0.002865 266.77945 318.44913
334.0 0.002994 266.84314 311.71555
340.0 0.002941 266.90683 311.36420
330.0 0.003030 266.97040 315.59195
318.0 0.003145 267.03381 322.08936
331.0 0.003021 267.09705 328.22348
322.0 0.003106 267.16013 331.43219
352.0 0.002841 267.22299 330.60120
346.0 0.002890 267.28564 327.02899
346.0 0.002890 267.34805 322.98566
323.0 0.003096 267.41013 320.03607
349.0 0.002865 267.47198 318.59702
323.0 0.003096 267.53351 318.23514
334.0 0.002994 267.59464 318.62546
328.0 0.003049 267.65564 320.60413
352.0 0.002841 267.71603 326.49347
324.0 0.003086 267.77625 340.44287
353.0 0.002833 267.83591 369.13110
418.0 0.002392 267.89517 421.88394
501.0 0.001996 267.95401 508.86768
670.0 0.001493 268.01254 636.48169
897.0 0.001115 268.07031 800.94415
1028.0 0.000973 268.12778 982.46887
1112.0 0.000899 268.18457 1143.39502
1209.0 0.000827 268.24103 1236.43237
1269.0 0.000788 268.29684 1233.11633
1356.0 0.000737 268.35199 1151.79602
1344.0 0.000744 268.40671 1040.58044
1142.0 0.000876 268.46069 938.82825
926.0 0.001080 268.51413 860.68860
802.0 0.001247 268.56683 797.72095
786.0 0.001272 268.61896 734.11151
763.0 0.001311 268.67038 664.25159
725.0 0.001379 268.72110 594.84778
568.0 0.001761 268.77106 533.25409
531.0 0.001883 268.82028 481.93863
374.0 0.002674 268.86902 439.62683
411.0 0.002433 268.91672 405.19577
348.0 0.002874 268.96368 378.68451
317.0 0.003155 269.00995 359.76559
355.0 0.002817 269.05539 346.91779
350.0 0.002857 269.09998 337.68079
313.0 0.003195 269.14365 329.52158
274.0 0.00365 269.18671 321.22290
304.0 0.003289 269.22873 313.27573
292.0 0.003425 269.26990 306.91769
315.0 0.003175 269.31015 303.28009
291.0 0.003436 269.34958 303.62375
313.0 0.003195 269.38791 309.29205
337.0 0.002967 269.42554 321.49277
352.0 0.002841 269.46207 340.67731
363.0 0.002755 269.49768 365.68286
319.0 0.003135 269.53235 392.56610
406.0 0.002463 269.56595 415.64819
456.0 0.002193 269.59869 426.85074
474.0 0.002110 269.63040 422.80966
481.0 0.002079 269.66107 407.90546
415.0 0.002410 269.69064 389.90097
365.0 0.002740 269.71927 374.11682
351.0 0.002849 269.74680 362.18411
369.0 0.002710 269.77328 351.90277
322.0 0.003106 269.79865 340.58121
320.0 0.003125 269.82300 327.69385
281.0 0.00356 269.84619 314.67545
325.0 0.003077 269.86841 303.10724
279.0 0.00358 269.88943 293.94583
285.0 0.00351 269.90939 287.41577
266.0 0.00376 269.92810 283.17636
269.0 0.00372 269.94580 280.60751
282.0 0.00355 269.96234 279.06561
295.0 0.003390 269.97769 278.17004
274.0 0.00365 269.99197 277.60880
272.0 0.00368 270.00504 277.23587
269.0 0.00372 270.01697 276.98352
266.0 0.00376 270.02759 276.82034
274.0 0.00365 270.03714 276.71939
236.0 0.00424 270.04550 276.70224
248.0 0.00403 270.05264 276.75439
284.0 0.00352 270.05859 276.87869
282.0 0.00355 270.06342 277.08218
245.0 0.00408 270.06699 277.37616
298.0 0.003356 270.06924 277.78085
275.0 0.00364 270.07043 278.33310
276.0 0.00362 270.07040 279.11066
285.0 0.00351 270.06906 280.28394
277.0 0.00361 270.06647 282.21753
295.0 0.003390 270.06274 285.61932
302.0 0.003311 270.05777 291.47482
318.0 0.003145 270.05157 301.29050
320.0 0.003125 270.04410 317.79376
333.0 0.003003 270.03534 341.44553
338.0 0.002959 270.02551 371.55066
397.0 0.002519 270.01428 404.80283
464.0 0.002155 270.00180 434.93436
428.0 0.002336 269.98828 454.14484
455.0 0.002198 269.97327 458.71277
475.0 0.002105 269.95715 452.39951
449.0 0.002227 269.93985 442.67548
388.0 0.002577 269.92126 433.80154
347.0 0.002882 269.90140 425.34653
343.0 0.002915 269.88037 413.93457
389.0 0.002571 269.85803 397.58212
367.0 0.002725 269.83450 377.85175
370.0 0.002703 269.80969 358.20407
322.0 0.003106 269.78375 341.25800
295.0 0.003390 269.75653 327.79407
289.0 0.003460 269.72812 317.47162
300.0 0.003333 269.69846 310.04697
292.0 0.003425 269.66751 306.12747
300.0 0.003333 269.63547 306.94424
311.0 0.003215 269.60217 314.05383
332.0 0.003012 269.56766 328.79773
361.0 0.002770 269.53198 351.36267
401.0 0.002494 269.49521 379.96906
436.0 0.002294 269.45706 409.46866
403.0 0.002481 269.41788 432.46945
425.0 0.002353 269.37735 441.10480
449.0 0.002227 269.33582 433.49185
437.0 0.002288 269.29312 415.54205
433.0 0.002309 269.24915 395.68625
395.0 0.002532 269.20404 379.25223
363.0 0.002755 269.15787 366.91351
352.0 0.002841 269.11075 356.24252
340.0 0.002941 269.06223 344.23602
318.0 0.003145 269.01263 330.28799
348.0 0.002874 268.96204 316.05438
300.0 0.003333 268.91019 303.29855
262.0 0.00382 268.85730 293.11261
313.0 0.003195 268.80338 285.75183
291.0 0.003436 268.74841 280.89230
286.0 0.003497 268.69226 277.88654
273.0 0.00366 268.63510 276.07394
252.0 0.00397 268.57700 274.95157
260.0 0.00385 268.51782 274.20313
267.0 0.00375 268.45755 273.65717
267.0 0.00375 268.39636 273.22940
263.0 0.00380 268.33414 272.87964
222.0 0.00450 268.27090 272.58743
286.0 0.003497 268.20670 272.34073
263.0 0.00380 268.14145 272.13199
274.0 0.00365 268.07544 271.95563
274.0 0.00365 268.00836 271.80771
245.0 0.00408 267.94037 271.68491
259.0 0.00386 267.87137 271.58539
283.0 0.00353 267.80167 271.50748
270.0 0.00370 267.73099 271.45013
243.0 0.00412 267.65939 271.41296
269.0 0.00372 267.58704 271.39633
272.0 0.00368 267.51376 271.40005
257.0 0.00389 267.43964 271.42535
256.0 0.00391 267.36475 271.47357
292.0 0.003425 267.28897 271.54633
280.0 0.00357 267.21243 271.64633
285.0 0.00351 267.13510 271.77625
263.0 0.00380 267.05707 271.94022
276.0 0.00362 266.97827 272.14294
257.0 0.00389 266.89865 272.39014
269.0 0.00372 266.81848 272.54404
253.0 0.00395 266.73752 272.90909
303.0 0.003300 266.65591 273.34702
268.0 0.00373 266.57355 273.87265
264.0 0.00379 266.49060 274.50534
263.0 0.00380 266.40698 275.22418
297.0 0.003367 266.32272 276.10593
270.0 0.00370 266.23785 277.48056
305.0 0.003279 266.15253 278.99966
262.0 0.00382 266.06647 281.09027
264.0 0.00379 265.97992 284.21594
277.0 0.00361 265.89288 289.24747
332.0 0.003012 265.80530 297.74927
307.0 0.003257 265.71713 311.97327
303.0 0.003300 265.62860 334.82269
372.0 0.002688 265.53961 368.87140
423.0 0.002364 265.44995 415.79416
468.0 0.002137 265.36008 474.75742
515.0 0.001942 265.26971 541.06873
581.0 0.001721 265.17892 605.81458
598.0 0.001672 265.08789 659.58667
653.0 0.001531 264.99640 697.74261
706.0 0.001416 264.90454 717.40460
719.0 0.001391 264.81232 714.82916
660.0 0.001515 264.71991 691.07422
690.0 0.001449 264.62711 654.76501
655.0 0.001527 264.53415 613.81171
580.0 0.001724 264.44089 572.32526
553.0 0.001808 264.34729 532.57697
483.0 0.002070 264.25354 494.57117
460.0 0.002174 264.15967 456.60306
435.0 0.002299 264.06555 419.19257
383.0 0.002611 263.97122 384.83798
366.0 0.002732 263.87692 355.34821
332.0 0.003012 263.78235 331.31421
322.0 0.003106 263.68777 312.74930
284.0 0.00352 263.59308 299.18240
289.0 0.003460 263.49835 289.71213
298.0 0.003356 263.40347 283.30215
302.0 0.003311 263.30869 279.02191
278.0 0.00360 263.21378 276.14740
282.0 0.00355 263.11899 274.16245
278.0 0.00360 263.02411 272.72595
259.0 0.00386 262.92941 271.62869
278.0 0.00360 262.83459 270.74854
243.0 0.00412 262.74008 270.01682
220.0 0.00455 262.64560 269.39444
280.0 0.00357 262.55118 268.85815
279.0 0.00358 262.45697 268.39285
265.0 0.00377 262.36276 267.98737
300.0 0.003333 262.26907 267.63367
296.0 0.003378 262.17529 267.32544
255.0 0.00392 262.08185 267.05801
233.0 0.00429 261.98859 267.24509
268.0 0.00373 261.89557 267.06039
285.0 0.00351 261.80289 266.90906
285.0 0.00351 261.71057 266.78983
259.0 0.00386 261.61841 266.70255
274.0 0.00365 261.52658 266.64771
274.0 0.00365 261.43518 266.66272
273.0 0.00366 261.34412 266.83688
257.0 0.00389 261.25354 266.89536
271.0 0.00369 261.16312 266.99701
256.0 0.00391 261.07327 267.14725
269.0 0.00372 260.98389 267.35312
280.0 0.00357 260.89484 267.62390
276.0 0.00362 260.80643 267.98599
269.0 0.00372 260.71844 268.42813
261.0 0.00383 260.63089 268.98642
279.0 0.00358 260.54391 269.69415
258.0 0.00388 260.45740 270.60971
279.0 0.00358 260.37155 271.84305
308.0 0.003247 260.28619 273.63330
310.0 0.003226 260.20151 276.48062
297.0 0.003367 260.11746 281.36099
256.0 0.00391 260.03394 289.95660
301.0 0.003322 259.95111 304.73660
320.0 0.003125 259.86887 328.59024
368.0 0.002717 259.78723 363.77820
414.0 0.002415 259.70642 410.35565
472.0 0.002119 259.62631 464.55484
464.0 0.002155 259.54694 517.80377
525.0 0.001905 259.46829 556.86359
558.0 0.001792 259.39035 569.44702
554.0 0.001805 259.31311 553.54309
592.0 0.001689 259.23676 520.64349
538.0 0.001859 259.16122 484.84579
468.0 0.002137 259.08640 455.69528
431.0 0.002320 259.01236 434.86856
391.0 0.002558 258.93930 418.21338
422.0 0.002370 258.86703 399.78882
425.0 0.002353 258.79565 377.17380
361.0 0.002770 258.72519 352.36890
356.0 0.002809 258.65549 328.92502
346.0 0.002890 258.58679 309.17761
297.0 0.003367 258.51898 294.21036
267.0 0.00375 258.45206 283.87936
273.0 0.00366 258.38605 277.31989
272.0 0.00368 258.32108 273.38382
259.0 0.00386 258.25702 271.08087
233.0 0.00429 258.19403 269.71790
292.0 0.003425 258.13199 268.88120
264.0 0.00379 258.07086 268.34949
264.0 0.00379 258.01089 268.00961
276.0 0.00362 257.95190 267.80374
290.0 0.003448 257.89383 267.70609
294.0 0.003401 257.83691 267.71393
263.0 0.00380 257.78104 267.83493
276.0 0.00362 257.72614 268.07843
253.0 0.00395 257.67252 268.45398
293.0 0.003413 257.61978 268.97116
289.0 0.003460 257.56818 269.64413
301.0 0.003322 257.51782 270.49600
253.0 0.00395 257.46848 271.56439
284.0 0.00352 257.42010 272.90561
265.0 0.00377 257.37305 274.60852
300.0 0.003333 257.32706 276.83731
301.0 0.003322 257.28220 279.92838
337.0 0.002967 257.23846 284.58875
289.0 0.003460 257.19601 292.23853
284.0 0.00352 257.15457 305.44733
324.0 0.003086 257.11435 328.26022
355.0 0.002817 257.07544 365.94574
444.0 0.002252 257.03754 423.64099
501.0 0.001996 257.00092 503.82684
572.0 0.001748 256.96536 603.22919
711.0 0.001406 256.93118 710.40869
708.0 0.001412 256.89810 804.78027
794.0 0.001259 256.86624 860.30109
855.0 0.001170 256.83566 860.97375
821.0 0.001218 256.80630 817.10669
876.0 0.001142 256.77805 756.03900
685.0 0.001460 256.75101 700.48218
559.0 0.001789 256.72519 660.41907
554.0 0.001805 256.70068 632.02264
530.0 0.001887 256.67740 602.69983
563.0 0.001776 256.65530 562.19800
543.0 0.001842 256.63455 511.33325
469.0 0.002132 256.61496 458.21210
436.0 0.002294 256.59668 410.09460
352.0 0.002841 256.57950 371.27298
338.0 0.002959 256.56366 342.41602
322.0 0.003106 256.54898 321.70160
302.0 0.003311 256.53571 306.82001
310.0 0.003226 256.52356 295.94135
270.0 0.00370 256.51257 287.84534
275.0 0.00364 256.50299 281.68280
259.0 0.00386 256.49457 277.01517
278.0 0.00360 256.48746 273.56079
272.0 0.00368 256.48154 271.03687
277.0 0.00361 256.47687 269.20337
256.0 0.00391 256.47333 267.83371
265.0 0.00377 256.47113 266.74817
280.0 0.00357 256.47009 265.82928
255.0 0.00392 256.47040 265.02246
278.0 0.00360 256.47189 264.31219
258.0 0.00388 256.47455 263.69443
290.0 0.003448 256.47839 263.16382
275.0 0.00364 256.48352 262.50452
252.0 0.00397 256.48984 262.12408
281.0 0.00356 256.49728 261.80023
285.0 0.00351 256.50595 261.52414
260.0 0.00385 256.51599 261.28839
266.0 0.00376 256.52710 261.08713
292.0 0.003425 256.53928 260.91586
267.0 0.00375 256.55276 260.69308
269.0 0.00372 256.56741 260.57346
287.0 0.003484 256.58328 260.47437
289.0 0.003460 256.60013 260.39456
280.0 0.00357 256.61819 260.33203
271.0 0.00369 256.63736 260.28635
260.0 0.00385 256.65778 260.25644
259.0 0.00386 256.67920 260.24203
283.0 0.00353 256.70184 260.24255
259.0 0.00386 256.72549 260.25836
294.0 0.003401 256.75027 260.28937
284.0 0.00352 256.77621 260.33572
278.0 0.00360 256.80316 260.39844
224.0 0.00446 256.83124 260.67136
293.0 0.003413 256.86044 260.77390
282.0 0.00355 256.89047 260.89590
278.0 0.00360 256.92169 261.03934
299.0 0.003344 256.95395 261.20618
288.0 0.003472 256.98721 261.39902
240.0 0.00417 257.02155 261.62140
276.0 0.00362 257.05685 261.94983
246.0 0.00407 257.09296 262.24579
250.0 0.00400 257.13010 262.58704
270.0 0.00370 257.16833 262.98108
262.0 0.00382 257.20740 263.43842
277.0 0.00361 257.24750 263.97165
247.0 0.00405 257.28845 264.59891
268.0 0.00373 257.33038 265.34579
262.0 0.00382 257.37314 266.25372
298.0 0.003356 257.41687 267.41040
285.0 0.00351 257.46130 268.95175
269.0 0.00372 257.50674 271.20837
305.0 0.003279 257.55295 274.79837
268.0 0.00373 257.60007 280.79269
299.0 0.003344 257.64795 290.79962
285.0 0.00351 257.69650 306.80396
346.0 0.002890 257.74600 330.62225
361.0 0.002770 257.79623 362.94034
395.0 0.002532 257.84726 402.24847
387.0 0.002584 257.89899 443.62817
441.0 0.002268 257.95126 480.18954
480.0 0.002083 258.00449 502.28653
475.0 0.002105 258.05829 505.12427
522.0 0.001916 258.11279 493.88556
504.0 0.001984 258.16791 479.66815
504.0 0.001984 258.22369 471.55157
471.0 0.002123 258.28012 472.90488
456.0 0.002193 258.33707 481.24738
443.0 0.002257 258.39468 488.55579
440.0 0.002273 258.45291 486.24753
443.0 0.002257 258.51154 471.28180
474.0 0.002110 258.57080 446.93143
450.0 0.002222 258.63058 418.70096
362.0 0.002762 258.69080 391.88327
373.0 0.002681 258.75150 369.90076
363.0 0.002755 258.81277 353.37012
329.0 0.003040 258.87427 340.64072
352.0 0.002841 258.93643 329.61755
288.0 0.003472 258.99890 319.07236
313.0 0.003195 259.06177 308.65912
288.0 0.003472 259.12503 298.72330
280.0 0.00357 259.18857 289.93793
305.0 0.003279 259.25247 282.79843
279.0 0.00358 259.31662 277.43552
290.0 0.003448 259.38123 273.68301
256.0 0.00391 259.44598 271.21548
268.0 0.00373 259.51108 269.67368
285.0 0.00351 259.57623 268.75049
266.0 0.00376 259.64182 268.22391
236.0 0.00424 259.70746 267.95352
260.0 0.00385 259.77332 267.86118
286.0 0.003497 259.83929 267.90909
248.0 0.00403 259.90543 268.08359
274.0 0.00365 259.97165 268.41409
273.0 0.00366 260.03802 268.85632
278.0 0.00360 260.10440 269.70456
295.0 0.003390 260.17087 270.54187
285.0 0.00351 260.23734 271.71643
252.0 0.00397 260.30396 273.46878
257.0 0.00389 260.37048 276.28101
290.0 0.003448 260.43686 281.04498
295.0 0.003390 260.50330 289.16141
299.0 0.003344 260.56961 302.58914
313.0 0.003195 260.63589 323.52719
337.0 0.002967 260.70206 353.26047
392.0 0.002551 260.76804 391.57651
430.0 0.002326 260.83392 435.36441
447.0 0.002237 260.89972 478.00912
477.0 0.002096 260.96515 509.61273
523.0 0.001912 261.03052 520.49261
508.0 0.001969 261.09552 508.68005
539.0 0.001855 261.16037 482.34113
458.0 0.002183 261.22488 452.69644
474.0 0.002110 261.28909 427.66574
365.0 0.002740 261.35303 410.12076
395.0 0.002532 261.41656 398.23480
395.0 0.002532 261.47986 387.24429
366.0 0.002732 261.54266 373.18726
356.0 0.002809 261.60510 355.91486
362.0 0.002762 261.66714 337.91223
330.0 0.003030 261.72876 321.74768
329.0 0.003040 261.78992 308.95581
289.0 0.003460 261.85052 299.91211
290.0 0.003448 261.91080 293.97531
284.0 0.00352 261.97040 289.91443
280.0 0.00357 262.02942 286.60364
296.0 0.003378 262.08792 283.57504
298.0 0.003356 262.14594 280.86386
329.0 0.003040 262.20340 278.66107
251.0 0.00398 262.26019 277.05289
281.0 0.00356 262.31625 275.95767
261.0 0.00383 262.37173 275.14612
284.0 0.00352 262.42657 274.37296
276.0 0.00362 262.48062 273.61200
278.0 0.00360 262.53403 272.92444
276.0 0.00362 262.58679 272.54959
260.0 0.00385 262.63864 272.65125
274.0 0.00365 262.68976 273.11414
290.0 0.003448 262.74011 274.19193
270.0 0.00370 262.78964 275.46564
259.0 0.00386 262.83844 276.56699
257.0 0.00389 262.88638 277.05334
250.0 0.00400 262.93335 276.76331
279.0 0.00358 262.97955 275.91278
245.0 0.00408 263.02475 274.82980
279.0 0.00358 263.06924 273.98206
259.0 0.00386 263.11255 273.43796
297.0 0.003367 263.15494 273.39645
255.0 0.00392 263.19656 273.25668
265.0 0.00377 263.23706 273.21335
276.0 0.00362 263.27658 272.93442
290.0 0.003448 263.31512 272.61148
286.0 0.003497 263.35263 272.42761
285.0 0.00351 263.38910 272.39621
277.0 0.00361 263.42444 272.67725
285.0 0.00351 263.45877 273.13223
280.0 0.00357 263.49194 273.86145
274.0 0.00365 263.52408 274.95728
257.0 0.00389 263.55505 276.40875
228.0 0.00439 263.58496 278.49326
293.0 0.003413 263.61368 281.66406
262.0 0.00382 263.64108 286.75104
283.0 0.00353 263.66754 295.11417
301.0 0.003322 263.69263 308.70425
359.0 0.002786 263.71658 329.87851
382.0 0.002618 263.73929 360.79199
411.0 0.002433 263.76080 402.36636
438.0 0.002283 263.78116 452.99335
523.0 0.001912 263.80005 507.50043
501.0 0.001996 263.81772 557.16711
579.0 0.001727 263.83417 590.96838
597.0 0.001675 263.84927 599.34253
587.0 0.001704 263.86310 581.47351
632.0 0.001582 263.87558 547.47321
616.0 0.001623 263.88681 510.33713
501.0 0.001996 263.89655 478.99219
461.0 0.002169 263.90506 456.41385
398.0 0.002513 263.91208 440.47449
425.0 0.002353 263.91788 425.89536
408.0 0.002451 263.92212 407.79276
427.0 0.002342 263.92499 385.30609
387.0 0.002584 263.92654 361.02017
396.0 0.002525 263.92664 338.08789
331.0 0.003021 263.92535 318.67667
318.0 0.003145 263.92258 303.53998
291.0 0.003436 263.91843 292.99896
302.0 0.003311 263.91278 286.11380
276.0 0.00362 263.90561 281.91904
289.0 0.003460 263.89706 279.54526
257.0 0.00389 263.88699 278.36392
283.0 0.00353 263.87546 277.98788
265.0 0.00377 263.86261 278.19562
263.0 0.00380 263.84805 278.77252
305.0 0.003279 263.83194 279.74109
288.0 0.003472 263.81448 280.88846
293.0 0.003413 263.79538 282.08490
302.0 0.003311 263.77484 283.32211
276.0 0.00362 263.75281 284.80261
280.0 0.00357 263.72916 286.82141
285.0 0.00351 263.70413 289.57663
312.0 0.003205 263.67737 293.07721
281.0 0.00356 263.64923 297.22269
272.0 0.00368 263.61951 301.75485
320.0 0.003125 263.58813 306.78268
314.0 0.003185 263.55533 312.69522
289.0 0.003460 263.52090 319.68787
313.0 0.003195 263.48495 327.25269
315.0 0.003175 263.44751 333.97141
333.0 0.003003 263.40842 337.95859
365.0 0.002740 263.36771 338.14484
360.0 0.002778 263.32556 335.46048
346.0 0.002890 263.28183 332.37094
324.0 0.003086 263.23654 331.63049
304.0 0.003289 263.18964 335.75241
301.0 0.003322 263.14111 347.02411
377.0 0.002653 263.09109 367.58859
364.0 0.002747 263.03952 399.54132
433.0 0.002309 262.98639 444.85669
459.0 0.002179 262.93170 504.04251
570.0 0.001754 262.87546 574.67560
653.0 0.001531 262.81763 649.78156
668.0 0.001497 262.75824 718.49615
783.0 0.001277 262.69742 768.00037
788.0 0.001269 262.63483 787.84967
772.0 0.001295 262.57074 776.12665
835.0 0.001198 262.50528 739.87958
787.0 0.001271 262.43808 690.87573
678.0 0.001475 262.36948 641.35907
599.0 0.001669 262.29922 599.07227
598.0 0.001672 262.22760 565.25989
533.0 0.001876 262.15430 536.19177
481.0 0.002079 262.07956 506.86346
510.0 0.001961 262.00327 474.50275
397.0 0.002519 261.92538 439.23425
444.0 0.002252 261.84619 403.43246
401.0 0.002494 261.76538 370.37531
346.0 0.002890 261.68307 342.53036
326.0 0.003067 261.59930 320.92337
289.0 0.003460 261.51401 305.37927
270.0 0.00370 261.42743 295.01785
299.0 0.003344 261.33929 288.74475
269.0 0.00372 261.24960 285.60358
289.0 0.003460 261.15860 284.93573
277.0 0.00361 261.06601 286.33286
307.0 0.003257 260.97205 289.43265
304.0 0.003289 260.87671 293.82324
302.0 0.003311 260.77997 298.45862
300.0 0.003333 260.68182 302.66330
269.0 0.00372 260.58224 304.80502
292.0 0.003425 260.48123 303.96939
296.0 0.003378 260.37891 300.57803
314.0 0.003185 260.27530 295.98462
277.0 0.00361 260.17026 291.53925
275.0 0.00364 260.06390 288.01843
280.0 0.00357 259.95621 285.50067
306.0 0.003268 259.84720 283.79745
286.0 0.003497 259.73685 282.14044
293.0 0.003413 259.62518 280.01547
259.0 0.00386 259.51230 277.39545
254.0 0.00394 259.39822 274.60620
252.0 0.00397 259.28265 271.98947
280.0 0.00357 259.16608 269.77542
272.0 0.00368 259.04813 268.06732
256.0 0.00391 258.92902 266.86371
279.0 0.00358 258.80865 266.10016
254.0 0.00394 258.68710 265.70029
258.0 0.00388 258.56454 265.62256
285.0 0.00351 258.44070 265.89435
275.0 0.00364 258.31570 266.63113
261.0 0.00383 258.18958 268.03604
280.0 0.00357 258.06226 270.36655
247.0 0.00405 257.93393 273.85419
287.0 0.003484 257.80453 278.60580
287.0 0.003484 257.67395 284.44556
291.0 0.003436 257.54233 290.83356
326.0 0.003067 257.40973 296.80612
298.0 0.003356 257.27609 301.10941
323.0 0.003096 257.14145 302.81586
349.0 0.002865 257.00580 302.19250
304.0 0.003289 256.86914 300.44205
325.0 0.003077 256.73163 298.75290
268.0 0.00373 256.59308 297.74121
317.0 0.003155 256.45355 297.50247
316.0 0.003165 256.31317 297.95694
305.0 0.003279 256.17188 299.09238
305.0 0.003279 256.02988 301.29779
284.0 0.00352 255.88684 305.26978
282.0 0.00355 255.74295 311.92386
334.0 0.002994 255.59830 321.82761
336.0 0.002976 255.45277 334.70251
344.0 0.002907 255.30656 349.16922
360.0 0.002778 255.15955 362.79428
322.0 0.003106 255.01178 372.73428
331.0 0.003021 254.86310 377.45370
400.0 0.002500 254.71397 378.58762
368.0 0.002717 254.56403 379.73529
379.0 0.002639 254.41342 383.61124
356.0 0.002809 254.26221 390.77481
391.0 0.002558 254.11021 398.57501
413.0 0.002421 253.95773 403.40311
392.0 0.002551 253.80457 400.96735
388.0 0.002577 253.65088 390.65134
436.0 0.002294 253.49658 375.07791
377.0 0.002653 253.34177 358.21689
353.0 0.002833 253.18637 343.27615
319.0 0.003135 253.03058 331.48544
335.0 0.002985 252.87419 322.45889
302.0 0.003311 252.71733 314.82187
323.0 0.003096 252.56013 307.14279
313.0 0.003195 252.40237 298.98135
305.0 0.003279 252.24432 290.67056
291.0 0.003436 252.08585 282.85672
292.0 0.003425 251.92700 276.08795
294.0 0.003401 251.76767 270.59042
258.0 0.00388 251.60815 266.40198
270.0 0.00370 251.44833 263.35590
277.0 0.00361 251.28821 261.35110
265.0 0.00377 251.12781 260.25079
247.0 0.00405 250.96706 259.96310
240.0 0.00417 250.80612 260.40985
266.0 0.00376 250.64502 261.48349
241.0 0.00415 250.48376 262.99323
280.0 0.00357 250.32222 264.62360
249.0 0.00402 250.16055 265.92178
253.0 0.00395 249.99881 266.36261
282.0 0.00355 249.83696 265.75757
238.0 0.00420 249.67493 264.29459
271.0 0.00369 249.51289 262.47812
261.0 0.00383 249.35069 260.76080
241.0 0.00415 249.18852 259.39987
232.0 0.00431 249.02640 258.44058
249.0 0.00402 248.86430 257.74420
244.0 0.00410 248.70206 257.05557
247.0 0.00405 248.53992 256.20303
255.0 0.00392 248.37784 255.15504
285.0 0.00351 248.21587 254.02161
291.0 0.003436 248.05405 252.92833
236.0 0.00424 247.89229 251.96309
244.0 0.00410 247.73055 251.16893
242.0 0.00413 247.56903 250.54898
273.0 0.00366 247.40779 250.07947
235.0 0.00426 247.24666 249.72438
255.0 0.00392 247.08574 249.44876
263.0 0.00380 246.92502 249.32307
245.0 0.00408 246.76456 249.13660
261.0 0.00383 246.60439 248.97391
242.0 0.00413 246.44453 248.82928
257.0 0.00389 246.28493 248.70033
269.0 0.00372 246.12564 248.59019
265.0 0.00377 245.96663 248.49362
250.0 0.00400 245.80803 248.41042
248.0 0.00403 245.64984 248.34386
239.0 0.00418 245.49200 248.30174
263.0 0.00380 245.33452 248.28816
274.0 0.00365 245.17749 248.29044
230.0 0.00435 245.02094 248.30771
293.0 0.003413 244.86485 248.35237
268.0 0.00373 244.70915 248.42268
233.0 0.00429 244.55394 248.53992
236.0 0.00424 244.39929 248.71071
275.0 0.00364 244.24513 248.93872
251.0 0.00398 244.09157 249.27695
223.0 0.00448 243.93845 249.76306
248.0 0.00403 243.78600 250.49893
248.0 0.00403 243.63405 251.63882
211.0 0.00474 243.48271 253.50401
246.0 0.00407 243.33199 256.25891
273.0 0.00366 243.18188 260.42755
274.0 0.00365 243.03241 266.17462
273.0 0.00366 242.88358 274.02499
290.0 0.003448 242.73550 283.91156
296.0 0.003378 242.58801 295.65305
283.0 0.00353 242.44122 308.66809
304.0 0.003289 242.29526 322.16953
339.0 0.002950 242.14986 335.81750
356.0 0.002809 242.00526 350.11777
374.0 0.002674 241.86142 365.28021
362.0 0.002762 241.71838 380.60358
408.0 0.002451 241.57613 394.05667
380.0 0.002632 241.43457 404.02164
397.0 0.002519 241.29381 409.49023
378.0 0.002646 241.15388 409.08179
421.0 0.002375 241.01480 401.56116
407.0 0.002457 240.87650 388.07166
350.0 0.002857 240.73911 371.95679
368.0 0.002717 240.60251 356.27777
335.0 0.002985 240.46683 342.55560
290.0 0.003448 240.33200 331.22189
306.0 0.003268 240.19804 321.91663
263.0 0.00380 240.06497 313.80750
293.0 0.003413 239.93279 305.59665
303.0 0.003300 239.80162 296.54868
284.0 0.00352 239.67126 286.96054
271.0 0.00369 239.54179 277.64020
283.0 0.00353 239.41335 269.33444
256.0 0.00391 239.28593 262.53168
244.0 0.00410 239.15936 257.33408
272.0 0.00368 239.03377 253.67328
248.0 0.00403 238.90912 251.19357
275.0 0.00364 238.78546 249.57538
223.0 0.00448 238.66289 248.47330
260.0 0.00385 238.54123 247.66592
246.0 0.00407 238.42047 247.01859
267.0 0.00375 238.30087 246.49982
238.0 0.00420 238.18217 246.11955
255.0 0.00392 238.06456 245.90306
274.0 0.00365 237.94800 245.90256
256.0 0.00391 237.83237 246.15779
254.0 0.00394 237.71779 246.80396
254.0 0.00394 237.60428 248.08128
261.0 0.00383 237.49178 250.36772
258.0 0.00388 237.38043 254.21605
264.0 0.00379 237.26999 260.29880
267.0 0.00375 237.16066 269.24268
284.0 0.00352 237.05232 281.36121
285.0 0.00351 236.94513 296.33133
315.0 0.003175 236.83904 312.92148
323.0 0.003096 236.73380 328.80652
318.0 0.003145 236.62982 340.65656
328.0 0.003049 236.52684 345.25140
369.0 0.002710 236.42506 341.73892
337.0 0.002967 236.32420 332.68744
354.0 0.002825 236.22441 322.10480
310.0 0.003226 236.12572 313.28339
275.0 0.00364 236.02811 307.98532
277.0 0.00361 235.93161 306.34680
324.0 0.003086 235.83611 307.02295
300.0 0.003333 235.74174 307.69046
314.0 0.003185 235.64839 306.12927
301.0 0.003322 235.55618 301.34445
323.0 0.003096 235.46497 293.81540
305.0 0.003279 235.37482 284.92575
292.0 0.003425 235.28580 276.22397
303.0 0.003300 235.19786 268.85641
281.0 0.00356 235.11096 263.35965
284.0 0.00352 235.02509 259.71188
261.0 0.00383 234.94032 257.47763
234.0 0.00427 234.85657 256.01404
251.0 0.00398 234.77394 254.74834
257.0 0.00389 234.69228 253.42247
268.0 0.00373 234.61176 252.09941
270.0 0.00370 234.53210 250.99013
250.0 0.00400 234.45367 250.30898
253.0 0.00395 234.37616 250.29454
285.0 0.00351 234.29974 251.23875
263.0 0.00380 234.22440 253.58444
252.0 0.00397 234.14998 258.03119
291.0 0.003436 234.07658 265.60165
266.0 0.00376 234.00420 277.58170
306.0 0.003268 233.93286 295.23895
309.0 0.003236 233.86250 319.50919
352.0 0.002841 233.79311 350.18484
388.0 0.002577 233.72473 385.46878
461.0 0.002169 233.65727 421.35486
463.0 0.002160 233.59087 451.94974
479.0 0.002088 233.52542 470.71243
513.0 0.001949 233.46086 474.11383
497.0 0.002012 233.39734 463.49982
512.0 0.001953 233.33472 444.07043
405.0 0.002469 233.27298 421.48209
401.0 0.002494 233.21220 400.56284
365.0 0.002740 233.15244 384.11557
377.0 0.002653 233.09343 372.25299
355.0 0.002817 233.03543 362.93326
327.0 0.003058 232.97827 353.41397
372.0 0.002688 232.92198 342.12732
341.0 0.002933 232.86662 329.34637
313.0 0.003195 232.81209 316.35831
348.0 0.002874 232.75839 304.94635
295.0 0.003390 232.70558 296.87830
319.0 0.003135 232.65366 293.44833
259.0 0.00386 232.60245 295.11761
287.0 0.003484 232.55214 301.38318
307.0 0.003257 232.50253 310.75247
319.0 0.003135 232.45384 320.78494
357.0 0.002801 232.40585 328.34235
362.0 0.002762 232.35866 330.67249
346.0 0.002890 232.31218 327.05615
341.0 0.002933 232.26651 319.63123
330.0 0.003030 232.22157 311.67300
320.0 0.003125 232.17734 305.95016
317.0 0.003155 232.13383 304.02457
326.0 0.003067 232.09106 306.06744
310.0 0.003226 232.04892 310.87045
347.0 0.002882 232.00749 316.13800
324.0 0.003086 231.96672 319.23434
326.0 0.003067 231.92657 318.14661
330.0 0.003030 231.88716 312.30908
296.0 0.003378 231.84836 302.86844
294.0 0.003401 231.81012 292.04349
299.0 0.003344 231.77248 281.92773
245.0 0.00408 231.73549 273.82800
262.0 0.00382 231.69904 268.14127
277.0 0.00361 231.66318 264.55127
233.0 0.00429 231.62790 262.07761
281.0 0.00356 231.59311 259.86548
266.0 0.00376 231.55887 257.17111
211.0 0.00474 231.52515 253.85210
235.0 0.00426 231.49188 250.36723
242.0 0.00413 231.45912 247.18283
266.0 0.00376 231.42683 244.65359
232.0 0.00431 231.39505 243.01762
246.0 0.00407 231.36377 242.38101
256.0 0.00391 231.33284 242.72533
250.0 0.00400 231.30232 243.91191
216.0 0.00463 231.27220 245.70296
238.0 0.00420 231.24246 247.67006
245.0 0.00408 231.21313 249.32416
241.0 0.00415 231.18419 250.11479
230.0 0.00435 231.15569 249.72641
248.0 0.00403 231.12735 248.37253
244.0 0.00410 231.09940 246.47784
205.0 0.00488 231.07179 244.59705
246.0 0.00407 231.04445 243.06723
215.0 0.00465 231.01741 242.01457
249.0 0.00402 230.99065 241.37186
247.0 0.00405 230.96411 240.92061
259.0 0.00386 230.93785 240.39282
254.0 0.00394 230.91180 239.63016
272.0 0.00368 230.88597 238.68539
243.0 0.00412 230.86040 237.67680
237.0 0.00422 230.83495 236.78052
212.0 0.00472 230.80966 236.12627
231.0 0.00433 230.78456 235.80495
253.0 0.00395 230.75961 235.86629
230.0 0.00435 230.73477 236.31448
206.0 0.00485 230.71010 237.11133
231.0 0.00433 230.68549 238.14694
285.0 0.00351 230.66101 239.22601
243.0 0.00412 230.63658 240.12148
244.0 0.00410 230.61226 240.56990
238.0 0.00420 230.58794 240.42325
249.0 0.00402 230.56372 239.77151
248.0 0.00403 230.53947 238.87111
248.0 0.00403 230.51524 237.97728
237.0 0.00422 230.49113 237.26178
242.0 0.00413 230.46689 236.79703
232.0 0.00431 230.44267 236.51459
244.0 0.00410 230.41843 236.32732
248.0 0.00403 230.39409 236.18672
252.0 0.00397 230.36980 235.84264
234.0 0.00427 230.34534 235.38873
223.0 0.00448 230.32076 234.89258
233.0 0.00429 230.29616 234.42355
253.0 0.00395 230.27147 233.94559
209.0 0.00478 230.24664 233.59152
232.0 0.00431 230.22166 233.40442
229.0 0.00437 230.19653 233.28348
227.0 0.00441 230.17130 233.30467
210.0 0.00476 230.14587 233.36168
241.0 0.00415 230.12022 233.47679
226.0 0.00442 230.09451 233.64838
241.0 0.00415 230.06857 233.85327
240.0 0.00417 230.04237 234.18141
245.0 0.00408 230.01595 234.62819
220.0 0.00455 229.98935 235.33482
223.0 0.00448 229.96257 236.42493
223.0 0.00448 229.93544 238.15892
296.0 0.003378 229.90808 240.83835
255.0 0.00392 229.88037 244.80742
255.0 0.00392 229.85252 250.34500
234.0 0.00427 229.82434 257.53329
288.0 0.003472 229.79588 266.11105
279.0 0.00358 229.76706 275.34625
291.0 0.003436 229.73804 283.96631
288.0 0.003472 229.70862 290.19943
298.0 0.003356 229.67886 292.64581
318.0 0.003145 229.64876 291.02689
318.0 0.003145 229.61841 286.67050
259.0 0.00386 229.58757 281.49194
262.0 0.00382 229.55643 277.07703
283.0 0.00353 229.52501 274.31815
242.0 0.00413 229.49319 273.38950
282.0 0.00355 229.46092 273.77771
267.0 0.00375 229.42825 274.64133
275.0 0.00364 229.39526 275.22897
289.0 0.003460 229.36180 275.43994
290.0 0.003448 229.32796 275.92181
267.0 0.00375 229.29370 277.36389
282.0 0.00355 229.25909 280.27087
288.0 0.003472 229.22398 284.84534
298.0 0.003356 229.18846 291.11722
288.0 0.003472 229.15251 298.90610
273.0 0.00366 229.11613 307.50763
284.0 0.00352 229.07928 315.43314
314.0 0.003185 229.04204 320.64447
330.0 0.003030 229.00429 321.09250
322.0 0.003106 228.96609 316.58496
304.0 0.003289 228.92741 308.81577
331.0 0.003021 228.88834 300.19589
279.0 0.00358 228.84874 292.79837
280.0 0.00357 228.80870 288.02579
257.0 0.00389 228.76819 286.50787
250.0 0.00400 228.72719 288.05627
308.0 0.003247 228.68570 291.77216
305.0 0.003279 228.64374 296.47281
302.0 0.003311 228.60135 301.14502
298.0 0.003356 228.55838 305.13351
259.0 0.00386 228.51495 307.58658
303.0 0.003300 228.47113 307.26260
294.0 0.003401 228.42671 303.34384
337.0 0.002967 228.38179 296.39764
305.0 0.003279 228.33647 288.14703
279.0 0.00358 228.29056 280.40213
291.0 0.003436 228.24423 274.41238
272.0 0.00368 228.19743 270.77505
291.0 0.003436 228.15005 269.52646
243.0 0.00412 228.10229 270.25693
260.0 0.00385 228.05399 272.37793
281.0 0.00356 228.00523 275.51050
271.0 0.00369 227.95592 279.83109
276.0 0.00362 227.90611 285.85165
287.0 0.003484 227.85587 293.81598
316.0 0.003165 227.80515 303.25229
317.0 0.003155 227.75389 312.82346
334.0 0.002994 227.70227 320.48096
313.0 0.003195 227.65002 324.08615
335.0 0.002985 227.59743 322.56998
339.0 0.002950 227.54427 316.90405
316.0 0.003165 227.49072 309.70969
279.0 0.00358 227.43669 303.90314
281.0 0.00356 227.38219 301.71143
274.0 0.00365 227.32719 304.38419
324.0 0.003086 227.27180 312.06085
328.0 0.003049 227.21593 323.73108
311.0 0.003215 227.15955 337.38431
339.0 0.002950 227.10284 350.39526
332.0 0.003012 227.04556 359.91833
322.0 0.003106 226.98804 363.18842
330.0 0.003030 226.92996 358.53522
347.0 0.002882 226.87146 346.88672
322.0 0.003106 226.81253 331.51376
317.0 0.003155 226.75325 316.03009
283.0 0.00353 226.69356 303.00586
287.0 0.003484 226.63348 293.63770
257.0 0.00389 226.57295 287.85312
256.0 0.00391 226.51207 284.51971
235.0 0.00426 226.45079 281.83743
284.0 0.00352 226.38913 278.10095
257.0 0.00389 226.32710 272.61182
259.0 0.00386 226.26472 265.82370
250.0 0.00400 226.20203 258.65558
233.0 0.00429 226.13895 251.91519
257.0 0.00389 226.07553 246.12810
214.0 0.00467 226.01178 241.53362
217.0 0.00461 225.94772 238.13968
242.0 0.00413 225.88333 235.80128
229.0 0.00437 225.81863 234.31235
249.0 0.00402 225.75363 233.47682
235.0 0.00426 225.68834 233.14554
231.0 0.00433 225.62274 233.22278
247.0 0.00405 225.55696 233.64975
271.0 0.00369 225.49084 234.37872
212.0 0.00472 225.42444 235.34303
215.0 0.00465 225.35783 236.43265
263.0 0.00380 225.29100 237.45073
225.0 0.00444 225.22394 238.46199
260.0 0.00385 225.15656 239.06589
253.0 0.00395 225.08904 239.33334
240.0 0.00417 225.02133 239.21663
216.0 0.00463 224.95340 238.75784
240.0 0.00417 224.88531 238.14244
257.0 0.00389 224.81696 237.62984
244.0 0.00410 224.74850 237.47739
247.0 0.00405 224.67989 237.86174
230.0 0.00435 224.61116 239.11842
268.0 0.00373 224.54233 241.44772
253.0 0.00395 224.47325 245.28568
245.0 0.00408 224.40413 250.96803
265.0 0.00377 224.33488 258.72070
271.0 0.00369 224.26555 268.51776
310.0 0.003226 224.19615 279.83359
338.0 0.002959 224.12666 291.50885
323.0 0.003096 224.05708 301.65024
318.0 0.003145 223.98741 307.86917
325.0 0.003077 223.91777 308.34103
342.0 0.002924 223.84807 303.33972
362.0 0.002762 223.77829 294.88593
302.0 0.003311 223.70860 285.55637
318.0 0.003145 223.63881 277.33453
262.0 0.00382 223.56903 271.28287
257.0 0.00389 223.49930 267.57330
255.0 0.00392 223.42958 265.59924
255.0 0.00392 223.35997 264.19287
242.0 0.00413 223.29030 262.10510
261.0 0.00383 223.22072 258.75815
288.0 0.003472 223.15126 254.39722
250.0 0.00400 223.08179 249.75427
240.0 0.00417 223.01250 245.54407
243.0 0.00412 222.94327 242.21539
234.0 0.00427 222.87416 240.09140
227.0 0.00441 222.80507 239.10097
255.0 0.00392 222.73619 238.99170
259.0 0.00386 222.66748 239.33363
254.0 0.00394 222.59888 239.59528
234.0 0.00427 222.53041 239.30858
252.0 0.00397 222.46216 238.30354
229.0 0.00437 222.39400 236.77351
243.0 0.00412 222.32611 235.06134
232.0 0.00431 222.25835 233.51900
245.0 0.00408 222.19092 232.32350
231.0 0.00433 222.12360 231.53435
232.0 0.00431 222.05656 231.08658
203.0 0.00493 221.98972 230.81468
216.0 0.00463 221.92310 230.49529
223.0 0.00448 221.85677 230.00195
243.0 0.00412 221.79071 229.30212
221.0 0.00452 221.72488 228.45738
247.0 0.00405 221.65938 227.57027
255.0 0.00392 221.59413 226.72932
216.0 0.00463 221.52913 225.99933
230.0 0.00435 221.46452 225.41368
229.0 0.00437 221.40021 224.97696
205.0 0.00488 221.33614 224.66772
233.0 0.00429 221.27251 224.46907
251.0 0.00398 221.20917 224.32509
214.0 0.00467 221.14615 224.27164
225.0 0.00444 221.08353 224.22231
231.0 0.00433 221.02122 224.10526
219.0 0.00457 220.95929 224.09100
202.0 0.00495 220.89772 224.09731
229.0 0.00437 220.83653 224.12947
236.0 0.00424 220.77579 224.19176
244.0 0.00410 220.71536 224.28831
217.0 0.00461 220.65543 224.48404
240.0 0.00417 220.59579 224.66141
218.0 0.00459 220.53665 224.88536
228.0 0.00439 220.47792 225.13075
232.0 0.00431 220.41962 225.47279
238.0 0.00420 220.36171 225.89471
247.0 0.00405 220.30423 226.42395
233.0 0.00429 220.24721 227.10936
209.0 0.00478 220.19067 228.04048
218.0 0.00459 220.13454 229.37744
255.0 0.00392 220.07884 231.41516
212.0 0.00472 220.02364 234.53426
219.0 0.00457 219.96895 239.36374
260.0 0.00385 219.91463 246.65985
265.0 0.00377 219.86086 257.20547
265.0 0.00377 219.80751 271.59042
303.0 0.003300 219.75467 289.91046
321.0 0.003115 219.70235 311.47531
335.0 0.002985 219.65045 334.55099
342.0 0.002924 219.59904 356.17941
383.0 0.002611 219.54814 372.37222
389.0 0.002571 219.49768 379.39877
407.0 0.002457 219.44775 376.26938
394.0 0.002538 219.39833 365.74911
386.0 0.002591 219.34947 352.42206
324.0 0.003086 219.30098 340.36661
285.0 0.00351 219.25314 331.68024
310.0 0.003226 219.20567 326.96567
326.0 0.003067 219.15874 325.17404
295.0 0.003390 219.11230 324.23221
325.0 0.003077 219.06639 321.85910
345.0 0.002899 219.02101 316.41965
308.0 0.003247 218.97609 307.68860
300.0 0.003333 218.93169 296.79797
282.0 0.00355 218.88780 285.40070
282.0 0.00355 218.84442 274.89896
262.0 0.00382 218.80148 265.95862
294.0 0.003401 218.75905 258.72595
241.0 0.00415 218.71719 252.98160
223.0 0.00448 218.67577 248.18764
241.0 0.00415 218.63487 244.08884
241.0 0.00415 218.59441 240.62672
258.0 0.00388 218.55452 237.58040
207.0 0.00483 218.51506 234.87944
240.0 0.00417 218.47612 232.53810
231.0 0.00433 218.43752 230.58090
211.0 0.00474 218.39955 228.99004
216.0 0.00463 218.36206 227.73419
218.0 0.00459 218.32497 226.68433
243.0 0.00412 218.28838 225.79463
238.0 0.00420 218.25226 225.09152
226.0 0.00442 218.21655 224.53508
246.0 0.00407 218.18134 224.11327
262.0 0.00382 218.14653 223.81630
227.0 0.00441 218.11220 223.63036
229.0 0.00437 218.07832 223.55298
238.0 0.00420 218.04480 223.59821
240.0 0.00417 218.01175 223.73479
242.0 0.00413 217.97916 224.01141
235.0 0.00426 217.94693 224.48807
245.0 0.00408 217.91515 225.26347
241.0 0.00415 217.88370 226.53467
254.0 0.00394 217.85271 228.54373
234.0 0.00427 217.82204 231.60965
231.0 0.00433 217.79178 236.06476
246.0 0.00407 217.76192 242.17015
274.0 0.00365 217.73238 249.98299
251.0 0.00398 217.70323 259.24667
240.0 0.00417 217.67444 269.23871
279.0 0.00358 217.64594 278.73169
297.0 0.003367 217.61780 286.01901
340.0 0.002941 217.58997 289.35361
299.0 0.003344 217.56252 287.98630
336.0 0.002976 217.53529 282.81461
320.0 0.003125 217.50841 275.76532
272.0 0.00368 217.48178 268.72794
259.0 0.00386 217.45544 263.02643
258.0 0.00388 217.42938 259.33569
269.0 0.00372 217.40356 257.75839
249.0 0.00402 217.37799 257.88983
257.0 0.00389 217.35269 259.03122
286.0 0.003497 217.32762 260.55316
304.0 0.003289 217.30276 262.30823
271.0 0.00369 217.27814 264.73553
269.0 0.00372 217.25360 268.43320
254.0 0.00394 217.22929 273.66992
267.0 0.00375 217.20525 280.12979
265.0 0.00377 217.18127 286.81857
257.0 0.00389 217.15752 292.10718
299.0 0.003344 217.13391 294.15424
300.0 0.003333 217.11038 291.95636
270.0 0.00370 217.08705 286.14087
281.0 0.00356 217.06375 278.46405
267.0 0.00375 217.04054 270.74869
228.0 0.00439 217.01752 264.29697
225.0 0.00444 216.99448 259.77289
244.0 0.00410 216.97156 257.18417
243.0 0.00412 216.94867 256.11444
250.0 0.00400 216.92581 255.49158
242.0 0.00413 216.90297 254.41896
253.0 0.00395 216.88022 252.33592
259.0 0.00386 216.85741 249.36902
254.0 0.00394 216.83455 246.09949
275.0 0.00364 216.81177 243.20857
222.0 0.00450 216.78888 241.33275
244.0 0.00410 216.76602 241.06531
233.0 0.00429 216.74307 242.95975
235.0 0.00426 216.72009 247.58015
233.0 0.00429 216.69698 255.29417
264.0 0.00379 216.67381 266.33084
292.0 0.003425 216.65051 280.35263
287.0 0.003484 216.62712 296.83386
318.0 0.003145 216.60361 314.05508
333.0 0.003003 216.57988 329.63107
335.0 0.002985 216.55609 340.57101
367.0 0.002725 216.53210 344.46075
371.0 0.002695 216.50795 341.14819
373.0 0.002681 216.48366 333.00012
360.0 0.002778 216.45915 323.51990
301.0 0.003322 216.43436 315.85516
312.0 0.003205 216.40939 312.20483
289.0 0.003460 216.38422 313.71957
294.0 0.003401 216.35872 320.12683
329.0 0.003040 216.33302 329.84625
311.0 0.003215 216.30711 340.22330
327.0 0.003058 216.28082 348.08286
343.0 0.002915 216.25430 350.63705
384.0 0.002604 216.22746 346.36777
383.0 0.002611 216.20030 335.78046
381.0 0.002625 216.17288 321.22961
335.0 0.002985 216.14507 305.71277
273.0 0.00366 216.11693 291.67432
296.0 0.003378 216.08836 280.58771
266.0 0.00376 216.05959 272.96280
246.0 0.00407 216.03024 268.50577
250.0 0.00400 216.00067 266.29333
272.0 0.00368 215.97061 265.04510
241.0 0.00415 215.94022 263.59622
287.0 0.003484 215.90935 261.44540
251.0 0.00398 215.87813 258.87781
269.0 0.00372 215.84641 256.51743
233.0 0.00429 215.81429 254.85796
226.0 0.00442 215.78165 254.06392
269.0 0.00372 215.74867 253.94708
234.0 0.00427 215.71516 254.01170
240.0 0.00417 215.68115 253.63715
241.0 0.00415 215.64667 252.12971
241.0 0.00415 215.61171 249.44917
251.0 0.00398 215.57629 246.02289
216.0 0.00463 215.54028 242.48404
249.0 0.00402 215.50380 239.35976
236.0 0.00424 215.46681 236.95734
234.0 0.00427 215.42928 235.35602
197.0 0.00508 215.39124 234.43893
237.0 0.00422 215.35265 233.94211
218.0 0.00459 215.31346 233.53185
220.0 0.00455 215.27380 232.96136
229.0 0.00437 215.23352 232.13068
207.0 0.00483 215.19275 231.25320
232.0 0.00431 215.15134 230.64069
265.0 0.00377 215.10938 230.53200
226.0 0.00442 215.06683 231.26285
246.0 0.00407 215.02374 232.86314
200.0 0.00500 214.98004 235.26920
232.0 0.00431 214.93578 238.23572
238.0 0.00420 214.89090 241.32573
232.0 0.00431 214.84544 243.93970
243.0 0.00412 214.79936 245.46146
277.0 0.00361 214.75270 245.52534
244.0 0.00410 214.70547 244.22414
264.0 0.00379 214.65756 242.03455
236.0 0.00424 214.60918 239.65140
236.0 0.00424 214.56015 237.61229
240.0 0.00417 214.51048 236.29750
231.0 0.00433 214.46017 235.91896
224.0 0.00446 214.40924 236.56541
241.0 0.00415 214.35777 238.26067
247.0 0.00405 214.30573 241.04910
245.0 0.00408 214.25305 245.03625
242.0 0.00413 214.19974 250.69669
252.0 0.00397 214.14586 258.29929
289.0 0.003460 214.09142 268.08594
285.0 0.00351 214.03632 279.72678
307.0 0.003257 213.98061 292.37436
327.0 0.003058 213.92433 304.45676
294.0 0.003401 213.86748 313.87094
331.0 0.003021 213.81003 318.45758
309.0 0.003236 213.75203 316.97321
350.0 0.002857 213.69344 310.00235
296.0 0.003378 213.63425 299.81284
273.0 0.00366 213.57448 288.91861
280.0 0.00357 213.51421 279.29306
258.0 0.00388 213.45337 272.06726
304.0 0.003289 213.39194 267.43341
265.0 0.00377 213.32999 264.95560
253.0 0.00395 213.26753 263.61887
235.0 0.00426 213.20454 262.17133
264.0 0.00379 213.14102 259.57806
241.0 0.00415 213.07695 255.50685
267.0 0.00375 213.01234 250.31569
268.0 0.00373 212.94730 244.71936
257.0 0.00389 212.88176 239.33372
216.0 0.00463 212.81577 234.55428
210.0 0.00476 212.74928 230.58917
211.0 0.00474 212.68227 227.39886
218.0 0.00459 212.61481 225.21048
236.0 0.00424 212.54701 223.90804
188.0 0.00532 212.47874 223.46477
234.0 0.00427 212.41002 223.87794
251.0 0.00398 212.34087 225.12384
213.0 0.00469 212.27138 227.13017
223.0 0.00448 212.20146 229.76434
267.0 0.00375 212.13118 232.77107
211.0 0.00474 212.06050 235.75026
234.0 0.00427 211.98956 238.13016
228.0 0.00439 211.91820 239.39563
260.0 0.00385 211.84657 239.05547
254.0 0.00394 211.77457 237.38081
231.0 0.00433 211.70227 234.82356
210.0 0.00476 211.62978 232.02307
231.0 0.00433 211.55699 229.48543
221.0 0.00452 211.48390 227.51468
213.0 0.00469 211.41064 226.21371
269.0 0.00372 211.33702 225.50679
226.0 0.00442 211.26334 225.16919
215.0 0.00465 211.18942 224.88435
234.0 0.00427 211.11530 224.32771
217.0 0.00461 211.04109 223.42632
246.0 0.00407 210.96667 222.21870
263.0 0.00380 210.89209 220.87785
201.0 0.00498 210.81747 219.57228
248.0 0.00403 210.74274 218.42484
231.0 0.00433 210.66792 217.50635
200.0 0.00500 210.59312 216.85275
189.0 0.00529 210.51816 216.46347
213.0 0.00469 210.44325 216.31717
208.0 0.00481 210.36829 216.46172
211.0 0.00474 210.29340 216.91734
231.0 0.00433 210.21849 217.78494
213.0 0.00469 210.14368 219.24261
194.0 0.00515 210.06889 221.55408
225.0 0.00444 209.99417 225.05243
231.0 0.00433 209.91962 230.09248
263.0 0.00380 209.84518 236.96498
238.0 0.00420 209.77087 245.76630
244.0 0.00410 209.69669 256.27161
267.0 0.00375 209.62280 267.83929
240.0 0.00417 209.54906 279.28009
256.0 0.00391 209.47545 288.86008
266.0 0.00376 209.40222 294.56592
293.0 0.003413 209.32918 294.99429
323.0 0.003096 209.25642 290.35098
282.0 0.00355 209.18398 282.37128
281.0 0.00356 209.11183 273.24930
260.0 0.00385 209.04004 264.78699
250.0 0.00400 208.96860 258.11081
245.0 0.00408 208.89758 253.65596
259.0 0.00386 208.82697 251.26640
256.0 0.00391 208.75673 250.25717
270.0 0.00370 208.68697 249.56578
244.0 0.00410 208.61766 248.12404
277.0 0.00361 208.54877 245.33853
253.0 0.00395 208.48050 241.32339
255.0 0.00392 208.41266 236.63589
224.0 0.00446 208.34538 231.87976
236.0 0.00424 208.27870 227.51566
248.0 0.00403 208.21249 223.81204
228.0 0.00439 208.14700 220.90010
219.0 0.00457 208.08206 218.78447
206.0 0.00485 208.01776 217.38860
220.0 0.00455 207.95413 216.65189
205.0 0.00488 207.89122 216.43057
246.0 0.00407 207.82898 216.74210
206.0 0.00485 207.76738 217.64725
223.0 0.00448 207.70668 219.30153
208.0 0.00481 207.64655 221.89778
217.0 0.00461 207.58728 225.59726
212.0 0.00472 207.52881 230.83226
250.0 0.00400 207.47108 237.60190
276.0 0.00362 207.41422 245.87489
262.0 0.00382 207.35815 255.31526
267.0 0.00375 207.30299 265.17935
267.0 0.00375 207.24870 274.36520
298.0 0.003356 207.19533 281.66785
312.0 0.003205 207.14281 286.09155
298.0 0.003356 207.09123 287.11340
327.0 0.003058 207.04063 284.75464
301.0 0.003322 206.99088 279.97330
270.0 0.00370 206.94225 274.29236
253.0 0.00395 206.89455 269.25949
256.0 0.00391 206.84782 265.99695
236.0 0.00424 206.80212 264.99524
244.0 0.00410 206.75749 266.10321
263.0 0.00380 206.71391 268.66376
268.0 0.00373 206.67128 271.65683
281.0 0.00356 206.62984 273.95050
256.0 0.00391 206.58943 274.55664
343.0 0.002915 206.55014 273.06473
250.0 0.00400 206.51192 269.86099
252.0 0.00397 206.47485 265.77612
247.0 0.00405 206.43890 261.50809
295.0 0.003390 206.40413 257.35397
249.0 0.00402 206.37045 253.29703
249.0 0.00402 206.33801 249.29309
294.0 0.003401 206.30669 245.44708
237.0 0.00422 206.27661 241.89204
223.0 0.00448 206.24765 238.64261
246.0 0.00407 206.21991 235.60970
260.0 0.00385 206.19341 232.78041
245.0 0.00408 206.16803 230.15244
214.0 0.00467 206.14398 227.82695
233.0 0.00429 206.12114 225.78192
248.0 0.00403 206.09958 223.89067
232.0 0.00431 206.07915 222.00642
221.0 0.00452 206.06003 220.07372
213.0 0.00469 206.04213 218.15121
207.0 0.00483 206.02553 216.33971
205.0 0.00488 206.01015 214.71494
226.0 0.00442 205.99600 213.31204
236.0 0.00424 205.98325 212.13127
187.0 0.00535 205.97162 211.20273
206.0 0.00485 205.96130 210.44714
220.0 0.00455 205.95230 209.86253
217.0 0.00461 205.94449 209.41692
235.0 0.00426 205.93799 209.07927
221.0 0.00452 205.93274 208.82321
220.0 0.00455 205.92879 208.62737
236.0 0.00424 205.92607 208.47641
203.0 0.00493 205.92464 208.35875
199.0 0.00503 205.92448 208.26657
227.0 0.00441 205.92554 208.18732
217.0 0.00461 205.92790 208.14119
189.0 0.00529 205.93143 208.09854
214.0 0.00467 205.93628 208.06757
222.0 0.00450 205.94231 208.04698
206.0 0.00485 205.94958 208.03595
233.0 0.00429 205.95810 208.03400
221.0 0.00452 205.96780 208.04076
215.0 0.00465 205.97874 208.05598
205.0 0.00488 205.99088 208.07950
221.0 0.00452 206.00424 208.11147
230.0 0.00435 206.01871 208.15187
209.0 0.00478 206.03436 208.20091
217.0 0.00461 206.05121 208.25902
190.0 0.00526 206.06915 208.32654
217.0 0.00461 206.08830 208.40404
215.0 0.00465 206.10858 208.49220
198.0 0.00505 206.12985 208.59200
242.0 0.00413 206.15236 208.70425
205.0 0.00488 206.17593 208.83035
223.0 0.00448 206.20047 208.97197
208.0 0.00481 206.22610 209.13081
218.0 0.00459 206.25285 209.30930
211.0 0.00474 206.28053 209.44930
196.0 0.00510 206.30923 209.67926
193.0 0.00518 206.33899 209.94249
215.0 0.00465 206.36963 210.24783
214.0 0.00467 206.40129 210.60863
247.0 0.00405 206.43384 211.04462
214.0 0.00467 206.46727 211.58482
225.0 0.00444 206.50162 212.27855
218.0 0.00459 206.53688 213.17107
218.0 0.00459 206.57292 214.35272
235.0 0.00426 206.60988 215.93541
208.0 0.00481 206.64761 218.04138
229.0 0.00437 206.68611 220.89616
223.0 0.00448 206.72537 224.67734
236.0 0.00424 206.76535 229.58611
241.0 0.00415 206.80614 235.78995
270.0 0.00370 206.84756 243.39485
247.0 0.00405 206.88957 252.43245
222.0 0.00450 206.93230 262.78299
264.0 0.00379 206.97568 274.07269
269.0 0.00372 207.01964 285.55310
273.0 0.00366 207.06416 296.23969
317.0 0.003155 207.10919 305.30859
312.0 0.003205 207.15471 312.38022
331.0 0.003021 207.20073 317.36487
331.0 0.003021 207.24724 320.04321
313.0 0.003195 207.29416 320.41180
306.0 0.003268 207.34149 318.58041
308.0 0.003247 207.38921 314.99481
305.0 0.003279 207.43723 310.27698
308.0 0.003247 207.48555 305.07339
288.0 0.003472 207.53421 299.76102
271.0 0.00369 207.58308 294.43030
280.0 0.00357 207.63220 289.15601
300.0 0.003333 207.68155 284.08542
246.0 0.00407 207.73105 279.36649
288.0 0.003472 207.78062 274.78986
247.0 0.00405 207.83040 270.22617
244.0 0.00410 207.88017 265.51324
284.0 0.00352 207.93001 260.65027
249.0 0.00402 207.97986 255.78731
235.0 0.00426 208.02975 251.09091
253.0 0.00395 208.07947 246.65094
255.0 0.00392 208.12918 242.43628
206.0 0.00485 208.17879 238.45395
231.0 0.00433 208.22821 234.81465
234.0 0.00427 208.27753 231.65849
223.0 0.00448 208.32655 229.08199
190.0 0.00526 208.37544 227.24962
212.0 0.00472 208.42398 226.21837
222.0 0.00450 208.47226 226.09926
245.0 0.00408 208.52017 227.06912
225.0 0.00444 208.56767 229.05843
226.0 0.00442 208.61488 232.09460
212.0 0.00472 208.66164 236.08797
242.0 0.00413 208.70793 240.69133
268.0 0.00373 208.75369 245.48984
234.0 0.00427 208.79898 249.87248
216.0 0.00463 208.84367 253.06798
269.0 0.00372 208.88783 254.39978
296.0 0.003378 208.93135 253.65018
241.0 0.00415 208.97427 251.32860
250.0 0.00400 209.01645 248.41508
211.0 0.00474 209.05800 245.89966
241.0 0.00415 209.09877 244.50586
230.0 0.00435 209.13875 244.69980
230.0 0.00435 209.17805 246.54832
243.0 0.00412 209.21646 249.78204
249.0 0.00402 209.25404 253.77716
263.0 0.00380 209.29074 257.57660
253.0 0.00395 209.32654 260.06070
252.0 0.00397 209.36148 260.29303
277.0 0.00361 209.39540 257.99271
275.0 0.00364 209.42834 253.67122
221.0 0.00452 209.46030 248.29575
236.0 0.00424 209.49110 242.81725
231.0 0.00433 209.52100 237.91479
233.0 0.00429 209.54979 234.01747
250.0 0.00400 209.57747 231.26056
221.0 0.00452 209.60400 229.55765
235.0 0.00426 209.62936 228.62595
216.0 0.00463 209.65353 228.05685
234.0 0.00427 209.67662 227.41730
227.0 0.00441 209.69843 226.39925
220.0 0.00455 209.71899 224.94087
235.0 0.00426 209.73836 223.17908
217.0 0.00461 209.75636 221.31891
219.0 0.00457 209.77312 219.53339
204.0 0.00490 209.78854 217.94261
215.0 0.00465 209.80263 216.61447
226.0 0.00442 209.81544 215.56581
208.0 0.00481 209.82680 214.77905
225.0 0.00444 209.83684 214.21713
209.0 0.00478 209.84546 213.83240
212.0 0.00472 209.85266 213.58163
197.0 0.00508 209.85851 213.42638
213.0 0.00469 209.86284 213.34126
211.0 0.00474 209.86575 213.31100
210.0 0.00476 209.86726 213.32979
208.0 0.00481 209.86726 213.40062
207.0 0.00483 209.86578 213.53558
232.0 0.00431 209.86285 213.75497
214.0 0.00467 209.85843 214.08572
220.0 0.00455 209.85251 214.55986
232.0 0.00431 209.84511 215.20682
206.0 0.00485 209.83614 216.04712
194.0 0.00515 209.82567 217.08316
216.0 0.00463 209.81375 218.28470
225.0 0.00444 209.80026 219.58904
220.0 0.00455 209.78531 220.88617
248.0 0.00403 209.76880 222.02733
225.0 0.00444 209.75072 222.85449
207.0 0.00483 209.73111 223.27704
231.0 0.00433 209.71013 223.35626
232.0 0.00431 209.68755 223.29144
214.0 0.00467 209.66345 223.33765
224.0 0.00446 209.63782 223.74161
216.0 0.00463 209.61075 224.75418
215.0 0.00465 209.58218 226.51352
232.0 0.00431 209.55209 229.21994
216.0 0.00463 209.52060 233.01291
225.0 0.00444 209.48755 238.00591
214.0 0.00467 209.45311 244.23701
266.0 0.00376 209.41719 251.68497
253.0 0.00395 209.37979 260.13916
276.0 0.00362 209.34106 269.12305
272.0 0.00368 209.30083 277.91153
305.0 0.003279 209.25928 285.29874
310.0 0.003226 209.21629 290.06226
342.0 0.002924 209.17206 291.36035
311.0 0.003215 209.12639 289.09003
295.0 0.003390 209.07936 283.90771
292.0 0.003425 209.03107 276.97153
248.0 0.00403 208.98149 269.67795
257.0 0.00389 208.93068 263.16748
251.0 0.00398 208.87865 258.16913
235.0 0.00426 208.82529 254.99464
253.0 0.00395 208.77077 253.55272
252.0 0.00397 208.71507 253.37204
240.0 0.00417 208.65829 253.79079
256.0 0.00391 208.60036 254.15109
277.0 0.00361 208.54134 254.05461
264.0 0.00379 208.48125 253.40402
252.0 0.00397 208.42006 252.39452
261.0 0.00383 208.35793 251.44092
289.0 0.003460 208.29480 250.95193
251.0 0.00398 208.23071 251.28908
236.0 0.00424 208.16576 252.81885
236.0 0.00424 208.09979 255.96820
273.0 0.00366 208.03313 261.12561
266.0 0.00376 207.96561 268.47983
302.0 0.003311 207.89720 277.88757
292.0 0.003425 207.82817 288.55090
302.0 0.003311 207.75839 299.30197
325.0 0.003077 207.68788 308.40405
354.0 0.002825 207.61679 314.03888
383.0 0.002611 207.54501 314.97705
389.0 0.002571 207.47279 311.15292
330.0 0.003030 207.39993 303.57269
293.0 0.003413 207.32669 293.84610
280.0 0.00357 207.25294 283.67627
271.0 0.00369 207.17877 274.47964
257.0 0.00389 207.10425 267.18268
258.0 0.00388 207.02940 262.09167
237.0 0.00422 206.95428 259.04340
270.0 0.00370 206.87894 257.37497
255.0 0.00392 206.80328 256.16684
260.0 0.00385 206.72762 254.52025
250.0 0.00400 206.65175 251.88548
272.0 0.00368 206.57584 248.21771
252.0 0.00397 206.49992 243.83618
254.0 0.00394 206.42392 239.22267
223.0 0.00448 206.34811 234.86676
219.0 0.00457 206.27226 231.12128
208.0 0.00481 206.19669 228.16830
230.0 0.00435 206.12134 226.01543
232.0 0.00431 206.04610 224.56705
236.0 0.00424 205.97118 223.53598
226.0 0.00442 205.89661 222.61716
232.0 0.00431 205.82242 221.55141
254.0 0.00394 205.74861 220.24606
248.0 0.00403 205.67528 218.76935
192.0 0.00521 205.60243 217.27113
209.0 0.00478 205.53017 215.89090
237.0 0.00422 205.45854 214.73145
228.0 0.00439 205.38757 213.84418
186.0 0.00538 205.31717 213.22333
248.0 0.00403 205.24757 212.85110
201.0 0.00498 205.17873 212.64012
216.0 0.00463 205.11076 212.48688
235.0 0.00426 205.04367 212.28729
208.0 0.00481 204.97740 211.97290
239.0 0.00418 204.91219 211.54306
237.0 0.00422 204.84784 211.04266
214.0 0.00467 204.78461 210.52921
210.0 0.00476 204.72249 210.06268
213.0 0.00469 204.66141 209.63043
183.0 0.00546 204.60158 209.25282
246.0 0.00407 204.54288 208.92021
230.0 0.00435 204.48550 208.62601
202.0 0.00495 204.42938 208.36389
200.0 0.00500 204.37454 208.14276
201.0 0.00498 204.32118 207.97131
200.0 0.00500 204.26912 207.86325
218.0 0.00459 204.21854 207.81152
194.0 0.00515 204.16949 207.82870
210.0 0.00476 204.12190 207.92302
195.0 0.00513 204.07590 208.11420
213.0 0.00469 204.03146 208.41214
195.0 0.00513 203.98862 208.86098
235.0 0.00426 203.94756 209.52052
208.0 0.00481 203.90808 210.47928
218.0 0.00459 203.87044 211.84396
219.0 0.00457 203.83446 213.73642
212.0 0.00472 203.80028 216.25623
229.0 0.00437 203.76794 219.45480
231.0 0.00433 203.73749 223.31956
228.0 0.00439 203.70889 227.69586
253.0 0.00395 203.68221 232.30409
219.0 0.00457 203.65742 236.68375
228.0 0.00439 203.63470 240.25186
228.0 0.00439 203.61389 242.40250
272.0 0.00368 203.59508 242.85445
235.0 0.00426 203.57838 241.84648
220.0 0.00455 203.56366 240.04936
246.0 0.00407 203.55109 238.11060
226.0 0.00442 203.54054 236.61429
208.0 0.00481 203.53218 235.87791
229.0 0.00437 203.52600 236.01280
229.0 0.00437 203.52188 236.93001
242.0 0.00413 203.51999 238.34750
241.0 0.00415 203.52036 239.78186
271.0 0.00369 203.52284 240.56926
223.0 0.00448 203.52751 240.23488
264.0 0.00379 203.53453 238.51494
242.0 0.00413 203.54372 235.72559
208.0 0.00481 203.55524 232.35103
236.0 0.00424 203.56895 228.91734
224.0 0.00446 203.58496 225.80322
177.0 0.00565 203.60327 223.25020
199.0 0.00503 203.62383 221.36731
239.0 0.00418 203.64673 220.17421
200.0 0.00500 203.67189 219.62386
202.0 0.00495 203.69948 219.60582
213.0 0.00469 203.72920 220.05110
236.0 0.00424 203.76131 220.90692
221.0 0.00452 203.79573 222.24672
256.0 0.00391 203.83250 224.26935
211.0 0.00474 203.87155 227.15770
204.0 0.00490 203.91290 231.00958
235.0 0.00426 203.95651 235.76413
240.0 0.00417 204.00253 241.19409
218.0 0.00459 204.05072 246.78554
259.0 0.00386 204.10127 251.79889
270.0 0.00370 204.15404 255.29440
268.0 0.00373 204.20909 256.45248
259.0 0.00386 204.26645 254.99237
226.0 0.00442 204.32602 251.38373
226.0 0.00442 204.38788 246.55243
230.0 0.00435 204.45187 241.39691
215.0 0.00465 204.51810 236.79254
228.0 0.00439 204.58661 233.13734
214.0 0.00467 204.65720 230.62297
223.0 0.00448 204.73004 229.26315
212.0 0.00472 204.80490 228.79903
215.0 0.00465 204.88199 228.82379
215.0 0.00465 204.96120 228.83307
227.0 0.00441 205.04245 228.36333
251.0 0.00398 205.12582 227.17464
237.0 0.00422 205.21121 225.34615
222.0 0.00450 205.29858 223.12514
227.0 0.00441 205.38802 220.82678
206.0 0.00485 205.47939 218.74039
214.0 0.00467 205.57281 217.01331
203.0 0.00493 205.66801 215.76224
213.0 0.00469 205.76517 215.00493
206.0 0.00485 205.86426 214.70502
197.0 0.00508 205.96504 214.77585
190.0 0.00526 206.06781 215.08945
229.0 0.00437 206.17223 215.51759
239.0 0.00418 206.27849 215.84995
227.0 0.00441 206.38641 215.98987
228.0 0.00439 206.49602 215.86647
252.0 0.00397 206.60732 215.52963
224.0 0.00446 206.72017 215.06770
235.0 0.00426 206.83464 214.60411
217.0 0.00461 206.95071 214.25467
233.0 0.00429 207.06816 214.11571
211.0 0.00474 207.18723 214.26059
209.0 0.00478 207.30760 214.74284
220.0 0.00455 207.42934 215.59702
221.0 0.00452 207.55258 216.83777
239.0 0.00418 207.67702 218.46233
217.0 0.00461 207.80281 220.42014
240.0 0.00417 207.92969 222.65776
231.0 0.00433 208.05779 225.09729
231.0 0.00433 208.18710 227.63416
248.0 0.00403 208.31741 229.98871
224.0 0.00446 208.44882 231.91374
252.0 0.00397 208.58121 233.12871
265.0 0.00377 208.71439 233.51053
245.0 0.00408 208.84865 233.16928
257.0 0.00389 208.98364 232.37361
233.0 0.00429 209.11948 231.40964
248.0 0.00403 209.25597 230.49973
231.0 0.00433 209.39304 229.76974
223.0 0.00448 209.53091 229.23958
223.0 0.00448 209.66922 228.84216
215.0 0.00465 209.80815 228.47969
214.0 0.00467 209.94742 228.09134
229.0 0.00437 210.08701 227.59953
234.0 0.00427 210.22704 226.96855
212.0 0.00472 210.36719 226.18097
234.0 0.00427 210.50764 225.28494
227.0 0.00441 210.64807 224.39200
208.0 0.00481 210.78856 223.63028
219.0 0.00457 210.92914 223.11794
225.0 0.00444 211.06949 222.95706
205.0 0.00488 211.20976 223.24442
217.0 0.00461 211.34962 224.00902
200.0 0.00500 211.48920 225.32420
205.0 0.00488 211.62849 227.22125
209.0 0.00478 211.76714 229.71918
239.0 0.00418 211.90530 232.76706
241.0 0.00415 212.04269 236.19502
264.0 0.00379 212.17934 239.67436
244.0 0.00410 212.31526 242.82407
282.0 0.00355 212.45015 245.05670
278.0 0.00360 212.58406 245.88216
272.0 0.00368 212.71672 245.11572
259.0 0.00386 212.84822 243.01106
260.0 0.00385 212.97845 240.10846
256.0 0.00391 213.10715 236.98424
239.0 0.00418 213.23448 234.10167
239.0 0.00418 213.35995 231.76463
219.0 0.00457 213.48387 230.12433
227.0 0.00441 213.60588 229.19048
234.0 0.00427 213.72585 228.82381
230.0 0.00435 213.84389 228.86156
243.0 0.00412 213.95959 228.98796
246.0 0.00407 214.07294 228.89711
241.0 0.00415 214.18401 228.38307
224.0 0.00446 214.29242 227.41083
198.0 0.00505 214.39824 226.09381
237.0 0.00422 214.50119 224.61234
206.0 0.00485 214.60120 223.12471
242.0 0.00413 214.69818 221.74638
227.0 0.00441 214.79213 220.55215
191.0 0.00524 214.88255 219.60515
213.0 0.00469 214.96965 218.84009
199.0 0.00503 215.05319 218.27946
224.0 0.00446 215.13310 217.88463
217.0 0.00461 215.20909 217.62076
219.0 0.00457 215.28130 217.45087
230.0 0.00435 215.34938 217.34796
239.0 0.00418 215.41324 217.28978
229.0 0.00437 215.47290 217.26079
231.0 0.00433 215.52811 217.25058
201.0 0.00498 215.57874 217.25247
252.0 0.00397 215.62480 217.21666
225.0 0.00444 215.66609 217.23282
200.0 0.00500 215.70255 217.26515
218.0 0.00459 215.73409 217.28867
210.0 0.00476 215.76060 217.31497
219.0 0.00457 215.78201 217.34360
195.0 0.00513 215.79826 217.37480
215.0 0.00465 215.80920 217.40813
200.0 0.00500 215.81496 217.44423
212.0 0.00472 215.81535 217.48334
208.0 0.00481 215.81032 217.52629
210.0 0.00476 215.79997 217.57433
210.0 0.00476 215.78418 217.62822
195.0 0.00513 215.76315 217.70232
234.0 0.00427 215.73672 217.78349
210.0 0.00476 215.70499 217.88728
221.0 0.00452 215.66815 218.02548
204.0 0.00490 215.62621 218.22258
216.0 0.00463 215.57928 218.48769
222.0 0.00450 215.52750 218.85507
222.0 0.00450 215.47113 219.35799
228.0 0.00439 215.41037 220.03139
198.0 0.00505 215.34531 220.90121
231.0 0.00433 215.27649 221.98242
223.0 0.00448 215.20393 223.27211
258.0 0.00388 215.12830 224.74124
224.0 0.00446 215.04980 226.32896
195.0 0.00513 214.96898 227.93991
234.0 0.00427 214.88623 229.46703
232.0 0.00431 214.80228 230.80812
264.0 0.00379 214.71762 231.94717
239.0 0.00418 214.63301 233.01054
247.0 0.00405 214.54909 234.24281
226.0 0.00442 214.46683 235.90791
248.0 0.00403 214.38696 238.19548
214.0 0.00467 214.31058 241.15422
216.0 0.00463 214.23875 244.68021
240.0 0.00417 214.17249 248.49048
255.0 0.00392 214.11314 252.10681
256.0 0.00391 214.06200 254.91933
259.0 0.00386 214.02055 256.32721
264.0 0.00379 213.99045 256.01874
274.0 0.00365 213.97310 254.14204
223.0 0.00448 213.97067 251.23784
243.0 0.00412 213.98482 247.97430
261.0 0.00383 214.01781 245.04538
250.0 0.00400 214.07178 242.95151
248.0 0.00403 214.14914 242.06020
251.0 0.00398 214.25243 242.58717
232.0 0.00431 214.38449 244.57382
230.0 0.00435 214.54810 247.88637
279.0 0.00358 214.74640 252.21754
277.0 0.00361 214.98294 257.09888
283.0 0.00353 215.26080 261.97198
260.0 0.00385 215.58426 266.25818
265.0 0.00377 215.95692 269.38351
314.0 0.003185 216.38292 270.81329
298.0 0.003356 216.86780 270.21365
301.0 0.003322 217.41487 267.66068
284.0 0.00352 218.03052 263.71359
281.0 0.00356 218.71910 259.17682
237.0 0.00422 219.48656 254.79582
234.0 0.00427 220.34001 251.12323
238.0 0.00420 221.28439 248.51234
222.0 0.00450 222.32790 247.10876
220.0 0.00455 223.47612 246.91405
260.0 0.00385 224.73700 247.78340
241.0 0.00415 226.12024 249.47321
254.0 0.00394 227.63206 251.66838
268.0 . . .
loop_
_refln_index_h
_refln_index_k
_refln_index_l
_pd_refln_wavelength_id
_refln_observed_status
_refln_F_squared_meas
_refln_F_squared_calc
_refln_phase_calc
_refln_d_spacing
_gsas_i100_meas
1 0 0 1 o 243.771 235.259 0.00 8.20928 38.99
1 0 0 2 o 249.897 235.259 0.00 8.20928 15.09
1 1 0 1 o 9.381 9.964 180.00 4.84378 0.94
1 1 0 2 o 10.247 9.964 180.00 4.84378 0.39
0 0 1 1 o 7.963 10.169 0.00 4.54254 0.31
0 0 1 2 o 8.925 10.169 0.00 4.54254 0.14
2 0 0 1 o 170.147 152.774 180.00 4.10464 6.45
1 0 -1 1 o 182.742 162.575 0.00 4.09694 6.51
2 0 0 2 o 173.379 152.774 180.00 4.10464 2.48
1 0 -1 2 o 180.835 162.575 0.00 4.09694 2.44
1 0 1 1 o 1217.196 1212.646 180.00 3.86265 44.76
1 0 1 2 o 1225.553 1212.646 180.00 3.86265 17.03
0 1 1 1 o -1.819 1.435 0.00 3.62154 0.00
0 1 1 2 o -1.819 1.435 0.00 3.62154 0.00
2 1 0 1 o 494.266 474.363 0.00 3.38765 29.53
1 1 -1 1 o 1780.077 1741.686 180.00 3.38331 100.00
2 1 0 2 o 480.348 474.363 0.00 3.38765 10.87
1 1 -1 2 o 1733.334 1741.686 180.00 3.38331 36.84
1 1 1 1 o 407.881 399.144 180.00 3.24773 22.32
1 1 1 2 o 409.155 399.144 180.00 3.24773 8.46
2 0 -1 1 o 432.922 448.346 0.00 3.15645 8.98
2 0 -1 2 o 427.230 448.346 0.00 3.15645 3.35
0 2 0 1 o 2559.840 2558.216 180.00 2.99970 50.94
0 2 0 2 o 2468.891 2558.216 180.00 2.99970 18.59
2 0 1 1 o 283.930 259.423 180.00 2.94548 5.36
2 0 1 2 o 271.258 259.423 180.00 2.94548 1.94
1 2 0 1 o 173.545 161.076 180.00 2.81750 6.59
1 2 0 2 o 172.467 161.076 180.00 2.81750 2.48
2 1 -1 1 o 29.761 26.735 180.00 2.79342 1.14
2 1 -1 2 o 24.851 26.735 180.00 2.79342 0.37
3 0 0 1 o 864.207 837.465 180.00 2.73643 13.77
3 0 0 2 o 777.817 837.465 180.00 2.73643 4.71
2 1 1 1 o 915.056 910.533 180.00 2.64400 30.67
2 1 1 2 o 843.825 910.533 180.00 2.64400 10.73
0 2 1 1 o -1.056 0.003 0.00 2.50317 0.00
0 2 1 2 o -0.449 0.003 0.00 2.50317 0.01
3 1 0 1 o 2.085 4.572 180.00 2.48968 0.05
3 1 0 2 o 1.692 4.572 180.00 2.48968 0.01
2 2 0 1 o 75.377 71.316 0.00 2.42189 2.18
1 2 -1 1 o 71.669 69.286 180.00 2.42030 1.96
3 0 -1 1 o 1100.930 1073.718 0.00 2.41939 12.60
2 2 0 2 o 71.627 71.316 0.00 2.42189 0.79
1 2 -1 2 o 69.344 69.286 180.00 2.42030 0.72
3 0 -1 2 o 1074.595 1073.718 0.00 2.41939 4.65
1 2 1 1 o 653.554 654.248 0.00 2.36918 18.21
1 2 1 2 o 637.377 654.248 0.00 2.36918 6.72
3 0 1 1 o 21.078 15.408 180.00 2.27521 0.19
0 0 2 1 o 0.412 0.639 0.00 2.27127 0.01
3 0 1 2 o 5.912 15.408 180.00 2.27521 0.02
0 0 2 2 o -0.159 0.639 0.00 2.27127 0.00
3 1 -1 1 o -2.072 10.165 0.00 2.24381 0.00
3 1 -1 2 o 1.116 10.165 0.00 2.24381 0.02
1 0 -2 1 o 115.197 121.810 180.00 2.22916 1.24
1 0 -2 2 o 142.362 121.810 180.00 2.22916 0.57
2 2 -1 1 o 319.577 298.789 180.00 2.17441 7.09
2 2 -1 2 o 318.858 298.789 180.00 2.17441 2.67
1 0 2 1 o 271.387 255.182 0.00 2.15099 2.88
1 0 2 2 o 278.878 255.182 0.00 2.15099 1.12
3 1 1 1 o 94.481 90.663 180.00 2.12736 1.95
0 1 2 1 o 741.783 738.107 180.00 2.12414 15.40
3 1 1 2 o 90.410 90.663 180.00 2.12736 0.71
0 1 2 2 o 719.244 738.107 180.00 2.12414 5.65
2 2 1 1 o 123.903 110.154 0.00 2.10168 2.61
2 2 1 2 o 122.132 110.154 0.00 2.10168 0.97
1 1 -2 1 o 169.722 162.562 0.00 2.08958 3.24
1 1 -2 2 o 169.046 162.562 0.00 2.08958 1.22
4 0 0 1 o 299.076 286.396 180.00 2.05232 2.49
2 0 -2 1 o 369.813 365.735 180.00 2.04847 2.98
4 0 0 2 o 289.949 286.396 180.00 2.05232 0.91
2 0 -2 2 o 371.854 365.735 180.00 2.04847 1.13
1 1 2 1 o 113.709 109.741 180.00 2.02479 2.16
3 2 0 1 o 475.141 472.679 0.00 2.02163 9.13
1 1 2 2 o 108.386 109.741 180.00 2.02479 0.78
3 2 0 2 o 449.380 472.679 0.00 2.02163 3.27
1 3 0 1 o 30.266 31.681 180.00 1.94298 0.54
4 1 0 1 o 93.153 94.332 180.00 1.94184 1.50
2 1 -2 1 o 1.010 0.999 0.00 1.93858 0.01
1 3 0 2 o 32.107 31.681 180.00 1.94298 0.21
4 1 0 2 o 94.162 94.332 180.00 1.94184 0.57
2 1 -2 2 o 0.883 0.999 0.00 1.93858 0.00
2 0 2 1 o 30.559 53.356 0.00 1.93132 0.29
2 0 2 2 o 18.420 53.356 0.00 1.93132 0.08
4 0 -1 1 o 7.806 6.699 180.00 1.92100 0.05
4 0 -1 2 o 11.671 6.699 180.00 1.92100 0.03
3 2 -1 1 o 458.122 471.051 180.00 1.88320 7.12
3 2 -1 2 o 530.247 471.051 180.00 1.88320 3.09
2 1 2 1 o 13.075 10.931 0.00 1.83841 0.21
2 1 2 2 o 13.213 10.931 0.00 1.83841 0.08
0 3 1 1 o 19.864 21.484 180.00 1.83029 0.32
4 1 -1 1 o 60.949 65.775 0.00 1.82950 0.88
0 3 1 2 o 22.075 21.484 180.00 1.83029 0.13
4 1 -1 2 o 68.756 65.775 0.00 1.82950 0.37
4 0 1 1 o 611.922 563.980 0.00 1.82340 3.76
4 0 1 2 o 705.906 563.980 0.00 1.82340 1.63
3 2 1 1 o 1.060 0.623 180.00 1.81276 0.03
0 2 2 1 o 17.339 14.285 180.00 1.81077 0.25
3 0 -2 1 o 61.040 50.956 0.00 1.81055 0.32
3 2 1 2 o 0.985 0.623 180.00 1.81276 0.01
0 2 2 2 o 17.511 14.285 180.00 1.81077 0.10
3 0 -2 2 o 61.355 50.956 0.00 1.81055 0.12
2 3 0 1 o 218.506 200.078 180.00 1.79778 3.06
1 3 -1 1 o 648.745 585.932 0.00 1.79714 8.72
2 3 0 2 o 232.819 200.078 180.00 1.79778 1.23
1 3 -1 2 o 675.843 585.932 0.00 1.79714 3.42
1 2 -2 1 o 61.569 60.960 0.00 1.78922 0.91
1 2 -2 2 o 48.414 60.960 0.00 1.78922 0.28
1 3 1 1 o 130.574 124.861 0.00 1.77591 1.73
1 3 1 2 o 114.280 124.861 0.00 1.77591 0.57
1 2 2 1 o 121.774 132.404 180.00 1.74803 1.76
4 1 1 1 o 42.671 53.417 0.00 1.74460 0.49
1 2 2 2 o 101.184 132.404 180.00 1.74803 0.56
4 1 1 2 o 38.791 53.417 0.00 1.74460 0.17
3 1 -2 1 o 167.441 166.053 180.00 1.73334 1.91
3 1 -2 2 o 162.487 166.053 180.00 1.73334 0.70
4 2 0 1 o 173.900 187.323 0.00 1.69382 2.16
2 2 -2 1 o 264.382 273.597 0.00 1.69166 3.15
3 0 2 1 o 16.672 16.911 180.00 1.69095 0.09
4 2 0 2 o 189.692 187.323 0.00 1.69382 0.89
2 3 -1 1 o 40.276 39.554 0.00 1.68930 0.49
2 2 -2 2 o 282.128 273.597 0.00 1.69166 1.26
3 0 2 2 o 17.470 16.911 180.00 1.69095 0.03
2 3 -1 2 o 42.083 39.554 0.00 1.68930 0.19
2 3 1 1 o 314.617 303.689 0.00 1.65450 3.73
2 3 1 2 o 344.550 303.689 0.00 1.65450 1.53
5 0 0 1 o 0.931 0.649 180.00 1.64186 0.00
5 0 0 2 o 1.060 0.649 180.00 1.64186 0.00
3 1 2 1 o 691.391 685.190 0.00 1.62754 7.19
2 2 2 1 o 50.149 50.385 180.00 1.62386 0.62
3 1 2 2 o 685.570 685.190 0.00 1.62754 2.69
2 2 2 2 o 51.338 50.385 180.00 1.62386 0.24
4 2 -1 1 o 1.812 1.868 0.00 1.61771 0.02
3 3 0 1 o 0.106 0.066 180.00 1.61459 0.00
4 2 -1 2 o 2.578 1.868 0.00 1.61771 0.01
3 3 0 2 o 0.328 0.066 180.00 1.61459 0.00
5 1 0 1 o 303.018 301.610 180.00 1.58362 2.85
5 1 0 2 o 298.203 301.610 180.00 1.58362 1.06
5 0 -1 1 o 252.574 255.669 180.00 1.57954 1.10
4 0 -2 1 o 125.842 126.183 0.00 1.57822 0.52
5 0 -1 2 o 255.724 255.669 180.00 1.57954 0.42
4 0 -2 2 o 127.070 126.183 0.00 1.57822 0.20
4 2 1 1 o 317.980 320.421 180.00 1.55812 3.15
4 2 1 2 o 333.552 320.421 180.00 1.55812 1.24
3 2 -2 1 o 22.933 19.753 180.00 1.55008 0.19
3 2 -2 2 o 21.936 19.753 180.00 1.55008 0.07
3 3 -1 1 o 3.624 11.128 180.00 1.54140 0.05
3 3 -1 2 o 11.402 11.128 180.00 1.54140 0.05
5 1 -1 1 o 52.315 52.106 0.00 1.52749 0.46
4 1 -2 1 o 501.833 481.956 180.00 1.52630 3.97
5 1 -1 2 o 57.381 52.106 0.00 1.52749 0.19
4 1 -2 2 o 545.151 481.956 180.00 1.52630 1.62
0 0 3 1 o 17.702 15.143 0.00 1.51418 0.08
5 0 1 1 o 39.854 44.542 0.00 1.51092 0.16
0 0 3 2 o 13.171 15.143 0.00 1.51418 0.02
1 0 -3 1 o 141.119 149.898 0.00 1.50785 0.61
5 0 1 2 o 42.677 44.542 0.00 1.51092 0.07
1 0 -3 2 o 131.285 149.898 0.00 1.50785 0.22
3 3 1 1 o 92.772 97.571 0.00 1.50206 0.91
0 3 2 1 o 429.335 428.041 0.00 1.50092 4.01
0 4 0 1 o 581.960 559.290 0.00 1.49985 2.33
3 3 1 2 o 102.699 97.571 0.00 1.50206 0.38
0 3 2 2 o 444.100 428.041 0.00 1.50092 1.56
0 4 0 2 o 573.968 559.290 0.00 1.49985 0.87
1 3 -2 1 o 43.748 48.889 180.00 1.48858 0.42
1 3 -2 2 o 42.118 48.889 180.00 1.48858 0.15
1 4 0 1 o 72.279 57.872 0.00 1.47543 0.58
3 2 2 1 o 15.957 13.824 0.00 1.47303 0.13
4 0 2 1 o 5.408 4.509 180.00 1.47274 0.03
1 4 0 2 o 61.110 57.872 0.00 1.47543 0.19
1 0 3 1 o 12.270 12.489 180.00 1.47096 0.06
3 2 2 2 o 12.779 13.824 0.00 1.47303 0.04
4 0 2 2 o 3.953 4.509 180.00 1.47274 0.01
0 1 3 1 o 131.058 145.029 0.00 1.46814 1.13
1 0 3 2 o 11.385 12.489 180.00 1.47096 0.02
5 1 1 1 o 79.645 78.870 0.00 1.46517 0.63
1 3 2 1 o 79.323 76.137 0.00 1.46461 0.71
0 1 3 2 o 151.781 145.029 0.00 1.46814 0.49
1 1 -3 1 o 11.350 10.117 0.00 1.46237 0.09
5 1 1 2 o 92.639 78.870 0.00 1.46517 0.27
1 3 2 2 o 92.097 76.137 0.00 1.46461 0.31
1 1 -3 2 o 13.084 10.117 0.00 1.46237 0.04
2 0 -3 1 o 26.870 47.029 0.00 1.45375 0.11
2 0 -3 2 o 43.464 47.029 0.00 1.45375 0.06
5 2 0 1 o 0.109 0.032 0.00 1.44024 0.00
5 2 0 2 o 0.021 0.032 0.00 1.44024 0.00
4 3 0 1 o 60.393 63.197 0.00 1.43228 0.52
2 3 -2 1 o 0.373 0.384 0.00 1.43097 0.00
4 1 2 1 o 124.196 126.398 0.00 1.43027 0.93
4 3 0 2 o 61.542 63.197 0.00 1.43228 0.20
1 1 3 1 o 154.187 158.571 0.00 1.42864 1.27
2 3 -2 2 o 0.349 0.384 0.00 1.43097 0.00
4 1 2 2 o 114.140 126.398 0.00 1.43027 0.32
1 1 3 2 o 142.224 158.571 0.00 1.42864 0.44
0 4 1 1 o 5.342 5.576 180.00 1.42423 0.05
0 4 1 2 o 8.818 5.576 180.00 1.42423 0.03
2 1 -3 1 o 208.762 200.488 0.00 1.41286 1.47
2 4 0 2 o 35.600 26.935 180.00 1.40875 0.10
1 4 -1 2 o 22.777 17.304 0.00 1.40844 0.06
2 1 -3 2 o 225.518 200.488 0.00 1.41286 0.60
2 4 0 1 o 32.682 26.935 180.00 1.40875 0.24
1 4 -1 1 o 21.606 17.304 0.00 1.40844 0.15
1 4 1 1 o 249.098 225.077 180.00 1.39815 1.84
5 2 -1 1 o 182.152 165.258 0.00 1.39762 1.33
4 2 -2 1 o 85.245 78.824 180.00 1.39671 0.60
1 4 1 2 o 236.111 225.077 180.00 1.39815 0.66
5 2 -1 2 o 175.211 165.258 0.00 1.39762 0.49
4 2 -2 2 o 85.088 78.824 180.00 1.39671 0.23
2 0 3 1 o 340.138 301.463 180.00 1.38962 1.24
2 3 2 1 o 13.195 11.359 180.00 1.38923 0.11
2 0 3 2 o 338.420 301.463 180.00 1.38962 0.47
2 3 2 2 o 12.617 11.359 180.00 1.38923 0.04
4 3 -1 1 o 94.787 88.016 180.00 1.38537 0.74
4 3 -1 2 o 71.647 88.016 180.00 1.38537 0.22
5 0 -2 1 o 33.070 68.280 0.00 1.37675 0.12
5 0 -2 2 o 98.909 68.280 0.00 1.37675 0.12
6 0 0 1 o 48.218 31.941 0.00 1.36821 0.16
3 0 -3 1 o 0.662 0.446 0.00 1.36565 0.00
6 0 0 2 o 47.429 31.941 0.00 1.36821 0.06
3 0 -3 2 o 0.068 0.446 0.00 1.36565 0.00
2 4 -1 1 o 125.385 113.674 0.00 1.35469 0.88
2 1 3 1 o 5.216 5.034 0.00 1.35378 0.04
0 2 3 1 o 12.111 12.545 180.00 1.35173 0.10
2 4 -1 2 o 111.162 113.674 0.00 1.35469 0.30
2 1 3 2 o 4.995 5.034 0.00 1.35378 0.01
5 2 1 1 o 30.532 31.701 180.00 1.34941 0.22
0 2 3 2 o 11.506 12.545 180.00 1.35173 0.03
4 3 1 1 o 12.531 13.545 180.00 1.34740 0.09
1 2 -3 1 o 129.424 140.197 180.00 1.34722 0.92
5 2 1 2 o 29.210 31.701 180.00 1.34941 0.08
4 3 1 2 o 12.165 13.545 180.00 1.34740 0.03
1 2 -3 2 o 125.677 140.197 180.00 1.34722 0.34
3 3 -2 1 o 116.129 117.058 0.00 1.34219 0.82
5 1 -2 1 o 2.403 2.368 180.00 1.34187 0.01
3 3 -2 2 o 113.101 117.058 0.00 1.34219 0.30
5 1 -2 2 o 2.277 2.368 180.00 1.34187 0.00
2 4 1 1 o 36.290 36.558 180.00 1.33655 0.25
6 0 -1 1 o 336.272 340.301 180.00 1.33594 0.99
6 1 0 1 o 0.651 0.712 0.00 1.33396 0.00
2 4 1 2 o 32.014 36.558 180.00 1.33655 0.08
6 0 -1 2 o 293.728 340.301 180.00 1.33594 0.33
3 1 -3 1 o 224.884 266.690 0.00 1.33158 1.34
6 1 0 2 o 0.606 0.712 0.00 1.33396 0.00
3 1 -3 2 o 184.923 266.690 0.00 1.33158 0.42
4 2 2 1 o 10.022 7.246 0.00 1.32200 0.08
1 2 3 1 o 17.059 13.250 0.00 1.32071 0.12
4 2 2 2 o 10.570 7.246 0.00 1.32200 0.03
1 2 3 2 o 18.050 13.250 0.00 1.32071 0.05
3 4 0 1 o 240.961 178.694 180.00 1.31524 1.59
3 4 0 2 o 190.162 178.694 180.00 1.31524 0.48
2 2 -3 1 o 37.386 28.942 180.00 1.30822 0.24
2 2 -3 2 o 29.986 28.942 180.00 1.30822 0.07
6 1 -1 1 o 2.107 1.365 180.00 1.30400 0.01
6 1 -1 2 o 2.138 1.365 180.00 1.30400 0.01
3 3 2 1 o 367.586 342.761 180.00 1.29123 2.44
5 0 2 1 o 116.728 115.479 180.00 1.28880 0.33
3 3 2 2 o 354.113 342.761 180.00 1.29123 0.89
3 0 3 1 o 61.065 58.037 180.00 1.28755 0.19
6 0 1 1 o 20.555 20.127 180.00 1.28566 0.06
5 0 2 2 o 117.768 115.479 180.00 1.28880 0.13
3 0 3 2 o 55.946 58.037 180.00 1.28755 0.07
6 0 1 2 o 30.137 20.127 180.00 1.28566 0.03
3 4 -1 1 o 220.323 165.909 0.00 1.27477 1.34
3 4 -1 2 o 194.102 165.909 0.00 1.27477 0.45
5 3 0 1 o 144.110 164.841 0.00 1.26897 0.93
5 3 0 2 o 146.978 164.841 0.00 1.26897 0.36
4 0 -3 1 o 37.710 36.135 180.00 1.26099 0.10
2 2 3 1 o 275.262 263.710 0.00 1.26090 1.72
5 1 2 1 o 22.434 21.422 180.00 1.26005 0.12
3 1 3 1 o 0.162 0.170 180.00 1.25888 0.00
4 0 -3 2 o 36.242 36.135 180.00 1.26099 0.04
2 2 3 2 o 265.750 263.710 0.00 1.26090 0.63
6 1 1 1 o 260.429 247.563 0.00 1.25712 1.38
5 1 2 2 o 22.704 21.422 180.00 1.26005 0.05
3 1 3 2 o 0.196 0.170 180.00 1.25888 0.00
6 1 1 2 o 224.946 247.563 0.00 1.25712 0.46
3 4 1 1 o 3.600 4.730 0.00 1.25224 0.03
0 4 2 1 o 6.427 8.329 0.00 1.25158 0.04
5 2 -2 1 o 46.662 63.258 180.00 1.25126 0.28
3 4 1 2 o 2.589 4.730 0.00 1.25224 0.01
0 4 2 2 o 5.265 8.329 0.00 1.25158 0.01
5 2 -2 2 o 39.853 63.258 180.00 1.25126 0.09
6 2 0 1 o 35.484 35.998 180.00 1.24484 0.22
1 4 -2 1 o 30.376 29.543 180.00 1.24440 0.19
3 2 -3 1 o 1.626 1.609 180.00 1.24290 0.01
6 2 0 2 o 35.633 35.998 180.00 1.24484 0.08
1 4 -2 2 o 29.609 29.543 180.00 1.24440 0.07
3 2 -3 2 o 1.676 1.609 180.00 1.24290 0.00
5 3 -1 1 o 35.327 33.519 180.00 1.23953 0.22
4 3 -2 1 o 256.498 245.874 0.00 1.23889 1.46
5 3 -1 2 o 32.789 33.519 180.00 1.23953 0.08
4 3 -2 2 o 235.572 245.874 0.00 1.23889 0.51
1 4 2 1 o 62.196 60.714 0.00 1.23029 0.38
4 1 -3 1 o 6.239 7.927 180.00 1.23402 0.03
1 4 2 2 o 91.210 60.714 0.00 1.23029 0.21
4 1 -3 2 o 8.025 7.927 180.00 1.23402 0.01
6 2 -1 1 o 231.125 250.900 0.00 1.22038 1.24
6 2 -1 2 o 312.850 250.900 0.00 1.22038 0.62
4 4 0 1 o 95.292 83.613 180.00 1.21094 0.55
2 4 -2 1 o 155.020 137.597 180.00 1.21015 0.87
6 0 -2 1 o 14.158 12.954 0.00 1.20970 0.03
4 4 0 2 o 84.443 83.613 180.00 1.21094 0.19
2 4 -2 2 o 148.327 137.597 180.00 1.21015 0.32
0 3 3 1 o 78.915 73.123 180.00 1.20718 0.47
6 0 -2 2 o 14.615 12.954 0.00 1.20970 0.01
5 3 1 1 o 71.125 56.965 180.00 1.20553 0.41
0 3 3 2 o 100.006 73.123 180.00 1.20718 0.22
1 3 -3 1 o 5.586 4.102 180.00 1.20397 0.03
5 3 1 2 o 82.273 56.965 180.00 1.20553 0.18
1 3 -3 2 o 7.665 4.102 180.00 1.20397 0.02
1 5 0 1 o 16.848 13.210 0.00 1.18727 0.09
4 3 2 1 o 82.762 80.097 180.00 1.18586 0.46
6 1 -2 1 o 64.532 62.477 0.00 1.18583 0.31
1 3 3 1 o 95.647 94.143 180.00 1.18493 0.56
2 4 2 1 o 31.006 30.747 0.00 1.18459 0.19
1 5 0 2 o 13.217 13.210 0.00 1.18727 0.03
5 2 2 1 o 103.869 104.650 0.00 1.18414 0.55
3 2 3 1 o 48.226 50.668 0.00 1.18316 0.27
4 3 2 2 o 75.699 80.097 180.00 1.18586 0.16
6 1 -2 2 o 58.885 62.477 0.00 1.18583 0.11
4 4 -1 1 o 0.401 0.430 180.00 1.18220 0.00
1 3 3 2 o 86.338 94.143 180.00 1.18493 0.19
6 2 1 1 o 17.327 19.047 0.00 1.18170 0.09
2 4 2 2 o 27.783 30.747 0.00 1.18459 0.06
5 2 2 2 o 93.455 104.650 0.00 1.18414 0.19
3 2 3 2 o 41.256 50.668 0.00 1.18316 0.09
4 0 3 1 o 33.183 42.063 0.00 1.17994 0.08
4 4 -1 2 o 0.320 0.430 180.00 1.18220 0.00
6 2 1 2 o 13.096 19.047 0.00 1.18170 0.03
4 0 3 2 o 35.738 42.063 0.00 1.17994 0.03
2 3 -3 1 o 109.809 122.661 180.00 1.17588 0.59
2 3 -3 2 o 111.958 122.661 180.00 1.17588 0.23
7 0 0 1 o 223.995 241.331 0.00 1.17275 0.51
7 0 0 2 o 230.324 241.331 0.00 1.17275 0.20
4 2 -3 1 o 28.893 28.543 0.00 1.16245 0.15
0 5 1 1 o 8.453 10.799 0.00 1.16009 0.05
4 2 -3 2 o 24.356 28.543 0.00 1.16245 0.05
4 4 1 1 o 148.433 140.610 0.00 1.15833 0.80
4 1 3 1 o 124.868 116.941 180.00 1.15776 0.62
0 5 1 2 o 11.224 10.799 0.00 1.16009 0.02
4 4 1 2 o 145.588 140.610 0.00 1.15833 0.30
7 0 -1 1 o 1.501 1.384 180.00 1.15510 0.00
3 4 -2 1 o 4.590 4.307 0.00 1.15502 0.02
4 1 3 2 o 126.897 116.941 180.00 1.15776 0.24
5 0 -3 1 o 114.831 103.853 180.00 1.15372 0.24
7 0 -1 2 o 1.656 1.384 180.00 1.15510 0.00
3 4 -2 2 o 4.933 4.307 0.00 1.15502 0.01
2 5 0 1 o 97.563 81.108 0.00 1.15168 0.47
1 5 -1 1 o 238.585 198.565 180.00 1.15151 1.13
7 1 0 1 o 101.580 86.052 0.00 1.15097 0.45
5 0 -3 2 o 122.181 103.853 180.00 1.15372 0.10
2 5 0 2 o 87.505 81.108 0.00 1.15168 0.16
1 5 -1 2 o 214.938 198.565 180.00 1.15151 0.39
7 1 0 2 o 94.470 86.052 0.00 1.15097 0.16
1 5 1 1 o 53.544 36.400 180.00 1.14587 0.25
1 5 1 2 o 75.738 36.400 180.00 1.14587 0.13
2 3 3 1 o 4.809 2.785 180.00 1.14116 0.03
2 3 3 2 o 2.797 2.785 180.00 1.14116 0.01
6 0 2 1 o 1.476 1.210 180.00 1.13760 0.00
1 0 -4 1 o 124.314 126.568 180.00 1.13567 0.29
0 0 4 1 o 122.858 125.822 180.00 1.13563 0.30
6 0 2 2 o 1.060 1.210 180.00 1.13760 0.00
7 1 -1 1 o 9.331 10.806 180.00 1.13426 0.05
5 3 -2 1 o 1.368 1.518 0.00 1.13400 0.01
5 1 -3 1 o 66.264 73.262 180.00 1.13296 0.28
1 0 -4 2 o 113.724 126.568 180.00 1.13567 0.10
0 0 4 2 o 112.319 125.822 180.00 1.13563 0.11
7 1 -1 2 o 6.441 10.806 180.00 1.13426 0.02
5 3 -2 2 o 1.021 1.518 0.00 1.13400 0.00
5 1 -3 2 o 56.893 73.262 180.00 1.13296 0.09
6 3 0 1 o 0.184 0.253 0.00 1.12922 0.00
3 3 -3 1 o 150.676 181.770 180.00 1.12777 0.74
6 3 0 2 o 0.109 0.253 0.00 1.12922 0.00
3 3 -3 2 o 152.005 181.770 180.00 1.12777 0.28
3 4 2 1 o 8.229 5.548 180.00 1.12206 0.04
6 2 -2 1 o 12.233 7.109 180.00 1.12191 0.06
2 5 -1 1 o 22.695 11.834 180.00 1.12158 0.11
3 4 2 2 o 8.824 5.548 180.00 1.12206 0.02
6 2 -2 2 o 11.966 7.109 180.00 1.12191 0.02
2 5 -1 2 o 19.013 11.834 180.00 1.12158 0.03
6 1 2 1 o 109.708 73.657 180.00 1.11769 0.48
7 0 1 1 o 27.749 20.317 180.00 1.11691 0.06
1 1 -4 1 o 23.298 23.433 180.00 1.11586 0.11
0 1 4 1 o 2.883 2.923 0.00 1.11582 0.01
6 1 2 2 o 58.781 73.657 180.00 1.11769 0.10
2 0 -4 1 o 0.164 0.233 0.00 1.11458 0.00
1 0 4 1 o 0.943 1.431 180.00 1.11447 0.00
7 0 1 2 o 12.505 20.317 180.00 1.11691 0.01
1 1 -4 2 o 13.027 23.433 180.00 1.11586 0.03
0 1 4 2 o 1.859 2.923 0.00 1.11582 0.00
2 5 1 2 o 126.692 116.326 180.00 1.11122 0.23
2 0 -4 2 o 0.259 0.233 0.00 1.11458 0.00
1 0 4 2 o 1.689 1.431 180.00 1.11447 0.00
6 3 -1 2 o 1.075 1.097 0.00 1.11087 0.00
2 5 1 1 o 154.694 116.326 180.00 1.11122 0.73
5 4 0 1 o 0.033 0.047 0.00 1.10736 0.00
6 3 -1 1 o 1.572 1.097 0.00 1.11087 0.01
5 4 0 2 o 0.188 0.047 0.00 1.10736 0.00
3 5 0 1 o 0.142 0.158 0.00 1.09888 0.00
4 2 3 1 o 41.603 40.314 180.00 1.09805 0.19
7 1 1 1 o 3.132 3.028 0.00 1.09804 0.01
3 5 0 2 o 0.137 0.158 0.00 1.09888 0.00
2 1 -4 1 o 48.422 51.836 180.00 1.09583 0.22
1 1 4 1 o 79.252 83.797 180.00 1.09572 0.39
4 2 3 2 o 39.594 40.314 180.00 1.09805 0.07
7 1 1 2 o 2.971 3.028 0.00 1.09804 0.00
2 1 -4 2 o 60.881 51.836 180.00 1.09583 0.10
1 1 4 2 o 98.564 83.797 180.00 1.09572 0.18
7 2 0 1 o 201.066 173.871 180.00 1.09225 0.90
