#------------------------------------------------------------------------------
#$Date: 2016-02-14 16:26:36 +0200 (Sun, 14 Feb 2016) $
#$Revision: 176435 $
#$URL: svn://www.crystallography.net/cod/cif/1/50/16/1501696.cif $
#------------------------------------------------------------------------------
#
# This file is available in the Crystallography Open Database (COD),
# http://www.crystallography.net/
#
# All data on this site have been placed in the public domain by the
# contributors.
#
data_1501696
loop_
_publ_author_name
'Migliorati, Valentina'
'Ballirano, Paolo'
'Gontrani, Lorenzo'
'Triolo, Alessandro'
'Caminiti, Ruggero'
_publ_section_title
;
 Thermal and structural properties of ethylammonium chloride and its
 mixture with water.
;
_journal_issue                   17
_journal_name_full               'The journal of physical chemistry. B'
_journal_page_first              4887
_journal_page_last               4899
_journal_paper_doi               10.1021/jp2010138
_journal_volume                  115
_journal_year                    2011
_chemical_formula_sum            'C2 Cl N'
_chemical_formula_weight         73.48
_chemical_name_systematic        ' ?'
_space_group_IT_number           129
_symmetry_cell_setting           tetragonal
_symmetry_space_group_name_Hall  '-P 4a 2a'
_symmetry_space_group_name_H-M   'P 4/n m m :2'
_audit_creation_date             2010-05-25T13:20
_audit_creation_method           'from EXP file using GSAS2CIF'
_audit_update_record
' 2010-05-25T13:20  Initial CIF as created by GSAS2CIF'
_cell_angle_alpha                90.0
_cell_angle_beta                 90.0
_cell_angle_gamma                90.0
_cell_formula_units_Z            2
_cell_length_a                   5.05111(7)
_cell_length_b                   5.05111
_cell_length_c                   9.99493(24)
_cell_volume                     255.008(7)
_computing_structure_refinement  GSAS
_diffrn_radiation_probe          x-ray
_exptl_absorpt_correction_T_max  1.00000
_exptl_absorpt_correction_T_min  1.00000
_exptl_absorpt_process_details
;   GSAS Absorption/surface roughness correction: function number 0
 No correction is applied.
;
_pd_block_id
2010-05-25T13:20|100_P4NMMM|paolo|Bruker_AXS_D8_Advance
_pd_calc_method                  'Rietveld Refinement'
_pd_instr_location               ' ?'
_pd_meas_2theta_range_inc        0.022
_pd_meas_2theta_range_max        89.994
_pd_meas_2theta_range_min        8.0
_pd_meas_number_of_points        3728
_pd_phase_name                   ethyl
_pd_proc_2theta_range_inc        0.022
_pd_proc_2theta_range_max        89.994
_pd_proc_2theta_range_min        8.0
_pd_proc_info_datetime           2010-05-25T13:20:35
_pd_proc_info_excluded_regions   ' ?'
_pd_proc_ls_background_function
;   GSAS Background function number 1 with 30 terms.
 Shifted Chebyshev function of 1st kind
      1:    522.854     2:   -435.806     3:    193.084     4:   -73.0203    
      5:    69.3043     6:   -88.4581     7:    110.601     8:   -83.2246    
      9:    30.7759    10:    2.32854    11:   -5.96328    12:   -1.41967    
     13:    14.4351    14:   -24.0471    15:    20.9115    16:   -8.44214    
     17:   -3.39316    18:    6.43772    19:   -4.24317    20:   -4.66088    
     21:    9.73580    22:   -8.01590    23:   -2.36077    24:    9.98716    
     25:   -10.2717    26:    2.61171    27:    5.11427    28:   -7.34224    
     29:    3.67985    30:  -0.274768    
;
_pd_proc_ls_peak_cutoff          0.00050
_pd_proc_ls_profile_function
;
 CW Profile function number 3 with  19 terms
 Pseudovoigt profile coefficients as parameterized in
 P. Thompson, D.E. Cox & J.B. Hastings (1987). J. Appl. Cryst.,20,79-83.
 Asymmetry correction of L.W. Finger, D.E. Cox & A. P. Jephcoat (1994).
 J. Appl. Cryst.,27,892-900.
 Peak tails are ignored  where the intensity is below 0.0005 times the peak
   Aniso. broadening axis   0.0   1.0   0.0
;
_pd_proc_ls_prof_R_factor        0.0423
_pd_proc_ls_prof_wR_expected     0.0442
_pd_proc_ls_prof_wR_factor       0.0548
_pd_proc_number_of_points        3728
_pd_spec_mounting                ' ?'
_refine_ls_goodness_of_fit_all   1.25
_refine_ls_matrix_type           full
_refine_ls_number_parameters     51
_refine_ls_number_restraints     9
_refine_ls_R_Fsqd_factor         0.12398
_refine_ls_shift/su_max          0.06
_refine_ls_shift/su_mean         0.01
_reflns_d_resolution_high        1.093
_reflns_d_resolution_low         9.995
_reflns_limit_h_max              4
_reflns_limit_h_min              0
_reflns_limit_k_max              3
_reflns_limit_k_min              0
_reflns_limit_l_max              9
_reflns_limit_l_min              0
_reflns_number_total             170
_cod_data_source_file            jp2010138_si_012.cif
_cod_data_source_block           100_P4NMMM_publ
_cod_depositor_comments
;
The following automatic conversions were performed:

'_geom_bond_publ_flag' value 'N' changed to 'n' according to
/home/saulius/struct/CIF-dictionaries/cif_core.dic dictionary named
'cif_core.dic' version 2.4.1 from 2010-06-29 (13
times).

'_geom_angle_publ_flag' value 'N' changed to 'n' according
to /home/saulius/struct/CIF-dictionaries/cif_core.dic dictionary
named 'cif_core.dic' version 2.4.1 from 2010-06-29 (22 times).

Automatic conversion script
Id: cif_fix_values 1715 2011-07-08 13:25:40Z adriana 
;
_cod_original_cell_volume        255.007(10)
_cod_original_sg_symbol_H-M      p4/nmm;2
_cod_original_formula_sum        'C2.00 Cl N'
_cod_database_code               1501696
#BEGIN Tags that were not found in dictionaries:
_gsas_exptl_extinct_corr_t_min   1.00000
_gsas_exptl_extinct_corr_t_max   1.00000
#END Tags that were not found in dictionaries
loop_
_symmetry_equiv_pos_site_id
_symmetry_equiv_pos_as_xyz
1 +x,+y,+z
2 -y+1/2,+x,+z
3 -x+1/2,-y+1/2,+z
4 +y,-x+1/2,+z
5 -x+1/2,+y,+z
6 -y+1/2,-x+1/2,+z
7 +x,-y+1/2,+z
8 +y,+x,+z
-1 -x,-y,-z
-2 +y+1/2,-x,-z
-3 +x+1/2,+y+1/2,-z
-4 -y,+x+1/2,-z
-5 +x+1/2,-y,-z
-6 +y+1/2,+x+1/2,-z
-7 -x,+y+1/2,-z
-8 -y,-x,-z
loop_
_atom_site_type_symbol
_atom_site_label
_atom_site_fract_x
_atom_site_fract_y
_atom_site_fract_z
_atom_site_occupancy
_atom_site_thermal_displace_type
_atom_site_U_iso_or_equiv
_atom_site_symmetry_multiplicity
Cl Cl 0.25 0.25 0.66394(20) 1.0 Uiso 0.1847(11) 2
N N 0.75 0.75 0.64663(20) 1.0 Uiso 0.1640(24) 2
C C1 0.62948(30) 0.62948(30) 0.76521(15) 0.25 Uiso 0.1640(24) 8
C C2 0.75 0.75 0.89277(14) 1.0 Uiso 0.1640(24) 2
loop_
_atom_type_symbol
_atom_type_number_in_cell
_atom_type_scat_dispersion_real
_atom_type_scat_dispersion_imag
_atom_type_scat_Cromer_Mann_a1
_atom_type_scat_Cromer_Mann_a2
_atom_type_scat_Cromer_Mann_a3
_atom_type_scat_Cromer_Mann_a4
_atom_type_scat_Cromer_Mann_b1
_atom_type_scat_Cromer_Mann_b2
_atom_type_scat_Cromer_Mann_b3
_atom_type_scat_Cromer_Mann_b4
_atom_type_scat_Cromer_Mann_c
_atom_type_scat_source
Cl 2.0 0.000 0.000 11.4604 0.01040 7.19640 1.16620 6.25560 18.5194 1.64550
47.7784 -9.5574 International_Tables_Vol_C
N 2.0 0.000 0.000 12.2126 0.00570 3.13220 9.89330 2.01250 28.9975 1.16630
0.58260 -11.529 International_Tables_Vol_C
C 4.0 0.000 0.000 2.31000 20.8439 1.02000 10.2075 1.58860 0.56870 0.86500
51.6512 0.21560 International_Tables_Vol_C
loop_
_diffrn_radiation_wavelength
_diffrn_radiation_wavelength_wt
_diffrn_radiation_type
_diffrn_radiation_wavelength_id
1.540598 1.000 K\a~1~ 1
1.544390 0.380 K\a~2~ 2
loop_
_geom_angle_atom_site_label_1
_geom_angle_atom_site_label_2
_geom_angle_atom_site_label_3
_geom_angle
_geom_angle_site_symmetry_1
_geom_angle_site_symmetry_3
_geom_angle_publ_flag
C1 N C1 49.11(11) 1_555 2_655 n
C1 N C1 71.99(18) 1_555 3_665 n
C1 N C1 49.11(11) 1_555 4_565 n
C1 N C1 49.11(11) 2_655 3_665 n
C1 N C1 71.99(18) 2_655 4_565 n
C1 N C1 49.11(11) 3_665 4_565 n
N C1 C1 65.44(6) 1_555 2_655 n
N C1 C1 54.01(9) 1_555 3_665 n
N C1 C1 65.44(6) 1_555 4_565 n
N C1 C2 109.98(15) 1_555 1_555 n
C1 C1 C1 45.0 2_655 3_665 n
C1 C1 C1 90.0 2_655 4_565 n
C1 C1 C2 66.69(5) 2_655 1_555 n
C1 C1 C1 45.0 3_665 4_565 n
C1 C1 C2 55.97(8) 3_665 1_555 n
C1 C1 C2 66.69(5) 4_565 1_555 n
C1 C2 C1 46.62(10) 1_555 2_655 n
C1 C2 C1 68.06(16) 1_555 3_665 n
C1 C2 C1 46.62(10) 1_555 4_565 n
C1 C2 C1 46.62(10) 2_655 3_665 n
C1 C2 C1 68.06(16) 2_655 4_565 n
C1 C2 C1 46.62(10) 3_665 4_565 n
loop_
_geom_bond_atom_site_label_1
_geom_bond_atom_site_label_2
_geom_bond_distance
_geom_bond_site_symmetry_2
_geom_bond_publ_flag
N C1 1.4649(24) 1_555 n
N C1 1.4649(24) 2_655 n
N C1 1.4649(24) 3_665 n
N C1 1.4649(24) 4_565 n
C1 N 1.4649(24) 1_555 n
C1 C1 1.2175(31) 2_655 n
C1 C1 1.722(4) 3_665 n
C1 C1 1.2175(31) 4_565 n
C1 C2 1.5384(21) 1_555 n
C2 C1 1.5384(21) 1_555 n
C2 C1 1.5384(21) 2_655 n
C2 C1 1.5384(21) 3_665 n
C2 C1 1.5384(21) 4_565 n
loop_
_pd_meas_counts_total
_pd_proc_ls_weight
_pd_proc_intensity_bkg_calc
_pd_calc_intensity_total
1684.0 0.000594 1667.61023 1670.38672
1691.0 0.000591 1651.95569 1654.88684
1647.0 0.000607 1636.85193 1639.95166
1612.0 0.000620 1622.26855 1625.55151
1594.0 0.000627 1608.17065 1611.65369
1585.0 0.000631 1594.52966 1598.23132
1505.0 0.000664 1581.31702 1585.25879
1518.0 0.000659 1568.50610 1572.71277
1521.0 0.000657 1556.07312 1560.57214
1508.0 0.000663 1543.99463 1548.81799
1531.0 0.000653 1532.24768 1537.43176
1511.0 0.000662 1520.81299 1526.40125
1542.0 0.000649 1509.67163 1515.71350
1534.0 0.000652 1498.80615 1505.36023
1430.0 0.000699 1488.19849 1495.33496
1526.0 0.000655 1477.83496 1485.63660
1526.0 0.000655 1467.70056 1476.26843
1431.0 0.000699 1457.78113 1467.23816
1410.0 0.000709 1448.06604 1458.56372
1541.0 0.000649 1438.54321 1450.27209
1498.0 0.000668 1429.20105 1442.40747
1557.0 0.000642 1420.03113 1435.04663
1541.0 0.000649 1411.02319 1428.37866
1435.0 0.000697 1402.17017 1422.98413
1491.0 0.000671 1393.46375 1420.61108
1543.0 0.000648 1384.89612 1425.43347
1516.0 0.000660 1376.46265 1444.78125
1562.0 0.000640 1368.15601 1487.55322
1578.0 0.000634 1359.97131 1560.28601
1646.0 0.000608 1351.90381 1664.72876
1752.0 0.000571 1343.94885 1799.95923
1857.0 0.000539 1336.10229 1966.65613
1991.0 0.000502 1328.36011 2170.38379
2290.0 0.000437 1320.72070 2424.04370
2791.0 0.000358 1313.17981 2753.27466
3466.0 0.0002885 1305.73462 3207.58789
4263.0 0.0002346 1298.38379 3866.09326
4999.0 0.0002000 1291.12378 4787.22656
5686.0 0.0001759 1283.95459 5847.37549
6058.0 0.0001651 1276.87378 6591.60645
6574.0 0.0001521 1269.87878 6428.44971
5956.0 0.0001679 1262.96997 5246.35303
3974.0 0.0002516 1256.14587 3670.56348
2214.0 0.000452 1249.40552 2413.24243
1588.0 0.000630 1242.74805 1713.37476
1320.0 0.000758 1236.17224 1421.44983
1287.0 0.000777 1229.67920 1320.05957
1232.0 0.000812 1223.26660 1282.40564
1192.0 0.000839 1216.93555 1262.21497
1160.0 0.000862 1210.68433 1247.31567
1202.0 0.000832 1204.51367 1234.87744
1194.0 0.000838 1198.42371 1224.01709
1228.0 0.000814 1192.41357 1214.28394
1151.0 0.000869 1186.48315 1205.39209
1142.0 0.000876 1180.63269 1197.14514
1154.0 0.000867 1174.86206 1189.40869
1193.0 0.000838 1169.17114 1182.08569
1191.0 0.000840 1163.55969 1175.10291
1159.0 0.000863 1158.02881 1168.40869
1170.0 0.000855 1152.57678 1161.96204
1108.0 0.000903 1147.20422 1155.73206
1120.0 0.000893 1141.91150 1149.69421
1110.0 0.000901 1136.69788 1143.82935
1154.0 0.000867 1131.56372 1138.12305
1096.0 0.000912 1126.50867 1132.56201
1145.0 0.000873 1121.53198 1127.13647
1131.0 0.000884 1116.63489 1121.83813
1090.0 0.000917 1111.81592 1116.66028
1148.0 0.000871 1107.07581 1111.59644
1131.0 0.000884 1102.41309 1106.64160
1097.0 0.000912 1097.82751 1101.79224
1081.0 0.000925 1093.31970 1097.04431
1121.0 0.000892 1088.88843 1092.39417
1046.0 0.000956 1084.53381 1087.83936
1058.0 0.000945 1080.25513 1083.37671
1078.0 0.000928 1076.05188 1079.00476
1110.0 0.000901 1071.92236 1074.72034
1136.0 0.000880 1067.86768 1070.52234
1118.0 0.000894 1063.88611 1066.40796
1094.0 0.000914 1059.97742 1062.37659
1019.0 0.000981 1056.14063 1058.42542
1046.0 0.000956 1052.37500 1052.99402
1043.0 0.000959 1048.67957 1048.67908
1096.0 0.000912 1045.05310 1045.05298
1012.0 0.000988 1041.49561 1041.49524
1045.0 0.000957 1038.00598 1038.00549
1062.0 0.000942 1034.58337 1034.58228
1037.0 0.000964 1031.22485 1031.22461
1017.0 0.000983 1027.93201 1027.93164
1058.0 0.000945 1024.70264 1024.70215
1056.0 0.000947 1021.53577 1021.53510
983.0 0.001017 1018.42926 1018.42902
1000.0 0.001000 1015.38354 1015.38300
1020.0 0.000980 1012.39691 1012.39655
1047.0 0.000955 1009.46802 1009.46747
1009.0 0.000991 1006.59503 1006.59473
1015.0 0.000985 1003.77795 1003.77747
1022.0 0.000978 1001.01428 1001.01355
1063.0 0.000941 998.30334 998.30304
992.0 0.001008 995.64423 995.64368
1003.0 0.000997 993.03479 993.03436
1009.0 0.000991 990.47461 990.47400
981.0 0.001019 987.96124 987.96051
1013.0 0.000987 985.49408 985.49359
1007.0 0.000993 983.07202 983.07117
1006.0 0.000994 980.69263 980.69220
1011.0 0.000989 978.35565 978.35516
1055.0 0.000948 976.05951 976.05878
973.0 0.001028 973.80188 973.80127
929.0 0.001076 971.58252 971.58191
988.0 0.001012 969.39996 969.39929
950.0 0.001053 967.25220 967.25159
957.0 0.001045 965.13782 965.13733
1004.0 0.000996 963.05634 963.05591
977.0 0.001024 961.00616 961.00549
915.0 0.001093 958.98523 958.98462
993.0 0.001007 956.99304 956.99237
984.0 0.001016 955.02740 955.02692
967.0 0.001034 953.08813 953.08752
989.0 0.001011 951.17273 951.17206
952.0 0.001050 949.28088 949.28046
926.0 0.001080 947.41095 947.41040
925.0 0.001081 945.56140 945.56079
906.0 0.001104 943.73151 943.73071
977.0 0.001024 941.91992 941.91937
987.0 0.001013 940.12531 940.12457
889.0 0.001125 938.34637 938.34576
985.0 0.001015 936.58191 936.58160
956.0 0.001046 934.83160 934.83105
955.0 0.001047 933.09357 933.09296
892.0 0.001121 931.36694 931.36633
902.0 0.001109 929.65039 929.64984
981.0 0.001019 927.94318 927.94275
931.0 0.001074 926.24420 926.24371
903.0 0.001107 924.55286 924.55249
859.0 0.001164 922.86731 922.86707
947.0 0.001056 921.18774 921.18726
924.0 0.001082 919.51233 919.51208
889.0 0.001125 917.84033 917.84015
972.0 0.001029 916.17145 916.17102
914.0 0.001094 914.50464 914.50409
932.0 0.001073 912.83868 912.83826
873.0 0.001145 911.17303 911.17261
933.0 0.001072 909.50684 909.50671
869.0 0.001151 907.83978 907.83942
882.0 0.001134 906.17120 906.17108
833.0 0.001200 904.50012 904.49957
900.0 0.001111 902.82611 902.82587
882.0 0.001134 901.14844 901.14789
869.0 0.001151 899.46637 899.46625
917.0 0.001091 897.78015 897.77991
872.0 0.001147 896.08844 896.08820
950.0 0.001053 894.39093 894.39050
875.0 0.001143 892.68750 892.68713
897.0 0.001115 890.97736 890.97699
901.0 0.001110 889.26062 889.26031
916.0 0.001092 887.53650 887.53625
879.0 0.001138 885.80463 885.80463
828.0 0.001208 884.06512 884.06482
847.0 0.001181 882.31726 882.31726
945.0 0.001058 880.56085 880.56073
873.0 0.001145 878.79633 878.79608
903.0 0.001107 877.02289 877.02258
863.0 0.001159 875.24005 875.23969
825.0 0.001212 873.44836 873.44830
929.0 0.001076 871.64783 871.64758
853.0 0.001172 869.83789 869.83740
893.0 0.001120 868.01801 868.01782
861.0 0.001161 866.18896 866.18872
851.0 0.001175 864.35071 864.35052
845.0 0.001183 862.50323 862.50287
886.0 0.001129 860.64612 860.64612
860.0 0.001163 858.77985 858.77948
885.0 0.001130 856.90405 856.90387
859.0 0.001164 855.01929 855.01923
853.0 0.001172 853.12543 853.12518
858.0 0.001166 851.22284 851.22284
841.0 0.001189 849.31152 849.31152
800.0 0.001250 847.39185 847.39154
799.0 0.001252 845.46375 845.46362
888.0 0.001126 843.52759 843.52740
854.0 0.001171 841.58362 841.58362
859.0 0.001164 839.63190 839.63177
853.0 0.001172 837.67285 837.67267
773.0 0.001294 835.70679 835.70673
838.0 0.001193 833.73413 833.73389
838.0 0.001193 831.75494 831.75476
842.0 0.001188 829.76953 829.76947
803.0 0.001245 827.77838 827.77832
796.0 0.001256 825.78192 825.78174
835.0 0.001198 823.78058 823.78033
821.0 0.001218 821.77435 821.77435
759.0 0.001318 819.76422 819.76392
832.0 0.001202 817.74976 817.74945
830.0 0.001205 815.73236 815.73212
831.0 0.001203 813.71155 813.71143
786.0 0.001272 811.68848 811.68817
774.0 0.001292 809.66290 809.66278
774.0 0.001292 807.63568 807.63580
776.0 0.001289 805.60748 805.60760
787.0 0.001271 803.57855 803.57855
765.0 0.001307 801.54913 801.54907
834.0 0.001199 799.52002 799.51978
810.0 0.001235 797.49109 797.49091
775.0 0.001290 795.46381 795.46375
818.0 0.001222 793.43787 793.43781
742.0 0.001348 791.41412 791.41400
777.0 0.001287 789.39301 789.39270
799.0 0.001252 787.37482 787.37469
723.0 0.001383 785.36017 785.36017
712.0 0.001404 783.34973 783.34967
744.0 0.001344 781.34393 781.34381
824.0 0.001214 779.34265 779.34265
766.0 0.001305 777.34772 777.34729
718.0 0.001393 775.35846 775.35834
792.0 0.001263 773.37585 773.37561
811.0 0.001233 771.39966 771.39972
802.0 0.001247 769.43170 769.43146
770.0 0.001299 767.47113 767.47089
750.0 0.001333 765.51953 765.51953
699.0 0.001431 763.57678 763.57672
735.0 0.001361 761.64349 761.64331
780.0 0.001282 759.71991 759.71991
753.0 0.001328 757.80658 757.80664
732.0 0.001366 755.90430 755.90417
752.0 0.001330 754.01349 754.01343
765.0 0.001307 752.13409 752.13403
740.0 0.001351 750.26721 750.26691
750.0 0.001333 748.41254 748.41235
762.0 0.001312 746.57117 746.57086
793.0 0.001261 744.74316 744.74298
771.0 0.001297 742.92908 742.92877
724.0 0.001381 741.12921 741.12915
769.0 0.001300 739.34399 739.34369
723.0 0.001383 737.57397 737.57379
738.0 0.001355 735.81934 735.81927
738.0 0.001355 734.08044 734.08044
755.0 0.001325 732.35779 732.35754
729.0 0.001372 730.65155 730.65155
787.0 0.001271 728.96259 728.96216
752.0 0.001330 727.29053 727.29053
758.0 0.001319 725.63617 725.63611
703.0 0.001422 723.99951 723.99927
819.0 0.001221 722.38110 722.38086
753.0 0.001328 720.78107 720.78113
738.0 0.001355 719.20001 719.19983
705.0 0.001418 717.63782 717.63757
702.0 0.001425 716.09479 716.09479
753.0 0.001328 714.57166 714.57104
680.0 0.001471 713.06775 713.06757
721.0 0.001387 711.58435 711.58423
696.0 0.001437 710.12122 710.12085
732.0 0.001366 708.67822 708.67773
756.0 0.001323 707.25574 707.25555
747.0 0.001339 705.85413 705.85394
697.0 0.001435 704.47388 704.47363
728.0 0.001374 703.11414 703.11414
711.0 0.001406 701.77637 701.77606
683.0 0.001464 700.45966 700.45917
715.0 0.001399 699.16437 699.16418
698.0 0.001433 697.89105 697.89087
744.0 0.001344 696.63965 696.63922
699.0 0.001431 695.40961 695.40955
755.0 0.001325 694.20184 694.20154
668.0 0.001497 693.01605 693.01556
727.0 0.001376 691.85248 691.85223
709.0 0.001410 690.71088 690.71039
699.0 0.001431 689.59113 689.59082
695.0 0.001439 688.49396 688.49371
666.0 0.001502 687.41907 687.41882
700.0 0.001429 686.36627 686.36591
719.0 0.001391 685.33545 685.33514
717.0 0.001395 684.32697 684.32672
703.0 0.001422 683.34039 683.34027
698.0 0.001433 682.37616 682.37598
691.0 0.001447 681.43396 681.43378
707.0 0.001414 680.51392 680.51349
673.0 0.001486 679.61554 679.61536
706.0 0.001416 678.73895 678.73883
643.0 0.001555 677.88440 677.88397
680.0 0.001471 677.05115 677.05096
687.0 0.001456 676.23956 676.23932
653.0 0.001531 675.44940 675.44934
606.0 0.001650 674.68048 674.68036
721.0 0.001387 673.93256 673.93243
693.0 0.001443 673.20605 673.20557
681.0 0.001468 672.50000 672.49988
676.0 0.001479 671.81458 671.81451
680.0 0.001471 671.14966 671.14941
666.0 0.001502 670.50513 670.50494
642.0 0.001558 669.88068 669.88043
669.0 0.001495 669.27594 669.27576
705.0 0.001418 668.69122 668.69110
663.0 0.001508 668.12579 668.12561
649.0 0.001541 667.57959 667.57947
661.0 0.001513 667.05273 667.05225
667.0 0.001499 666.54437 666.54413
690.0 0.001449 666.05457 666.05432
691.0 0.001447 665.58301 665.58264
718.0 0.001393 665.12927 665.12927
631.0 0.001585 664.69373 664.69342
688.0 0.001453 664.27563 664.27539
696.0 0.001437 663.87463 663.87439
669.0 0.001495 663.49060 663.49023
672.0 0.001488 663.12329 663.12305
668.0 0.001497 662.77222 662.77197
689.0 0.001451 662.43738 662.43701
601.0 0.001664 662.11810 662.11792
670.0 0.001493 661.81445 661.81421
647.0 0.001546 661.52594 661.52570
641.0 0.001560 661.25226 661.25208
703.0 0.001422 660.99323 660.99298
683.0 0.001464 660.74817 660.74805
673.0 0.001486 660.51721 660.51685
669.0 0.001495 660.29974 660.29950
653.0 0.001531 660.09540 660.09515
665.0 0.001504 659.90424 659.90399
646.0 0.001548 659.72552 659.72528
678.0 0.001475 659.55878 659.55859
664.0 0.001506 659.40417 659.40393
646.0 0.001548 659.26129 659.26093
680.0 0.001471 659.12927 659.12897
648.0 0.001543 659.00842 659.00806
668.0 0.001497 658.89789 658.89764
667.0 0.001499 658.79773 658.79749
636.0 0.001572 658.70721 658.70691
640.0 0.001563 658.62640 658.62585
627.0 0.001595 658.55463 658.55432
634.0 0.001577 658.49176 658.49133
642.0 0.001558 658.43713 658.43701
675.0 0.001481 658.39093 658.39044
636.0 0.001572 658.35211 658.35168
657.0 0.001522 658.32098 658.32062
628.0 0.001592 658.29712 658.29663
626.0 0.001597 658.27948 658.27942
672.0 0.001488 658.26892 658.26868
678.0 0.001475 658.26410 658.26373
678.0 0.001475 658.26489 658.26471
712.0 0.001404 658.27106 658.27081
649.0 0.001541 658.28247 658.28235
622.0 0.001608 658.29871 658.29852
667.0 0.001499 658.31927 658.31909
663.0 0.001508 658.34393 658.34375
675.0 0.001481 658.37219 658.37207
619.0 0.001616 658.40436 658.40399
641.0 0.001560 658.43927 658.43915
639.0 0.001565 658.47723 658.47681
586.0 0.001706 658.51746 658.51721
682.0 0.001466 658.56012 658.55994
627.0 0.001595 658.60449 658.60425
644.0 0.001553 658.65082 658.65045
651.0 0.001536 658.69824 658.69812
579.0 0.001727 658.74677 658.74640
621.0 0.001610 658.79608 658.79565
667.0 0.001499 658.84564 658.84558
613.0 0.001631 658.89569 658.89539
694.0 0.001441 658.94543 658.94519
704.0 0.001420 658.99487 658.99487
610.0 0.001639 659.04388 659.04370
638.0 0.001567 659.09192 659.09167
629.0 0.001590 659.13904 659.13879
689.0 0.001451 659.18463 659.18433
642.0 0.001558 659.22870 659.22839
711.0 0.001406 659.27118 659.27087
706.0 0.001416 659.31116 659.31085
623.0 0.001605 659.34912 659.34894
661.0 0.001513 659.38464 659.38434
658.0 0.001520 659.41730 659.41705
641.0 0.001560 659.44720 659.44708
650.0 0.001538 659.47400 659.47388
637.0 0.001570 659.49744 659.49731
646.0 0.001548 659.51740 659.51746
672.0 0.001488 659.53400 659.53375
655.0 0.001527 659.54645 659.54639
682.0 0.001466 659.55511 659.55475
687.0 0.001456 659.55945 659.55927
653.0 0.001531 659.55957 659.55920
656.0 0.001524 659.55505 659.55481
654.0 0.001529 659.54633 659.54590
650.0 0.001538 659.53259 659.53210
623.0 0.001605 659.51385 659.51373
646.0 0.001548 659.49030 659.49005
609.0 0.001642 659.46143 659.75494
656.0 0.001524 659.42767 659.73022
625.0 0.001600 659.38831 659.70111
622.0 0.001608 659.34399 659.66711
627.0 0.001595 659.29376 659.62781
674.0 0.001484 659.23816 659.58398
605.0 0.001653 659.17700 659.53497
625.0 0.001600 659.10974 659.48065
638.0 0.001567 659.03693 659.42139
645.0 0.001550 658.95813 659.35724
626.0 0.001597 658.87384 660.46802
642.0 0.001558 658.78326 660.44110
653.0 0.001531 658.68683 660.41229
615.0 0.001626 658.58429 660.38135
663.0 0.001508 658.47607 660.34912
630.0 0.001587 658.36139 660.31573
615.0 0.001626 658.24097 660.28174
677.0 0.001477 658.11438 660.24768
680.0 0.001471 657.98175 660.21399
664.0 0.001506 657.84308 660.18127
649.0 0.001541 657.69855 660.15045
666.0 0.001502 657.54797 660.12164
662.0 0.001511 657.39136 660.09662
657.0 0.001522 657.22876 660.07605
621.0 0.001610 657.06055 660.06097
689.0 0.001451 656.88641 660.05273
669.0 0.001495 656.70642 660.05292
659.0 0.001517 656.52057 660.06342
662.0 0.001511 656.32947 660.08582
709.0 0.001410 656.13251 660.12280
692.0 0.001445 655.93005 660.17676
679.0 0.001473 655.72223 660.25067
680.0 0.001471 655.50922 660.34863
666.0 0.001502 655.29077 660.47424
708.0 0.001412 655.06732 660.63293
732.0 0.001366 654.83875 660.83081
713.0 0.001403 654.60522 661.07440
695.0 0.001439 654.36719 661.37299
633.0 0.001580 654.12415 661.73627
707.0 0.001414 653.87689 662.17780
707.0 0.001414 653.62512 662.71301
720.0 0.001389 653.36884 663.36169
712.0 0.001404 653.10864 664.14911
721.0 0.001387 652.84454 665.10675
654.0 0.001529 652.57660 666.27618
683.0 0.001464 652.30481 667.71179
712.0 0.001404 652.02948 669.48572
691.0 0.001447 651.75092 671.69696
666.0 0.001502 651.46918 674.48444
718.0 0.001393 651.18445 678.05255
653.0 0.001531 650.89661 682.75409
712.0 0.001404 650.60632 689.34814
732.0 0.001366 650.31366 699.77069
691.0 0.001447 650.01874 718.86023
850.0 0.001176 649.72144 757.14337
934.0 0.001071 649.42261 833.89142
1027.0 0.000974 649.12164 979.12653
1370.0 0.000730 648.81958 1233.44714
1810.0 0.000552 648.51611 1641.68872
2324.0 0.000430 648.21136 2223.89819
2778.0 0.000360 647.90594 2912.39185
3272.0 0.0003056 647.59985 3500.17920
3421.0 0.0002923 647.29340 3698.67285
3300.0 0.0003030 646.98657 3371.04810
2621.0 0.000382 646.67993 2698.59082
1877.0 0.000533 646.37329 1963.84155
1248.0 0.000801 646.06738 1379.60242
966.0 0.001035 645.76172 1016.12030
803.0 0.001245 645.45746 829.96240
760.0 0.001316 645.15387 747.41284
679.0 0.001473 644.85199 712.29852
628.0 0.001592 644.55182 695.33826
661.0 0.001513 644.25311 685.06110
694.0 0.001441 643.95691 677.73840
675.0 0.001481 643.66248 672.13013
671.0 0.001490 643.37109 667.69080
637.0 0.001570 643.08234 664.09894
654.0 0.001529 642.79675 661.14056
656.0 0.001524 642.51428 658.66443
659.0 0.001517 642.23547 656.56354
611.0 0.001637 641.96033 654.75830
632.0 0.001582 641.68921 653.18951
672.0 0.001488 641.42249 651.81317
652.0 0.001534 641.16022 650.59473
643.0 0.001555 640.90283 649.50708
646.0 0.001548 640.65021 648.52930
622.0 0.001608 640.40289 647.64490
715.0 0.001399 640.16107 646.88580
691.0 0.001447 639.92523 646.15149
604.0 0.001656 639.69507 645.49451
665.0 0.001504 639.47119 644.87384
650.0 0.001538 639.25391 644.29999
662.0 0.001511 639.04327 643.76794
638.0 0.001567 638.83966 643.27362
612.0 0.001634 638.64313 642.81366
683.0 0.001464 638.45422 642.38495
644.0 0.001553 638.27283 641.98480
623.0 0.001605 638.09912 641.61133
651.0 0.001536 637.93408 641.26306
643.0 0.001555 637.77710 640.93811
669.0 0.001495 637.62848 640.63495
620.0 0.001613 637.48914 640.35309
633.0 0.001580 637.35864 640.09113
655.0 0.001527 637.23737 639.84845
660.0 0.001515 637.12573 639.62463
645.0 0.001550 637.02362 639.41895
640.0 0.001563 636.93158 639.23071
656.0 0.001524 636.84961 639.05981
643.0 0.001555 636.77832 638.90546
637.0 0.001570 636.71735 638.76807
686.0 0.001458 636.66730 638.64685
607.0 0.001647 636.62811 638.54224
656.0 0.001524 636.60022 638.45361
657.0 0.001522 636.58386 638.38123
641.0 0.001560 636.57874 638.32477
609.0 0.001642 636.58569 636.78320
654.0 0.001529 636.60455 636.81409
666.0 0.001502 636.63580 636.85779
633.0 0.001580 636.67896 636.91522
661.0 0.001513 636.73505 636.98657
669.0 0.001495 636.80371 637.07220
665.0 0.001504 636.88538 637.17261
671.0 0.001490 636.98004 637.28802
662.0 0.001511 637.08789 637.41913
686.0 0.001458 637.20917 637.56628
611.0 0.001637 637.34412 637.72998
622.0 0.001608 637.49255 637.91132
648.0 0.001543 637.65485 638.11060
641.0 0.001560 637.83124 638.32928
634.0 0.001577 638.02185 638.56805
631.0 0.001585 638.22656 638.82849
646.0 0.001548 638.44611 639.11249
638.0 0.001567 638.67957 639.42218
686.0 0.001458 638.92847 639.76013
639.0 0.001565 639.19165 640.13000
662.0 0.001511 639.46979 640.53705
636.0 0.001572 639.76312 640.98755
683.0 0.001464 640.07147 641.49091
699.0 0.001431 640.39514 642.06171
658.0 0.001520 640.73444 642.72400
674.0 0.001484 641.08899 643.53375
665.0 0.001504 641.45868 644.62988
643.0 0.001555 641.84436 646.35547
630.0 0.001587 642.24567 649.45178
633.0 0.001580 642.66290 655.28961
662.0 0.001511 643.09589 666.01068
742.0 0.001348 643.54498 684.24908
745.0 0.001342 644.00970 711.82574
704.0 0.001420 644.49048 746.90204
755.0 0.001325 644.98773 781.05634
779.0 0.001284 645.50073 800.26324
789.0 0.001267 646.03015 793.90094
784.0 0.001276 646.57574 766.56464
761.0 0.001314 647.13770 731.29858
747.0 0.001339 647.71570 699.10114
767.0 0.001304 648.31055 676.34711
639.0 0.001565 648.92096 663.35065
652.0 0.001534 649.54822 657.23108
677.0 0.001477 650.19165 654.86310
694.0 0.001441 650.85150 654.15973
658.0 0.001520 651.52789 654.10931
620.0 0.001613 652.22028 654.32947
672.0 0.001488 652.92932 654.69269
686.0 0.001458 653.65448 655.15198
681.0 0.001468 654.39606 655.68359
635.0 0.001575 655.15387 656.27246
714.0 0.001401 655.92804 656.90912
626.0 0.001597 656.71838 657.58575
689.0 0.001451 657.52478 658.29718
650.0 0.001538 658.34711 659.03955
641.0 0.001560 659.18579 659.80988
684.0 0.001462 660.04071 660.60590
658.0 0.001520 660.91113 661.42578
681.0 0.001468 661.79761 662.26813
669.0 0.001495 662.70020 663.13159
650.0 0.001538 663.61804 664.01569
648.0 0.001543 664.55194 664.91901
638.0 0.001567 665.50153 665.84143
631.0 0.001585 666.46643 666.78229
672.0 0.001488 667.44641 667.74078
657.0 0.001522 668.44214 668.71729
691.0 0.001447 669.45300 669.71057
663.0 0.001508 670.47882 670.72015
699.0 0.001431 671.51971 671.74652
684.0 0.001462 672.57538 672.78900
668.0 0.001497 673.64587 673.84729
667.0 0.001499 674.73114 674.92133
661.0 0.001513 675.83093 676.01099
691.0 0.001447 676.94470 677.11542
707.0 0.001414 678.07294 678.23499
696.0 0.001437 679.21521 679.36920
699.0 0.001431 680.37146 680.51807
663.0 0.001508 681.54156 681.68109
651.0 0.001536 682.72504 682.85809
675.0 0.001481 683.92255 684.04938
658.0 0.001520 685.13269 685.25403
722.0 0.001385 686.35626 686.47235
695.0 0.001439 687.59296 687.70422
667.0 0.001499 688.84210 688.94885
707.0 0.001414 690.10419 690.20630
642.0 0.001558 691.37823 691.47632
692.0 0.001445 692.66492 692.75903
674.0 0.001484 693.96368 694.05444
690.0 0.001449 695.27417 695.36133
672.0 0.001488 696.59656 696.68030
668.0 0.001497 697.92975 698.01080
742.0 0.001348 699.27502 699.35309
660.0 0.001515 700.63098 700.70630
710.0 0.001408 701.99756 702.07037
705.0 0.001418 703.37531 703.44550
674.0 0.001484 704.76251 704.83051
672.0 0.001488 706.16095 706.22687
734.0 0.001362 707.56897 707.63245
685.0 0.001460 708.98663 709.00397
694.0 0.001441 710.41400 710.43085
725.0 0.001379 711.85016 711.84985
700.0 0.001429 713.29578 713.29535
734.0 0.001362 714.75024 714.74969
709.0 0.001410 716.21301 716.21259
679.0 0.001473 717.68457 717.68390
697.0 0.001435 719.16357 719.16284
733.0 0.001364 720.65076 720.65009
694.0 0.001441 722.14569 722.14490
699.0 0.001431 723.64728 723.64673
651.0 0.001536 725.15668 725.15613
695.0 0.001439 726.67224 726.67163
723.0 0.001383 728.19489 728.19434
715.0 0.001399 729.72363 729.72314
667.0 0.001499 731.25830 731.25745
670.0 0.001493 732.79895 732.79846
731.0 0.001368 734.34473 734.34412
724.0 0.001381 735.89587 735.89520
714.0 0.001401 737.45239 737.45178
712.0 0.001404 739.01318 739.01245
729.0 0.001372 740.57831 740.57806
701.0 0.001427 742.14752 742.14703
716.0 0.001397 743.72089 743.72058
686.0 0.001458 745.29803 745.29742
686.0 0.001458 746.87781 746.87720
703.0 0.001422 748.46124 748.46075
732.0 0.001366 750.04681 750.04620
715.0 0.001399 751.63562 751.63489
722.0 0.001385 753.22620 753.22552
669.0 0.001495 754.81854 754.81793
696.0 0.001437 756.41248 756.41174
757.0 0.001321 758.00800 758.00708
707.0 0.001414 759.60443 759.60388
757.0 0.001321 761.20166 761.20099
728.0 0.001374 762.79932 762.79852
771.0 0.001297 764.39716 764.39624
749.0 0.001335 765.99457 765.99377
785.0 0.001274 767.59192 767.59131
780.0 0.001282 769.18896 769.18817
778.0 0.001285 770.78442 770.78345
737.0 0.001357 772.37891 772.37811
793.0 0.0 773.97156 .
743.0 0.0 775.56262 .
720.0 0.0 777.15161 .
792.0 0.0 778.73816 .
771.0 0.0 780.32208 .
737.0 0.0 781.90271 .
779.0 0.0 783.48047 .
750.0 0.0 785.05469 .
712.0 0.0 786.62457 .
784.0 0.0 788.19067 .
757.0 0.0 789.75214 .
733.0 0.0 791.30939 .
790.0 0.0 792.86163 .
729.0 0.0 794.40796 .
760.0 0.0 795.94965 .
832.0 0.0 797.48462 .
755.0 0.0 799.01410 .
798.0 0.0 800.53723 .
860.0 0.0 802.05353 .
845.0 0.0 803.56299 .
866.0 0.0 805.06519 .
868.0 0.0 806.56030 .
881.0 0.0 808.04761 .
914.0 0.0 809.52649 .
881.0 0.0 810.99750 .
902.0 0.0 812.45972 .
907.0 0.0 813.91357 .
960.0 0.0 815.35834 .
956.0 0.0 816.79327 .
961.0 0.0 818.21948 .
912.0 0.0 819.63507 .
950.0 0.0 821.04120 .
882.0 0.0 822.43695 .
919.0 0.0 823.82214 .
999.0 0.0 825.19629 .
904.0 0.0 826.55963 .
883.0 0.0 827.91174 .
926.0 0.0 829.25238 .
891.0 0.0 830.58105 .
891.0 0.0 831.89789 .
805.0 0.0 833.20233 .
898.0 0.0 834.49432 .
819.0 0.0 835.77411 .
847.0 0.0 837.04034 .
793.0 0.0 838.29419 .
842.0 0.0 839.53418 .
834.0 0.0 840.76093 .
785.0 0.0 841.97382 .
761.0 0.0 843.17273 .
814.0 0.0 844.35767 .
818.0 0.0 845.52771 .
813.0 0.0 846.68390 .
767.0 0.0 847.82507 .
779.0 0.0 848.95105 .
848.0 0.0 850.06201 .
841.0 0.0 851.15759 .
860.0 0.0 852.23779 .
869.0 0.0 853.30249 .
810.0 0.0 854.35095 .
884.0 0.0 855.38361 .
844.0 0.0 856.39996 .
794.0 0.0 857.39984 .
851.0 0.0 858.38330 .
785.0 0.0 859.35010 .
822.0 0.0 860.30017 .
842.0 0.0 861.23285 .
834.0 0.0 862.14874 .
842.0 0.0 863.04736 .
857.0 0.001167 863.92822 871.14325
871.0 0.001148 864.79163 872.23248
815.0 0.001227 865.63708 873.31519
809.0 0.001236 866.46497 874.39154
869.0 0.001151 867.27478 875.46222
873.0 0.001145 868.06665 876.52777
867.0 0.001153 868.84027 877.58893
884.0 0.001131 869.59528 878.64685
846.0 0.001182 870.33191 881.45575
849.0 0.001178 871.05023 882.56696
831.0 0.001203 871.74939 883.68030
866.0 0.001155 872.43036 885.46588
821.0 0.001218 873.09192 886.61078
881.0 0.001135 873.73480 887.76453
976.0 0.001025 874.35864 888.92871
901.0 0.001110 874.96338 890.10516
886.0 0.001129 875.54889 891.29742
941.0 0.001063 876.11499 892.50714
935.0 0.001070 876.66156 893.73828
987.0 0.001013 877.18890 894.99384
938.0 0.001066 877.69672 896.27704
945.0 0.001058 878.18481 897.59320
985.0 0.001015 878.65326 898.94611
959.0 0.001043 879.10205 900.34149
938.0 0.001066 879.53131 901.78528
971.0 0.001030 879.94055 903.28345
983.0 0.001017 880.32983 904.84448
987.0 0.001013 880.69910 906.47577
994.0 0.001006 881.04877 908.18793
966.0 0.001035 881.37842 909.99194
1025.0 0.000976 881.68774 911.89886
1064.0 0.000940 881.97742 913.92456
1025.0 0.000976 882.24701 916.08435
1022.0 0.000978 882.49646 918.39825
1008.0 0.000992 882.72601 920.88788
1013.0 0.000987 882.93512 923.57831
1095.0 0.000913 883.12439 926.50031
1026.0 0.000975 883.29346 929.68805
1019.0 0.000981 883.44226 933.18488
1108.0 0.000903 883.57117 937.03943
1078.0 0.000928 883.67981 941.31036
1101.0 0.000908 883.76862 946.07135
1051.0 0.000951 883.83710 951.40674
1108.0 0.000903 883.88562 957.42572
1049.0 0.000953 883.91418 964.25812
1077.0 0.000929 883.92267 972.06683
1034.0 0.000967 883.91119 981.06067
1094.0 0.000914 883.87970 991.84552
1087.0 0.000920 883.82837 1004.07959
1078.0 0.000928 883.75708 1018.54285
1089.0 0.000918 883.66626 1035.95178
1055.0 0.000948 883.55536 1056.85071
1102.0 0.000907 883.42499 1082.46655
1136.0 0.000880 883.27460 1114.43347
1181.0 0.000847 883.10474 1155.38989
1239.0 0.000807 882.91504 1210.39404
1304.0 0.000767 882.70605 1290.65112
1403.0 0.000713 882.47791 1421.49109
1669.0 0.000599 882.23016 1656.41846
2072.0 0.000483 881.96295 2093.03662
2874.0 0.0003479 881.67682 2875.58813
4171.0 0.0002398 881.37134 4151.68701
5831.0 0.0001715 881.04688 5952.65430
7948.0 0.0001258 880.70337 8069.80420
9798.0 0.0001021 880.34113 9982.54395
11150.0 0.0000897 879.96008 10973.94141
11119.0 0.0000899 879.56006 10746.52344
10019.0 0.0000998 879.14178 9802.15039
8609.0 0.0001162 878.70490 8768.17383
7764.0 0.0001288 878.24945 7955.21631
7472.0 0.0001338 877.77600 7432.17969
6829.0 0.0001464 877.28400 6958.41211
6341.0 0.0001577 876.77417 6213.25537
5586.0 0.0001790 876.24634 5213.06201
4394.0 0.0002276 875.70038 4163.64160
3209.0 0.0003116 875.13708 3185.58618
2393.0 0.000418 874.55634 2382.34863
1690.0 0.000592 873.95770 1816.64673
1379.0 0.000725 873.34192 1467.66553
1160.0 0.000862 872.70874 1273.55725
1126.0 0.000888 872.05859 1169.95190
1051.0 0.000951 871.39136 1111.09314
996.0 0.001004 870.70789 1072.69775
1035.0 0.000966 870.00720 1044.31360
1038.0 0.000963 869.28992 1021.83392
990.0 0.001010 868.55670 1003.43823
962.0 0.001040 867.80695 988.08936
942.0 0.001062 867.04126 975.10413
973.0 0.001028 866.25934 963.98022
972.0 0.001029 865.46179 954.34979
928.0 0.001078 864.64886 945.93347
900.0 0.001111 863.82037 938.51111
955.0 0.001047 862.97632 931.91583
892.0 0.001121 862.11743 926.00989
864.0 0.001157 861.24316 920.68823
892.0 0.001121 860.35437 915.86365
885.0 0.001130 859.45105 911.46381
897.0 0.001115 858.53333 907.43219
915.0 0.001093 857.60083 903.71863
892.0 0.001121 856.65424 900.28436
915.0 0.001093 855.69409 897.09668
882.0 0.001134 854.72003 894.12598
882.0 0.001134 853.73218 891.35065
895.0 0.001117 852.73090 888.74939
892.0 0.001121 851.71667 886.30737
851.0 0.001175 850.68927 884.01178
851.0 0.001175 849.64868 881.84991
926.0 0.001080 848.59589 879.81500
855.0 0.001170 847.53015 877.89966
844.0 0.001185 846.45221 876.09955
888.0 0.001126 845.36224 874.41296
891.0 0.001122 844.26038 872.83868
822.0 0.001217 843.14679 871.37958
886.0 0.001129 842.02155 870.03815
851.0 0.001175 840.88452 868.82300
863.0 0.001159 839.73694 867.74377
863.0 0.001159 838.57819 866.81409
817.0 0.001224 837.40894 866.05402
818.0 0.001222 836.22876 865.48785
871.0 0.001148 835.03802 865.15033
830.0 0.001205 833.83746 865.08594
859.0 0.001164 832.62653 865.35449
880.0 0.001136 831.40649 866.03772
841.0 0.001189 830.17633 867.24768
876.0 0.001142 828.93671 869.14587
852.0 0.001174 827.68817 871.97913
877.0 0.001140 826.43048 876.18939
853.0 0.001172 825.16412 882.69427
846.0 0.001182 823.88934 893.59064
921.0 0.001086 822.60547 913.49701
907.0 0.001103 821.31439 951.46008
985.0 0.001015 820.01465 1022.22491
1072.0 0.000933 818.70764 1143.61707
1239.0 0.000807 817.39276 1326.34131
1474.0 0.000678 816.07050 1557.27710
1672.0 0.000598 814.74127 1788.86353
1880.0 0.000532 813.40491 1940.63013
1921.0 0.000521 812.06232 1945.67065
1783.0 0.000561 810.71240 1823.02820
1521.0 0.000657 809.35645 1642.17896
1328.0 0.000753 807.99463 1444.65234
1193.0 0.000838 806.62653 1274.98010
1043.0 0.000959 805.25299 1166.90698
1112.0 0.000899 803.87378 1142.10205
1259.0 0.000794 802.48901 1222.49365
1476.0 0.000678 801.09979 1404.90051
1702.0 0.000588 799.70514 1656.37036
1893.0 0.000528 798.30615 1897.73315
2046.0 0.000489 796.90234 2022.18091
1990.0 0.000503 795.49420 1969.26196
1756.0 0.000569 794.08234 1791.31653
1573.0 0.000636 792.66638 1568.88220
1341.0 0.000746 791.24670 1343.88733
1114.0 0.000898 789.82336 1148.97559
985.0 0.001015 788.39685 1006.45520
874.0 0.001144 786.96741 916.24408
804.0 0.001244 785.53485 865.49005
816.0 0.001225 784.09998 838.78931
813.0 0.001230 782.66199 824.23059
777.0 0.001287 781.22162 815.09930
738.0 0.001355 779.77960 808.41278
793.0 0.001261 778.33569 803.01312
728.0 0.001374 776.88983 798.43683
740.0 0.001351 775.44238 794.44812
758.0 0.001319 773.99341 790.90259
840.0 0.001190 772.54364 787.70056
763.0 0.001311 771.09259 784.76685
759.0 0.001318 769.64136 782.04907
766.0 0.001305 768.18866 779.50464
767.0 0.001304 766.73584 777.10352
742.0 0.001348 765.28308 774.82111
782.0 0.001279 763.82996 772.63702
779.0 0.001284 762.37726 770.53723
713.0 0.001403 760.92426 768.50793
722.0 0.001385 759.47205 766.54010
728.0 0.001374 758.02063 764.62555
713.0 0.001403 756.57001 762.75677
750.0 0.001333 755.12048 760.92871
755.0 0.001325 753.67188 759.13623
784.0 0.001276 752.22443 757.37524
758.0 0.001319 750.77917 755.64319
725.0 0.001379 749.33490 753.93585
718.0 0.001393 747.89294 752.25244
754.0 0.001326 746.45258 750.58929
703.0 0.001422 745.01465 748.94525
753.0 0.001328 743.57922 747.31921
732.0 0.001366 742.14594 745.70911
777.0 0.001287 740.71558 744.11469
745.0 0.001342 739.28796 742.53357
728.0 0.001374 737.86310 740.96613
701.0 0.001427 736.44171 739.41119
719.0 0.001391 735.02325 737.86792
723.0 0.001383 733.60858 736.33606
706.0 0.001416 732.19708 734.81494
724.0 0.001381 730.78925 733.30365
762.0 0.001312 729.38574 731.80292
752.0 0.001330 727.98596 730.31146
752.0 0.001330 726.59033 728.82941
716.0 0.001397 725.19891 727.35638
731.0 0.001368 723.81201 725.89215
729.0 0.001372 722.42975 724.43652
657.0 0.001522 721.05188 722.98956
753.0 0.001328 719.67914 721.55109
703.0 0.001422 718.31091 720.12054
713.0 0.001403 716.94812 718.69824
702.0 0.001425 715.59045 717.28424
733.0 0.001364 714.23792 715.87817
727.0 0.001376 712.89130 714.48004
721.0 0.001387 711.54950 713.08978
700.0 0.001429 710.21375 711.70728
689.0 0.001451 708.88397 710.33295
647.0 0.001546 707.55963 708.96619
691.0 0.001447 706.24164 707.60767
744.0 0.001344 704.92963 706.25671
700.0 0.001429 703.62384 704.91370
673.0 0.001486 702.32458 703.57855
696.0 0.001437 701.03125 702.25140
669.0 0.001495 699.74506 700.93231
671.0 0.001490 698.46497 699.62054
669.0 0.001495 697.19171 698.31714
694.0 0.001441 695.92560 697.02167
734.0 0.001362 694.66595 695.73419
690.0 0.001449 693.41364 694.45490
689.0 0.001451 692.16809 693.18378
692.0 0.001445 690.92963 691.92017
691.0 0.001447 689.69891 690.31995
671.0 0.001490 688.47510 689.08026
688.0 0.001453 687.25916 687.84937
689.0 0.001451 686.04999 686.05029
702.0 0.001425 684.84863 684.84894
694.0 0.001441 683.65515 683.65533
698.0 0.001433 682.46906 682.46930
690.0 0.001449 681.29108 681.29126
664.0 0.001506 680.12067 680.12091
733.0 0.001364 678.95813 678.95837
628.0 0.001592 677.80341 677.80383
682.0 0.001466 676.65704 676.65729
658.0 0.001520 675.51874 675.51886
688.0 0.001453 674.38837 674.38843
684.0 0.001462 673.26605 673.26617
666.0 0.001502 672.15179 672.15228
659.0 0.001517 671.04626 671.43909
660.0 0.001515 669.94873 670.35071
640.0 0.001563 668.85950 669.27075
644.0 0.001553 667.77899 668.34674
692.0 0.001445 666.70685 667.28778
662.0 0.001511 665.64288 666.23773
694.0 0.001441 664.58777 665.19690
695.0 0.001439 663.54077 664.16473
699.0 0.001431 662.50275 663.14185
724.0 0.001381 661.47321 662.12842
666.0 0.001502 660.45203 661.12396
643.0 0.001555 659.43994 660.12878
666.0 0.001502 658.43604 659.14276
662.0 0.001511 657.44098 658.16638
713.0 0.001403 656.45490 657.19946
648.0 0.001543 655.47729 656.24194
668.0 0.001497 654.50873 655.29388
623.0 0.001605 653.54834 654.35553
652.0 0.001534 652.59723 653.42676
662.0 0.001511 651.65454 652.50787
663.0 0.001508 650.72070 651.59857
672.0 0.001488 649.79590 650.69940
704.0 0.001420 648.87964 649.81012
677.0 0.001477 647.97186 648.93060
690.0 0.001449 647.07349 648.06146
665.0 0.001504 646.18341 647.20203
643.0 0.001555 645.30237 646.35333
663.0 0.001508 644.42999 645.51453
665.0 0.001504 643.56628 644.68622
654.0 0.001529 642.71130 643.86859
672.0 0.001488 641.86499 643.06146
665.0 0.001504 641.02759 642.26495
678.0 0.001475 640.19873 641.47925
625.0 0.001600 639.37866 640.70441
644.0 0.001553 638.56720 639.94128
710.0 0.001408 637.76416 639.18878
622.0 0.001608 636.97021 638.44806
628.0 0.001592 636.18420 637.71863
692.0 0.001445 635.40698 637.00122
660.0 0.001515 634.63855 636.29633
647.0 0.001546 633.87823 635.60333
679.0 0.001473 633.12659 634.92303
672.0 0.001488 632.38330 634.25574
625.0 0.001600 631.64832 633.60175
636.0 0.001572 630.92194 632.96167
603.0 0.001658 630.20374 632.33533
652.0 0.001534 629.49396 631.72394
687.0 0.001456 628.79205 631.12781
644.0 0.001553 628.09839 630.54712
664.0 0.001506 627.41315 629.98340
655.0 0.001527 626.73553 629.43677
694.0 0.001441 626.06641 628.90869
618.0 0.001618 625.40503 628.39984
648.0 0.001543 624.75177 627.91174
647.0 0.001546 624.10620 627.44525
648.0 0.001543 623.46844 627.00232
634.0 0.001577 622.83868 626.58484
661.0 0.001513 622.21661 626.19464
595.0 0.001681 621.60193 625.83429
644.0 0.001553 620.99512 625.50702
652.0 0.001534 620.39600 625.21594
649.0 0.001541 619.80402 624.96472
569.0 0.001757 619.21967 624.75861
656.0 0.001524 618.64233 624.60291
618.0 0.001618 618.07269 624.50415
667.0 0.001499 617.51025 624.47113
675.0 0.001481 616.95471 624.51306
653.0 0.001531 616.40637 624.64294
620.0 0.001613 615.86499 624.87476
628.0 0.001592 615.33069 625.22778
676.0 0.001479 614.80322 625.72522
644.0 0.001553 614.28271 626.39691
629.0 0.001590 613.76862 627.28180
647.0 0.001546 613.26105 628.42975
678.0 0.001475 612.76050 629.90656
640.0 0.001563 612.26630 631.80194
668.0 0.001497 611.77838 634.23840
635.0 0.001575 611.29706 637.39294
664.0 0.001506 610.82159 641.55823
665.0 0.001504 610.35272 647.20477
667.0 0.001499 609.88989 655.42413
680.0 0.001471 609.43280 668.65479
723.0 0.001383 608.98175 692.11755
782.0 0.001279 608.53687 735.51111
835.0 0.001198 608.09735 813.27112
1017.0 0.000983 607.66382 940.72858
1231.0 0.000812 607.23572 1123.43958
1513.0 0.000661 606.81317 1341.74255
1704.0 0.000587 606.39600 1543.25549
1716.0 0.000583 605.98431 1657.51245
1888.0 0.000530 605.57764 1636.85449
1807.0 0.000553 605.17645 1516.51111
1522.0 0.000657 604.78003 1360.75208
1278.0 0.000782 604.38873 1195.70947
1116.0 0.000896 604.00226 1032.95178
961.0 0.001041 603.62061 894.13141
786.0 0.001272 603.24384 791.64740
725.0 0.001379 602.87146 723.80731
663.0 0.001508 602.50372 682.62946
678.0 0.001475 602.14032 658.87756
609.0 0.001642 601.78149 645.01514
632.0 0.001582 601.42664 636.26990
641.0 0.001560 601.07599 630.14099
587.0 0.001704 600.72961 625.47681
639.0 0.001565 600.38696 621.74945
581.0 0.001721 600.04840 618.68469
612.0 0.001634 599.71368 616.11823
618.0 0.001618 599.38257 613.93542
619.0 0.001616 599.05499 612.05499
627.0 0.001595 598.73083 610.41632
611.0 0.001637 598.41022 608.97272
588.0 0.001701 598.09283 607.68890
602.0 0.001661 597.77881 606.53674
612.0 0.001634 597.46771 605.49463
607.0 0.001647 597.15985 604.54565
577.0 0.001733 596.85480 603.67511
603.0 0.001658 596.55261 602.87201
542.0 0.001845 596.25323 602.12665
589.0 0.001698 595.95624 601.43170
599.0 0.001669 595.66193 600.78070
600.0 0.001667 595.37018 600.16785
547.0 0.001828 595.08118 599.58893
591.0 0.001692 594.79401 599.04022
636.0 0.001572 594.50903 598.51819
596.0 0.001678 594.22632 598.02063
573.0 0.001745 593.94543 597.54437
599.0 0.001669 593.66663 597.08826
567.0 0.001764 593.38934 596.64984
585.0 0.001709 593.11395 596.22809
628.0 0.001592 592.84015 595.82166
569.0 0.001757 592.56805 595.42950
624.0 0.001603 592.29712 595.05072
570.0 0.001754 592.02771 594.68488
577.0 0.001733 591.75964 594.33160
560.0 0.001786 591.49249 593.99054
624.0 0.001603 591.22656 593.66193
568.0 0.001761 590.96173 593.34607
591.0 0.001692 590.69763 593.04358
565.0 0.001770 590.43420 592.75586
538.0 0.001859 590.17169 592.48462
584.0 0.001712 589.90997 592.23242
591.0 0.001692 589.64880 592.00360
589.0 0.001698 589.38794 591.80396
596.0 0.001678 589.12732 591.64398
599.0 0.001669 588.86725 591.54431
593.0 0.001686 588.60718 591.55420
618.0 0.001618 588.34747 591.79608
581.0 0.001721 588.08759 592.54620
632.0 0.001582 587.82782 594.32318
600.0 0.001667 587.56781 597.86664
602.0 0.001661 587.30756 603.81830
587.0 0.001704 587.04712 612.03363
574.0 0.001742 586.78613 620.89771
603.0 0.001658 586.52478 627.33850
637.0 0.001570 586.26300 628.39832
603.0 0.001658 586.00061 624.34991
586.0 0.001706 585.73737 618.16003
599.0 0.001669 585.47369 611.64783
616.0 0.001623 585.20886 605.09167
598.0 0.001672 584.94330 598.95972
605.0 0.001653 584.67664 593.98462
578.0 0.001730 584.40881 590.43762
572.0 0.001748 584.14001 588.14948
586.0 0.001706 583.87000 586.75079
594.0 0.001684 583.59869 585.86926
591.0 0.001692 583.32605 585.24524
641.0 0.001560 583.05188 584.74115
581.0 0.001721 582.77643 584.29651
573.0 0.001745 582.49908 583.88580
558.0 0.001792 582.22046 583.49799
584.0 0.001712 581.93982 583.12610
544.0 0.001838 581.65796 582.76654
547.0 0.001828 581.37366 582.41571
540.0 0.001852 581.08783 582.07153
558.0 0.001792 580.79999 581.73273
573.0 0.001745 580.51013 581.39752
603.0 0.001658 580.21814 581.06482
602.0 0.001661 579.92401 580.73419
563.0 0.001776 579.62775 580.01538
584.0 0.001712 579.32935 579.69531
601.0 0.001664 579.02869 579.37463
562.0 0.001779 578.72559 579.05414
551.0 0.001815 578.41998 578.58655
571.0 0.001751 578.11194 578.26709
536.0 0.001866 577.80182 577.94623
519.0 0.001927 577.48853 577.62396
529.0 0.001890 577.17279 577.29974
561.0 0.001783 576.85449 576.97382
527.0 0.001898 576.53326 576.64557
588.0 0.001701 576.20947 576.31555
567.0 0.001764 575.88300 575.98285
541.0 0.001848 575.55371 575.64813
557.0 0.001795 575.22131 575.31073
557.0 0.001795 574.88586 574.97076
518.0 0.001931 574.54755 574.62854
541.0 0.001848 574.20636 574.28314
552.0 0.001812 573.86188 573.93512
580.0 0.001724 573.51459 573.58435
584.0 0.001712 573.16382 573.23053
567.0 0.001764 572.81012 572.87396
620.0 0.001613 572.45306 572.51410
607.0 0.001647 572.09290 572.15131
565.0 0.001770 571.72919 571.78516
545.0 0.001835 571.36249 571.41620
582.0 0.001718 570.99249 571.04401
599.0 0.001669 570.61871 570.66840
545.0 0.001835 570.24182 570.28967
550.0 0.001818 569.86139 569.90735
527.0 0.001898 569.47772 569.52185
579.0 0.001727 569.09033 569.13312
568.0 0.001761 568.69952 568.74054
594.0 0.001684 568.30518 568.34491
556.0 0.001799 567.90729 567.94562
557.0 0.001795 567.50598 567.54279
538.0 0.001859 567.10077 567.13672
544.0 0.001838 566.69208 566.72668
534.0 0.001873 566.27972 566.31335
549.0 0.001821 565.86389 566.40057
539.0 0.001855 565.44434 565.99133
573.0 0.001745 565.02106 565.57892
555.0 0.001802 564.59393 565.16339
546.0 0.001832 564.16333 564.93512
573.0 0.001745 563.72888 564.51727
549.0 0.001821 563.29071 564.09674
552.0 0.001812 562.84882 563.67303
595.0 0.001681 562.40320 563.24622
574.0 0.001742 561.95386 562.81641
542.0 0.001845 561.50073 562.38373
511.0 0.001957 561.04364 561.94788
548.0 0.001825 560.58325 561.49341
552.0 0.001812 560.11853 561.05231
528.0 0.001894 559.65051 560.60840
531.0 0.001883 559.17847 560.16211
558.0 0.001792 558.70251 559.70648
552.0 0.001812 558.22302 559.25458
535.0 0.001869 557.73969 558.85199
544.0 0.001838 557.25256 558.39648
562.0 0.001779 556.76166 557.93805
529.0 0.001890 556.26703 557.47742
533.0 0.001876 555.76862 557.03418
544.0 0.001838 555.26654 556.56970
567.0 0.001764 554.76062 556.10309
507.0 0.001972 554.25098 555.63446
583.0 0.001715 553.73755 555.16425
512.0 0.001953 553.22028 554.69226
518.0 0.001931 552.69952 554.21851
533.0 0.001876 552.17511 553.74390
529.0 0.001890 551.64691 553.26776
577.0 0.001733 551.11536 552.79071
532.0 0.001880 550.57983 552.31287
508.0 0.001969 550.04059 551.83417
513.0 0.001949 549.49792 551.35529
533.0 0.001876 548.95154 550.87622
561.0 0.001783 548.40179 550.39752
537.0 0.001862 547.84821 549.91882
513.0 0.001949 547.29120 549.44147
556.0 0.001799 546.73077 548.96478
569.0 0.001757 546.16663 548.48981
562.0 0.001779 545.59912 548.01678
522.0 0.001916 545.02844 547.54657
523.0 0.001912 544.45380 547.07886
499.0 0.002004 543.87598 546.61523
555.0 0.001802 543.29486 546.15558
519.0 0.001927 542.71027 546.07867
568.0 0.001761 542.12256 545.63727
523.0 0.001912 541.53149 545.20251
559.0 0.001789 540.93707 544.77594
597.0 0.001675 540.33942 544.50037
505.0 0.001980 539.73846 544.09576
545.0 0.001835 539.13470 543.78320
552.0 0.001812 538.52753 543.40564
567.0 0.001764 537.91760 543.04364
496.0 0.002016 537.30414 542.69910
547.0 0.001828 536.68774 542.40485
494.0 0.002024 536.06830 542.10388
567.0 0.001764 535.44611 541.82910
572.0 0.001748 534.82086 541.58429
573.0 0.001745 534.19281 541.37390
594.0 0.001684 533.56171 541.20300
540.0 0.001852 532.92804 541.07764
521.0 0.001919 532.29138 541.00555
500.0 0.002000 531.65198 540.99475
536.0 0.001866 531.00989 541.05609
537.0 0.001862 530.36548 541.20251
550.0 0.001818 529.71802 541.44830
537.0 0.001862 529.06812 541.81396
510.0 0.001961 528.41565 542.32208
567.0 0.001764 527.76074 543.00275
532.0 0.001880 527.10321 543.89337
554.0 0.001805 526.44360 545.04205
584.0 0.001712 525.78125 546.51202
543.0 0.001842 525.11688 548.38519
557.0 0.001795 524.45001 550.77386
563.0 0.001776 523.78094 553.82965
604.0 0.001656 523.10992 557.76837
580.0 0.001724 522.43677 562.92395
575.0 0.001739 521.76135 569.89075
616.0 0.001623 521.08386 579.96820
620.0 0.001613 520.40417 596.27051
603.0 0.001658 519.72290 625.99799
706.0 0.001416 519.03949 683.55084
867.0 0.001153 518.35437 791.72119
1085.0 0.000922 517.66730 975.96075
1308.0 0.000765 516.97827 1247.07642
1646.0 0.000608 516.28827 1575.85925
1985.0 0.000504 515.59595 1877.43701
2072.0 0.000483 514.90234 2036.10486
1973.0 0.000507 514.20685 1989.42957
1729.0 0.000578 513.51019 1809.42151
1598.0 0.000626 512.81201 1602.25696
1332.0 0.000751 512.11224 1402.42957
1077.0 0.000929 511.41129 1199.93506
972.0 0.001029 510.70889 1003.85809
804.0 0.001244 510.00531 840.56482
675.0 0.001481 509.30051 722.51239
628.0 0.001592 508.59467 647.25049
557.0 0.001795 507.88751 604.52789
595.0 0.001681 507.17947 582.94287
573.0 0.001745 506.47015 574.77911
603.0 0.001658 505.76025 577.04889
688.0 0.001453 505.04916 589.71735
726.0 0.001377 504.33759 612.51556
772.0 0.001295 503.62509 641.57977
845.0 0.001183 502.91174 667.65692
839.0 0.001192 502.19788 678.95062
858.0 0.001166 501.48318 670.06647
829.0 0.001206 500.76813 649.13629
776.0 0.001289 500.05231 626.44189
723.0 0.001383 499.33609 604.84607
684.0 0.001462 498.61963 583.09351
677.0 0.001477 497.90250 562.11829
631.0 0.001585 497.18546 544.54529
584.0 0.001712 496.46780 531.57684
518.0 0.001931 495.74994 522.95300
558.0 0.001792 495.03226 517.61066
521.0 0.001919 494.31415 514.33301
544.0 0.001838 493.59622 512.19843
567.0 0.001764 492.87808 510.67276
525.0 0.001905 492.16022 509.50443
520.0 0.001923 491.44235 508.58786
534.0 0.001873 490.72449 507.88031
519.0 0.001927 490.00714 507.36563
535.0 0.001869 489.28992 507.04077
548.0 0.001825 488.57285 506.91302
518.0 0.001931 487.85654 506.99911
535.0 0.001869 487.14041 507.32712
538.0 0.001859 486.42465 507.93698
527.0 0.001898 485.70966 508.88977
522.0 0.001916 484.99496 510.27969
531.0 0.001883 484.28094 512.27692
534.0 0.001873 483.56772 515.24207
499.0 0.002004 482.85519 519.97650
535.0 0.001869 482.14355 528.15320
551.0 0.001815 481.43225 542.70245
596.0 0.001678 480.72247 567.56506
655.0 0.001527 480.01318 606.06189
665.0 0.001504 479.30515 657.67218
743.0 0.001346 478.59793 714.72345
777.0 0.001287 477.89178 762.60791
726.0 0.001377 477.18695 788.72998
778.0 0.001285 476.48303 799.92346
782.0 0.001279 475.78052 824.18817
810.0 0.001235 475.07907 888.49158
851.0 0.001175 474.37878 1006.97876
1100.0 0.000909 473.68033 1178.73071
1273.0 0.000786 472.98285 1381.65295
1381.0 0.000724 472.28711 1554.69189
1441.0 0.000694 471.59271 1612.18176
1442.0 0.000693 470.89981 1536.80896
1542.0 0.000649 470.20850 1401.37451
1352.0 0.000740 469.51886 1264.52319
1120.0 0.000893 468.83093 1130.01770
961.0 0.001041 468.14456 986.50958
866.0 0.001155 467.46002 847.31738
742.0 0.001348 466.77728 731.34808
669.0 0.001495 466.09637 645.32184
578.0 0.001730 465.41736 587.19092
546.0 0.001832 464.74017 550.61200
515.0 0.001942 464.06509 528.33032
462.0 0.002165 463.39178 514.40631
500.0 0.002000 462.72070 505.00952
466.0 0.002146 462.05161 498.07883
491.0 0.002037 461.38486 492.60336
511.0 0.001957 460.71985 488.09332
480.0 0.002083 460.05728 484.28391
485.0 0.002062 459.39697 481.00668
494.0 0.002024 458.73877 478.14816
441.0 0.002268 458.08295 475.62238
486.0 0.002058 457.42944 473.36597
511.0 0.001957 456.77838 471.33008
476.0 0.002101 456.12964 469.47589
464.0 0.002155 455.48352 467.77396
438.0 0.002283 454.83966 466.19968
483.0 0.002070 454.19833 464.73370
447.0 0.002237 453.55963 463.36084
447.0 0.002237 452.92328 461.56686
438.0 0.002283 452.28989 460.35443
449.0 0.002227 451.65884 459.20154
439.0 0.002278 451.03046 458.10147
486.0 0.002058 450.40506 456.85806
428.0 0.002336 449.78214 455.84973
477.0 0.002096 449.16214 454.87830
452.0 0.002212 448.54462 453.93924
431.0 0.002320 447.93027 453.02997
507.0 0.001972 447.31854 452.14713
466.0 0.002146 446.70972 451.28833
469.0 0.002132 446.10382 450.45166
455.0 0.002198 445.50076 449.63480
446.0 0.002242 444.90070 448.83646
442.0 0.002262 444.30356 448.05533
442.0 0.002262 443.70947 447.28967
416.0 0.002404 443.11841 446.53879
444.0 0.002252 442.53018 445.80133
445.0 0.002247 441.94513 445.02521
421.0 0.002375 441.36328 444.31366
440.0 0.002273 440.78430 443.61310
461.0 0.002169 440.20859 442.92303
456.0 0.002193 439.63593 442.22327
393.0 0.002545 439.06635 441.55307
431.0 0.002320 438.50018 440.95099
443.0 0.002257 437.93695 440.29953
460.0 0.002174 437.37714 439.65646
434.0 0.002304 436.82034 439.02118
434.0 0.002304 436.26672 438.39319
432.0 0.002315 435.71658 437.79547
423.0 0.002364 435.16974 437.18234
458.0 0.002183 434.62616 436.57635
419.0 0.002387 434.08578 435.97681
427.0 0.002342 433.54846 435.38345
417.0 0.002398 433.01486 434.79666
427.0 0.002342 432.48441 434.21561
437.0 0.002288 431.95743 433.69446
455.0 0.002198 431.43359 433.12637
400.0 0.002500 430.91318 432.56403
451.0 0.002217 430.39627 432.00739
444.0 0.002252 429.88248 431.47604
400.0 0.002500 429.37247 430.93063
383.0 0.002611 428.86545 430.39069
405.0 0.002469 428.36206 429.85571
420.0 0.002381 427.86209 429.32611
413.0 0.002421 427.36539 428.80151
424.0 0.002358 426.87231 428.28198
408.0 0.002451 426.38235 427.76736
440.0 0.002273 425.89597 427.25769
412.0 0.002427 425.41309 426.75278
415.0 0.002410 424.93362 426.25299
403.0 0.002481 424.45743 425.75775
428.0 0.002336 423.98499 425.30548
411.0 0.002433 423.51566 424.82047
405.0 0.002469 423.04990 424.34039
401.0 0.002494 422.58755 423.86496
395.0 0.002532 422.12872 423.39438
417.0 0.002398 421.67313 422.94281
394.0 0.002538 421.22104 422.48172
425.0 0.002353 420.77237 422.02563
441.0 0.002268 420.32718 421.57404
425.0 0.002353 419.88550 421.12744
413.0 0.002421 419.44708 420.68536
418.0 0.002392 419.01212 420.24805
372.0 0.002688 418.58060 419.81580
400.0 0.002500 418.15244 419.38806
404.0 0.002475 417.72784 418.96536
406.0 0.002463 417.30634 418.54745
435.0 0.002299 416.88831 418.13464
381.0 0.002625 416.47363 417.72662
391.0 0.002558 416.06238 417.32379
364.0 0.002747 415.65466 416.92648
383.0 0.002611 415.25003 416.53403
412.0 0.002427 414.84888 416.14734
412.0 0.002427 414.45093 415.76584
420.0 0.002381 414.05643 415.39038
378.0 0.002646 413.66516 414.64755
408.0 0.002451 413.27707 414.29083
405.0 0.002469 412.89243 413.94037
444.0 0.002252 412.51099 413.59604
390.0 0.002564 412.13272 413.05008
385.0 0.002597 411.75772 412.72333
423.0 0.002364 411.38626 412.40387
444.0 0.002252 411.01755 412.09216
425.0 0.002353 410.65228 411.78882
393.0 0.002545 410.29019 411.49454
440.0 0.002273 409.93124 411.20999
427.0 0.002342 409.57526 410.93591
401.0 0.002494 409.22253 410.67389
415.0 0.002410 408.87292 410.42462
382.0 0.002618 408.52655 410.18997
395.0 0.002532 408.18311 409.97177
396.0 0.002525 407.84268 409.77213
420.0 0.002381 407.50534 409.59393
438.0 0.002283 407.17099 409.44073
382.0 0.002618 406.83969 409.31677
433.0 0.002309 406.51135 409.22760
418.0 0.002392 406.18597 409.18027
400.0 0.002500 405.86353 409.18393
398.0 0.002513 405.54407 409.25107
428.0 0.002336 405.22736 409.39777
430.0 0.002326 404.91367 409.64752
422.0 0.002370 404.60269 410.03531
404.0 0.002475 404.29471 410.62277
444.0 0.002252 403.98944 411.53677
422.0 0.002370 403.68701 413.06909
441.0 0.002268 403.38733 415.86127
426.0 0.002347 403.09024 421.15744
476.0 0.002101 402.79599 430.90329
522.0 0.001916 402.50436 447.30896
548.0 0.001825 402.21558 471.58478
626.0 0.001597 401.92917 501.97009
607.0 0.001647 401.64545 531.99994
638.0 0.001567 401.36444 551.13715
610.0 0.001639 401.08594 551.48315
681.0 0.001468 400.80991 537.05542
640.0 0.001563 400.53644 518.99060
591.0 0.001692 400.26538 503.49091
484.0 0.002066 399.99686 490.42804
471.0 0.002123 399.73087 478.82144
520.0 0.001923 399.46707 471.61966
512.0 0.001953 399.20572 473.34680
550.0 0.001818 398.94666 486.04327
465.0 0.002151 398.69003 507.37476
454.0 0.002203 398.43570 529.42847
471.0 0.002123 398.18341 539.96771
469.0 0.002132 397.93369 532.74579
478.0 0.002092 397.68591 515.36224
429.0 0.002331 397.44052 497.75494
446.0 0.002242 397.19717 483.01904
493.0 0.002028 396.95575 468.57092
490.0 0.002041 396.71667 452.70172
418.0 0.002392 396.47955 437.36530
424.0 0.002358 396.24460 424.69601
408.0 0.002451 396.01141 415.47653
412.0 0.002427 395.78043 409.44504
384.0 0.002604 395.55127 405.78674
355.0 0.002817 395.32407 403.60938
415.0 0.002410 395.09863 402.25034
451.0 0.002217 394.87509 401.32675
388.0 0.002577 394.65344 400.65350
391.0 0.002558 394.43365 400.15125
365.0 0.002740 394.21539 399.78683
398.0 0.002513 393.99905 399.54904
424.0 0.002358 393.78436 399.43964
379.0 0.002639 393.57138 399.47324
388.0 0.002577 393.35999 399.68640
405.0 0.002469 393.15024 400.16183
422.0 0.002370 392.94208 401.08405
412.0 0.002427 392.73532 402.83447
369.0 0.002710 392.53030 406.10672
443.0 0.002257 392.32660 411.93164
432.0 0.002315 392.12445 421.46490
469.0 0.002132 391.92365 435.41296
426.0 0.002347 391.72424 453.19611
456.0 0.002193 391.52628 471.94156
461.0 0.002169 391.32965 485.67053
520.0 0.001923 391.13428 488.22424
460.0 0.002174 390.94022 480.48935
475.0 0.002105 390.74725 469.05356
469.0 0.002132 390.55576 458.37131
404.0 0.002475 390.36520 448.54840
433.0 0.002309 390.17603 437.93597
447.0 0.002237 389.98785 426.75381
422.0 0.002370 389.80075 416.61703
367.0 0.002725 389.61456 408.51245
413.0 0.002421 389.42972 402.61267
419.0 0.002387 389.24579 398.62115
421.0 0.002375 389.06262 396.03775
355.0 0.002817 388.88052 394.36319
350.0 0.002857 388.69940 393.21848
405.0 0.002469 388.51904 392.36951
372.0 0.002688 388.33963 391.69003
419.0 0.002387 388.16107 391.11670
420.0 0.002381 387.98318 390.61700
397.0 0.002519 387.80609 390.17233
395.0 0.002532 387.62979 389.77032
406.0 0.002463 387.45422 389.40231
398.0 0.002513 387.27921 389.06195
445.0 0.002247 387.10495 388.74396
376.0 0.002660 386.93124 388.44492
410.0 0.002439 386.75824 388.16159
376.0 0.002660 386.58572 387.89127
373.0 0.002681 386.41370 387.63226
341.0 0.002933 386.24237 387.38303
379.0 0.002639 386.07132 387.14203
384.0 0.002604 385.90088 386.90854
387.0 0.002584 385.73074 386.68103
382.0 0.002618 385.56113 386.45923
398.0 0.002513 385.39163 386.24228
421.0 0.002375 385.22269 386.17850
364.0 0.002747 385.05411 385.97287
387.0 0.002584 384.88580 385.77063
364.0 0.002747 384.71780 385.57144
395.0 0.002532 384.54990 385.37521
388.0 0.002577 384.38235 385.23776
398.0 0.002513 384.21487 385.04758
351.0 0.002849 384.04764 384.85956
384.0 0.002604 383.88068 384.67355
387.0 0.002584 383.71365 384.48923
404.0 0.002475 383.54669 384.30658
386.0 0.002591 383.37985 384.22183
400.0 0.002500 383.21326 383.98453
408.0 0.002451 383.04651 383.80911
398.0 0.002513 382.87970 383.63504
343.0 0.002915 382.71307 383.46210
393.0 0.002545 382.54630 383.29022
364.0 0.002747 382.37939 383.13397
344.0 0.002907 382.21252 382.96512
348.0 0.002874 382.04535 382.79700
380.0 0.002632 381.87836 382.62973
385.0 0.002597 381.71109 382.46326
384.0 0.002604 381.54361 382.29742
370.0 0.002703 381.37579 382.13214
406.0 0.002463 381.20789 381.91415
390.0 0.002564 381.03983 381.75140
358.0 0.002793 380.87152 381.58911
380.0 0.002632 380.70288 381.42743
398.0 0.002513 380.53403 381.26611
370.0 0.002703 380.36469 381.08521
381.0 0.002625 380.19501 380.92542
430.0 0.002326 380.02515 380.76584
355.0 0.002817 379.85501 380.60696
394.0 0.002538 379.68427 380.44839
361.0 0.002770 379.51328 380.29041
402.0 0.002488 379.34180 380.13269
379.0 0.002639 379.16998 379.97552
397.0 0.002519 378.99765 379.81891
384.0 0.002604 378.82483 379.66278
363.0 0.002755 378.65155 379.50717
354.0 0.002825 378.47778 379.35211
366.0 0.002732 378.30359 379.19775
369.0 0.002710 378.12872 379.04401
409.0 0.002445 377.95343 378.89099
388.0 0.002577 377.77753 378.73843
390.0 0.002564 377.60110 378.58694
401.0 0.002494 377.42407 378.43607
378.0 0.002646 377.24649 378.28622
380.0 0.002632 377.06830 378.26019
391.0 0.002558 376.88950 378.11493
338.0 0.002959 376.71002 377.97061
368.0 0.002717 376.53003 377.82794
367.0 0.002725 376.34921 377.68680
374.0 0.002674 376.16782 377.59326
377.0 0.002653 375.98572 377.45633
381.0 0.002625 375.80286 377.32135
382.0 0.002618 375.61954 377.18851
362.0 0.002762 375.43533 377.05804
383.0 0.002611 375.25052 376.93033
406.0 0.002463 375.06506 376.80515
362.0 0.002762 374.87866 376.68311
362.0 0.002762 374.69174 376.56476
383.0 0.002611 374.50397 376.45004
355.0 0.002817 374.31549 376.34378
360.0 0.002778 374.12619 376.23798
377.0 0.002653 373.93607 376.13715
386.0 0.002591 373.74533 376.04218
386.0 0.002591 373.55374 375.95337
381.0 0.002625 373.36139 375.87338
411.0 0.002433 373.16840 375.79956
378.0 0.002646 372.97443 375.69604
366.0 0.002732 372.77969 375.64130
382.0 0.002618 372.58417 375.59775
388.0 0.002577 372.38782 375.56644
375.0 0.002667 372.19073 375.54913
376.0 0.002660 371.99274 375.53317
377.0 0.002653 371.79398 375.54987
388.0 0.002577 371.59448 375.58716
375.0 0.002667 371.39413 375.64801
399.0 0.002506 371.19290 375.73596
394.0 0.002538 370.99103 375.85516
396.0 0.002525 370.78806 376.01062
391.0 0.002558 370.58432 376.20880
351.0 0.002849 370.37982 376.45691
394.0 0.002538 370.17453 376.76434
374.0 0.002674 369.96844 377.14261
400.0 0.002500 369.76144 377.60565
405.0 0.002469 369.55371 378.17188
375.0 0.002667 369.34497 378.86481
359.0 0.002786 369.13559 379.71451
388.0 0.002577 368.92526 380.76108
394.0 0.002538 368.71426 382.05936
390.0 0.002564 368.50226 383.68976
410.0 0.002439 368.28961 385.78369
400.0 0.002500 368.07602 388.58389
436.0 0.002294 367.86172 392.58215
420.0 0.002381 367.64655 398.76666
402.0 0.002488 367.43069 408.95868
439.0 0.002278 367.21393 426.03302
427.0 0.002342 366.99634 453.60864
487.0 0.002053 366.77814 494.83627
566.0 0.001767 366.55908 550.25134
624.0 0.001603 366.33917 615.06543
703.0 0.001422 366.11850 675.85181
724.0 0.001381 365.89709 710.79535
749.0 0.001335 365.67484 706.49561
780.0 0.001282 365.45197 675.58759
695.0 0.001439 365.22827 640.47412
620.0 0.001613 365.00385 613.09930
628.0 0.001592 364.77866 593.08221
547.0 0.001828 364.55276 576.12823
593.0 0.001686 364.32623 564.46210
545.0 0.001835 364.09894 564.24481
572.0 0.001748 363.87085 577.18774
544.0 0.001838 363.64212 597.38416
566.0 0.001767 363.41260 611.19135
550.0 0.001818 363.18262 605.33270
628.0 0.001592 362.95187 581.61273
582.0 0.001718 362.72046 552.86536
528.0 0.001894 362.48834 527.86713
490.0 0.002041 362.25565 506.93594
463.0 0.002160 362.02231 485.58325
415.0 0.002410 361.78839 461.95801
448.0 0.002232 361.55392 438.83841
437.0 0.002288 361.31860 419.11172
416.0 0.002404 361.08282 403.88956
423.0 0.002364 360.84650 393.04147
378.0 0.002646 360.60959 385.76382
400.0 0.002500 360.37225 381.03055
343.0 0.002915 360.13406 377.92810
345.0 0.002899 359.89551 375.80713
366.0 0.002732 359.65649 374.27939
417.0 0.002398 359.41696 373.13751
353.0 0.002833 359.17688 372.27838
384.0 0.002604 358.93625 371.65167
358.0 0.002793 358.69522 371.23358
363.0 0.002755 358.45370 371.01669
378.0 0.002646 358.21182 371.00583
356.0 0.002809 357.96942 371.21918
350.0 0.002857 357.72659 371.68976
369.0 0.002710 357.48340 372.47354
394.0 0.002538 357.23981 373.66721
382.0 0.002618 356.99591 375.46295
389.0 0.002571 356.75159 378.28104
387.0 0.002584 356.50699 383.05289
432.0 0.002315 356.26190 391.67102
357.0 0.002801 356.01654 407.39499
399.0 0.002506 355.77081 434.66394
461.0 0.002169 355.52496 477.59583
523.0 0.001912 355.27869 537.01923
580.0 0.001724 355.03217 606.85980
596.0 0.001678 354.78546 670.56641
640.0 0.001563 354.53860 702.70239
645.0 0.001550 354.29144 689.97388
635.0 0.001575 354.04398 649.55212
660.0 0.001515 353.79633 606.76947
563.0 0.001776 353.54858 573.33911
535.0 0.001869 353.30075 545.93311
448.0 0.002232 353.05267 515.39160
452.0 0.002212 352.80450 480.34763
476.0 0.002101 352.55609 446.62112
480.0 0.002083 352.30783 418.97974
414.0 0.002415 352.05939 399.21179
388.0 0.002577 351.81079 386.91669
394.0 0.002538 351.56216 380.39789
366.0 0.002732 351.31369 377.49731
391.0 0.002558 351.06491 376.10159
371.0 0.002695 350.81638 374.45981
337.0 0.002967 350.56775 371.90317
401.0 0.002494 350.31909 368.96695
385.0 0.002597 350.07053 366.33023
374.0 0.002674 349.82214 364.20175
360.0 0.002778 349.57385 362.34323
365.0 0.002740 349.32544 360.43472
347.0 0.002882 349.07721 358.48007
367.0 0.002725 348.82922 356.66959
407.0 0.002457 348.58130 355.12988
355.0 0.002817 348.33365 353.89105
352.0 0.002841 348.08603 352.91812
361.0 0.002770 347.83871 352.14496
341.0 0.002933 347.59152 351.50458
333.0 0.003003 347.34460 350.94769
337.0 0.002967 347.09811 350.44302
376.0 0.002660 346.85156 349.97427
333.0 0.003003 346.60541 349.53210
345.0 0.002899 346.35959 349.11160
305.0 0.003279 346.11404 348.70901
358.0 0.002793 345.86887 348.32178
352.0 0.002841 345.62396 347.94772
375.0 0.002667 345.37952 347.58539
343.0 0.002915 345.13528 347.23322
324.0 0.003086 344.89160 346.89023
319.0 0.003135 344.64832 346.55521
362.0 0.002762 344.40543 346.22754
352.0 0.002841 344.16284 345.90628
325.0 0.003077 343.92090 345.59119
376.0 0.002660 343.67926 345.28137
363.0 0.002755 343.43820 344.97668
348.0 0.002874 343.19766 344.68774
352.0 0.002841 342.95758 344.39194
357.0 0.002801 342.71790 344.10010
327.0 0.003058 342.47913 343.81189
346.0 0.002890 342.24075 343.52722
343.0 0.002915 342.00278 343.24564
335.0 0.002985 341.76553 342.97134
383.0 0.002611 341.52887 342.69562
357.0 0.002801 341.29291 342.42267
326.0 0.003067 341.05762 342.15247
367.0 0.002725 340.82281 341.73520
344.0 0.002907 340.58881 341.47256
323.0 0.003096 340.35544 341.21188
320.0 0.003125 340.12277 340.95343
332.0 0.003012 339.89075 340.69675
364.0 0.002747 339.65955 340.38553
341.0 0.002933 339.42896 340.13367
356.0 0.002809 339.19919 339.88373
358.0 0.002793 338.97018 339.63553
337.0 0.002967 338.74203 339.38904
332.0 0.003012 338.51453 339.14420
357.0 0.002801 338.28796 338.80310
325.0 0.003077 338.06219 338.56320
284.0 0.00352 337.83716 338.32483
351.0 0.002849 337.61319 338.08807
356.0 0.002809 337.38986 337.85251
359.0 0.002786 337.16745 337.61847
337.0 0.002967 336.94592 337.34927
342.0 0.002924 336.72537 337.11874
349.0 0.002865 336.50577 336.88953
316.0 0.003165 336.28690 336.67764
326.0 0.003067 336.06912 336.45154
335.0 0.002985 335.85223 336.22656
326.0 0.003067 335.63617 336.00305
344.0 0.002907 335.42126 335.78094
315.0 0.003175 335.20724 335.56000
351.0 0.002849 334.99432 335.34647
352.0 0.002841 334.78226 335.12842
305.0 0.003279 334.57135 334.91156
326.0 0.003067 334.36145 334.69629
343.0 0.002915 334.15240 334.48209
311.0 0.003215 333.94461 334.26920
368.0 0.002717 333.73770 334.05774
347.0 0.002882 333.53204 333.84760
337.0 0.002967 333.32724 333.63882
343.0 0.002915 333.12375 333.43124
331.0 0.003021 332.92114 333.22510
304.0 0.003289 332.71976 333.02017
326.0 0.003067 332.51953 332.81686
342.0 0.002924 332.32037 332.61469
345.0 0.002899 332.12234 332.41379
316.0 0.003165 331.92542 332.21451
345.0 0.002899 331.72961 332.01642
327.0 0.003058 331.53503 331.81979
332.0 0.003012 331.34164 331.62460
311.0 0.003215 331.14935 331.43066
328.0 0.003049 330.95822 331.23816
326.0 0.003067 330.76831 331.04703
316.0 0.003165 330.57965 330.73474
371.0 0.002695 330.39221 330.54892
335.0 0.002985 330.20590 330.36435
329.0 0.003040 330.02069 330.18118
315.0 0.003175 329.83685 329.99945
322.0 0.003106 329.65417 329.77231
326.0 0.003067 329.47269 329.59433
318.0 0.003145 329.29266 329.41776
326.0 0.003067 329.11368 329.24252
328.0 0.003049 328.93600 329.06885
345.0 0.002899 328.75961 328.89664
341.0 0.002933 328.58450 328.72598
398.0 0.002513 328.41058 328.55670
358.0 0.002793 328.23792 328.38901
324.0 0.003086 328.06650 328.22284
323.0 0.003096 327.89639 328.05405
354.0 0.002825 327.72766 327.89127
323.0 0.003096 327.56006 327.73004
308.0 0.003247 327.39380 327.57053
309.0 0.003236 327.22888 327.41278
336.0 0.002976 327.06534 327.25507
301.0 0.003322 326.90292 327.10086
336.0 0.002976 326.74185 326.94861
322.0 0.003106 326.58215 326.79800
329.0 0.003040 326.42352 326.64954
346.0 0.002890 326.26645 326.50317
287.0 0.003484 326.11072 326.35883
324.0 0.003086 325.95612 326.21649
337.0 0.002967 325.80289 326.07660
325.0 0.003077 325.65094 325.93912
352.0 0.002841 325.50052 325.80405
356.0 0.002809 325.35126 325.67181
315.0 0.003175 325.20337 325.54233
354.0 0.002825 325.05667 325.41568
319.0 0.003135 324.91135 325.29245
337.0 0.002967 324.76733 325.17249
326.0 0.003067 324.62473 325.09299
328.0 0.003049 324.48337 324.98157
336.0 0.002976 324.34338 324.87469
341.0 0.002933 324.20459 324.77280
331.0 0.003021 324.06717 324.67645
300.0 0.003333 323.93115 324.58658
315.0 0.003175 323.79639 324.50403
332.0 0.003012 323.66302 324.44376
338.0 0.002959 323.53082 324.37946
326.0 0.003067 323.40002 324.32654
335.0 0.002985 323.27048 324.28748
322.0 0.003106 323.14224 324.26492
326.0 0.003067 323.01529 324.26288
323.0 0.003096 322.88977 324.28656
326.0 0.003067 322.76544 324.34421
314.0 0.003185 322.64240 324.44931
316.0 0.003165 322.52072 324.62793
334.0 0.002994 322.40021 324.92947
332.0 0.003012 322.28113 325.44733
338.0 0.002959 322.16327 326.33853
319.0 0.003135 322.04669 327.83029
319.0 0.003135 321.93130 330.18536
338.0 0.002959 321.81735 333.60785
324.0 0.003086 321.70456 338.09952
313.0 0.003195 321.59308 343.27100
302.0 0.003311 321.48276 348.11487
343.0 0.002915 321.37378 351.00851
337.0 0.002967 321.26608 350.82458
316.0 0.003165 321.15955 348.30518
360.0 0.002778 321.05438 345.18015
360.0 0.002778 320.95029 342.59665
343.0 0.002915 320.84750 340.76633
333.0 0.003003 320.74588 339.28134
351.0 0.002849 320.64554 337.87888
308.0 0.003247 320.54636 337.04330
355.0 0.002817 320.44836 337.62604
353.0 0.002833 320.35162 340.25842
347.0 0.002882 320.25607 345.04633
355.0 0.002817 320.16168 351.31616
385.0 0.002597 320.06848 357.33167
400.0 0.002500 319.97659 360.45435
345.0 0.002899 319.88574 359.04568
358.0 0.002793 319.79596 354.50595
410.0 0.002439 319.70743 349.46591
364.0 0.002747 319.62006 345.47647
342.0 0.002924 319.53375 342.61075
354.0 0.002825 319.44870 339.91687
359.0 0.002786 319.36465 336.62540
339.0 0.002950 319.28177 332.87177
327.0 0.003058 319.19998 329.33749
308.0 0.003247 319.11923 326.42593
311.0 0.003215 319.03970 324.25961
334.0 0.002994 318.96106 322.77142
327.0 0.003058 318.88351 321.81345
337.0 0.002967 318.80719 321.17648
347.0 0.002882 318.73193 320.73865
344.0 0.002907 318.65762 320.41284
319.0 0.003135 318.58441 320.15170
324.0 0.003086 318.51224 319.93134
325.0 0.003077 318.44104 319.73944
332.0 0.003012 318.37085 319.56891
306.0 0.003268 318.30164 319.41553
338.0 0.002959 318.23349 319.27603
323.0 0.003096 318.16629 319.14807
298.0 0.003356 318.10010 319.02982
302.0 0.003311 318.03479 318.92007
319.0 0.003135 317.97046 318.81741
313.0 0.003195 317.90714 318.72089
336.0 0.002976 317.84482 318.63013
309.0 0.003236 317.78317 318.54419
318.0 0.003145 317.72269 318.46277
324.0 0.003086 317.66299 318.38525
314.0 0.003185 317.60425 318.31155
337.0 0.002967 317.54633 318.24118
327.0 0.003058 317.48926 318.17398
324.0 0.003086 317.43329 318.10989
306.0 0.003268 317.37796 318.04837
326.0 0.003067 317.32355 317.99796
348.0 0.002874 317.26993 317.94189
327.0 0.003058 317.21719 317.88812
325.0 0.003077 317.16519 317.83694
344.0 0.002907 317.11407 317.78812
345.0 0.002899 317.06369 317.74149
318.0 0.003145 317.01413 317.70004
319.0 0.003135 316.96545 317.65796
315.0 0.003175 316.91742 317.61789
319.0 0.003135 316.87006 317.58002
342.0 0.002924 316.82355 317.54443
307.0 0.003257 316.77786 317.51102
328.0 0.003049 316.73288 317.47980
327.0 0.003058 316.68851 317.45096
281.0 0.00356 316.64478 317.42435
329.0 0.003040 316.60187 317.40021
327.0 0.003058 316.55957 317.37857
331.0 0.003021 316.51791 317.35956
317.0 0.003155 316.47708 317.34314
294.0 0.003401 316.43680 317.32962
295.0 0.003390 316.39709 317.31900
333.0 0.003003 316.35809 317.31158
307.0 0.003257 316.31964 317.30759
310.0 0.003226 316.28189 317.30704
309.0 0.003236 316.24457 317.31036
317.0 0.003155 316.20804 317.31775
297.0 0.003367 316.17206 317.32959
341.0 0.002933 316.13654 317.34647
335.0 0.002985 316.10159 317.36862
303.0 0.003300 316.06717 317.39639
327.0 0.003058 316.03339 317.43069
317.0 0.003155 315.99997 317.47223
331.0 0.003021 315.96719 317.52164
315.0 0.003175 315.93481 317.57999
316.0 0.003165 315.90302 317.64841
313.0 0.003195 315.87177 317.72824
288.0 0.003472 315.84088 317.82104
337.0 0.002967 315.81036 317.92883
328.0 0.003049 315.78052 318.05383
326.0 0.003067 315.75095 318.19885
320.0 0.003125 315.72186 318.36755
318.0 0.003145 315.69321 318.56381
330.0 0.003030 315.66495 318.79330
295.0 0.003390 315.63702 319.06253
307.0 0.003257 315.60956 319.38034
318.0 0.003145 315.58240 319.75775
343.0 0.002915 315.55569 320.20981
313.0 0.003195 315.52939 320.75876
304.0 0.003289 315.50330 321.43927
318.0 0.003145 315.47763 322.31079
332.0 0.003012 315.45233 323.47867
340.0 0.002941 315.42731 325.12857
312.0 0.003205 315.40262 327.56561
308.0 0.003247 315.37817 331.24371
344.0 0.002907 315.35406 336.74396
353.0 0.002833 315.33026 344.66440
341.0 0.002933 315.30667 355.41501
354.0 0.002825 315.28339 368.91306
371.0 0.002695 315.26028 384.16647
373.0 0.002681 315.23761 398.67380
419.0 0.002387 315.21494 408.32962
403.0 0.002481 315.19260 409.81870
389.0 0.002571 315.17062 404.16617
379.0 0.002639 315.14868 395.66776
362.0 0.002762 315.12708 387.93604
336.0 0.002976 315.10553 382.34402
376.0 0.002660 315.08429 378.44479
364.0 0.002747 315.06314 375.37357
359.0 0.002786 315.04218 373.65100
378.0 0.002646 315.02139 375.16895
389.0 0.002571 315.00079 381.51096
350.0 0.002857 314.98032 392.63617
335.0 0.002985 314.95999 406.30243
388.0 0.002577 314.93976 417.60541
408.0 0.002451 314.91974 420.45233
375.0 0.002667 314.89966 413.12076
370.0 0.002703 314.87991 400.49136
378.0 0.002646 314.86011 388.27078
353.0 0.002833 314.84039 379.21762
342.0 0.002924 314.82092 372.94635
364.0 0.002747 314.80136 366.97202
302.0 0.003311 314.78198 359.33508
351.0 0.002849 314.76263 350.52136
346.0 0.002890 314.74338 342.06091
327.0 0.003058 314.72406 334.97888
316.0 0.003165 314.70483 329.64316
368.0 0.002717 314.68585 325.95590
330.0 0.003030 314.66666 323.57593
344.0 0.002907 314.64764 322.11090
291.0 0.003436 314.62848 321.21875
337.0 0.002967 314.60953 320.70529
305.0 0.003279 314.59042 320.48059
318.0 0.003145 314.57153 320.53961
361.0 0.002770 314.55252 320.93411
337.0 0.002967 314.53342 321.74524
330.0 0.003030 314.51450 323.05093
321.0 0.003115 314.49524 324.86847
316.0 0.003165 314.47626 327.11209
339.0 0.002950 314.45718 329.49658
330.0 0.003030 314.43799 331.45248
337.0 0.002967 314.41885 332.27173
357.0 0.002801 314.39972 331.69730
342.0 0.002924 314.38040 330.23068
334.0 0.002994 314.36121 328.59326
305.0 0.003279 314.34174 327.20557
299.0 0.003344 314.32242 326.10599
348.0 0.002874 314.30298 325.07004
338.0 0.002959 314.28339 323.88141
342.0 0.002924 314.26385 322.57281
306.0 0.003268 314.24423 321.33972
307.0 0.003257 314.22433 320.34943
323.0 0.003096 314.20456 319.70468
322.0 0.003106 314.18463 319.48544
294.0 0.003401 314.16470 319.78046
358.0 0.002793 314.14465 320.69125
285.0 0.00351 314.12445 322.30475
326.0 0.003067 314.10425 324.63287
328.0 0.003049 314.08386 327.52740
340.0 0.002941 314.06342 330.56421
346.0 0.002890 314.04282 332.93707
324.0 0.003086 314.02213 333.71350
331.0 0.003021 314.00150 332.69565
349.0 0.002865 313.98062 330.67834
327.0 0.003058 313.95959 328.60767
354.0 0.002825 313.93857 326.96414
340.0 0.002941 313.91736 325.73013
349.0 0.002865 313.89612 324.55157
334.0 0.002994 313.87451 323.11566
329.0 0.003040 313.85294 321.47183
339.0 0.002950 313.83133 319.86404
361.0 0.002770 313.80948 318.47266
334.0 0.002994 313.78772 317.37268
342.0 0.002924 313.76556 316.55060
339.0 0.002950 313.74338 315.96732
319.0 0.003135 313.72107 315.56232
319.0 0.003135 313.69876 315.27826
315.0 0.003175 313.67621 315.07068
328.0 0.003049 313.65353 314.91159
327.0 0.003058 313.63080 314.78024
281.0 0.00356 313.60782 314.66830
316.0 0.003165 313.58484 314.57013
333.0 0.003003 313.56161 314.48267
302.0 0.003311 313.53839 314.40363
314.0 0.003185 313.51495 314.33133
338.0 0.002959 313.49152 314.26474
286.0 0.003497 313.46786 314.20297
315.0 0.003175 313.44397 314.14514
341.0 0.002933 313.42010 314.09073
298.0 0.003356 313.39612 314.03912
334.0 0.002994 313.37195 313.99017
299.0 0.003344 313.34763 313.94330
300.0 0.003333 313.32327 313.89856
317.0 0.003155 313.29883 313.85535
309.0 0.003236 313.27414 313.81384
297.0 0.003367 313.24951 313.77362
319.0 0.003135 313.22458 313.73462
285.0 0.00351 313.19980 313.69659
310.0 0.003226 313.17456 313.65973
328.0 0.003049 313.14938 313.62378
313.0 0.003195 313.12411 313.58862
341.0 0.002933 313.09875 313.55429
324.0 0.003086 313.07324 313.52066
334.0 0.002994 313.04764 313.48770
309.0 0.003236 313.02194 313.45529
318.0 0.003145 312.99603 313.42368
335.0 0.002985 312.97028 313.39261
331.0 0.003021 312.94424 313.36200
315.0 0.003175 312.91812 313.33203
288.0 0.003472 312.89200 313.30261
296.0 0.003378 312.86572 313.27365
324.0 0.003086 312.83945 313.24518
296.0 0.003378 312.81299 313.21738
300.0 0.003333 312.78650 313.19006
366.0 0.002732 312.75998 313.16321
293.0 0.003413 312.73343 313.13708
305.0 0.003279 312.70663 313.11145
312.0 0.003205 312.67984 313.08633
312.0 0.003205 312.65295 313.06195
292.0 0.003425 312.62607 313.03818
318.0 0.003145 312.59915 313.01520
340.0 0.002941 312.57214 312.99289
310.0 0.003226 312.54514 312.97147
328.0 0.003049 312.51791 312.95084
325.0 0.003077 312.49081 312.93118
309.0 0.003236 312.46371 312.91251
289.0 0.003460 312.43655 312.89514
272.0 0.00368 312.40921 312.87891
357.0 0.002801 312.38196 312.86398
342.0 0.002924 312.35464 312.85077
333.0 0.003003 312.32730 312.83920
319.0 0.003135 312.29993 312.82947
310.0 0.003226 312.27249 312.82193
343.0 0.002915 312.24527 312.81696
333.0 0.003003 312.21777 312.81482
295.0 0.003390 312.19043 312.81595
282.0 0.00355 312.16299 312.82080
309.0 0.003236 312.13553 312.82996
297.0 0.003367 312.10825 312.80750
295.0 0.003390 312.08078 312.82849
282.0 0.00355 312.05353 312.85663
299.0 0.003344 312.02609 312.89371
304.0 0.003289 311.99875 312.94153
324.0 0.003086 311.97150 313.00323
323.0 0.003096 311.94424 313.06894
319.0 0.003135 311.91696 313.17407
329.0 0.003040 311.88977 313.31647
305.0 0.003279 311.86270 313.51678
326.0 0.003067 311.83554 313.80746
318.0 0.003145 311.80850 314.23636
318.0 0.003145 311.78149 314.86469
305.0 0.003279 311.75455 315.75763
315.0 0.003175 311.72775 316.96661
330.0 0.003030 311.70102 318.50143
314.0 0.003185 311.67422 320.29517
346.0 0.002890 311.64746 322.14899
372.0 0.002688 311.62094 323.69498
319.0 0.003135 311.59442 324.53995
348.0 0.002874 311.56799 324.65573
340.0 0.002941 311.54166 324.51572
342.0 0.002924 311.51550 324.73428
331.0 0.003021 311.48932 325.73941
315.0 0.003175 311.46329 327.67447
346.0 0.002890 311.43735 330.40149
326.0 0.003067 311.41150 333.44318
366.0 0.002732 311.38577 336.15546
357.0 0.002801 311.36020 337.60022
330.0 0.003030 311.33472 337.01788
362.0 0.002762 311.30933 334.68869
344.0 0.002907 311.28415 331.72058
315.0 0.003175 311.25906 329.07288
334.0 0.002994 311.23413 327.11081
359.0 0.002786 311.20926 325.70840
335.0 0.002985 311.18466 324.41052
341.0 0.002933 311.16016 322.86295
335.0 0.002985 311.13580 321.14728
309.0 0.003236 311.11142 319.58798
331.0 0.003021 311.08740 318.44861
318.0 0.003145 311.06354 317.85248
340.0 0.002941 311.03973 317.81931
338.0 0.002959 311.01617 318.22870
350.0 0.002857 310.99274 318.83646
323.0 0.003096 310.96948 319.28772
291.0 0.003436 310.94641 319.31857
320.0 0.003125 310.92343 318.99109
307.0 0.003257 310.90079 318.79193
330.0 0.003030 310.87827 319.07095
326.0 0.003067 310.85590 320.03500
320.0 0.003125 310.83377 321.62314
299.0 0.003344 310.81180 323.54291
331.0 0.003021 310.79001 325.27295
316.0 0.003165 310.76852 326.15112
318.0 0.003145 310.74716 325.69360
309.0 0.003236 310.72595 324.11435
333.0 0.003003 310.70496 322.16891
337.0 0.002967 310.68420 320.47217
302.0 0.003311 310.66364 319.27744
344.0 0.002907 310.64334 318.49112
309.0 0.003236 310.62320 317.79095
334.0 0.002994 310.60336 316.89648
335.0 0.002985 310.58362 315.79993
295.0 0.003390 310.56415 314.68640
295.0 0.003390 310.54495 313.70358
305.0 0.003279 310.52591 312.91846
294.0 0.003401 310.50711 312.33810
322.0 0.003106 310.48849 311.93268
299.0 0.003344 310.47009 311.65909
318.0 0.003145 310.45206 311.46976
303.0 0.003300 310.43420 311.33325
335.0 0.002985 310.41653 311.22830
306.0 0.003268 310.39911 311.14307
333.0 0.003003 310.38199 311.07059
336.0 0.002976 310.36496 311.00760
331.0 0.003021 310.34833 310.95163
302.0 0.003311 310.33182 310.90161
326.0 0.003067 310.31549 310.85641
285.0 0.00351 310.29965 310.81516
284.0 0.00352 310.28378 310.77753
356.0 0.002809 310.26834 310.74274
295.0 0.003390 310.25302 310.71054
336.0 0.002976 310.23801 310.68073
330.0 0.003030 310.22324 310.65295
297.0 0.003367 310.20868 310.62692
280.0 0.00357 310.19431 310.60251
295.0 0.003390 310.18021 310.57993
309.0 0.003236 310.16644 310.55835
313.0 0.003195 310.15283 310.53815
291.0 0.003436 310.13947 310.51926
298.0 0.003356 310.12637 310.50137
304.0 0.003289 310.11356 310.48465
329.0 0.003040 310.10074 310.46884
305.0 0.003279 310.08850 310.45392
299.0 0.003344 310.07635 310.44003
300.0 0.003333 310.06430 310.42700
306.0 0.003268 310.05264 310.41495
313.0 0.003195 310.04114 310.40759
335.0 0.002985 310.02997 310.39713
298.0 0.003356 310.01889 310.38742
314.0 0.003185 310.00830 310.37860
318.0 0.003145 309.99771 310.37045
322.0 0.003106 309.98718 310.36307
311.0 0.003215 309.97720 310.35666
286.0 0.003497 309.96732 310.35254
300.0 0.003333 309.95770 310.34763
326.0 0.003067 309.94824 310.34354
279.0 0.00358 309.93893 310.34024
323.0 0.003096 309.92999 310.33789
310.0 0.003226 309.92120 310.33621
317.0 0.003155 309.91263 310.33560
300.0 0.003333 309.90430 310.33578
354.0 0.002825 309.89609 310.33691
302.0 0.003311 309.88806 310.33911
289.0 0.003460 309.88034 310.34238
331.0 0.003021 309.87274 310.34659
340.0 0.002941 309.86539 310.35208
292.0 0.003425 309.85809 310.35876
315.0 0.003175 309.85114 310.36652
303.0 0.003300 309.84427 310.37570
316.0 0.003165 309.83759 310.38647
300.0 0.003333 309.83112 310.39871
304.0 0.003289 309.82492 310.41245
296.0 0.003378 309.81882 310.42819
293.0 0.003413 309.81271 310.44562
319.0 0.003135 309.80688 310.46521
308.0 0.003247 309.80130 310.48724
316.0 0.003165 309.79568 310.51163
322.0 0.003106 309.79034 310.53882
311.0 0.003215 309.78516 310.56903
308.0 0.003247 309.78000 310.60251
305.0 0.003279 309.77509 310.63986
315.0 0.003175 309.77026 310.68124
310.0 0.003226 309.76556 310.72745
334.0 0.002994 309.76108 310.77905
325.0 0.003077 309.75647 310.83643
266.0 0.00376 309.75211 310.90073
327.0 0.003058 309.74792 310.97284
315.0 0.003175 309.74380 311.05402
319.0 0.003135 309.73978 311.14590
327.0 0.003058 309.73587 311.24991
335.0 0.002985 309.73193 311.36823
319.0 0.003135 309.72812 311.50366
330.0 0.003030 309.72437 311.65942
300.0 0.003333 309.72076 311.83972
334.0 0.002994 309.71716 312.04990
259.0 0.00386 309.71362 312.29678
310.0 0.003226 309.71017 312.58987
303.0 0.003300 309.70667 312.94269
328.0 0.003049 309.70334 313.37704
309.0 0.003236 309.69998 313.92972
324.0 0.003086 309.69653 314.66568
326.0 0.003067 309.69324 315.70032
323.0 0.003096 309.68997 317.22403
315.0 0.003175 309.68665 319.52283
305.0 0.003279 309.68335 322.97305
277.0 0.00361 309.67996 327.98499
350.0 0.002857 309.67673 334.91068
344.0 0.002907 309.67343 343.83951
352.0 0.002841 309.67007 354.38068
380.0 0.002632 309.66660 365.30853
366.0 0.002732 309.66324 374.34485
361.0 0.002770 309.65964 379.02350
366.0 0.002732 309.65619 378.74960
394.0 0.002538 309.65253 375.04282
378.0 0.002646 309.64893 369.63901
400.0 0.002500 309.64517 363.83731
359.0 0.002786 309.64133 358.57693
373.0 0.002681 309.63742 353.99438
327.0 0.003058 309.63339 349.46179
338.0 0.002959 309.62939 344.53696
326.0 0.003067 309.62512 339.39133
293.0 0.003413 309.62076 334.29059
362.0 0.002762 309.61633 329.44806
336.0 0.002976 309.61172 325.15060
323.0 0.003096 309.60699 321.62479
285.0 0.00351 309.60208 318.92538
313.0 0.003195 309.59705 316.96841
303.0 0.003300 309.59186 315.60941
299.0 0.003344 309.58655 314.69147
291.0 0.003436 309.58099 314.07617
319.0 0.003135 309.57523 313.66592
309.0 0.003236 309.56915 313.39139
293.0 0.003413 309.56317 313.21301
305.0 0.003279 309.55679 313.10962
297.0 0.003367 309.55026 313.07199
313.0 0.003195 309.54355 313.09906
295.0 0.003390 309.53653 313.19803
318.0 0.003145 309.52911 313.38596
343.0 0.002915 309.52170 313.69531
297.0 0.003367 309.51385 314.17874
315.0 0.003175 309.50592 314.91409
325.0 0.003077 309.49750 315.99832
331.0 0.003021 309.48904 317.53638
299.0 0.003344 309.48010 319.59839
339.0 0.002950 309.47092 322.21585
332.0 0.003012 309.46140 325.31491
332.0 0.003012 309.45169 328.65594
334.0 0.002994 309.44150 331.87445
360.0 0.002778 309.43109 334.81506
357.0 0.002801 309.42029 337.79477
353.0 0.002833 309.40918 341.24146
363.0 0.002755 309.39767 345.14352
362.0 0.002762 309.38589 348.76715
344.0 0.002907 309.37372 350.80298
323.0 0.003096 309.36108 350.22336
379.0 0.002639 309.34802 347.27081
379.0 0.002639 309.33472 343.22357
321.0 0.003115 309.32098 339.34842
333.0 0.003003 309.30679 336.33179
349.0 0.002865 309.29227 334.25803
326.0 0.003067 309.27716 332.76736
351.0 0.002849 309.26175 331.40408
322.0 0.003106 309.24585 330.02155
327.0 0.003058 309.22952 328.75565
324.0 0.003086 309.21265 327.64114
286.0 0.003497 309.19543 326.41702
312.0 0.003205 309.17767 324.75415
296.0 0.003378 309.15958 322.68265
313.0 0.003195 309.14084 320.58627
313.0 0.003195 309.12161 318.81323
335.0 0.002985 309.10196 317.51154
300.0 0.003333 309.08167 316.63495
305.0 0.003279 309.06094 315.98978
338.0 0.002959 309.03973 315.32806
284.0 0.00352 309.01797 314.52560
302.0 0.003311 308.99576 313.64209
312.0 0.003205 308.97275 312.79294
323.0 0.003096 308.94937 312.05545
331.0 0.003021 308.92538 311.45895
349.0 0.002865 308.90076 311.00113
301.0 0.003322 308.87570 310.65964
281.0 0.00356 308.84998 310.40540
309.0 0.003236 308.82373 310.21115
289.0 0.003460 308.79678 310.05573
305.0 0.003279 308.76932 309.92505
294.0 0.003401 308.74118 309.81097
299.0 0.003344 308.71240 309.70834
313.0 0.003195 308.68311 309.61423
314.0 0.003185 308.65314 309.52722
322.0 0.003106 308.62247 309.44577
295.0 0.003390 308.59125 309.36893
285.0 0.00351 308.55936 309.29581
299.0 0.003344 308.52679 309.22610
294.0 0.003401 308.49359 309.15918
324.0 0.003086 308.45956 309.09433
296.0 0.003378 308.42511 309.03171
299.0 0.003344 308.38977 308.97058
307.0 0.003257 308.35388 308.91110
288.0 0.003472 308.31729 308.85251
315.0 0.003175 308.27997 308.79520
332.0 0.003012 308.24182 308.73837
292.0 0.003425 308.20313 308.68250
323.0 0.003096 308.16367 308.62711
329.0 0.003040 308.12341 308.57211
325.0 0.003077 308.08264 308.51749
305.0 0.003279 308.04092 308.46304
303.0 0.003300 307.99869 308.40887
267.0 0.00375 307.95547 308.35486
318.0 0.003145 307.91159 308.30081
303.0 0.003300 307.86697 308.24677
308.0 0.003247 307.82159 308.19281
322.0 0.003106 307.77548 308.13861
325.0 0.003077 307.72870 308.08432
314.0 0.003185 307.68100 308.02982
301.0 0.003322 307.63248 307.97528
340.0 0.002941 307.58328 307.92044
291.0 0.003436 307.53333 307.86542
301.0 0.003322 307.48254 307.80997
294.0 0.003401 307.43097 307.75433
281.0 0.00356 307.37863 307.69852
318.0 0.003145 307.32544 307.64240
311.0 0.003215 307.27148 307.58591
325.0 0.003077 307.21667 307.52948
289.0 0.003460 307.16116 307.47238
281.0 0.00356 307.10471 307.41516
308.0 0.003247 307.04749 307.35785
291.0 0.003436 306.98950 307.30020
312.0 0.003205 306.93063 307.24258
297.0 0.003367 306.87097 307.18478
306.0 0.003268 306.81049 307.12683
304.0 0.003289 306.74924 307.06903
316.0 0.003165 306.68707 307.01114
336.0 0.002976 306.62411 306.95355
306.0 0.003268 306.56024 306.89636
311.0 0.003215 306.49557 306.84131
320.0 0.003125 306.43005 306.78549
312.0 0.003205 306.36371 306.73022
283.0 0.00353 306.29660 306.67657
318.0 0.003145 306.22852 306.62439
297.0 0.003367 306.15964 306.57440
335.0 0.002985 306.08994 306.52750
331.0 0.003021 306.01929 306.48459
346.0 0.002890 305.94788 306.44757
284.0 0.00352 305.87558 306.41971
327.0 0.003058 305.80252 306.40622
297.0 0.003367 305.72858 306.42206
307.0 0.003257 305.65372 306.47034
310.0 0.003226 305.57809 306.57730
330.0 0.003030 305.50146 306.74384
297.0 0.003367 305.42413 307.04175
290.0 0.003448 305.34589 307.46249
303.0 0.003300 305.26682 308.00165
317.0 0.003155 305.18680 308.61935
321.0 0.003115 305.10596 309.21957
326.0 0.003067 305.02429 309.64178
329.0 0.003040 304.94183 309.70874
311.0 0.003215 304.85843 309.42593
344.0 0.002907 304.77417 308.92749
311.0 0.003215 304.68903 308.39783
322.0 0.003106 304.60312 307.95316
328.0 0.003049 304.51639 307.62811
334.0 0.002994 304.42877 307.39032
331.0 0.003021 304.34036 307.16238
349.0 0.002865 304.25095 306.87808
295.0 0.003390 304.16077 306.53601
320.0 0.003125 304.06989 306.18393
308.0 0.003247 303.97803 305.87039
278.0 0.00360 303.88522 305.62723
320.0 0.003125 303.79172 305.47635
287.0 0.003484 303.69745 305.43900
324.0 0.003086 303.60226 305.54285
274.0 0.00365 303.50626 305.82816
277.0 0.00361 303.40948 306.34427
295.0 0.003390 303.31168 307.13904
288.0 0.003472 303.21326 308.25003
335.0 0.002985 303.11407 309.63147
323.0 0.003096 303.01385 311.18414
312.0 0.003205 302.91306 312.66107
344.0 0.002907 302.81137 313.66687
348.0 0.002874 302.70877 313.83493
324.0 0.003086 302.60547 313.15903
369.0 0.002710 302.50119 312.01749
321.0 0.003115 302.39633 310.84583
313.0 0.003195 302.29059 309.89999
332.0 0.003012 302.18417 309.26535
356.0 0.002809 302.07690 308.87308
288.0 0.003472 301.96893 308.56161
314.0 0.003185 301.85989 308.20279
309.0 0.003236 301.75040 307.81757
355.0 0.002817 301.64011 307.52106
296.0 0.003378 301.52896 307.38940
302.0 0.003311 301.41708 307.39694
330.0 0.003030 301.30450 307.40866
302.0 0.003311 301.19104 307.23026
275.0 0.00364 301.07706 306.76773
296.0 0.003378 300.96213 306.13150
310.0 0.003226 300.84671 305.52469
317.0 0.003155 300.73035 305.10480
297.0 0.003367 300.61331 304.95114
289.0 0.003460 300.49567 305.06949
309.0 0.003236 300.37732 305.39841
304.0 0.003289 300.25821 305.83755
316.0 0.003165 300.13828 306.30130
322.0 0.003106 300.01785 306.71252
324.0 0.003086 299.89670 306.92935
316.0 0.003165 299.77484 306.77206
315.0 0.003175 299.65234 306.19196
342.0 0.002924 299.52921 305.35245
358.0 0.002793 299.40540 304.46954
326.0 0.003067 299.28082 303.72659
314.0 0.003185 299.15573 303.16040
321.0 0.003115 299.02997 302.73743
318.0 0.003145 298.90366 302.36218
308.0 0.003247 298.77667 301.93088
351.0 0.002849 298.64896 301.40869
337.0 0.002967 298.52075 300.83966
305.0 0.003279 298.39200 300.27048
263.0 0.00380 298.26248 299.76758
305.0 0.003279 298.13254 299.33252
298.0 0.003356 298.00192 298.96649
268.0 0.00373 297.87085 298.66077
310.0 0.003226 297.73911 298.40421
331.0 0.003021 297.60681 298.18192
298.0 0.003356 297.47397 297.98352
279.0 0.00358 297.34067 297.80099
318.0 0.003145 297.20676 297.62875
274.0 0.00365 297.07236 297.46329
299.0 0.003344 296.93744 297.30243
288.0 0.003472 296.80206 297.14505
291.0 0.003436 296.66605 296.99063
312.0 0.003205 296.52963 296.83783
259.0 0.00386 296.39273 296.68683
285.0 0.00351 296.25531 296.53699
282.0 0.00355 296.11740 296.38834
302.0 0.003311 295.97919 296.24045
278.0 0.00360 295.84052 296.09341
244.0 0.00410 295.70120 295.94702
308.0 0.003247 295.56165 295.80093
297.0 0.003367 295.42151 295.65536
309.0 0.003236 295.28098 295.51001
290.0 0.003448 295.14014 295.36499
322.0 0.003106 294.99875 295.22025
290.0 0.003448 294.85718 295.07568
274.0 0.00365 294.71518 294.93112
291.0 0.003436 294.57263 294.78690
289.0 0.003460 294.42993 294.64267
271.0 0.00369 294.28687 294.49857
271.0 0.00369 294.14331 294.35431
298.0 0.003356 293.99942 294.21048
303.0 0.003300 293.85541 294.06653
314.0 0.003185 293.71082 293.92279
302.0 0.003311 293.56604 293.77902
289.0 0.003460 293.42102 293.63547
275.0 0.00364 293.27557 293.49188
304.0 0.003289 293.12991 293.34848
330.0 0.003030 292.98407 293.20535
292.0 0.003425 292.83780 293.06226
311.0 0.003215 292.69141 292.91928
286.0 0.003497 292.54462 292.77655
294.0 0.003401 292.39764 292.63409
265.0 0.00377 292.25058 292.49191
275.0 0.00364 292.10312 292.35007
323.0 0.003096 291.95560 292.20862
323.0 0.003096 291.80765 292.06754
283.0 0.00353 291.65970 291.92685
314.0 0.003185 291.51144 291.78674
259.0 0.00386 291.36307 291.64725
290.0 0.003448 291.21460 291.50839
296.0 0.003378 291.06595 291.37042
279.0 0.00358 290.91711 291.23322
281.0 0.00356 290.76810 291.09705
289.0 0.003460 290.61899 290.96207
259.0 0.00386 290.46976 290.82822
295.0 0.003390 290.32037 290.69586
306.0 0.003268 290.17102 290.56549
277.0 0.00361 290.02142 290.43680
268.0 0.00373 289.87186 290.31039
299.0 0.003344 289.72211 290.18665
291.0 0.003436 289.57224 290.06577
308.0 0.003247 289.42249 289.94858
302.0 0.003311 289.27258 289.83557
268.0 0.00373 289.12268 289.72818
271.0 0.00369 288.97263 289.62598
285.0 0.00351 288.82260 289.53104
265.0 0.00377 288.67267 289.44495
299.0 0.003344 288.52264 289.37021
275.0 0.00364 288.37271 289.31012
303.0 0.003300 288.22256 289.27066
291.0 0.003436 288.07260 289.26074
304.0 0.003289 287.92264 289.29562
301.0 0.003322 287.77274 289.39767
285.0 0.00351 287.62280 289.59985
295.0 0.003390 287.47287 289.94281
292.0 0.003425 287.32315 290.48041
291.0 0.003436 287.17349 291.25836
271.0 0.00369 287.02386 292.30942
261.0 0.00383 286.87424 293.63376
288.0 0.003472 286.72467 295.16953
286.0 0.003497 286.57532 296.75732
273.0 0.00366 286.42603 298.10016
264.0 0.00379 286.27701 298.81693
279.0 0.00358 286.12796 298.66791
301.0 0.003322 285.97891 297.78058
275.0 0.00364 285.83008 296.54123
299.0 0.003344 285.68152 295.31390
308.0 0.003247 285.53305 294.30109
297.0 0.003367 285.38470 293.54550
294.0 0.003401 285.23645 292.96130
300.0 0.003333 285.08847 292.38223
289.0 0.003460 284.94061 291.66946
296.0 0.003378 284.79312 290.81357
301.0 0.003322 284.64566 289.91217
299.0 0.003344 284.49829 289.06375
283.0 0.00353 284.35129 288.33438
288.0 0.003472 284.20441 287.75229
305.0 0.003279 284.05783 287.32565
271.0 0.00369 283.91138 287.04990
267.0 0.00375 283.76523 286.93887
278.0 0.00360 283.61935 287.00549
268.0 0.00373 283.47354 287.29382
283.0 0.00353 283.32819 287.87872
310.0 0.003226 283.18292 288.87161
296.0 0.003378 283.03802 290.40390
305.0 0.003279 282.89337 292.59518
306.0 0.003268 282.74899 295.51379
270.0 0.00370 282.60492 299.10663
326.0 0.003067 282.46109 303.12378
290.0 0.003448 282.31754 307.00586
314.0 0.003185 282.17419 309.84088
293.0 0.003413 282.03134 310.69806
334.0 0.002994 281.88882 309.37265
296.0 0.003378 281.74637 306.62885
312.0 0.003205 281.60437 303.52859
308.0 0.003247 281.46265 300.82230
316.0 0.003165 281.32138 298.82462
277.0 0.00361 281.18030 297.47885
290.0 0.003448 281.03961 296.43167
300.0 0.003333 280.89908 295.20483
307.0 0.003257 280.75909 293.52365
308.0 0.003247 280.61942 291.48965
299.0 0.003344 280.48010 289.38617
260.0 0.00385 280.34113 287.44141
330.0 0.003030 280.20242 285.77347
276.0 0.00362 280.06415 284.41779
295.0 0.003390 279.92627 283.35883
273.0 0.00366 279.78879 282.55255
279.0 0.00358 279.65155 281.94397
307.0 0.003257 279.51474 281.48209
252.0 0.00397 279.37833 281.12756
256.0 0.00391 279.24222 280.85574
265.0 0.00377 279.10666 280.65543
261.0 0.00383 278.97128 280.52542
275.0 0.00364 278.83643 280.46948
301.0 0.003322 278.70200 280.49161
306.0 0.003268 278.56784 280.57834
278.0 0.00360 278.43420 280.70767
275.0 0.00364 278.30087 280.82877
249.0 0.00402 278.16797 280.86230
274.0 0.00365 278.03540 280.73370
301.0 0.003322 277.90335 280.43784
285.0 0.00351 277.77158 280.04654
280.0 0.00357 277.64032 279.64716
276.0 0.00362 277.50943 279.29367
257.0 0.00389 277.37894 279.00781
285.0 0.00351 277.24887 278.78098
277.0 0.00361 277.11935 278.58011
272.0 0.00368 276.99002 278.36337
265.0 0.00377 276.86121 278.10745
301.0 0.003322 276.73273 277.81961
264.0 0.00379 276.60486 277.52979
248.0 0.00403 276.47720 277.25403
267.0 0.00375 276.35007 277.00171
292.0 0.003425 276.22330 276.77560
268.0 0.00373 276.09702 276.57407
316.0 0.003165 275.97110 276.39276
268.0 0.00373 275.84570 276.22650
276.0 0.00362 275.72055 276.07089
286.0 0.003497 275.59589 275.92261
282.0 0.00355 275.47171 275.77905
289.0 0.003460 275.34784 275.63913
295.0 0.003390 275.22455 275.50174
276.0 0.00362 275.10147 275.36844
275.0 0.00364 274.97894 275.23489
305.0 0.003279 274.85684 275.10291
283.0 0.00353 274.73511 274.97241
268.0 0.00373 274.61380 274.84317
257.0 0.00389 274.49295 274.71494
289.0 0.003460 274.37247 274.58789
274.0 0.00365 274.25232 274.46185
287.0 0.003484 274.13263 274.33667
257.0 0.00389 274.01337 274.21323
253.0 0.00395 273.89450 274.08981
271.0 0.00369 273.77612 273.96738
293.0 0.003413 273.65808 273.84564
276.0 0.00362 273.54044 273.72488
297.0 0.003367 273.42319 273.60464
277.0 0.00361 273.30634 273.48517
307.0 0.003257 273.18991 273.36636
304.0 0.003289 273.07382 273.24850
274.0 0.00365 272.95807 273.13126
306.0 0.003268 272.84293 273.01459
251.0 0.00398 272.72800 272.89877
256.0 0.00391 272.61340 272.78357
261.0 0.00383 272.49927 272.66910
240.0 0.00417 272.38544 272.55530
258.0 0.00388 272.27213 272.44229
262.0 0.00382 272.15918 272.33011
290.0 0.003448 272.04651 272.21841
274.0 0.00365 271.93423 272.10767
262.0 0.00382 271.82236 272.00357
305.0 0.003279 271.71078 271.89459
258.0 0.00388 271.59955 271.78635
276.0 0.00362 271.48871 271.67908
260.0 0.00385 271.37820 271.57278
265.0 0.00377 271.26813 271.46765
275.0 0.00364 271.15829 271.36340
309.0 0.003236 271.04883 271.26077
275.0 0.00364 270.93970 271.15945
275.0 0.00364 270.83090 271.06189
310.0 0.003226 270.72244 270.96442
264.0 0.00379 270.61438 270.86905
285.0 0.00351 270.50647 270.77692
254.0 0.00394 270.39908 270.68933
295.0 0.003390 270.29181 270.60822
254.0 0.00394 270.18497 270.53714
291.0 0.003436 270.07825 270.48132
278.0 0.00360 269.97195 270.44733
253.0 0.00395 269.86594 270.44244
260.0 0.00385 269.76022 270.47372
280.0 0.00357 269.65485 270.54224
271.0 0.00369 269.54971 270.64359
288.0 0.003472 269.44485 270.76114
269.0 0.00372 269.34030 270.86215
268.0 0.00373 269.23605 270.89963
267.0 0.00375 269.13187 270.83862
298.0 0.003356 269.02817 270.69058
257.0 0.00389 268.92462 270.50787
257.0 0.00389 268.82126 270.34854
249.0 0.00402 268.71823 270.25565
279.0 0.00358 268.61545 270.26126
263.0 0.00380 268.51285 270.38754
270.0 0.00370 268.41058 270.64792
242.0 0.00413 268.30841 271.04633
269.0 0.00372 268.20651 271.58328
276.0 0.00362 268.10486 272.24878
291.0 0.003436 268.00336 272.99200
298.0 0.003356 267.90210 273.69278
277.0 0.00361 267.80106 274.15347
282.0 0.00355 267.70029 274.19342
281.0 0.00356 267.59955 273.81183
307.0 0.003257 267.49915 273.20251
295.0 0.003390 267.39877 272.59201
240.0 0.00417 267.29865 272.12555
293.0 0.003413 267.19864 271.84915
289.0 0.003460 267.09894 271.71994
280.0 0.00357 266.99927 271.62039
255.0 0.00392 266.89987 271.40405
258.0 0.00388 266.80051 270.98685
262.0 0.00382 266.70132 270.40750
249.0 0.00402 266.60236 269.77078
274.0 0.00365 266.50342 269.16653
268.0 0.00373 266.40469 268.64371
279.0 0.00358 266.30606 268.21490
274.0 0.00365 266.20752 267.86768
278.0 0.00360 266.10922 267.57367
289.0 0.003460 266.01083 267.30621
278.0 0.00360 265.91275 267.05270
257.0 0.00389 265.81458 266.81351
282.0 0.00355 265.71677 266.59286
270.0 0.00370 265.61874 266.39310
288.0 0.003472 265.52112 266.21457
311.0 0.003215 265.42331 266.05591
272.0 0.00368 265.32565 265.91556
243.0 0.00412 265.22806 265.79117
276.0 0.00362 265.13052 265.68112
277.0 0.00361 265.03320 265.58377
255.0 0.00392 264.93591 265.49887
242.0 0.00413 264.83844 265.42841
242.0 0.00413 264.74115 265.37613
256.0 0.00391 264.64395 265.35056
289.0 0.003460 264.54678 265.36563
309.0 0.003236 264.44968 265.44260
223.0 0.00448 264.35266 265.60892
274.0 0.00365 264.25540 265.88925
278.0 0.00360 264.15839 266.30872
269.0 0.00372 264.06137 266.89304
281.0 0.00356 263.96439 267.60901
268.0 0.00373 263.86731 268.38617
292.0 0.003425 263.77029 269.08578
259.0 0.00386 263.67322 269.50464
286.0 0.003497 263.57632 269.47424
223.0 0.00448 263.47925 269.00806
288.0 0.003472 263.38223 268.29398
241.0 0.00415 263.28525 267.55591
259.0 0.00386 263.18805 266.93033
277.0 0.00361 263.09109 266.47342
237.0 0.00422 262.99387 266.17374
265.0 0.00377 262.89679 265.95944
281.0 0.00356 262.79962 265.72479
268.0 0.00373 262.70248 265.38943
272.0 0.00368 262.60522 264.95233
283.0 0.00353 262.50797 264.46942
246.0 0.00407 262.41058 263.99771
265.0 0.00377 262.31323 263.57248
254.0 0.00394 262.21567 263.20911
291.0 0.003436 262.11826 262.90829
238.0 0.00420 262.02069 262.66272
262.0 0.00382 261.92303 262.46097
268.0 0.00373 261.82535 262.29129
275.0 0.00364 261.72766 262.14359
268.0 0.00373 261.63000 262.01010
241.0 0.00415 261.53198 261.88586
230.0 0.00435 261.43405 261.76782
278.0 0.00360 261.33597 261.65430
268.0 0.00373 261.23792 261.54404
236.0 0.00424 261.13965 261.43628
240.0 0.00417 261.04135 261.33066
268.0 0.00373 260.94312 261.22696
263.0 0.00380 260.84454 261.12482
261.0 0.00383 260.74600 261.02417
262.0 0.00382 260.64743 260.92484
275.0 0.00364 260.54868 260.82672
238.0 0.00420 260.44983 260.72983
273.0 0.00366 260.35095 260.63416
303.0 0.003300 260.25189 260.53989
232.0 0.00431 260.15265 260.44650
271.0 0.00369 260.05356 260.35437
270.0 0.00370 259.95425 260.26343
280.0 0.00357 259.85480 260.17383
284.0 0.00352 259.75531 260.08588
254.0 0.00394 259.65564 259.99924
262.0 0.00382 259.55588 259.91449
267.0 0.00375 259.45602 259.83167
248.0 0.00403 259.35605 259.75122
274.0 0.00365 259.25598 259.67322
252.0 0.00397 259.15579 259.59811
271.0 0.00369 259.05545 259.52640
266.0 0.00376 258.95508 259.45859
292.0 0.003425 258.85461 259.39563
251.0 0.00398 258.75403 259.33829
295.0 0.003390 258.65320 259.28833
248.0 0.00403 258.55234 259.24759
281.0 0.00356 258.45142 259.21939
249.0 0.00402 258.35028 259.20853
257.0 0.00389 258.24930 259.22192
280.0 0.00357 258.14801 259.26984
263.0 0.00380 258.04648 259.36554
257.0 0.00389 257.94501 259.52576
254.0 0.00394 257.84341 259.76813
262.0 0.00382 257.74173 260.10965
284.0 0.00352 257.63986 260.56335
246.0 0.00407 257.53796 261.13379
255.0 0.00392 257.43594 261.81012
271.0 0.00369 257.33377 262.55740
267.0 0.00375 257.23163 263.30780
263.0 0.00380 257.12927 263.97800
248.0 0.00403 257.02686 264.53183
267.0 0.00375 256.92426 265.04385
281.0 0.00356 256.82166 265.67026
246.0 0.00407 256.71896 266.54938
242.0 0.00413 256.61621 267.72751
270.0 0.00370 256.51324 269.12079
297.0 0.003367 256.41022 270.48444
258.0 0.00388 256.30716 271.42010
274.0 0.00365 256.20404 271.53134
279.0 0.00358 256.10083 270.71304
268.0 0.00373 255.99748 269.24579
257.0 0.00389 255.89410 267.56479
263.0 0.00380 255.79062 266.01208
283.0 0.00353 255.68712 264.76627
264.0 0.00379 255.58342 263.86176
233.0 0.00429 255.47977 263.21579
250.0 0.00400 255.37610 262.65778
278.0 0.00360 255.27231 262.00653
265.0 0.00377 255.16847 261.18240
259.0 0.00386 255.06456 260.23816
255.0 0.00392 254.96066 259.27890
245.0 0.00408 254.85658 258.38672
265.0 0.00377 254.75256 257.60400
269.0 0.00372 254.64844 256.94519
269.0 0.00372 254.54443 256.40616
240.0 0.00417 254.44022 255.97267
222.0 0.00450 254.33597 255.62518
247.0 0.00405 254.23175 255.34340
258.0 0.00388 254.12759 255.10939
236.0 0.00424 254.02330 254.90881
253.0 0.00395 253.91904 254.73181
245.0 0.00408 253.81471 254.57137
253.0 0.00395 253.71048 254.42377
268.0 0.00373 253.60616 254.28734
254.0 0.00394 253.50189 254.16205
272.0 0.00368 253.39761 254.04904
257.0 0.00389 253.29330 253.95061
252.0 0.00397 253.18904 253.87015
254.0 0.00394 253.08481 253.81145
219.0 0.00457 252.98059 253.77863
226.0 0.00442 252.87639 253.77489
249.0 0.00402 252.77220 253.80182
246.0 0.00407 252.66801 253.85635
276.0 0.00362 252.56400 253.92970
282.0 0.00355 252.45995 254.00279
260.0 0.00385 252.35596 254.04445
223.0 0.00448 252.25201 254.01917
282.0 0.00355 252.14816 253.90811
248.0 0.00403 252.04433 253.72592
256.0 0.00391 251.94058 253.50990
288.0 0.003472 251.83694 253.29738
226.0 0.00442 251.73335 253.11394
252.0 0.00397 251.62984 252.97263
278.0 0.00360 251.52641 252.87762
222.0 0.00450 251.42303 252.82550
248.0 0.00403 251.31987 252.80952
254.0 0.00394 251.21674 252.82715
257.0 0.00389 251.11369 252.88464
266.0 0.00376 251.01082 252.99284
272.0 0.00368 250.90805 253.15305
262.0 0.00382 250.80539 253.34673
225.0 0.00444 250.70284 253.52737
278.0 0.00360 250.60048 253.62102
265.0 0.00377 250.49821 253.55595
229.0 0.00437 250.39610 253.31554
251.0 0.00398 250.29422 252.95436
268.0 0.00373 250.19235 252.55544
271.0 0.00369 250.09073 252.18329
249.0 0.00402 249.98926 251.87186
252.0 0.00397 249.88800 251.62811
266.0 0.00376 249.78683 251.43710
278.0 0.00360 249.68587 251.26540
251.0 0.00398 249.58508 251.07463
250.0 0.00400 249.48456 250.84256
261.0 0.00383 249.38419 250.57506
238.0 0.00420 249.28404 250.29581
246.0 0.00407 249.18411 250.02452
228.0 0.00439 249.08438 249.77341
243.0 0.00412 248.98483 249.54758
246.0 0.00407 248.88554 249.34731
262.0 0.00382 248.78648 249.17024
259.0 0.00386 248.68764 249.01265
224.0 0.00446 248.58900 248.87019
257.0 0.00389 248.49069 248.73322
250.0 0.00400 248.39259 248.61003
233.0 0.00429 248.29480 248.49232
252.0 0.00397 248.19717 248.37863
230.0 0.00435 248.09985 248.26779
252.0 0.00397 248.00282 248.15923
252.0 0.00397 247.90611 248.05246
254.0 0.00394 247.80959 247.94698
252.0 0.00397 247.71336 247.84290
254.0 0.00394 247.61745 247.73985
225.0 0.00444 247.52182 247.63791
250.0 0.00400 247.42648 247.53683
253.0 0.00395 247.33145 247.43658
242.0 0.00413 247.23674 247.33780
253.0 0.00395 247.14229 247.23904
246.0 0.00407 247.04826 247.14093
250.0 0.00400 246.95450 247.04349
239.0 0.00418 246.86108 246.94662
260.0 0.00385 246.76791 246.85040
257.0 0.00389 246.67519 246.75479
229.0 0.00437 246.58273 246.65962
235.0 0.00426 246.49066 246.56506
245.0 0.00408 246.39893 246.47089
224.0 0.00446 246.30754 246.37766
238.0 0.00420 246.21649 246.28452
237.0 0.00422 246.12585 246.19200
229.0 0.00437 246.03552 246.09987
271.0 0.00369 245.94550 246.00824
217.0 0.00461 245.85597 245.91708
227.0 0.00441 245.76686 245.82646
255.0 0.00392 245.67796 245.73631
257.0 0.00389 245.58954 245.64658
248.0 0.00403 245.50150 245.55733
249.0 0.00402 245.41389 245.46854
258.0 0.00388 245.32652 245.38023
266.0 0.00376 245.23969 245.29243
269.0 0.00372 245.15320 245.20499
282.0 0.00355 245.06711 245.11815
237.0 0.00422 244.98152 245.03168
244.0 0.00410 244.89618 244.94572
254.0 0.00394 244.81137 244.86021
250.0 0.00400 244.72693 244.77524
244.0 0.00410 244.64293 244.69144
284.0 0.00352 244.55927 244.60742
240.0 0.00417 244.47607 244.52382
246.0 0.00407 244.39333 244.44099
225.0 0.00444 244.31107 244.35841
265.0 0.00377 244.22911 244.27644
222.0 0.00450 244.14761 244.19487
271.0 0.00369 244.06657 244.11382
254.0 0.00394 243.98599 244.03334
226.0 0.00442 243.90581 243.95341
223.0 0.00448 243.82608 243.87425
242.0 0.00413 243.74678 243.79539
243.0 0.00412 243.66789 243.71712
255.0 0.00392 243.58951 243.63943
250.0 0.00400 243.51147 243.56244
230.0 0.00435 243.43404 243.48587
232.0 0.00431 243.35696 243.41043
258.0 0.00388 243.28024 243.33537
236.0 0.00424 243.20406 243.26097
245.0 0.00408 243.12836 243.18735
244.0 0.00410 243.05304 243.11462
253.0 0.00395 242.97823 243.04283
252.0 0.00397 242.90384 242.97217
242.0 0.00413 242.82993 242.90289
231.0 0.00433 242.75642 242.83522
283.0 0.00353 242.68341 242.76984
220.0 0.00455 242.61081 242.70760
277.0 0.00361 242.53862 242.64922
256.0 0.00391 242.46704 242.59625
246.0 0.00407 242.39572 242.55023
237.0 0.00422 242.32500 242.51294
243.0 0.00412 242.25461 242.48569
242.0 0.00413 242.18477 242.46925
230.0 0.00435 242.11533 242.46330
252.0 0.00397 242.04626 242.46545
253.0 0.00395 241.97778 242.46988
203.0 0.00493 241.90968 242.46707
243.0 0.00412 241.84206 242.44426
232.0 0.00431 241.77484 242.39124
233.0 0.00429 241.70808 242.30832
211.0 0.00474 241.64178 242.20689
248.0 0.00403 241.57588 242.10184
228.0 0.00439 241.51047 242.00505
258.0 0.00388 241.44543 241.92291
273.0 0.00366 241.38089 241.85695
261.0 0.00383 241.31674 241.80403
261.0 0.00383 241.25304 241.75653
251.0 0.00398 241.18980 241.70326
242.0 0.00413 241.12692 241.63373
232.0 0.00431 241.06453 241.54085
266.0 0.00376 241.00259 241.43263
221.0 0.00452 240.94095 241.31638
238.0 0.00420 240.87978 241.20145
247.0 0.00405 240.81906 241.09413
255.0 0.00392 240.75871 240.99702
224.0 0.00446 240.69879 240.91061
227.0 0.00441 240.63922 240.83292
246.0 0.00407 240.58014 240.76044
248.0 0.00403 240.52147 240.68414
218.0 0.00459 240.46313 240.61166
252.0 0.00397 240.40520 240.53746
251.0 0.00398 240.34769 240.46298
235.0 0.00426 240.29053 240.38982
221.0 0.00452 240.23383 240.31883
246.0 0.00407 240.17741 240.25067
249.0 0.00402 240.12135 240.18513
232.0 0.00431 240.06569 240.12233
223.0 0.00448 240.01045 240.06151
243.0 0.00412 239.95557 240.00235
267.0 0.00375 239.90100 239.94463
238.0 0.00420 239.84673 239.88805
220.0 0.00455 239.79292 239.83229
249.0 0.00402 239.73944 239.77727
264.0 0.00379 239.68626 239.72293
244.0 0.00410 239.63351 239.66908
243.0 0.00412 239.58099 239.61568
246.0 0.00407 239.52885 239.56288
251.0 0.00398 239.47704 239.51057
276.0 0.00362 239.42557 239.45871
276.0 0.00362 239.37433 239.40712
232.0 0.00431 239.32341 239.35495
239.0 0.00418 239.27284 239.30423
240.0 0.00417 239.22264 239.25392
232.0 0.00431 239.17258 239.20401
235.0 0.00426 239.12294 239.15442
246.0 0.00407 239.07353 239.10526
254.0 0.00394 239.02444 239.05641
253.0 0.00395 238.97548 239.00815
254.0 0.00394 238.92696 238.96008
227.0 0.00441 238.87866 238.91231
249.0 0.00402 238.83064 238.86516
224.0 0.00446 238.78284 238.81804
239.0 0.00418 238.73518 238.77132
235.0 0.00426 238.68791 238.72496
224.0 0.00446 238.64087 238.67897
220.0 0.00455 238.59404 238.63327
269.0 0.00372 238.54741 238.58737
234.0 0.00427 238.50099 238.54248
227.0 0.00441 238.45480 238.49808
230.0 0.00435 238.40889 238.45390
243.0 0.00412 238.36304 238.41026
270.0 0.00370 238.31752 238.36708
230.0 0.00435 238.27216 238.32426
262.0 0.00382 238.22699 238.28203
207.0 0.00483 238.18198 238.24033
235.0 0.00426 238.13716 238.19905
236.0 0.00424 238.09250 238.15871
235.0 0.00426 238.04800 238.11906
249.0 0.00402 238.00371 238.08044
254.0 0.00394 237.95950 238.04291
242.0 0.00413 237.91553 238.00656
220.0 0.00455 237.87160 237.97197
236.0 0.00424 237.82785 237.93864
247.0 0.00405 237.78418 237.90979
222.0 0.00450 237.74072 237.88576
224.0 0.00446 237.69736 237.86946
232.0 0.00431 237.65408 237.86424
253.0 0.00395 237.61095 237.87547
221.0 0.00452 237.56793 237.90897
239.0 0.00418 237.52492 237.97150
274.0 0.00365 237.48206 238.06648
236.0 0.00424 237.43929 238.19525
241.0 0.00415 237.39658 238.35410
244.0 0.00410 237.35400 238.52859
274.0 0.00365 237.31145 238.69193
253.0 0.00395 237.26894 238.80348
224.0 0.00446 237.22646 238.82153
248.0 0.00403 237.18410 238.73164
225.0 0.00444 237.14177 238.56053
208.0 0.00481 237.09955 238.35541
250.0 0.00400 237.05721 238.15704
267.0 0.00375 237.01505 237.98950
238.0 0.00420 236.97282 237.86272
231.0 0.00433 236.93065 237.77414
227.0 0.00441 236.88857 237.71080
246.0 0.00407 236.84641 237.65150
244.0 0.00410 236.80424 237.57466
251.0 0.00398 236.76210 237.47049
233.0 0.00429 236.72003 237.34462
245.0 0.00408 236.67792 237.21077
232.0 0.00431 236.63574 237.08049
263.0 0.00380 236.59355 236.96104
238.0 0.00420 236.55139 236.85556
190.0 0.00526 236.50920 236.76472
220.0 0.00455 236.46700 236.68732
234.0 0.00427 236.42471 236.62152
228.0 0.00439 236.38242 236.56554
228.0 0.00439 236.34004 236.51772
235.0 0.00426 236.29765 236.47749
243.0 0.00412 236.25526 236.44472
240.0 0.00417 236.21272 236.42036
231.0 0.00433 236.17023 236.40550
227.0 0.00441 236.12755 236.40092
239.0 0.00418 236.08496 236.40681
238.0 0.00420 236.04222 236.42148
245.0 0.00408 235.99945 236.44125
232.0 0.00431 235.95653 236.45850
207.0 0.00483 235.91362 236.46278
222.0 0.00450 235.87054 236.44250
257.0 0.00389 235.82750 236.39526
241.0 0.00415 235.78427 236.32936
228.0 0.00439 235.74101 236.25877
240.0 0.00417 235.69763 236.19601
237.0 0.00422 235.65413 236.15047
234.0 0.00427 235.61055 236.12819
235.0 0.00426 235.56691 236.13301
244.0 0.00410 235.52319 236.16617
244.0 0.00410 235.47929 236.22653
240.0 0.00417 235.43538 236.31143
225.0 0.00444 235.39130 236.41742
241.0 0.00415 235.34711 236.54138
219.0 0.00457 235.30283 236.67516
255.0 0.00392 235.25842 236.79967
242.0 0.00413 235.21397 236.88301
252.0 0.00397 235.16931 236.89073
250.0 0.00400 235.12460 236.80797
239.0 0.00418 235.07976 236.65298
233.0 0.00429 235.03474 236.46429
245.0 0.00408 234.98972 236.27907
215.0 0.00465 234.94450 236.12192
234.0 0.00427 234.89920 236.00566
231.0 0.00433 234.85381 235.93372
220.0 0.00455 234.80818 235.90149
229.0 0.00437 234.76254 235.89651
250.0 0.00400 234.71683 235.90355
231.0 0.00433 234.67090 235.91212
243.0 0.00412 234.62491 235.92068
220.0 0.00455 234.57874 235.93124
232.0 0.00431 234.53250 235.93877
240.0 0.00417 234.48618 235.92534
220.0 0.00455 234.43971 235.86534
245.0 0.00408 234.39314 235.74431
255.0 0.00392 234.34639 235.57306
235.0 0.00426 234.29958 235.37955
259.0 0.00386 234.25266 235.19177
237.0 0.00422 234.20563 235.02748
248.0 0.00403 234.15842 234.89465
236.0 0.00424 234.11118 234.79280
244.0 0.00410 234.06386 234.71513
234.0 0.00427 234.01643 234.64893
248.0 0.00403 233.96886 234.57838
210.0 0.00476 233.92122 234.49164
251.0 0.00398 233.87346 234.38742
228.0 0.00439 233.82561 234.27283
233.0 0.00429 233.77769 234.15665
207.0 0.00483 233.72963 234.04558
240.0 0.00417 233.68155 233.94279
242.0 0.00413 233.63333 233.84976
235.0 0.00426 233.58507 233.76605
221.0 0.00452 233.53671 233.69078
259.0 0.00386 233.48831 233.62221
237.0 0.00422 233.43983 233.55875
221.0 0.00452 233.39122 233.49905
226.0 0.00442 233.34268 233.44188
240.0 0.00417 233.29398 233.38646
223.0 0.00448 233.24525 233.33237
219.0 0.00457 233.19649 233.27910
222.0 0.00450 233.14763 233.22656
226.0 0.00442 233.09879 233.17451
221.0 0.00452 233.04988 233.12294
221.0 0.00452 233.00096 233.07170
226.0 0.00442 232.95193 233.02077
220.0 0.00455 232.90297 232.97015
224.0 0.00446 232.85390 232.91977
222.0 0.00450 232.80489 232.86975
222.0 0.00450 232.75584 232.81979
204.0 0.00490 232.70676 232.77013
264.0 0.00379 232.65765 232.72061
228.0 0.00439 232.60863 232.67137
226.0 0.00442 232.55965 232.62236
244.0 0.00410 232.51053 232.57355
219.0 0.00457 232.46159 232.52496
245.0 0.00408 232.41258 232.47633
261.0 0.00383 232.36359 232.42830
226.0 0.00442 232.31468 232.38036
220.0 0.00455 232.26582 232.33286
220.0 0.00455 232.21698 232.28619
207.0 0.00483 232.16817 232.23930
241.0 0.00415 232.11949 232.19272
251.0 0.00398 232.07079 232.14667
255.0 0.00392 232.02217 232.10109
245.0 0.00408 231.97369 232.05623
221.0 0.00452 231.92519 232.01190
226.0 0.00442 231.87688 231.96873
251.0 0.00398 231.82861 231.92682
249.0 0.00402 231.78053 231.88651
224.0 0.00446 231.73241 231.84822
213.0 0.00469 231.68451 231.81250
255.0 0.00392 231.63667 231.77960
239.0 0.00418 231.58897 231.75037
223.0 0.00448 231.54144 231.72522
239.0 0.00418 231.49405 231.70444
242.0 0.00413 231.44675 231.68855
260.0 0.00385 231.39963 231.67726
221.0 0.00452 231.35274 231.67117
262.0 0.00382 231.30586 231.67165
232.0 0.00431 231.25926 231.67993
254.0 0.00394 231.21272 231.69623
237.0 0.00422 231.16649 231.71809
242.0 0.00413 231.12044 231.73990
248.0 0.00403 231.07457 231.75264
225.0 0.00444 231.02887 231.74660
255.0 0.00392 230.98335 231.71744
213.0 0.00469 230.93817 231.66925
226.0 0.00442 230.89311 231.61407
227.0 0.00441 230.84834 231.56473
222.0 0.00450 230.80370 231.53230
234.0 0.00427 230.75943 231.52390
251.0 0.00398 230.71533 231.54294
242.0 0.00413 230.67152 231.58929
243.0 0.00412 230.62796 231.65825
227.0 0.00441 230.58461 231.74045
221.0 0.00452 230.54163 231.82265
211.0 0.00474 230.49889 231.88774
241.0 0.00415 230.45641 231.91896
255.0 0.00392 230.41418 231.90611
223.0 0.00448 230.37238 231.85352
238.0 0.00420 230.33081 231.77916
236.0 0.00424 230.28954 231.70395
238.0 0.00420 230.24864 231.64101
255.0 0.00392 230.20807 231.59212
230.0 0.00435 230.16774 231.54732
278.0 0.00360 230.12779 231.49274
238.0 0.00420 230.08820 231.41525
260.0 0.00385 230.04895 231.31136
242.0 0.00413 230.01003 231.18570
226.0 0.00442 229.97145 231.04695
201.0 0.00498 229.93327 230.90617
273.0 0.00366 229.89542 230.77367
219.0 0.00457 229.85802 230.65652
218.0 0.00459 229.82086 230.55637
225.0 0.00444 229.78423 230.46922
237.0 0.00422 229.74788 230.38878
223.0 0.00448 229.71194 230.30759
207.0 0.00483 229.67638 230.22238
241.0 0.00415 229.64133 230.13510
199.0 0.00503 229.60661 230.05045
229.0 0.00437 229.57230 229.97208
234.0 0.00427 229.53844 229.90285
206.0 0.00485 229.50494 229.84372
253.0 0.00395 229.47189 229.79564
261.0 0.00383 229.43921 229.75914
252.0 0.00397 229.40703 229.73509
239.0 0.00418 229.37529 229.72496
222.0 0.00450 229.34392 229.73102
226.0 0.00442 229.31306 229.75671
241.0 0.00415 229.28271 229.80597
218.0 0.00459 229.25267 229.88278
226.0 0.00442 229.22311 229.98936
208.0 0.00481 229.19403 230.12523
242.0 0.00413 229.16539 230.28517
230.0 0.00435 229.13722 230.45651
230.0 0.00435 229.10954 230.61674
238.0 0.00420 229.08234 230.73303
240.0 0.00417 229.05553 230.77168
251.0 0.00398 229.02927 230.71780
216.0 0.00463 229.00337 230.58682
228.0 0.00439 228.97803 230.41443
221.0 0.00452 228.95316 230.23625
215.0 0.00465 228.92876 230.07669
215.0 0.00465 228.90477 229.94847
235.0 0.00426 228.88136 229.85457
223.0 0.00448 228.85832 229.78978
231.0 0.00433 228.83582 229.74179
239.0 0.00418 228.81384 229.69345
222.0 0.00450 228.79228 229.62950
226.0 0.00442 228.77127 229.54236
246.0 0.00407 228.75061 229.43770
211.0 0.00474 228.73056 229.32616
223.0 0.00448 228.71095 229.21724
220.0 0.00455 228.69182 229.11700
234.0 0.00427 228.67317 229.02855
223.0 0.00448 228.65497 228.95259
242.0 0.00413 228.63733 228.88889
234.0 0.00427 228.62013 228.83591
226.0 0.00442 228.60341 228.79198
242.0 0.00413 228.58711 228.75563
227.0 0.00441 228.57140 228.72462
219.0 0.00457 228.55605 228.69797
224.0 0.00446 228.54128 228.67445
236.0 0.00424 228.52693 228.65344
219.0 0.00457 228.51303 228.63438
226.0 0.00442 228.49954 228.61703
228.0 0.00439 228.48666 228.60107
224.0 0.00446 228.47415 228.58652
242.0 0.00413 228.46211 228.57309
240.0 0.00417 228.45056 228.56087
209.0 0.00478 228.43945 228.54977
208.0 0.00481 228.42883 228.53897
225.0 0.00444 228.41859 228.53009
224.0 0.00446 228.40878 228.52229
231.0 0.00433 228.39948 228.51579
244.0 0.00410 228.39056 228.51036
217.0 0.00461 228.38214 228.50639
221.0 0.00452 228.37413 228.50368
232.0 0.00431 228.36652 228.50259
238.0 0.00420 228.35933 228.50343
226.0 0.00442 228.35265 228.50624
252.0 0.00397 228.34624 228.51161
240.0 0.00417 228.34033 228.51945
233.0 0.00429 228.33485 228.53224
257.0 0.00389 228.32970 228.55040
220.0 0.00455 228.32503 228.57565
216.0 0.00463 228.32066 228.61006
231.0 0.00433 228.31671 228.65639
250.0 0.00400 228.31314 228.71754
240.0 0.00417 228.30995 228.79701
226.0 0.00442 228.30714 228.89761
212.0 0.00472 228.30470 229.02164
253.0 0.00395 228.30263 229.16997
214.0 0.00467 228.30086 229.34024
218.0 0.00459 228.29945 229.52502
258.0 0.00388 228.29843 229.71085
232.0 0.00431 228.29770 229.87779
221.0 0.00452 228.29729 230.00455
203.0 0.00493 228.29727 230.07297
212.0 0.00472 228.29752 230.07481
223.0 0.00448 228.29808 230.01311
253.0 0.00395 228.29898 229.90437
205.0 0.00488 228.30014 229.77347
211.0 0.00474 228.30162 229.64476
225.0 0.00444 228.30344 229.53439
238.0 0.00420 228.30542 229.44897
219.0 0.00457 228.30774 229.38707
241.0 0.00415 228.31033 229.34140
207.0 0.00483 228.31316 229.30165
232.0 0.00431 228.31628 229.25793
249.0 0.00402 228.31963 229.20375
239.0 0.00418 228.32317 229.13658
250.0 0.00400 228.32697 229.05977
255.0 0.00392 228.33099 228.98015
214.0 0.00467 228.33531 228.90492
255.0 0.00392 228.33975 228.83904
232.0 0.00431 228.34448 228.78546
194.0 0.00515 228.34933 228.74510
222.0 0.00450 228.35435 228.71790
222.0 0.00450 228.35965 228.70309
225.0 0.00444 228.36514 228.69975
206.0 0.00485 228.37068 228.70723
214.0 0.00467 228.37645 228.72595
238.0 0.00420 228.38246 228.75763
189.0 0.00529 228.38853 228.80472
230.0 0.00435 228.39476 228.86909
228.0 0.00439 228.40114 228.95294
261.0 0.00383 228.40759 229.05649
261.0 0.00383 228.41420 229.17859
221.0 0.00452 228.42099 229.31554
223.0 0.00448 228.42789 229.46033
221.0 0.00452 228.43489 229.60089
250.0 0.00400 228.44186 229.71648
262.0 0.00382 228.44905 229.78275
213.0 0.00469 228.45638 229.78220
251.0 0.00398 228.46371 229.71893
242.0 0.00413 228.47110 229.61580
233.0 0.00429 228.47858 229.50066
238.0 0.00420 228.48616 229.39432
219.0 0.00457 228.49379 229.30858
231.0 0.00433 228.50142 229.24811
228.0 0.00439 228.50920 229.21237
207.0 0.00483 228.51692 229.19548
227.0 0.00441 228.52473 229.18715
226.0 0.00442 228.53256 229.17418
241.0 0.00415 228.54047 229.14612
213.0 0.00469 228.54832 229.10045
228.0 0.00439 228.55623 229.04289
208.0 0.00481 228.56413 228.98138
231.0 0.00433 228.57213 228.92297
216.0 0.00463 228.58003 228.87149
229.0 0.00437 228.58800 228.82890
243.0 0.00412 228.59590 228.79553
237.0 0.00422 228.60388 228.77069
241.0 0.00415 228.61182 228.75334
268.0 0.00373 228.61971 228.74214
234.0 0.00427 228.62762 228.73572
222.0 0.00450 228.63550 228.73250
229.0 0.00437 228.64336 228.73164
228.0 0.00439 228.65120 228.73250
221.0 0.00452 228.65901 228.73445
237.0 0.00422 228.66676 228.73746
230.0 0.00435 228.67451 228.74109
231.0 0.00433 228.68228 228.74518
228.0 0.00439 228.68996 228.74971
232.0 0.00431 228.69756 228.75456
251.0 0.00398 228.70518 228.75969
231.0 0.00433 228.71271 228.76506
244.0 0.00410 228.72025 228.77072
249.0 0.00402 228.72777 228.77643
249.0 0.00402 228.73520 228.78221
239.0 0.00418 228.74254 228.78812
223.0 0.00448 228.74994 228.79422
226.0 0.00442 228.75719 228.80026
231.0 0.00433 228.76450 228.80658
198.0 0.00505 228.77168 228.81273
232.0 0.00431 228.77887 228.81911
211.0 0.00474 228.78603 228.82553
220.0 0.00455 228.79311 228.83191
241.0 0.00415 228.80017 228.83809
222.0 0.00450 228.80713 228.84465
234.0 0.00427 228.81415 228.85121
233.0 0.00429 228.82109 228.85768
207.0 0.00483 228.82802 228.86429
228.0 0.00439 228.83485 228.87096
227.0 0.00441 228.84169 228.87762
250.0 0.00400 228.84851 228.88431
220.0 0.00455 228.85533 228.89113
243.0 0.00412 228.86203 228.89783
217.0 0.00461 228.86876 228.90466
244.0 0.00410 228.87555 228.91144
225.0 0.00444 228.88225 228.91835
231.0 0.00433 228.88898 228.92488
243.0 0.00412 228.89568 228.93198
225.0 0.00444 228.90236 228.93915
248.0 0.00403 228.90900 228.94629
225.0 0.00444 228.91573 228.95369
214.0 0.00467 228.92247 228.96112
224.0 0.00446 228.92920 228.96866
236.0 0.00424 228.93593 228.97633
232.0 0.00431 228.94267 228.98392
212.0 0.00472 228.94948 228.99200
245.0 0.00408 228.95633 229.00021
258.0 0.00388 228.96317 229.00848
263.0 0.00380 228.97006 229.01721
220.0 0.00455 228.97708 229.02638
232.0 0.00431 228.98405 229.03590
228.0 0.00439 228.99117 229.04599
227.0 0.00441 228.99832 229.05672
231.0 0.00433 229.00552 229.06844
216.0 0.00463 229.01282 229.08110
238.0 0.00420 229.02016 229.09531
239.0 0.00418 229.02768 229.11110
230.0 0.00435 229.03525 229.12898
218.0 0.00459 229.04291 229.14896
227.0 0.00441 229.05067 229.17130
208.0 0.00481 229.05859 229.19598
258.0 0.00388 229.06659 229.22275
209.0 0.00478 229.07471 229.25087
226.0 0.00442 229.08296 229.27933
213.0 0.00469 229.09138 229.30620
220.0 0.00455 229.09995 229.32903
241.0 0.00415 229.10867 229.34622
233.0 0.00429 229.11754 229.35739
238.0 0.00420 229.12656 229.36409
244.0 0.00410 229.13576 229.36891
206.0 0.00485 229.14517 229.37442
220.0 0.00455 229.15474 229.38283
219.0 0.00457 229.16454 229.39574
228.0 0.00439 229.17445 229.41447
234.0 0.00427 229.18460 229.43988
229.0 0.00437 229.19498 229.47345
209.0 0.00478 229.20560 229.51566
235.0 0.00426 229.21634 229.56932
236.0 0.00424 229.22742 229.63618
243.0 0.00412 229.23872 229.71851
241.0 0.00415 229.25023 229.81921
259.0 0.00386 229.26199 229.93924
228.0 0.00439 229.27397 230.07750
229.0 0.00437 229.28621 230.22910
237.0 0.00422 229.29874 230.38342
239.0 0.00418 229.31154 230.52365
230.0 0.00435 229.32460 230.62721
225.0 0.00444 229.33791 230.67493
224.0 0.00446 229.35150 230.66219
218.0 0.00459 229.36533 230.60257
236.0 0.00424 229.37958 230.52020
222.0 0.00450 229.39395 230.43840
238.0 0.00420 229.40874 230.37329
232.0 0.00431 229.42375 230.33383
255.0 0.00392 229.43912 230.32294
210.0 0.00476 229.45479 230.33791
232.0 0.00431 229.47073 230.37120
227.0 0.00441 229.48694 230.40977
253.0 0.00395 229.50351 230.43837
238.0 0.00420 229.52032 230.44339
223.0 0.00448 229.53754 230.42014
221.0 0.00452 229.55501 230.37372
230.0 0.00435 229.57275 230.31564
223.0 0.00448 229.59087 230.25764
228.0 0.00439 229.60928 230.20816
213.0 0.00469 229.62796 230.17206
210.0 0.00476 229.64699 230.15108
223.0 0.00448 229.66634 230.14374
235.0 0.00426 229.68599 230.14679
228.0 0.00439 229.70593 230.15468
220.0 0.00455 229.72618 230.16136
229.0 0.00437 229.74675 230.16199
239.0 0.00418 229.76753 230.15532
232.0 0.00431 229.78870 230.14334
211.0 0.00474 229.81010 230.12953
199.0 0.00503 229.83179 230.11736
221.0 0.00452 229.85378 230.10922
246.0 0.00407 229.87599 230.10611
239.0 0.00418 229.89851 230.10822
221.0 0.00452 229.92128 230.11490
254.0 0.00394 229.94427 230.12508
228.0 0.00439 229.96756 230.13693
235.0 0.00426 229.99110 230.14928
245.0 0.00408 230.01485 230.16115
252.0 0.00397 230.03877 230.17264
229.0 0.00437 230.06291 230.18433
231.0 0.00433 230.08736 230.19684
242.0 0.00413 230.11194 230.21063
216.0 0.00463 230.13669 230.22585
237.0 0.00422 230.16162 230.24252
222.0 0.00450 230.18674 230.26068
238.0 0.00420 230.21201 230.28014
225.0 0.00444 230.23740 230.30080
239.0 0.00418 230.26295 230.32242
245.0 0.00408 230.28854 230.34485
244.0 0.00410 230.31432 230.36809
237.0 0.00422 230.34016 230.39186
237.0 0.00422 230.36606 230.41603
232.0 0.00431 230.39209 230.44067
232.0 0.00431 230.41809 230.46548
222.0 0.00450 230.44415 230.49066
220.0 0.00455 230.47025 230.51602
218.0 0.00459 230.49631 230.54160
219.0 0.00457 230.52237 230.56721
235.0 0.00426 230.54843 230.59297
218.0 0.00459 230.57448 230.61885
232.0 0.00431 230.60034 230.64474
242.0 0.00413 230.62621 230.67081
224.0 0.00446 230.65201 230.69678
250.0 0.00400 230.67758 230.72278
225.0 0.00444 230.70313 230.74884
271.0 0.00369 230.72849 230.77486
231.0 0.00433 230.75357 230.80081
235.0 0.00426 230.77866 230.82671
263.0 0.00380 230.80341 230.85258
228.0 0.00439 230.82799 230.87843
237.0 0.00422 230.85229 230.90427
208.0 0.00481 230.87636 230.92953
252.0 0.00397 230.90010 230.95522
226.0 0.00442 230.92358 230.98080
216.0 0.00463 230.94672 231.00635
225.0 0.00444 230.96954 231.03191
215.0 0.00465 230.99199 231.05742
220.0 0.00455 231.01405 231.08302
219.0 0.00457 231.03568 231.10873
230.0 0.00435 231.05690 231.13457
234.0 0.00427 231.07771 231.16064
240.0 0.00417 231.09804 231.18712
240.0 0.00417 231.11790 231.21387
243.0 0.00412 231.13730 231.24208
240.0 0.00417 231.15620 231.27176
234.0 0.00427 231.17448 231.30371
227.0 0.00441 231.19225 231.33842
225.0 0.00444 231.20943 231.37738
261.0 0.00383 231.22610 231.42180
233.0 0.00429 231.24214 231.47295
234.0 0.00427 231.25754 231.53230
217.0 0.00461 231.27232 231.60101
243.0 0.00412 231.28642 231.67989
235.0 0.00426 231.29991 231.76884
243.0 0.00412 231.31267 231.86691
231.0 0.00433 231.32478 231.97099
239.0 0.00418 231.33621 232.07553
209.0 0.00478 231.34686 232.17220
202.0 0.00495 231.35681 232.25035
246.0 0.00407 231.36603 232.30215
257.0 0.00389 231.37445 232.32657
231.0 0.00433 231.38216 232.33180
195.0 0.00513 231.38916 232.33122
219.0 0.00457 231.39534 232.33748
235.0 0.00426 231.40068 232.35915
205.0 0.00488 231.40530 232.39922
243.0 0.00412 231.40907 232.45474
256.0 0.00391 231.41214 232.51721
267.0 0.00375 231.41437 232.57167
242.0 0.00413 231.41585 232.60013
229.0 0.00437 231.41649 232.58878
216.0 0.00463 231.41637 232.53540
236.0 0.00424 231.41539 232.44958
255.0 0.00392 231.41365 232.34755
201.0 0.00498 231.41119 232.24344
217.0 0.00461 231.40791 232.14970
204.0 0.00490 231.40390 232.07219
239.0 0.00418 231.39911 232.01314
234.0 0.00427 231.39360 231.97189
233.0 0.00429 231.38733 231.94447
236.0 0.00424 231.38040 231.92497
225.0 0.00444 231.37273 231.90640
220.0 0.00455 231.36443 231.88379
220.0 0.00455 231.35542 231.85677
257.0 0.00389 231.34576 231.82799
242.0 0.00413 231.33549 231.80199
231.0 0.00433 231.32471 231.78192
226.0 0.00442 231.31326 231.76920
220.0 0.00455 231.30139 231.76349
232.0 0.00431 231.28896 231.76320
212.0 0.00472 231.27612 231.76593
260.0 0.00385 231.26279 231.76956
261.0 0.00383 231.24907 231.77185
227.0 0.00441 231.23505 231.77054
267.0 0.00375 231.22064 231.76199
240.0 0.00417 231.20596 231.74339
240.0 0.00417 231.19113 231.71323
215.0 0.00465 231.17607 231.67328
229.0 0.00437 231.16087 231.62782
229.0 0.00437 231.14566 231.58076
258.0 0.00388 231.13043 231.53572
244.0 0.00410 231.11522 231.49425
222.0 0.00450 231.10002 231.45691
243.0 0.00412 231.08501 231.42368
263.0 0.00380 231.07027 231.39366
231.0 0.00433 231.05579 231.36639
229.0 0.00437 231.04166 231.34036
235.0 0.00426 231.02785 231.31404
241.0 0.00415 231.01468 231.28654
249.0 0.00402 231.00195 231.25847
200.0 0.00500 230.98987 231.23102
250.0 0.00400 230.97856 231.20601
211.0 0.00474 230.96800 231.18512
203.0 0.00493 230.95828 231.16937
248.0 0.00403 230.94952 231.15952
225.0 0.00444 230.94183 231.15572
233.0 0.00429 230.93526 231.15779
221.0 0.00452 230.92990 231.16486
233.0 0.00429 230.92583 231.17531
255.0 0.00392 230.92319 231.18704
225.0 0.00444 230.92200 231.19688
260.0 0.00385 230.92235 231.20166
271.0 0.00369 230.92453 231.19989
248.0 0.00403 230.92838 231.19220
202.0 0.00495 230.93404 231.18120
243.0 0.00412 230.94174 231.17014
210.0 0.00476 230.95152 231.16183
213.0 0.00469 230.96349 231.15825
231.0 0.00433 230.97774 231.16049
226.0 0.00442 230.99432 231.16905
248.0 0.00403 231.01341 231.18384
240.0 0.00417 231.03511 231.20442
209.0 0.00478 231.05951 231.22975
233.0 0.00429 231.08676 231.25868
245.0 0.00408 231.11682 231.29073
238.0 0.00420 231.14992 231.32562
229.0 0.00437 231.18614 231.36427
212.0 0.00472 231.22565 231.40749
233.0 0.00429 231.26843 231.45560
230.0 0.00435 231.31467 231.50842
205.0 0.00488 231.36436 231.56461
243.0 0.00412 231.41777 231.62196
250.0 0.00400 231.47491 231.67824
238.0 0.00420 231.53584 231.73193
231.0 0.00433 231.60077 231.78410
238.0 0.00420 231.66959 231.83704
244.0 0.00410 231.74268 231.89320
214.0 0.00467 231.81992 231.95490
254.0 0.00394 231.90134 232.02332
220.0 0.00455 231.98738 232.09941
222.0 0.00450 232.07764 232.18292
220.0 0.00455 232.17250 232.27383
229.0 0.00437 232.27208 232.37137
237.0 0.00422 232.37614 232.47429
226.0 0.00442 232.48514 232.58144
208.0 0.00481 232.59879 232.69173
250.0 0.00400 232.71733 232.80476
232.0 0.00431 232.84082 232.92145
217.0 0.00461 232.96913 233.04216
259.0 0.00386 233.10262 233.16812
240.0 0.00417 233.24104 233.29965
244.0 0.00410 233.38438 233.43692
263.0 0.00380 233.53299 233.58051
231.0 0.00433 233.68651 233.72997
232.0 0.00431 233.84529 233.88564
239.0 0.00418 234.00902 234.04723
201.0 0.00498 234.17763 234.21451
214.0 0.00467 234.35161 234.38779
232.0 0.00431 234.53029 234.56654
239.0 0.00418 234.71411 234.75105
202.0 0.00495 234.90280 234.94112
240.0 0.00417 235.09619 235.13661
226.0 0.00442 235.29457 235.33801
232.0 0.00431 235.49747 235.54497
217.0 0.00461 235.70508 235.75783
258.0 0.00388 235.91711 235.97643
237.0 0.00422 236.13326 236.20058
235.0 0.00426 236.35397 236.43073
271.0 0.00369 236.57854 236.66599
241.0 0.00415 236.80717 236.90623
256.0 0.00391 237.03940 237.15039
250.0 0.00400 237.27507 237.39746
240.0 0.00417 237.51428 237.64633
248.0 0.00403 237.75647 237.89551
254.0 0.00394 238.00163 238.14494
251.0 0.00398 238.24933 238.39474
250.0 0.00400 238.49916 238.64580
261.0 0.00383 238.75130 238.89914
212.0 0.00472 239.00510 239.15419
245.0 0.00408 239.26041 239.41040
230.0 0.00435 239.51646 239.66585
240.0 0.00417 239.77338 239.92047
241.0 0.00415 240.03075 240.17320
234.0 0.00427 240.28789 240.42384
237.0 0.00422 240.54463 240.67285
256.0 0.00391 240.80017 240.92006
231.0 0.00433 241.05431 241.16557
253.0 0.00395 241.30678 241.40962
228.0 0.00439 241.55661 241.65157
269.0 0.00372 241.80359 241.89188
226.0 0.00442 242.04691 242.12936
215.0 0.00465 242.28619 242.36356
264.0 0.00379 242.52087 242.59407
228.0 0.00439 242.75011 242.81908
261.0 0.00383 242.97353 243.03786
245.0 0.00408 243.19017 243.24951
235.0 0.00426 243.39944 243.45367
238.0 0.00420 243.60086 243.65024
239.0 0.00418 243.79330 243.83824
236.0 0.00424 243.97650 244.01765
243.0 0.00412 244.14909 244.18742
246.0 0.00407 244.31059 244.34691
239.0 0.00418 244.46021 244.49547
263.0 0.00380 244.59683 244.63197
241.0 0.00415 244.71994 244.75587
263.0 0.00380 244.82834 244.86588
256.0 0.00391 244.92119 244.96130
246.0 0.00407 244.99759 245.04091
261.0 0.00383 245.05658 245.10347
255.0 0.00392 245.09703 245.14775
248.0 0.00403 245.11809 245.17233
237.0 0.00422 245.11864 245.17548
220.0 0.00455 245.09764 245.15567
245.0 0.00408 245.05408 245.11169
237.0 0.00422 244.98676 245.04265
223.0 0.00448 244.89470 244.94824
275.0 0.00364 244.77670 244.82765
243.0 0.00412 244.63162 244.68042
237.0 0.00422 244.45845 244.50601
247.0 0.00405 244.25574 244.30309
247.0 0.00405 244.02269 244.07115
235.0 0.00426 243.75803 243.80913
234.0 0.00427 243.46025 243.51555
242.0 0.00413 243.12854 243.18968
252.0 0.00397 242.76141 242.83002
246.0 0.00407 242.35797 242.43575
246.0 0.00407 241.91710 242.00565
246.0 0.00407 241.43689 241.53783
241.0 0.00415 240.91707 241.03168
242.0 . . .
loop_
_refln_index_h
_refln_index_k
_refln_index_l
_pd_refln_wavelength_id
_refln_observed_status
_refln_F_squared_meas
_refln_F_squared_calc
_refln_phase_calc
_refln_d_spacing
_gsas_i100_meas
0 0 1 1 o 215.871 212.014 180.00 9.99493 46.87
0 0 1 2 o 214.162 212.014 180.00 9.99493 17.59
0 0 2 2 o 449.531 489.024 180.00 4.99747 8.83
0 0 2 1 o 497.500 489.024 180.00 4.99747 25.75
1 0 1 1 o 5.523 3.276 0.00 4.50813 1.81
1 0 1 2 o 5.865 3.276 0.00 4.50813 0.71
1 1 0 1 o 1659.772 1612.806 180.00 3.57167 100.00
1 1 0 2 o 1649.774 1612.806 180.00 3.57167 37.58
1 0 2 1 o 323.448 317.062 180.00 3.55255 41.58
1 0 2 2 o 322.483 317.062 180.00 3.55255 15.67
1 1 1 1 o 79.020 93.611 0.00 3.36337 9.77
1 1 1 2 o 77.437 93.611 0.00 3.36337 3.62
0 0 3 1 o 471.674 502.018 0.00 3.33164 10.63
0 0 3 2 o 438.131 502.018 0.00 3.33164 3.75
1 1 2 1 o 164.819 127.610 0.00 2.90582 14.85
1 1 2 2 o 158.628 127.610 0.00 2.90582 5.41
1 0 3 1 o 0.017 6.732 180.00 2.78115 0.00
1 0 3 2 o 0.017 6.732 180.00 2.78115 0.00
2 0 0 1 o 571.471 561.770 180.00 2.52555 17.01
2 0 0 2 o 528.434 561.770 180.00 2.52555 5.96
0 0 4 1 o 287.333 143.953 180.00 2.49873 3.33
0 0 4 2 o 319.552 143.953 180.00 2.49873 1.39
1 1 3 1 o 210.406 232.546 180.00 2.43627 12.04
1 1 3 2 o 225.234 232.546 180.00 2.43627 4.85
2 0 1 1 o 43.952 43.627 0.00 2.44859 2.62
2 0 1 2 o 37.830 43.627 0.00 2.44859 0.86
2 0 2 1 o 59.385 34.051 0.00 2.25406 2.99
2 0 2 2 o 48.751 34.051 0.00 2.25406 0.93
1 0 4 1 o 28.536 39.136 0.00 2.23967 1.19
1 0 4 2 o 30.545 39.136 0.00 2.23967 0.48
2 1 1 1 o 11.853 12.243 180.00 2.20335 1.20
2 1 1 2 o 11.303 12.243 180.00 2.20335 0.44
2 1 2 1 o 61.332 53.659 0.00 2.05841 5.14
2 1 2 2 o 57.904 53.659 0.00 2.05841 1.84
1 1 4 1 o 83.695 85.935 0.00 2.04743 2.87
1 1 4 2 o 84.675 85.935 0.00 2.04743 1.10
2 0 3 1 o 103.365 113.912 180.00 2.01264 4.01
2 0 3 2 o 115.861 113.912 180.00 2.01264 1.69
0 0 5 1 o 25.744 21.269 180.00 1.99899 0.18
0 0 5 2 o 34.595 21.269 180.00 1.99899 0.09
2 1 3 1 o 6.362 6.621 0.00 1.86968 0.40
2 1 3 2 o 9.009 6.621 0.00 1.86968 0.21
1 0 5 1 o 36.390 20.708 180.00 1.85872 0.89
1 0 5 2 o 38.923 20.708 180.00 1.85872 0.36
2 2 0 1 o 102.682 116.231 0.00 1.78584 1.31
2 2 0 2 o 97.047 116.231 0.00 1.78584 0.47
2 2 1 1 o 13.663 9.766 180.00 1.75799 0.35
2 2 1 2 o 11.685 9.766 180.00 1.75799 0.11
2 0 4 1 o 38.936 51.897 0.00 1.77628 1.04
2 0 4 2 o 41.619 51.897 0.00 1.77628 0.42
1 1 5 1 o 19.568 12.846 0.00 1.74437 0.43
1 1 5 2 o 40.346 12.846 0.00 1.74437 0.32
2 2 2 1 o 14.449 7.277 180.00 1.68169 0.35
2 2 2 2 o 11.575 7.277 180.00 1.68169 0.11
2 1 4 1 o 11.103 6.935 180.00 1.67568 0.55
2 1 4 2 o 13.427 6.935 180.00 1.67568 0.25
0 0 6 1 o 30.058 18.548 0.00 1.66582 0.14
0 0 6 2 o 16.378 18.548 0.00 1.66582 0.03
3 0 1 1 o 7.297 7.915 180.00 1.66031 0.18
3 0 1 2 o 8.693 7.915 180.00 1.66031 0.08
3 1 0 1 o 44.053 47.985 0.00 1.59730 0.89
3 1 0 2 o 38.877 47.985 0.00 1.59730 0.30
3 0 2 1 o 11.478 11.677 0.00 1.59558 0.26
2 2 3 1 o 29.461 27.225 0.00 1.57398 0.65
3 0 2 2 o 6.825 11.677 0.00 1.59558 0.06
2 2 3 2 o 20.968 27.225 0.00 1.57398 0.18
3 1 1 1 o 6.292 5.093 180.00 1.57729 0.25
3 1 1 2 o 5.478 5.093 180.00 1.57729 0.08
1 0 6 1 o 0.031 0.039 180.00 1.58201 0.00
1 0 6 2 o 0.047 0.039 180.00 1.58201 0.00
2 0 5 1 o 2.021 7.863 0.00 1.56742 0.04
2 0 5 2 o 3.313 7.863 0.00 1.56742 0.02
3 1 2 1 o 8.444 1.919 180.00 1.52147 0.31
3 1 2 2 o 10.215 1.919 180.00 1.52147 0.14
1 1 6 1 o 27.524 12.163 180.00 1.50970 0.41
1 1 6 2 o 30.413 12.163 180.00 1.50970 0.17
3 0 3 1 o 3.862 3.881 0.00 1.50271 0.07
2 1 5 2 o 12.300 2.721 0.00 1.49700 0.16
3 0 3 2 o 5.771 3.881 0.00 1.50271 0.04
2 1 5 1 o 9.206 2.721 0.00 1.49700 0.31
2 2 4 2 o 14.563 13.299 180.00 1.45291 0.10
2 2 4 1 o -0.692 13.299 180.00 1.45291 0.00
3 1 3 1 o 15.986 14.763 0.00 1.44032 0.56
3 1 3 2 o 19.649 14.763 0.00 1.44032 0.26
0 0 7 1 o 8.889 11.669 180.00 1.42785 0.03
0 0 7 2 o -0.423 11.669 180.00 1.42785 0.00
3 2 1 1 o 2.270 0.948 0.00 1.38736 0.07
3 2 1 2 o 7.514 0.948 0.00 1.38736 0.08
3 0 4 1 o 3.799 1.308 180.00 1.39630 0.06
3 0 4 2 o 0.510 1.308 180.00 1.39630 0.00
2 0 6 1 o 21.588 7.894 180.00 1.39057 0.27
2 0 6 2 o 14.678 7.894 180.00 1.39057 0.07
1 0 7 1 o 11.011 9.142 0.00 1.37401 0.13
1 0 7 2 o 10.098 9.142 0.00 1.37401 0.04
3 2 2 1 o 6.647 3.451 180.00 1.34893 0.19
3 2 2 2 o 4.454 3.451 180.00 1.34893 0.05
3 1 4 1 o 10.810 8.601 180.00 1.34582 0.32
2 1 6 2 o -0.003 0.027 180.00 1.34070 0.00
3 1 4 2 o 6.790 8.601 180.00 1.34582 0.08
2 1 6 1 o -0.003 0.027 180.00 1.34070 0.00
2 2 5 1 o 3.980 2.169 180.00 1.33178 0.05
2 2 5 2 o 3.884 2.169 180.00 1.33178 0.02
1 1 7 1 o 13.795 5.186 0.00 1.32583 0.14
1 1 7 2 o 9.338 5.186 0.00 1.32583 0.04
3 2 3 1 o 1.988 0.494 180.00 1.29140 0.05
3 2 3 2 o 7.438 0.494 180.00 1.29140 0.07
3 0 5 1 o 4.483 0.269 0.00 1.28777 0.06
3 0 5 2 o 0.418 0.269 0.00 1.28777 0.00
4 0 0 1 o 25.458 5.337 0.00 1.26278 0.14
4 0 0 2 o 7.148 5.337 0.00 1.26278 0.02
3 1 5 1 o 2.134 1.398 180.00 1.24786 0.05
4 0 1 1 o -0.072 0.730 180.00 1.25282 0.00
3 1 5 2 o -0.086 1.398 180.00 1.24786 0.00
4 0 1 2 o 1.365 0.730 180.00 1.25282 0.01
0 0 8 1 o 0.201 0.118 0.00 1.24937 0.00
2 0 7 1 o 4.441 2.302 0.00 1.24295 0.04
0 0 8 2 o 0.009 0.118 0.00 1.24937 0.00
2 0 7 2 o -0.158 2.302 0.00 1.24295 0.00
3 2 4 1 o 6.221 0.482 0.00 1.22197 0.15
3 2 4 2 o 2.449 0.482 0.00 1.22197 0.02
4 0 2 1 o 2.555 0.080 180.00 1.22430 0.03
2 2 6 1 o 11.303 2.221 0.00 1.21813 0.12
4 1 1 1 o 5.067 0.638 0.00 1.21597 0.11
4 0 2 2 o 0.646 0.080 180.00 1.22430 0.00
2 2 6 2 o 12.014 2.221 0.00 1.21813 0.05
4 1 1 2 o -0.089 0.638 0.00 1.21597 0.00
1 0 8 1 o -0.036 0.064 180.00 1.21282 0.00
2 1 7 1 o 1.690 1.943 180.00 1.20695 0.03
1 0 8 2 o 1.042 0.064 180.00 1.21282 0.00
2 1 7 2 o -0.152 1.943 180.00 1.20695 0.00
3 3 0 1 o 9.876 4.956 180.00 1.19056 0.05
3 3 0 2 o 14.221 4.956 180.00 1.19056 0.03
4 1 2 1 o 0.027 0.892 180.00 1.18984 0.00
3 3 1 1 o 0.694 0.325 0.00 1.18220 0.01
4 1 2 2 o 4.078 0.892 180.00 1.18984 0.03
3 3 1 2 o 1.569 0.325 0.00 1.18220 0.01
1 1 8 1 o 0.063 0.019 180.00 1.17930 0.00
3 0 6 1 o -0.003 0.055 180.00 1.18418 0.00
1 1 8 2 o 0.375 0.019 180.00 1.17930 0.00
3 0 6 2 o 0.332 0.055 180.00 1.18418 0.00
4 0 3 1 o 15.282 2.302 0.00 1.18080 0.16
4 0 3 2 o 7.194 2.302 0.00 1.18080 0.03
3 3 2 1 o -0.035 0.431 0.00 1.15815 0.00
3 3 2 2 o 1.239 0.431 0.00 1.15815 0.00
3 1 6 1 o 6.496 1.474 0.00 1.15292 0.13
3 2 5 1 o -0.038 0.188 180.00 1.14724 0.00
3 1 6 2 o 1.935 1.474 0.00 1.15292 0.02
4 1 3 1 o 0.110 0.354 180.00 1.14980 0.00
3 2 5 2 o 6.259 0.188 180.00 1.14724 0.05
4 1 3 2 o -0.005 0.354 180.00 1.14980 0.00
4 2 0 1 o 4.838 2.266 180.00 1.12946 0.04
4 2 0 2 o 2.089 2.266 180.00 1.12946 0.01
3 3 3 1 o 13.122 1.005 180.00 1.12112 0.13
3 3 3 2 o 8.139 1.005 180.00 1.12112 0.03
4 2 1 1 o 1.648 0.181 0.00 1.12232 0.03
4 0 4 1 o 2.869 1.683 180.00 1.12703 0.03
2 2 7 1 o 7.054 0.650 180.00 1.11521 0.06
4 2 1 2 o 2.736 0.181 0.00 1.12232 0.02
4 0 4 2 o 1.194 1.683 180.00 1.12703 0.00
2 2 7 2 o -0.048 0.650 180.00 1.11521 0.00
2 0 8 1 o 0.010 0.000 180.00 1.11984 0.00
2 0 8 2 o -0.001 0.000 180.00 1.11984 0.00
4 2 2 1 o 5.990 0.135 0.00 1.10168 0.11
0 0 9 1 o 1.609 1.888 0.00 1.11055 0.00
4 2 2 2 o 0.312 0.135 0.00 1.10168 0.00
0 0 9 2 o -0.128 1.888 0.00 1.11055 0.00
4 1 4 1 o 1.103 0.091 0.00 1.09998 0.02
4 1 4 2 o -0.019 0.091 0.00 1.09998 0.00
2 1 8 1 o 0.488 0.053 0.00 1.09329 0.01
2 1 8 2 o 0.150 0.053 0.00 1.09329 0.00
