#------------------------------------------------------------------------------
#$Date: 2016-02-18 17:37:37 +0200 (Thu, 18 Feb 2016) $
#$Revision: 176729 $
#$URL: svn://www.crystallography.net/cod/cif/1/50/16/1501686.cif $
#------------------------------------------------------------------------------
#
# This file is available in the Crystallography Open Database (COD),
# http://www.crystallography.net/
#
# All data on this site have been placed in the public domain by the
# contributors.
#
data_1501686
loop_
_publ_author_name
'Migliorati, Valentina'
'Ballirano, Paolo'
'Gontrani, Lorenzo'
'Triolo, Alessandro'
'Caminiti, Ruggero'
_publ_section_title
;
 Thermal and structural properties of ethylammonium chloride and its
 mixture with water.
;
_journal_issue                   17
_journal_name_full               'The journal of physical chemistry. B'
_journal_page_first              4887
_journal_page_last               4899
_journal_paper_doi               10.1021/jp2010138
_journal_volume                  115
_journal_year                    2011
_chemical_formula_sum            'C2 H8 Cl N'
_chemical_formula_weight         81.55
_chemical_name_systematic        ' ?'
_space_group_IT_number           11
_symmetry_cell_setting           monoclinic
_symmetry_space_group_name_Hall  '-P 2yb'
_symmetry_space_group_name_H-M   'P 1 21/m 1'
_audit_creation_date             2010-05-18T14:08
_audit_creation_method           'from EXP file using GSAS2CIF'
_audit_update_record
' 2010-05-18T14:08  Initial CIF as created by GSAS2CIF'
_cell_angle_alpha                90.0
_cell_angle_beta                 93.8491(14)
_cell_angle_gamma                90.0
_cell_formula_units_Z            2
_cell_length_a                   8.20987(14)
_cell_length_b                   5.99729(8)
_cell_length_c                   4.54601(7)
_cell_volume                     223.327(6)
_computing_structure_refinement  GSAS
_diffrn_radiation_probe          x-ray
_exptl_absorpt_correction_T_max  0.77479
_exptl_absorpt_correction_T_min  0.76997
_exptl_absorpt_process_details
;   GSAS Absorption/surface roughness correction: function number 0
 Debye-Scherrer absorption correction
Term (= MU.r/wave) =     0.10041    
Correction is not refined.
;
_pd_block_id
2010-05-18T14:08|35_OPT|paolo|Bruker_AXS_D8_Advance
_pd_calc_method                  'Rietveld Refinement'
_pd_instr_location               ' ?'
_pd_meas_2theta_range_inc        0.022
_pd_meas_2theta_range_max        89.994
_pd_meas_2theta_range_min        8.0
_pd_meas_number_of_points        3728
_pd_phase_name                   ethyl
_pd_proc_2theta_range_inc        0.022
_pd_proc_2theta_range_max        89.994
_pd_proc_2theta_range_min        8.0
_pd_proc_info_datetime           2010-05-18T14:08:45
_pd_proc_info_excluded_regions   ' ?'
_pd_proc_ls_background_function
;   GSAS Background function number 1 with 30 terms.
 Shifted Chebyshev function of 1st kind
      1:    497.947     2:   -455.277     3:    240.729     4:   -107.696    
      5:    70.1962     6:   -70.6877     7:    87.7358     8:   -63.5461    
      9:    21.3617    10:    10.1336    11:   -9.60440    12:   -1.85641    
     13:    17.5064    14:   -23.6034    15:    19.6382    16:   -8.93857    
     17:    7.65216    18:   -9.02450    19:    12.9930    20:   -11.8749    
     21:    12.4174    22:   -6.36286    23:    6.91404    24:   -1.18096    
     25:   0.789812    26:    1.78236    27:    2.18917    28:  -0.302305    
     29:   -1.98947    30:    3.58766    
;
_pd_proc_ls_peak_cutoff          0.00100
_pd_proc_ls_profile_function
;
 CW Profile function number 3 with  19 terms
 Pseudovoigt profile coefficients as parameterized in
 P. Thompson, D.E. Cox & J.B. Hastings (1987). J. Appl. Cryst.,20,79-83.
 Asymmetry correction of L.W. Finger, D.E. Cox & A. P. Jephcoat (1994).
 J. Appl. Cryst.,27,892-900.
 Peak tails are ignored  where the intensity is below 0.0010 times the peak
   Aniso. broadening axis   0.0   1.0   0.0
;
_pd_proc_ls_prof_R_factor        0.0458
_pd_proc_ls_prof_wR_expected     0.0424
_pd_proc_ls_prof_wR_factor       0.0600
_pd_proc_number_of_points        3728
_pd_spec_mounting                ' ?'
_refine_ls_goodness_of_fit_all   1.42
_refine_ls_matrix_type           full
_refine_ls_number_parameters     63
_refine_ls_number_restraints     27
_refine_ls_R_Fsqd_factor         0.06612
_refine_ls_shift/su_max          0.07
_refine_ls_shift/su_mean         0.00
_reflns_d_resolution_high        1.090
_reflns_d_resolution_low         8.191
_reflns_limit_h_max              7
_reflns_limit_h_min              0
_reflns_limit_k_max              5
_reflns_limit_k_min              0
_reflns_limit_l_max              4
_reflns_limit_l_min              -4
_reflns_number_total             407
_cod_data_source_file            jp2010138_si_002.cif
_cod_data_source_block           35_OPT_publ
_cod_depositor_comments
;
The following automatic conversions were performed:

'_geom_bond_publ_flag' value 'N' changed to 'n' according to
/home/saulius/struct/CIF-dictionaries/cif_core.dic dictionary named
'cif_core.dic' version 2.4.1 from 2010-06-29 (47
times).

'_geom_angle_publ_flag' value 'N' changed to 'n' according
to /home/saulius/struct/CIF-dictionaries/cif_core.dic dictionary
named 'cif_core.dic' version 2.4.1 from 2010-06-29 (23 times).

Automatic conversion script
Id: cif_fix_values 1715 2011-07-08 13:25:40Z adriana 
;
_cod_original_sg_symbol_H-M      'p 21/m'
_cod_database_code               1501686
#BEGIN Tags that were not found in dictionaries:
_gsas_exptl_extinct_corr_t_min   1.00000
_gsas_exptl_extinct_corr_t_max   1.00000
#END Tags that were not found in dictionaries
loop_
_symmetry_equiv_pos_site_id
_symmetry_equiv_pos_as_xyz
1 +x,+y,+z
2 -x,+y+1/2,-z
-1 -x,-y,-z
-2 +x,-y+1/2,+z
loop_
_atom_site_type_symbol
_atom_site_label
_atom_site_fract_x
_atom_site_fract_y
_atom_site_fract_z
_atom_site_occupancy
_atom_site_thermal_displace_type
_atom_site_U_iso_or_equiv
_atom_site_symmetry_multiplicity
Cl Cl 0.15541(20) 0.75 0.3847(4) 1.0 Uiso 0.0246(4) 2
N N 0.12487(33) 0.25 0.1420(6) 1.0 Uiso 0.0333(12) 2
C C1 0.26734(32) 0.25 -0.0362(6) 1.0 Uiso 0.0333(12) 2
C C2 0.4233(4) 0.25 0.1686(7) 1.0 Uiso 0.0333(12) 2
H H1 0.0240(5) 0.25 0.0144(13) 1.0 Uiso 0.0500(18) 2
H H2 0.5182(5) 0.25 0.0486(12) 1.0 Uiso 0.0500(18) 2
H H3 0.1276(9) 0.1164(5) 0.2668(9) 1.0 Uiso 0.0500(18) 4
H H4 0.2668(9) 0.1158(5) -0.1593(9) 1.0 Uiso 0.0500(18) 4
H H5 0.4252(9) 0.1155(5) 0.2914(9) 1.0 Uiso 0.0500(18) 4
loop_
_atom_type_symbol
_atom_type_number_in_cell
_atom_type_scat_dispersion_real
_atom_type_scat_dispersion_imag
_atom_type_scat_Cromer_Mann_a1
_atom_type_scat_Cromer_Mann_a2
_atom_type_scat_Cromer_Mann_a3
_atom_type_scat_Cromer_Mann_a4
_atom_type_scat_Cromer_Mann_b1
_atom_type_scat_Cromer_Mann_b2
_atom_type_scat_Cromer_Mann_b3
_atom_type_scat_Cromer_Mann_b4
_atom_type_scat_Cromer_Mann_c
_atom_type_scat_source
Cl 2.0 0.000 0.000 11.4604 0.01040 7.19640 1.16620 6.25560 18.5194 1.64550
47.7784 -9.5574 International_Tables_Vol_C
N 2.0 0.000 0.000 12.2126 0.00570 3.13220 9.89330 2.01250 28.9975 1.16630
0.58260 -11.529 International_Tables_Vol_C
C 4.0 0.000 0.000 2.31000 20.8439 1.02000 10.2075 1.58860 0.56870 0.86500
51.6512 0.21560 International_Tables_Vol_C
H 16.0 0.000 0.000 0.49300 10.5109 0.32291 26.1257 0.14019 3.14236 0.04081
57.7997 0.00304 International_Tables_Vol_C
loop_
_diffrn_radiation_wavelength
_diffrn_radiation_wavelength_wt
_diffrn_radiation_type
_diffrn_radiation_wavelength_id
1.540598 1.000 K\a~1~ 1
1.544390 0.380 K\a~2~ 2
loop_
_geom_angle_atom_site_label_1
_geom_angle_atom_site_label_2
_geom_angle_atom_site_label_3
_geom_angle
_geom_angle_site_symmetry_1
_geom_angle_site_symmetry_3
_geom_angle_publ_flag
H1 Cl H3 76.15(14) 2_555 1_565 n
H1 Cl H3 76.15(14) 2_555 -2_565 n
H3 Cl H3 151.00(24) 1_565 -2_565 n
C1 N H1 110.3(4) 1_555 1_555 n
C1 N H3 109.3(4) 1_555 1_555 n
C1 N H3 109.3(4) 1_555 -2_565 n
H1 N H3 109.2(5) 1_555 1_555 n
H1 N H3 109.2(5) 1_555 -2_565 n
H3 N H3 109.5(5) 1_555 -2_565 n
N C1 C2 109.24(24) 1_555 1_555 n
N C1 H4 110.0(4) 1_555 1_555 n
N C1 H4 110.0(4) 1_555 -2_565 n
C2 C1 H4 108.6(4) 1_555 1_555 n
C2 C1 H4 108.6(4) 1_555 -2_565 n
H4 C1 H4 110.4(5) 1_555 -2_565 n
C1 C2 H2 109.0(4) 1_555 1_555 n
C1 C2 H5 109.1(4) 1_555 1_555 n
C1 C2 H5 109.1(4) 1_555 -2_565 n
H2 C2 H5 109.5(5) 1_555 1_555 n
H2 C2 H5 109.5(5) 1_555 -2_565 n
H5 C2 H5 110.7(5) 1_555 -2_565 n
Cl H1 N 163.0(5) 2_545 1_555 n
Cl H3 N 157.7(4) 1_545 1_555 n
loop_
_geom_bond_atom_site_label_1
_geom_bond_atom_site_label_2
_geom_bond_distance
_geom_bond_site_symmetry_2
_geom_bond_publ_flag
Cl H1 2.258(6) 2_555 n
Cl H3 2.2698(30) 1_565 n
Cl H3 2.2698(30) -2_555 n
N C1 1.467(4) 1_555 n
N H1 0.979(6) 1_555 n
N H3 0.981(4) 1_555 n
N H3 0.981(4) -2_555 n
N H4 2.024(6) 1_555 n
N H4 2.024(6) -2_555 n
C1 N 1.467(4) 1_555 n
C1 C2 1.532(4) 1_555 n
C1 H1 2.027(5) 1_555 n
C1 H2 2.070(5) 1_555 n
C1 H3 2.017(6) 1_555 n
C1 H3 2.017(6) -2_555 n
C1 H4 0.980(4) 1_555 n
C1 H4 0.980(4) -2_555 n
C1 H5 2.071(6) 1_555 n
C1 H5 2.071(6) -2_555 n
C2 C1 1.532(4) 1_555 n
C2 H2 0.981(6) 1_555 n
C2 H4 2.065(6) 1_555 n
C2 H4 2.065(6) -2_555 n
C2 H5 0.981(4) 1_555 n
C2 H5 0.981(4) -2_555 n
H1 Cl 2.258(6) 2_545 n
H1 N 0.979(6) 1_555 n
H1 C1 2.027(5) 1_555 n
H1 H3 1.597(7) 1_555 n
H1 H3 1.597(7) -2_555 n
H2 C1 2.070(5) 1_555 n
H2 C2 0.981(6) 1_555 n
H2 H5 1.602(7) 1_555 n
H2 H5 1.602(7) -2_555 n
H3 Cl 2.2698(30) 1_545 n
H3 N 0.981(4) 1_555 n
H3 C1 2.017(6) 1_555 n
H3 H1 1.597(7) 1_555 n
H3 H3 1.602(6) -2_555 n
H4 N 2.024(6) 1_555 n
H4 C1 0.980(4) 1_555 n
H4 C2 2.065(6) 1_555 n
H4 H4 1.609(6) -2_555 n
H5 C1 2.071(6) 1_555 n
H5 C2 0.981(4) 1_555 n
H5 H2 1.602(7) 1_555 n
H5 H5 1.613(6) -2_555 n
loop_
_pd_meas_counts_total
_pd_proc_ls_weight
_pd_proc_intensity_bkg_calc
_pd_calc_intensity_total
1720.0 0.000581 1731.32324 1731.31897
1744.0 0.000573 1707.58789 1707.58398
1748.0 0.000572 1684.68066 1684.67737
1684.0 0.000594 1662.58997 1662.58716
1559.0 0.000641 1641.29724 1641.29517
1648.0 0.000607 1620.78674 1620.78467
1632.0 0.000613 1601.04065 1601.03931
1541.0 0.000649 1582.04333 1582.04224
1533.0 0.000652 1563.77844 1563.77783
1517.0 0.000659 1546.22754 1546.22705
1501.0 0.000666 1529.37183 1529.37122
1516.0 0.000660 1513.19580 1513.19568
1533.0 0.000652 1497.68091 1497.68115
1412.0 0.000708 1482.80981 1482.81018
1451.0 0.000689 1468.56323 1468.56348
1485.0 0.000673 1454.92542 1454.92566
1443.0 0.000693 1441.87817 1441.87866
1469.0 0.000681 1429.40137 1429.40222
1374.0 0.000728 1417.48108 1417.48193
1427.0 0.000701 1406.09851 1406.09949
1387.0 0.000721 1395.23560 1395.23633
1377.0 0.000726 1384.87500 1384.87683
1409.0 0.000710 1375.00122 1375.00244
1376.0 0.000727 1365.59668 1365.59778
1343.0 0.000745 1356.64453 1356.64575
1445.0 0.000692 1348.12732 1348.12903
1329.0 0.000752 1340.03088 1340.03247
1396.0 0.000716 1332.33789 1332.33948
1362.0 0.000734 1325.03296 1325.03442
1307.0 0.000765 1318.10095 1318.10266
1318.0 0.000759 1311.52649 1311.52795
1267.0 0.000789 1305.29407 1305.29590
1300.0 0.000769 1299.38940 1299.39148
1308.0 0.000765 1293.79919 1293.80078
1306.0 0.000766 1288.50854 1288.51013
1253.0 0.000798 1283.50305 1283.50439
1285.0 0.000778 1278.76953 1278.77124
1238.0 0.000808 1274.29578 1274.29724
1329.0 0.000752 1270.06848 1270.06982
1238.0 0.000808 1266.07458 1266.07617
1291.0 0.000775 1262.30212 1262.30347
1225.0 0.000816 1258.73950 1258.74109
1234.0 0.000810 1255.37537 1255.37646
1240.0 0.000806 1252.19763 1252.19934
1235.0 0.000810 1249.19604 1249.19763
1256.0 0.000796 1246.35974 1246.36121
1260.0 0.000794 1243.67847 1243.67944
1334.0 0.000750 1241.14197 1241.14331
1212.0 0.000825 1238.74121 1238.74255
1248.0 0.000801 1236.46655 1236.46777
1250.0 0.000800 1234.30750 1234.30933
1300.0 0.000769 1232.25781 1232.25879
1209.0 0.000827 1230.30688 1230.30811
1221.0 0.000819 1228.44849 1228.44971
1240.0 0.000806 1226.67273 1226.67395
1238.0 0.000808 1224.97351 1224.97473
1192.0 0.000839 1223.34277 1223.34399
1148.0 0.000871 1221.77368 1221.77515
1265.0 0.000791 1220.25977 1220.26062
1234.0 0.000810 1218.79468 1218.79553
1204.0 0.000831 1217.37122 1217.37219
1208.0 0.000828 1215.98425 1215.98535
1227.0 0.000815 1214.62793 1214.62915
1223.0 0.000818 1213.29749 1213.29858
1190.0 0.000840 1211.98694 1211.98767
1176.0 0.000850 1210.69128 1210.69226
1186.0 0.000843 1209.40637 1209.40759
1179.0 0.000848 1208.12817 1208.12891
1164.0 0.000859 1206.85107 1206.85168
1210.0 0.000826 1205.57214 1205.57312
1172.0 0.000853 1204.28723 1204.28833
1207.0 0.000829 1202.99341 1202.99390
1132.0 0.000883 1201.68604 1201.68713
1170.0 0.000855 1200.36353 1200.36475
1216.0 0.000822 1199.02197 1199.02246
1170.0 0.000855 1197.65857 1197.65955
1153.0 0.000867 1196.27087 1196.27197
1205.0 0.000830 1194.85681 1194.85803
1257.0 0.000796 1193.41357 1193.41479
1182.0 0.000846 1191.94031 1191.94153
1217.0 0.000822 1190.43384 1190.43518
1227.0 0.000815 1188.89307 1188.89417
1191.0 0.000840 1187.31604 1187.31726
1205.0 0.000830 1185.70166 1185.70276
1141.0 0.000876 1184.04883 1184.04993
1167.0 0.000857 1182.35596 1182.35718
1206.0 0.000829 1180.62244 1180.62366
1140.0 0.000877 1178.84717 1178.84802
1172.0 0.000853 1177.02954 1177.03040
1165.0 0.000858 1175.16882 1175.16956
1162.0 0.000861 1173.26453 1173.26538
1197.0 0.000835 1171.31580 1171.31689
1122.0 0.000891 1169.32336 1169.32471
1181.0 0.000847 1167.28638 1167.28784
1166.0 0.000858 1165.20496 1165.20642
1137.0 0.000880 1163.07874 1165.23535
1150.0 0.000870 1160.90845 1164.01538
1111.0 0.000900 1158.69397 1162.01392
1106.0 0.000904 1156.43469 1159.99170
1152.0 0.000868 1154.13281 1157.95264
1082.0 0.000924 1151.78662 1155.90063
1109.0 0.000902 1149.39844 1153.84082
1106.0 0.000904 1146.96777 1151.78137
1158.0 0.000864 1144.49524 1149.72815
1153.0 0.000867 1141.98181 1147.69312
1160.0 0.000862 1139.42810 1145.68713
1171.0 0.000854 1136.83533 1143.72534
1183.0 0.000845 1134.20300 1141.82800
1245.0 0.000803 1131.53333 1140.01904
1172.0 0.000853 1128.82642 1138.33228
1211.0 0.000826 1126.08398 1136.81165
1175.0 0.000851 1123.30603 1135.52380
1185.0 0.000844 1120.49414 1134.59790
1133.0 0.000883 1117.64929 1134.38745
1247.0 0.000802 1114.77307 1135.98621
1289.0 0.000776 1111.86487 1142.37952
1206.0 0.000829 1108.92798 1160.02759
1326.0 0.000754 1105.96167 1199.54980
1362.0 0.000734 1102.96826 1273.81970
1462.0 0.000684 1099.94836 1393.99316
1565.0 0.000639 1096.90332 1567.62268
1753.0 0.000570 1093.83484 1802.46265
1935.0 0.000517 1090.74329 2115.69922
2539.0 0.000394 1087.62964 2546.06152
3171.0 0.0003154 1084.49609 3159.08252
3981.0 0.0002512 1081.34326 4012.23486
4718.0 0.0002120 1078.17297 5042.07617
5367.0 0.0001863 1074.98511 5936.78125
6070.0 0.0001647 1071.78259 6203.73438
6193.0 0.0001615 1068.56519 5550.42725
5302.0 0.0001886 1065.33496 4243.08838
3288.0 0.0003041 1062.09290 2886.64673
2010.0 0.000498 1058.83984 1918.09961
1388.0 0.000720 1055.57703 1402.86670
1162.0 0.000861 1052.30603 1188.76501
1184.0 0.000845 1049.02759 1113.74207
1074.0 0.000931 1045.74353 1086.91492
1036.0 0.000965 1042.45398 1073.79871
1064.0 0.000940 1039.16077 1064.65454
1043.0 0.000959 1035.86450 1057.14404
1048.0 0.000954 1032.56702 1050.61389
1020.0 0.000980 1029.26880 1044.76953
1041.0 0.000961 1025.97095 1039.42969
990.0 0.001010 1022.67426 1034.47021
1009.0 0.000991 1019.38049 1029.80444
997.0 0.001003 1016.09009 1025.36877
990.0 0.001010 1012.80389 1021.11682
1033.0 0.000968 1009.52313 1017.01379
939.0 0.001065 1006.24847 1013.03345
987.0 0.001013 1002.98126 1009.15564
1049.0 0.000953 999.72229 1005.36578
1007.0 0.000993 996.47205 1001.65021
1038.0 0.000963 993.23187 994.63953
1037.0 0.000964 990.00171 990.00287
932.0 0.001073 986.78357 986.78461
984.0 0.001016 983.57733 983.57861
1003.0 0.000997 980.38416 980.38531
980.0 0.001020 977.20447 977.20563
930.0 0.001075 974.03888 974.04010
900.0 0.001111 970.88873 970.88995
976.0 0.001025 967.75397 967.75519
937.0 0.001067 964.63574 964.63678
955.0 0.001047 961.53412 961.53522
942.0 0.001062 958.45001 958.45099
905.0 0.001105 955.38446 955.38531
883.0 0.001133 952.33691 952.33801
889.0 0.001125 949.30841 949.30988
930.0 0.001075 946.29999 946.30103
903.0 0.001107 943.31085 943.31183
933.0 0.001072 940.34290 940.34375
918.0 0.001089 937.39508 937.39630
917.0 0.001091 934.46924 934.47009
885.0 0.001130 931.56464 931.56543
854.0 0.001171 928.68201 928.68280
927.0 0.001079 925.82159 925.82263
935.0 0.001070 922.98376 922.98486
919.0 0.001088 920.16919 920.17023
879.0 0.001138 917.37750 917.37848
973.0 0.001028 914.60944 914.61023
896.0 0.001116 911.86487 911.86566
951.0 0.001052 909.14404 909.14514
928.0 0.001078 906.44757 906.44855
879.0 0.001138 903.77502 903.77594
862.0 0.001160 901.12634 901.12738
870.0 0.001149 898.50275 898.50391
909.0 0.001100 895.90393 895.90460
931.0 0.001074 893.32928 893.33020
897.0 0.001115 890.77942 890.78003
902.0 0.001109 888.25433 888.25494
848.0 0.001179 885.75409 885.75476
896.0 0.001116 883.27881 883.27960
911.0 0.001098 880.82837 880.82904
902.0 0.001109 878.40253 878.40332
848.0 0.001179 876.00134 876.00232
909.0 0.001100 873.62524 873.62622
863.0 0.001159 871.27411 871.27478
881.0 0.001135 868.94739 868.94830
864.0 0.001157 866.64532 866.64569
886.0 0.001129 864.36768 864.36835
937.0 0.001067 862.11456 862.11517
856.0 0.001168 859.88562 859.88617
849.0 0.001178 857.68097 857.68158
862.0 0.001160 855.49988 855.50079
826.0 0.001211 853.34308 853.34381
897.0 0.001115 851.21008 851.21051
884.0 0.001131 849.10016 849.10120
826.0 0.001211 847.01416 847.01495
854.0 0.001171 844.95123 844.95190
797.0 0.001255 842.91119 842.91162
907.0 0.001103 840.89386 840.89447
847.0 0.001181 838.89929 838.89978
815.0 0.001227 836.92731 836.92761
837.0 0.001195 834.97693 834.97742
826.0 0.001211 833.04846 833.04907
827.0 0.001209 831.14203 831.14282
816.0 0.001225 829.25696 829.25775
814.0 0.001229 827.39319 827.39368
771.0 0.001297 825.55029 825.55084
798.0 0.001253 823.72791 823.72858
777.0 0.001287 821.92627 821.92670
860.0 0.001163 820.14453 820.14514
801.0 0.001248 818.38263 818.38330
803.0 0.001245 816.64044 816.64111
811.0 0.001233 814.91742 814.91809
832.0 0.001202 813.21344 813.21417
840.0 0.001190 811.52863 811.52924
796.0 0.001256 809.86206 809.86273
811.0 0.001233 808.21362 808.21448
865.0 0.001156 806.58344 806.58392
836.0 0.001196 804.97052 804.97113
831.0 0.001203 803.37500 803.37561
815.0 0.001227 801.79681 801.79724
787.0 0.001271 800.23517 800.23584
795.0 0.001258 798.68982 798.69049
834.0 0.001199 797.16101 797.16138
737.0 0.001357 795.64795 795.64850
810.0 0.001235 794.15057 794.15112
799.0 0.001252 792.66821 792.66882
803.0 0.001245 791.20123 791.20154
795.0 0.001258 789.74902 789.74927
799.0 0.001252 788.31116 788.31152
793.0 0.001261 786.88739 786.88794
767.0 0.001304 785.47748 785.47809
828.0 0.001208 784.08124 784.08197
824.0 0.001214 782.69855 782.69916
830.0 0.001205 781.32867 781.32910
830.0 0.001205 779.97186 779.97229
792.0 0.001263 778.62720 778.62775
816.0 0.001225 777.29510 777.29559
812.0 0.001232 775.97491 775.97534
816.0 0.001225 774.66663 774.66699
760.0 0.001316 773.36969 773.37018
785.0 0.001274 772.08405 772.08453
799.0 0.001252 770.80914 770.80975
772.0 0.001295 769.54547 769.54590
729.0 0.001372 768.29181 768.29224
752.0 0.001330 767.04858 767.04901
747.0 0.001339 765.81537 765.81592
785.0 0.001274 764.59204 764.59235
795.0 0.001258 763.37811 763.37854
786.0 0.001272 762.17365 762.17401
756.0 0.001323 760.97821 760.97858
763.0 0.001311 759.79163 759.79236
749.0 0.001335 758.61401 758.61456
748.0 0.001337 757.44489 757.44525
778.0 0.001285 756.28394 756.28424
747.0 0.001339 755.13074 755.13129
775.0 0.001290 753.98584 753.98663
747.0 0.001339 752.84888 752.84937
720.0 0.001389 751.71936 751.71979
766.0 0.001305 750.59686 750.59741
753.0 0.001328 749.48175 749.48242
721.0 0.001387 748.37378 748.37421
781.0 0.001280 747.27234 747.27313
693.0 0.001443 746.17798 746.17859
712.0 0.001404 745.09003 745.09064
743.0 0.001346 744.00842 744.00903
755.0 0.001325 742.93323 742.93372
732.0 0.001366 741.86407 741.86475
754.0 0.001326 740.80109 740.80127
784.0 0.001276 739.74359 739.74414
757.0 0.001321 738.69214 738.69263
774.0 0.001292 737.64618 737.64667
696.0 0.001437 736.60577 736.60602
681.0 0.001468 735.57050 735.57098
682.0 0.001466 734.54077 734.54126
756.0 0.001323 733.51599 733.51654
772.0 0.001295 732.49628 732.49707
744.0 0.001344 731.48187 731.48218
751.0 0.001332 730.47205 730.47260
667.0 0.001499 729.46710 729.46771
662.0 0.001511 728.46692 728.46765
687.0 0.001456 727.47150 727.47217
735.0 0.001361 726.48047 726.48114
745.0 0.001342 725.49408 725.49457
706.0 0.001416 724.51221 724.51257
732.0 0.001366 723.53461 723.53497
764.0 0.001309 722.56134 722.56183
723.0 0.001383 721.59216 721.59271
716.0 0.001397 720.62750 720.62793
723.0 0.001383 719.66705 719.66748
736.0 0.001359 718.71051 718.71106
690.0 0.001449 717.75806 717.75885
692.0 0.001445 716.80963 716.81055
700.0 0.001429 715.86554 715.86627
776.0 0.001289 714.92542 714.92603
721.0 0.001387 713.98907 713.98999
674.0 0.001484 713.05707 713.05750
717.0 0.001395 712.12854 712.12915
691.0 0.001447 711.20441 711.20483
701.0 0.001427 710.28369 710.28442
674.0 0.001484 709.36743 709.36798
718.0 0.001393 708.45465 708.45551
684.0 0.001462 707.54596 707.54681
700.0 0.001429 706.64136 706.64197
696.0 0.001437 705.74042 705.74109
703.0 0.001422 704.84375 704.84424
748.0 0.001337 703.95056 703.95105
667.0 0.001499 703.06140 703.06226
689.0 0.001451 702.17633 702.17700
723.0 0.001383 701.29535 701.29602
706.0 0.001416 700.41803 700.41901
676.0 0.001479 699.54510 699.54572
694.0 0.001441 698.67584 698.67651
731.0 0.001368 697.81079 697.81122
692.0 0.001445 696.94989 696.95032
699.0 0.001431 696.09296 696.09357
661.0 0.001513 695.24005 695.24078
718.0 0.001393 694.39166 694.39215
689.0 0.001451 693.54712 693.54779
706.0 0.001416 692.70703 692.70776
676.0 0.001479 691.87109 691.87195
696.0 0.001437 691.03943 691.04016
708.0 0.001412 690.21228 690.21283
699.0 0.001431 689.38934 689.38995
723.0 0.001383 688.57098 688.57147
707.0 0.001414 687.75665 687.75739
708.0 0.001412 686.94708 686.94763
683.0 0.001464 686.14209 686.14282
655.0 0.001527 685.34167 685.34222
672.0 0.001488 684.54565 684.54626
671.0 0.001490 683.75464 683.75525
714.0 0.001401 682.96820 682.96875
686.0 0.001458 682.18646 682.18677
672.0 0.001488 681.40936 681.40997
663.0 0.001508 680.63751 680.63818
678.0 0.001475 679.87036 679.87097
663.0 0.001508 679.10797 679.10876
674.0 0.001484 678.35089 678.35144
690.0 0.001449 677.59869 677.59924
700.0 0.001429 676.85150 676.85199
710.0 0.001408 676.10956 676.11029
653.0 0.001531 675.37262 675.37329
728.0 0.001374 674.64105 674.64178
665.0 0.001504 673.91467 673.91547
663.0 0.001508 673.19403 673.19458
672.0 0.001488 672.47827 672.47894
682.0 0.001466 671.76813 671.76855
644.0 0.001553 671.06348 671.06396
644.0 0.001553 670.36420 670.36475
721.0 0.001387 669.67053 669.67108
627.0 0.001595 668.98242 668.98334
726.0 0.001377 668.30005 668.30072
676.0 0.001479 667.62354 667.62427
649.0 0.001541 666.95239 666.95325
668.0 0.001497 666.28741 666.28802
671.0 0.001490 665.62811 665.62872
656.0 0.001524 664.97467 664.97528
620.0 0.001613 664.32721 664.32776
610.0 0.001639 663.68567 663.68610
636.0 0.001572 663.05017 663.05066
666.0 0.001502 662.42059 662.42108
661.0 0.001513 661.79694 661.79767
647.0 0.001546 661.17963 661.18005
676.0 0.001479 660.56854 660.56915
633.0 0.001580 659.96362 659.96393
705.0 0.001418 659.36469 659.36523
689.0 0.001451 658.77216 658.77258
651.0 0.001536 658.18604 658.18652
658.0 0.001520 657.60596 657.60645
636.0 0.001572 657.03253 657.03302
659.0 0.001517 656.46527 656.46606
662.0 0.001511 655.90466 655.90515
665.0 0.001504 655.35028 655.35083
652.0 0.001534 654.80249 654.80304
622.0 0.001608 654.26129 654.26184
622.0 0.001608 653.72650 653.72705
632.0 0.001582 653.19824 653.19891
636.0 0.001572 652.67651 652.67712
663.0 0.001508 652.16156 652.16205
666.0 0.001502 651.65326 651.65356
652.0 0.001534 651.15137 651.15216
650.0 0.001538 650.65625 650.65680
654.0 0.001529 650.16797 650.16852
676.0 0.001479 649.68640 649.68683
650.0 0.001538 649.21130 649.21179
664.0 0.001506 648.74323 648.74347
637.0 0.001570 648.28168 648.28192
663.0 0.001508 647.82690 647.82727
673.0 0.001486 647.37903 647.37946
696.0 0.001437 646.93799 646.93829
682.0 0.001466 646.50348 646.50366
704.0 0.001420 646.07562 646.07617
705.0 0.001418 645.65509 645.65521
646.0 0.001548 645.24109 645.24152
625.0 0.001600 644.83417 644.83441
635.0 0.001575 644.43372 644.43408
626.0 0.001597 644.04028 644.04077
657.0 0.001522 643.65356 643.65411
620.0 0.001613 643.27374 643.27417
637.0 0.001570 642.90082 642.90137
625.0 0.001600 642.53491 642.53528
643.0 0.001555 642.17548 642.17584
611.0 0.001637 641.82300 641.82330
664.0 0.001506 641.47742 641.47778
674.0 0.001484 641.13879 641.13904
627.0 0.001595 640.80664 640.80701
633.0 0.001580 640.48132 640.48193
634.0 0.001577 640.16309 640.16339
625.0 0.001600 639.85150 639.85187
664.0 0.001506 639.54669 639.54712
591.0 0.001692 639.24860 639.24921
611.0 0.001637 638.95746 638.95764
614.0 0.001629 638.67303 638.67328
637.0 0.001570 638.39514 638.39539
623.0 0.001605 638.12408 638.12463
629.0 0.001590 637.85986 637.86005
667.0 0.001499 637.60217 637.60260
661.0 0.001513 637.35132 637.35150
669.0 0.001495 637.10675 637.10712
643.0 0.001555 636.86920 636.86963
669.0 0.001495 636.63831 636.63855
666.0 0.001502 636.41382 636.41412
654.0 0.001529 636.19617 636.19641
631.0 0.001585 635.98480 635.98499
669.0 0.001495 635.78009 635.78033
663.0 0.001508 635.58191 635.58197
648.0 0.001543 635.39032 635.47003
684.0 0.001462 635.20502 635.28998
645.0 0.001550 635.02631 635.14679
697.0 0.001435 634.85388 634.98260
670.0 0.001493 634.68805 634.82544
665.0 0.001504 634.52863 634.67609
624.0 0.001603 634.37524 634.53400
623.0 0.001605 634.22870 634.39960
633.0 0.001580 634.08795 634.27277
660.0 0.001515 633.95386 634.15442
649.0 0.001541 633.82593 634.04419
663.0 0.001508 633.70404 633.94263
624.0 0.001603 633.58832 633.85022
682.0 0.001466 633.47919 633.76758
604.0 0.001656 633.37585 633.69550
607.0 0.001647 633.27856 633.63483
603.0 0.001658 633.18768 633.58673
620.0 0.001613 633.10266 633.55341
656.0 0.001524 633.02350 633.53638
601.0 0.001664 632.95050 633.53925
646.0 0.001548 632.88348 633.56714
605.0 0.001653 632.82233 633.62805
648.0 0.001543 632.76703 633.74255
641.0 0.001560 632.71759 633.96594
629.0 0.001590 632.67432 634.44556
615.0 0.001626 632.63647 635.52344
626.0 0.001597 632.60443 637.87537
645.0 0.001550 632.57819 642.64349
667.0 0.001499 632.55762 651.47839
650.0 0.001538 632.54291 666.25757
620.0 0.001613 632.53369 688.01184
710.0 0.001408 632.53015 714.80212
691.0 0.001447 632.53204 739.93427
671.0 0.001490 632.53955 753.39697
726.0 0.001377 632.55267 748.08337
672.0 0.001488 632.57111 726.53235
659.0 0.001517 632.59503 698.09149
661.0 0.001513 632.62451 671.98456
664.0 0.001506 632.65912 653.39496
657.0 0.001522 632.69910 642.64099
662.0 0.001511 632.74469 637.45105
664.0 0.001506 632.79535 635.29578
632.0 0.001582 632.85150 634.46771
632.0 0.001582 632.91272 634.12976
615.0 0.001626 632.97888 633.96533
586.0 0.001706 633.05042 633.87531
645.0 0.001550 633.12714 633.82855
650.0 0.001538 633.20892 633.81262
650.0 0.001538 633.29578 633.82111
668.0 0.001497 633.38745 633.84875
634.0 0.001577 633.48438 633.89258
652.0 0.001534 633.58588 633.94983
637.0 0.001570 633.69293 634.01910
660.0 0.001515 633.80444 634.09882
621.0 0.001610 633.92114 634.18793
622.0 0.001608 634.04230 634.28522
640.0 0.001563 634.16852 634.39044
659.0 0.001517 634.29950 634.54639
624.0 0.001603 634.43494 634.66901
661.0 0.001513 634.57550 634.81451
637.0 0.001570 634.72040 634.95142
655.0 0.001527 634.87042 635.09479
623.0 0.001605 635.02460 635.24457
626.0 0.001597 635.18365 635.40057
615.0 0.001626 635.34723 635.56274
652.0 0.001534 635.51538 635.65131
641.0 0.001560 635.68787 635.83069
648.0 0.001543 635.86505 635.98547
615.0 0.001626 636.04645 636.17859
643.0 0.001555 636.23242 636.37775
678.0 0.001475 636.42285 636.58368
629.0 0.001590 636.61786 636.79626
629.0 0.001590 636.81659 637.01660
594.0 0.001684 637.02014 637.24506
579.0 0.001727 637.22778 637.48297
605.0 0.001653 637.43994 637.73193
599.0 0.001669 637.65601 637.99377
699.0 0.001431 637.87653 638.27173
640.0 0.001563 638.10107 638.57318
626.0 0.001597 638.32953 638.91589
599.0 0.001669 638.56250 639.34882
689.0 0.001451 638.79950 639.99670
610.0 0.001639 639.04053 641.12909
660.0 0.001515 639.28571 643.25006
632.0 0.001582 639.53473 647.15082
641.0 0.001560 639.78802 653.80804
696.0 0.001437 640.04510 663.89954
693.0 0.001443 640.30609 676.83862
727.0 0.001376 640.57117 689.84167
715.0 0.001399 640.83997 698.28473
712.0 0.001404 641.11261 698.23291
728.0 0.001374 641.38922 689.90820
702.0 0.001425 641.66968 677.24921
674.0 0.001484 641.95380 664.59259
604.0 0.001656 642.24182 654.88452
657.0 0.001522 642.53363 648.89685
646.0 0.001548 642.82910 645.88928
597.0 0.001675 643.12830 644.69482
648.0 0.001543 643.43134 644.38074
620.0 0.001613 643.73761 644.42133
651.0 0.001536 644.04816 644.59106
703.0 0.001422 644.36169 644.81219
652.0 0.001534 644.67932 645.06024
638.0 0.001567 644.99994 645.32727
642.0 0.001558 645.32446 645.60852
660.0 0.001515 645.65247 645.90118
640.0 0.001563 645.98389 646.20374
660.0 0.001515 646.31873 646.51440
653.0 0.001531 646.65717 646.83221
596.0 0.001678 646.99896 647.15637
626.0 0.001597 647.34430 647.48682
617.0 0.001621 647.69275 647.82269
627.0 0.001595 648.04462 648.16302
646.0 0.001548 648.39990 648.50861
606.0 0.001650 648.75836 648.85858
643.0 0.001555 649.12024 649.21252
690.0 0.001449 649.48541 649.57092
654.0 0.001529 649.85364 649.93298
668.0 0.001497 650.22510 650.29926
621.0 0.001610 650.59991 650.66895
600.0 0.001667 650.97784 651.04230
636.0 0.001572 651.35852 651.37720
630.0 0.001587 651.74268 651.76001
639.0 0.001565 652.12994 652.14624
635.0 0.001575 652.52014 652.52014
642.0 0.001558 652.91339 652.91345
583.0 0.001715 653.30945 653.30981
660.0 0.001515 653.70874 653.70892
657.0 0.001522 654.11084 654.11108
597.0 0.001675 654.51593 654.51605
684.0 0.001462 654.92389 654.92419
673.0 0.001486 655.33484 655.33496
594.0 0.001684 655.74866 655.74878
620.0 0.001613 656.16504 656.16528
651.0 0.001536 656.58435 656.58447
670.0 0.001493 657.00647 657.00665
636.0 0.001572 657.43115 657.43140
675.0 0.001481 657.85870 657.85883
661.0 0.001513 658.28876 658.28888
635.0 0.001575 658.72174 658.72217
618.0 0.001618 659.15698 659.15723
664.0 0.001506 659.59503 659.59534
694.0 0.001441 660.03564 660.03583
718.0 0.001393 660.47876 660.47894
752.0 0.001330 660.92438 661.32336
759.0 0.001318 661.37238 661.79120
694.0 0.001441 661.82288 662.26300
716.0 0.001397 662.27594 663.29285
701.0 0.001427 662.73114 663.80115
709.0 0.001410 663.18872 664.46381
654.0 0.001529 663.64874 664.99323
662.0 0.001511 664.11090 665.53076
716.0 0.001397 664.57526 666.07678
678.0 0.001475 665.04175 666.63245
711.0 0.001406 665.51074 667.19867
666.0 0.001502 665.98175 667.77594
699.0 0.001431 666.45459 668.36597
731.0 0.001368 666.92963 668.96979
702.0 0.001425 667.40686 669.58881
738.0 0.001355 667.88599 670.22571
712.0 0.001404 668.36688 670.88196
657.0 0.001522 668.84985 671.56073
686.0 0.001458 669.33466 672.26544
697.0 0.001435 669.82129 672.99969
626.0 0.001597 670.30963 673.76843
667.0 0.001499 670.79993 674.57825
681.0 0.001468 671.29175 675.43646
662.0 0.001511 671.78528 676.35211
660.0 0.001515 672.28033 677.33771
668.0 0.001497 672.77728 678.40869
696.0 0.001437 673.27557 679.58551
695.0 0.001439 673.77527 680.89496
680.0 0.001471 674.27667 682.37366
685.0 0.001460 674.77948 684.07227
691.0 0.001447 675.28333 686.07031
681.0 0.001468 675.78870 688.51355
684.0 0.001462 676.29535 691.74670
695.0 0.001439 676.80334 696.66833
685.0 0.001460 677.31250 705.55164
725.0 0.001379 677.82269 723.55737
786.0 0.001272 678.33398 760.78864
898.0 0.001114 678.84650 833.84619
1005.0 0.000995 679.35956 963.67719
1146.0 0.000873 679.87390 1166.05505
1405.0 0.000712 680.38904 1435.44116
1703.0 0.000587 680.90515 1730.64648
1956.0 0.000511 681.42200 1978.47815
2084.0 0.000480 681.93958 2105.98438
2214.0 0.000452 682.45764 2079.20020
2062.0 0.000485 682.97662 1903.82605
1795.0 0.000557 683.49597 1633.41077
1424.0 0.000702 684.01611 1346.98352
1110.0 0.000901 684.53662 1101.26501
948.0 0.001055 685.05731 923.17310
732.0 0.001366 685.57867 812.45074
690.0 0.001449 686.10010 752.53351
688.0 0.001453 686.62213 723.81787
702.0 0.001425 687.14410 711.12372
719.0 0.001391 687.66620 705.43103
686.0 0.001458 688.18835 702.50177
700.0 0.001429 688.71082 700.70679
693.0 0.001443 689.23297 699.48523
718.0 0.001393 689.75519 698.62805
696.0 0.001437 690.27704 698.03394
696.0 0.001437 690.79895 697.63824
714.0 0.001401 691.32056 700.51788
694.0 0.001441 691.84167 700.55255
732.0 0.001366 692.36230 700.69586
676.0 0.001479 692.88251 702.13477
667.0 0.001499 693.40247 702.50739
705.0 0.001418 693.92163 702.95288
724.0 0.001381 694.44012 703.46503
738.0 0.001355 694.95813 704.03888
724.0 0.001381 695.47516 704.67200
767.0 0.001304 695.99152 705.36365
730.0 0.001370 696.50690 706.11273
710.0 0.001408 697.02142 706.92224
743.0 0.001346 697.53467 707.79449
737.0 0.001357 698.04718 708.73346
767.0 0.001304 698.55798 709.74506
745.0 0.001342 699.06793 710.83643
726.0 0.001377 699.57666 712.01801
709.0 0.001410 700.08380 713.30048
722.0 0.001385 700.58960 714.69904
731.0 0.001368 701.09406 716.23224
735.0 0.001361 701.59662 717.92236
811.0 0.001233 702.09796 719.79834
722.0 0.001385 702.59741 721.49817
782.0 0.001279 703.09491 723.88177
739.0 0.001353 703.59082 726.59137
758.0 0.001319 704.08478 729.18054
772.0 0.001295 704.57672 732.81927
740.0 0.001351 705.06647 736.95001
761.0 0.001314 705.55444 742.05304
777.0 0.001287 706.04004 748.24127
786.0 0.001272 706.52332 755.92383
765.0 0.001307 707.00421 765.89294
764.0 0.001309 707.48297 780.07330
867.0 0.001153 707.95905 803.72314
885.0 0.001130 708.43274 850.64435
952.0 0.001050 708.90363 952.66394
1198.0 0.000835 709.37207 1171.96143
1699.0 0.000589 709.83771 1605.72729
2382.0 0.000420 710.30029 2360.33911
3310.0 0.0003021 710.76038 3473.78979
4622.0 0.0002164 711.21692 4807.14746
5814.0 0.0001720 711.67114 6002.40039
6708.0 0.0001491 712.12183 6599.35596
6456.0 0.0001549 712.56958 6342.92285
5914.0 0.0001691 713.01379 5412.26465
4373.0 0.0002287 713.45483 4186.99609
3013.0 0.0003319 713.89282 2994.13379
2075.0 0.000482 714.32684 2053.90796
1365.0 0.000733 714.75751 1433.07959
918.0 0.001089 715.18457 1082.39551
809.0 0.001236 715.60797 910.47986
742.0 0.001348 716.02771 834.17511
711.0 0.001406 716.44379 800.28259
733.0 0.001364 716.85583 782.88324
732.0 0.001366 717.26361 771.90265
696.0 0.001437 717.66754 763.94891
701.0 0.001427 718.06763 757.82666
676.0 0.001479 718.46368 752.99481
698.0 0.001433 718.85504 749.12677
719.0 0.001391 719.24231 745.99536
692.0 0.001445 719.62518 743.43970
677.0 0.001477 720.00366 741.33813
681.0 0.001468 720.37769 739.59979
624.0 0.001603 720.74689 738.15607
655.0 0.001527 721.11182 736.95258
715.0 0.001399 721.47168 735.94733
664.0 0.001506 721.82715 735.10614
722.0 0.001385 722.17761 734.40283
672.0 0.001488 722.52301 733.81525
653.0 0.001531 722.86365 733.32544
727.0 0.001376 723.19910 732.91907
722.0 0.001385 723.52948 732.60468
698.0 0.001433 723.85492 732.33130
749.0 0.001335 724.17480 732.11047
765.0 0.001307 724.48950 731.94293
763.0 0.001311 724.79889 731.80688
840.0 0.001190 725.10297 731.70483
755.0 0.001325 725.40143 731.63226
807.0 0.001239 725.69409 731.58514
788.0 0.001269 725.98151 731.56049
761.0 0.001314 726.26312 731.55469
807.0 0.001239 726.53931 731.56573
796.0 0.001256 726.80933 731.59131
814.0 0.001229 727.07367 728.48492
791.0 0.001264 727.33203 728.67975
807.0 0.001239 727.58447 728.87402
796.0 0.001256 727.83081 727.89758
845.0 0.001183 728.07117 728.14276
862.0 0.001160 728.30530 728.38281
788.0 0.001269 728.53339 728.61737
810.0 0.001235 728.75507 728.84625
823.0 0.001215 728.97076 729.07007
764.0 0.001309 729.17975 729.28870
749.0 0.001335 729.38251 729.50208
686.0 0.001458 729.57880 729.71100
628.0 0.001592 729.76849 729.91547
672.0 0.001488 729.95178 730.11591
686.0 0.001458 730.12830 730.31293
641.0 0.001560 730.29840 730.50714
683.0 0.001464 730.46130 730.70032
668.0 0.001497 730.61798 730.89337
681.0 0.001468 730.76782 731.08893
708.0 0.001412 730.91046 731.29156
687.0 0.001456 731.04639 731.51105
626.0 0.001597 731.17560 731.77539
680.0 0.001471 731.29749 732.15747
671.0 0.001490 731.41260 732.83557
640.0 0.001563 731.52057 734.17029
697.0 0.001435 731.62146 736.74725
670.0 0.001493 731.71521 741.24463
686.0 0.001458 731.80176 747.96429
697.0 0.001435 731.88092 756.18097
732.0 0.001366 731.95294 763.82294
687.0 0.001456 732.01801 768.11395
729.0 0.001372 732.07520 767.32617
719.0 0.001391 732.12549 762.31439
697.0 0.001435 732.16779 755.26874
711.0 0.001406 732.20319 748.05176
689.0 0.001451 732.23090 742.00830
733.0 0.001364 732.25092 737.74640
680.0 0.001471 732.26379 735.16547
747.0 0.001339 732.26923 733.80609
712.0 0.001404 732.26678 733.16394
706.0 0.001416 732.25677 732.86584
692.0 0.001445 732.23907 732.70630
642.0 0.001558 732.21368 732.59583
676.0 0.001479 732.18066 732.50299
720.0 0.001389 732.14008 732.41602
729.0 0.001372 732.09174 732.33112
768.0 0.001302 732.03564 732.24487
669.0 0.001495 731.97168 732.15643
694.0 0.001441 731.89984 732.06433
721.0 0.001387 731.82031 731.96753
777.0 0.001287 731.73303 731.86517
718.0 0.001393 731.63770 731.75763
757.0 0.001321 731.53473 731.64362
713.0 0.001403 731.42377 731.52332
698.0 0.001433 731.30487 731.39636
697.0 0.001435 731.17834 731.26208
686.0 0.001458 731.04364 731.12115
729.0 0.001372 730.90100 730.97278
693.0 0.001443 730.75061 730.81714
747.0 0.001339 730.59229 730.65417
769.0 0.001300 730.42584 730.48383
757.0 0.001321 730.25153 730.30560
706.0 0.001416 730.06927 730.12006
738.0 0.001355 729.87891 729.92688
746.0 0.001340 729.68079 729.72595
766.0 0.001305 729.47467 729.51721
758.0 0.001319 729.26068 729.30090
788.0 0.001269 729.03870 731.32458
785.0 0.001274 728.80878 731.20331
704.0 0.001420 728.57068 738.80597
758.0 0.001319 728.32477 739.92004
788.0 0.001269 728.07074 740.23450
768.0 0.001302 727.80890 740.60968
797.0 0.001255 727.53906 744.09882
761.0 0.001314 727.26154 744.71460
822.0 0.001217 726.97614 745.40613
840.0 0.001190 726.68262 746.17468
793.0 0.001261 726.38123 747.02960
760.0 0.001316 726.07190 747.98309
835.0 0.001198 725.75476 749.04834
786.0 0.001272 725.42963 750.24042
864.0 0.001157 725.09686 751.57819
821.0 0.001218 724.75641 753.08276
840.0 0.001190 724.40784 754.77985
780.0 0.001282 724.05151 756.69904
856.0 0.001168 723.68738 758.87592
837.0 0.001195 723.31555 761.35455
866.0 0.001155 722.93597 764.18585
877.0 0.001140 722.54865 767.43518
858.0 0.001166 722.15387 771.18066
859.0 0.001164 721.75134 775.51849
867.0 0.001153 721.34088 780.57312
863.0 0.001159 720.92328 786.49768
965.0 0.001036 720.49762 793.49323
893.0 0.001120 720.06470 801.81830
850.0 0.001176 719.62415 811.81262
879.0 0.001138 719.17615 823.94073
989.0 0.001011 718.72052 838.83948
938.0 0.001066 718.25763 857.48145
997.0 0.001003 717.78735 881.57050
977.0 0.001024 717.30951 914.82068
1083.0 0.000923 716.82452 966.59540
1249.0 0.000801 716.33209 1060.53894
1510.0 0.000662 715.83246 1251.59204
1952.0 0.000512 715.32556 1649.91089
2649.0 0.000378 714.81146 2437.62524
3943.0 0.0002536 714.29034 3845.68335
6176.0 0.0001619 713.76190 6048.97266
8970.0 0.0001115 713.22675 8986.24707
11936.0 0.0000838 712.68396 12186.02148
14518.0 0.0000689 712.13464 14807.23730
15682.0 0.0000638 711.57849 15988.34277
15395.0 0.0000650 711.01526 15302.16211
13256.0 0.0000754 710.44495 13126.29688
10431.0 0.0000959 709.86786 10286.25000
7366.0 0.0001358 709.28418 7438.70215
4838.0 0.0002067 708.69354 5013.43213
3077.0 0.0003250 708.09662 3237.05591
1841.0 0.000543 707.49274 2103.27588
1263.0 0.000792 706.88226 1470.00342
1068.0 0.000936 706.26556 1152.60010
943.0 0.001060 705.64191 1003.24115
884.0 0.001131 705.01233 930.35419
858.0 0.001166 704.37604 887.86035
812.0 0.001232 703.73328 858.69720
803.0 0.001245 703.08466 836.49573
817.0 0.001224 702.42981 818.77704
804.0 0.001244 701.76862 804.31628
774.0 0.001292 701.10126 792.33130
811.0 0.001233 700.42792 782.27942
802.0 0.001247 699.74841 773.76337
750.0 0.001333 699.06305 766.48004
782.0 0.001279 698.37207 760.20715
804.0 0.001244 697.67480 754.76788
810.0 0.001235 696.97211 750.03058
851.0 0.001175 696.26361 745.89142
728.0 0.001374 695.54932 742.26917
774.0 0.001292 694.82959 739.10303
758.0 0.001319 694.10431 736.34521
692.0 0.001445 693.37341 733.96320
754.0 0.001326 692.63751 731.93585
742.0 0.001348 691.89569 730.25183
735.0 0.001361 691.14905 728.91290
761.0 0.001314 690.39685 727.93127
775.0 0.001290 689.63947 727.33453
748.0 0.001337 688.87738 727.16974
778.0 0.001285 688.10974 727.50458
743.0 0.001346 687.33752 728.44220
726.0 0.001377 686.56012 730.13544
742.0 0.001348 685.77789 732.83667
686.0 0.001458 684.99109 734.71161
743.0 0.001346 684.19946 741.81354
787.0 0.001271 683.40332 747.13000
740.0 0.001351 682.60254 775.16248
821.0 0.001218 681.79706 839.47906
934.0 0.001071 680.98724 973.00482
1167.0 0.000857 680.17291 1232.72778
1654.0 0.000605 679.35443 1656.00122
2294.0 0.000436 678.53174 2227.66675
2923.0 0.0003421 677.70459 2838.02075
3367.0 0.0002970 676.87366 3294.37256
3624.0 0.0002759 676.03821 3420.87012
3594.0 0.0002782 675.19934 3197.72046
3087.0 0.0003239 674.35620 2761.11816
2240.0 0.000446 673.50928 2249.92944
1797.0 0.000556 672.65863 1757.41968
1367.0 0.000732 671.80426 1352.07776
1014.0 0.000986 670.94635 1064.28638
818.0 0.001222 670.08484 886.11200
711.0 0.001406 669.21936 789.35767
677.0 0.001477 668.35095 741.95056
723.0 0.001383 667.47906 719.30573
663.0 0.001508 666.60413 707.38086
650.0 0.001538 665.72552 699.83630
649.0 0.001541 664.84393 694.27734
636.0 0.001572 663.95941 689.84570
608.0 0.001645 663.07153 686.18396
622.0 0.001608 662.18079 683.10291
654.0 0.001529 661.28705 680.47656
667.0 0.001499 660.39087 678.21973
608.0 0.001645 659.49170 676.27197
637.0 0.001570 658.58990 674.59082
599.0 0.001669 657.68549 673.14905
563.0 0.001776 656.77832 671.93182
635.0 0.001575 655.86884 670.93597
597.0 0.001675 654.95709 670.16913
615.0 0.001626 654.04272 669.65210
613.0 0.001631 653.12659 669.42133
606.0 0.001650 652.20782 669.53680
667.0 0.001499 651.28674 670.10065
666.0 0.001502 650.36401 671.31793
656.0 0.001524 649.43872 673.69867
637.0 0.001570 648.51208 678.63824
664.0 0.001506 647.58331 689.77777
708.0 0.001412 646.65265 715.36548
755.0 0.001325 645.72040 770.64014
829.0 0.001206 644.78638 876.87128
1097.0 0.000912 643.85101 1051.68896
1302.0 0.000768 642.91364 1290.34680
1654.0 0.000605 641.97510 1548.59192
1964.0 0.000509 641.03497 1747.32788
1951.0 0.000513 640.09351 1810.69006
1893.0 0.000528 639.15070 1724.17639
1691.0 0.000591 638.20685 1547.25415
1378.0 0.000726 637.26141 1336.35510
1171.0 0.000854 636.31561 1127.89075
990.0 0.001010 635.36804 951.30267
898.0 0.001114 634.41992 821.28815
667.0 0.001499 633.47076 737.53174
670.0 0.001493 632.52069 690.07117
620.0 0.001613 631.57007 665.82019
669.0 0.001495 630.61835 653.81622
652.0 0.001534 629.66620 647.32672
638.0 0.001567 628.71320 643.11627
623.0 0.001605 627.75977 639.90558
666.0 0.001502 626.80579 637.23010
653.0 0.001531 625.85156 634.90387
579.0 0.001727 624.89685 632.83282
652.0 0.001534 623.94171 630.95593
583.0 0.001715 622.98615 629.23041
571.0 0.001751 622.03082 627.62549
619.0 0.001616 621.07489 626.11639
646.0 0.001548 620.11908 624.68561
655.0 0.001527 619.16315 623.31854
596.0 0.001678 618.20715 626.66858
632.0 0.001582 617.25116 625.63245
603.0 0.001658 616.29535 624.65100
600.0 0.001667 615.33997 625.45422
640.0 0.001563 614.38440 624.65900
618.0 0.001618 613.42920 623.91809
599.0 0.001669 612.47430 623.23187
649.0 0.001541 611.51984 622.60114
602.0 0.001661 610.56567 622.02875
630.0 0.001587 609.61206 621.51782
614.0 0.001629 608.65851 621.07281
620.0 0.001613 607.70624 620.69952
622.0 0.001608 606.75397 620.40491
620.0 0.001613 605.80273 620.19775
587.0 0.001704 604.85205 620.08807
649.0 0.001541 603.90204 620.08875
617.0 0.001621 602.95300 620.21552
666.0 0.001502 602.00439 620.48633
576.0 0.001736 601.05701 620.10583
608.0 0.001645 600.11047 620.77667
603.0 0.001658 599.16467 621.67413
679.0 0.001473 598.22003 622.52728
619.0 0.001616 597.27649 624.03156
650.0 0.001538 596.33386 625.92584
647.0 0.001546 595.39215 628.29718
649.0 0.001541 594.45172 631.25745
654.0 0.001529 593.51251 635.39447
658.0 0.001520 592.57465 640.04590
687.0 0.001456 591.63812 645.89777
667.0 0.001499 590.70239 653.33246
673.0 0.001486 589.76843 663.11163
704.0 0.001420 588.83569 676.02014
723.0 0.001383 587.90405 694.91553
804.0 0.001244 586.97430 727.03595
899.0 0.001112 586.04584 791.23175
929.0 0.001076 585.11884 930.17731
1181.0 0.000847 584.19330 1222.67664
1802.0 0.000555 583.26929 1778.54858
2529.0 0.000395 582.34692 2689.06567
3890.0 0.0002571 581.42603 3931.80762
5130.0 0.0001949 580.50684 5282.59326
6072.0 0.0001647 579.58929 6336.56738
6624.0 0.0001510 578.67340 6700.79639
6349.0 0.0001575 577.75940 6304.73877
5411.0 0.0001848 576.84717 5435.28174
4182.0 0.0002391 575.93634 4390.39160
3109.0 0.0003216 575.02771 3340.43359
2278.0 0.000439 574.12042 2413.50830
1648.0 0.000607 573.21545 1700.23633
1009.0 0.000991 572.31201 1219.21289
836.0 0.001196 571.41071 934.71246
683.0 0.001464 570.51099 785.40912
696.0 0.001437 569.61334 712.63727
607.0 0.001647 568.71771 676.49506
628.0 0.001592 567.82373 656.06982
594.0 0.001684 566.93188 642.50934
646.0 0.001548 566.04211 632.53308
573.0 0.001745 565.15405 624.95117
573.0 0.001745 564.26837 619.38257
640.0 0.001563 563.38440 616.04749
619.0 0.001616 562.50275 616.23846
572.0 0.001748 561.62317 623.34052
616.0 0.001623 560.74530 644.01691
727.0 0.001376 559.86987 688.02905
798.0 0.001253 558.99646 764.40820
923.0 0.001083 558.12494 873.01971
1090.0 0.000917 557.25574 995.97113
1160.0 0.000862 556.38843 1097.70166
1229.0 0.000814 555.52374 1140.03723
1271.0 0.000787 554.66064 1110.91675
1137.0 0.000880 553.79968 1033.81641
991.0 0.001009 552.94141 937.64996
828.0 0.001208 552.08496 838.94904
786.0 0.001272 551.23090 749.31763
721.0 0.001387 550.37885 677.89465
635.0 0.001575 549.52899 627.78265
613.0 0.001631 548.68127 596.64453
562.0 0.001779 547.83575 579.20764
586.0 0.001706 546.99225 569.92841
569.0 0.001757 546.15118 564.72644
556.0 0.001799 545.31219 561.33209
564.0 0.001773 544.47565 558.72870
534.0 0.001873 543.64099 556.52130
588.0 0.001701 542.80902 549.93988
567.0 0.001764 541.97858 548.36975
565.0 0.001770 541.15070 546.92255
597.0 0.001675 540.32489 543.78687
560.0 0.001786 539.50140 542.59729
561.0 0.001783 538.68011 541.46558
528.0 0.001894 537.86115 540.37994
546.0 0.001832 537.04382 539.93225
552.0 0.001812 536.22925 538.94781
557.0 0.001795 535.41632 537.99249
520.0 0.001923 534.60614 537.06329
560.0 0.001786 533.79791 536.38727
531.0 0.001883 532.99170 535.57129
555.0 0.001802 532.18768 534.71832
535.0 0.001869 531.38599 533.88391
467.0 0.002141 530.58649 533.06677
550.0 0.001818 529.78857 532.28857
497.0 0.002012 528.99323 531.50549
513.0 0.001949 528.19989 530.73926
538.0 0.001859 527.40869 529.98932
516.0 0.001938 526.61963 529.25720
534.0 0.001873 525.83252 528.54327
544.0 0.001838 525.04730 527.84845
495.0 0.002020 524.26471 527.17517
495.0 0.002020 523.48383 526.52496
500.0 0.002000 522.70520 525.90039
509.0 0.001965 521.92828 524.86133
505.0 0.001980 521.15363 524.31946
510.0 0.001961 520.38104 523.81506
516.0 0.001938 519.60999 523.35394
533.0 0.001876 518.84137 522.78162
507.0 0.001972 518.07465 522.44281
525.0 0.001905 517.30981 522.18121
509.0 0.001965 516.54700 522.01410
544.0 0.001838 515.78607 521.96625
487.0 0.002053 515.02722 522.07056
491.0 0.002037 514.26990 522.37384
508.0 0.001969 513.51453 522.94910
487.0 0.002053 512.76117 523.93134
542.0 0.001845 512.00964 525.64197
535.0 0.001869 511.25986 528.93408
563.0 0.001776 510.51208 536.00684
534.0 0.001873 509.76599 551.79596
598.0 0.001672 509.02182 586.19391
647.0 0.001546 508.27908 650.00787
779.0 0.001284 507.53876 754.41235
968.0 0.001033 506.79947 897.08240
1122.0 0.000891 506.06213 1053.46045
1220.0 0.000820 505.32672 1177.26245
1279.0 0.000782 504.59271 1223.48108
1279.0 0.000782 503.86060 1182.84766
1245.0 0.000803 503.12988 1088.17749
1035.0 0.000966 502.40106 974.07611
923.0 0.001083 501.67374 857.58087
707.0 0.001414 500.94803 749.79816
737.0 0.001357 500.22382 661.66040
631.0 0.001585 499.50122 598.41132
550.0 0.001818 498.78000 559.15021
527.0 0.001898 498.06073 539.29688
559.0 0.001789 497.34247 533.78650
528.0 0.001894 496.62613 539.25555
584.0 0.001712 495.91101 553.69281
594.0 0.001684 495.19720 574.24304
556.0 0.001799 494.48514 595.36243
659.0 0.001517 493.77444 609.43079
658.0 0.001520 493.06506 610.67871
628.0 0.001592 492.35690 600.11682
610.0 0.001639 491.65042 583.51660
567.0 0.001764 490.94485 565.22070
557.0 0.001795 490.24103 547.15009
521.0 0.001919 489.53821 530.93652
519.0 0.001927 488.83676 518.01965
472.0 0.002119 488.13647 508.89972
497.0 0.002012 487.43744 503.18442
492.0 0.002033 486.73996 499.96722
541.0 0.001848 486.04327 498.29053
492.0 0.002033 485.34808 497.45483
484.0 0.002066 484.65384 497.07953
524.0 0.001908 483.96078 497.00970
478.0 0.002092 483.26895 497.20804
473.0 0.002114 482.57825 497.69299
516.0 0.001938 481.88846 498.51477
519.0 0.001927 481.19986 499.75275
502.0 0.001992 480.51242 501.53134
524.0 0.001908 479.82584 504.07043
546.0 0.001832 479.14041 507.84845
521.0 0.001919 478.45584 514.10809
521.0 0.001919 477.77219 526.12158
575.0 0.001739 477.08987 551.66510
680.0 0.001471 476.40817 606.23871
783.0 0.001277 475.72757 713.31195
1020.0 0.000980 475.04764 899.83234
1260.0 0.000794 474.36874 1173.84082
1545.0 0.000647 473.69104 1503.59229
1763.0 0.000567 473.01385 1808.20264
1849.0 0.000541 472.33774 1986.04309
1952.0 0.000512 471.66235 1973.71082
1727.0 0.000579 470.98776 1813.72571
1554.0 0.000644 470.31403 1589.77185
1228.0 0.000814 469.64093 1349.65955
990.0 0.001010 468.96899 1115.03259
931.0 0.001074 468.29742 907.19623
769.0 0.001300 467.62668 744.43256
629.0 0.001590 466.95676 631.98236
533.0 0.001876 466.28754 563.45099
511.0 0.001957 465.61908 526.15857
531.0 0.001883 464.95129 507.07874
494.0 0.002024 464.28397 497.19522
479.0 0.002088 463.61768 491.37094
518.0 0.001931 462.95175 487.35660
479.0 0.002088 462.28662 484.27362
470.0 0.002128 461.62195 481.77615
506.0 0.001976 460.95804 479.70447
465.0 0.002151 460.29483 477.96591
489.0 0.002045 459.63199 476.49625
472.0 0.002119 458.96988 475.25192
413.0 0.002421 458.30826 474.20059
481.0 0.002079 457.64713 473.32019
517.0 0.001934 456.98682 472.59583
499.0 0.002004 456.32678 472.01779
464.0 0.002155 455.66754 471.56033
463.0 0.002160 455.00861 471.26849
478.0 0.002092 454.35019 471.12402
495.0 0.002020 453.69257 471.13620
523.0 0.001912 453.03497 471.31857
462.0 0.002165 452.37836 471.69131
494.0 0.002024 451.72202 472.28040
514.0 0.001946 451.06613 473.12042
467.0 0.002141 450.41074 474.25629
475.0 0.002105 449.75568 475.74750
527.0 0.001898 449.10132 477.67123
493.0 0.002028 448.44733 480.13086
517.0 0.001934 447.79382 483.26489
549.0 0.001821 447.14069 487.26212
469.0 0.002132 446.48807 492.40140
520.0 0.001923 445.83582 499.13611
518.0 0.001931 445.18411 508.40515
619.0 0.001616 444.53253 522.54193
584.0 0.001712 443.88177 547.67914
630.0 0.001587 443.23123 598.71100
758.0 0.001319 442.58115 706.24591
952.0 0.001050 441.93152 920.54102
1347.0 0.000742 441.28229 1300.51038
1939.0 0.000516 440.63361 1878.13708
2775.0 0.000360 439.98502 2607.31616
3333.0 0.0003000 439.33722 3331.74487
3612.0 0.0002769 438.68954 3821.50903
3681.0 0.0002717 438.04233 3901.05054
3667.0 0.0002727 437.39575 3610.62231
3242.0 0.0003085 436.74939 3136.05762
2393.0 0.000418 436.10367 2613.71606
1819.0 0.000550 435.45795 2091.82202
1561.0 0.000641 434.81296 1605.31201
1140.0 0.000877 434.16852 1199.82043
847.0 0.001181 433.52432 900.80164
645.0 0.001550 432.88071 706.34448
553.0 0.001808 432.23743 594.26556
491.0 0.002037 431.59442 535.43549
450.0 0.002222 430.95215 505.36023
485.0 0.002062 430.31021 488.78320
467.0 0.002141 429.66885 478.18225
509.0 0.001965 429.02765 470.40366
433.0 0.002309 428.38718 464.22183
440.0 0.002273 427.74719 459.11359
455.0 0.002198 427.10764 454.79797
468.0 0.002137 426.46857 451.09592
488.0 0.002049 425.82996 447.87650
419.0 0.002387 425.19199 445.04385
482.0 0.002075 424.55444 442.52496
405.0 0.002469 423.91736 440.26205
425.0 0.002353 423.28088 438.21146
438.0 0.002283 422.64505 436.33734
443.0 0.002257 422.00952 434.61179
440.0 0.002273 421.37479 433.01273
427.0 0.002342 420.74045 431.52036
433.0 0.002309 420.10681 430.12064
402.0 0.002488 419.47375 428.80005
413.0 0.002421 418.84125 427.54883
420.0 0.002381 418.20944 426.35806
401.0 0.002494 417.57813 425.21988
387.0 0.002584 416.94778 424.12845
413.0 0.002421 416.31769 423.07803
421.0 0.002375 415.68835 422.06415
428.0 0.002336 415.05991 421.08313
423.0 0.002364 414.43185 420.13354
428.0 0.002336 413.80484 419.20792
382.0 0.002618 413.17831 418.30579
442.0 0.002262 412.55255 417.42493
399.0 0.002506 411.92770 416.56476
412.0 0.002427 411.30341 415.72083
390.0 0.002564 410.68018 414.89343
420.0 0.002381 410.05740 414.08029
400.0 0.002500 409.43567 413.28082
409.0 0.002445 408.81473 412.49390
399.0 0.002506 408.19461 411.71832
385.0 0.002597 407.57541 410.96368
384.0 0.002604 406.95691 410.20871
392.0 0.002551 406.33951 409.46301
396.0 0.002525 405.72299 406.65750
403.0 0.002481 405.10721 406.00967
394.0 0.002538 404.49258 405.36133
426.0 0.002347 403.87894 404.71600
385.0 0.002597 403.26617 403.29248
383.0 0.002611 402.65448 402.68210
407.0 0.002457 402.04385 402.07275
387.0 0.002584 401.43417 401.46466
407.0 0.002457 400.82559 400.85782
429.0 0.002331 400.21805 400.25204
382.0 0.002618 399.61179 399.64764
391.0 0.002558 399.00638 399.04437
403.0 0.002481 398.40234 398.44263
370.0 0.002703 397.79938 397.84222
400.0 0.002500 397.19751 397.24304
383.0 0.002611 396.59711 396.64560
398.0 0.002513 395.99765 396.04968
341.0 0.002933 395.39963 395.45538
365.0 0.002740 394.80280 394.86282
376.0 0.002660 394.20709 394.27185
371.0 0.002695 393.61295 393.68317
383.0 0.002611 393.01993 393.09631
362.0 0.002762 392.42847 392.51196
352.0 0.002841 391.83826 391.92972
364.0 0.002747 391.24957 391.35052
375.0 0.002667 390.66214 390.77423
396.0 0.002525 390.07617 390.20166
357.0 0.002801 389.49179 389.63379
405.0 0.002469 388.90875 389.07211
393.0 0.002545 388.32724 388.52188
374.0 0.002674 387.74738 387.99435
396.0 0.002525 387.16898 387.51535
391.0 0.002558 386.59210 387.13080
352.0 0.002841 386.01688 386.90521
369.0 0.002710 385.44315 386.89554
372.0 0.002688 384.87140 387.10101
387.0 0.002584 384.30109 387.41226
391.0 0.002558 383.73245 387.60587
386.0 0.002591 383.16565 387.43146
447.0 0.002237 382.60031 386.79950
403.0 0.002481 382.03708 385.88141
368.0 0.002717 381.47525 384.92819
381.0 0.002625 380.91559 384.13095
374.0 0.002674 380.35751 383.83737
383.0 0.002611 379.80130 384.01370
361.0 0.002770 379.24701 385.23856
392.0 0.002551 378.69458 387.29221
399.0 0.002506 378.14417 389.93286
403.0 0.002481 377.59558 392.35898
392.0 0.002551 377.04892 394.35587
441.0 0.002268 376.50439 393.57343
397.0 0.002519 375.96164 391.43417
386.0 0.002591 375.42123 388.79593
405.0 0.002469 374.88269 386.44879
398.0 0.002513 374.34622 383.80728
352.0 0.002841 373.81183 381.29547
403.0 0.002481 373.27945 379.10095
380.0 0.002632 372.74954 377.34937
424.0 0.002358 372.22150 376.05038
405.0 0.002469 371.69583 375.12421
352.0 0.002841 371.17218 374.45132
380.0 0.002632 370.65094 373.92673
411.0 0.002433 370.13190 373.48120
373.0 0.002681 369.61511 373.08078
384.0 0.002604 369.10043 372.71118
397.0 0.002519 368.58826 372.36768
366.0 0.002732 368.07828 372.04971
366.0 0.002732 367.57083 371.75790
355.0 0.002817 367.06561 371.49411
390.0 0.002564 366.56284 371.26053
388.0 0.002577 366.06256 371.06055
394.0 0.002538 365.56451 370.89749
397.0 0.002519 365.06915 370.77655
401.0 0.002494 364.57602 370.70319
387.0 0.002584 364.08545 370.68414
412.0 0.002427 363.59760 370.72803
370.0 0.002703 363.11209 370.84512
382.0 0.002618 362.62912 371.04846
405.0 0.002469 362.14871 371.35361
381.0 0.002625 361.67081 371.78088
389.0 0.002571 361.19577 372.35580
414.0 0.002415 360.72314 374.47339
387.0 0.002584 360.25330 375.50668
396.0 0.002525 359.78592 376.82727
410.0 0.002439 359.32126 378.52527
368.0 0.002717 358.85944 380.76126
393.0 0.002545 358.40015 384.40677
404.0 0.002475 357.94385 389.21796
413.0 0.002421 357.48990 397.46262
444.0 0.002252 357.03900 412.56592
438.0 0.002283 356.59079 440.05286
486.0 0.002058 356.14542 486.90811
644.0 0.001553 355.70273 559.15234
721.0 0.001387 355.26279 658.80762
812.0 0.001232 354.82590 782.44977
932.0 0.001073 354.39172 924.36475
1094.0 0.000914 353.96039 1084.57544
1395.0 0.000717 353.53198 1271.84778
1625.0 0.000615 353.10651 1488.13391
1705.0 0.000587 352.68378 1702.99194
1779.0 0.000562 352.26407 1847.33643
1670.0 0.000599 351.84723 1852.83740
1677.0 0.000596 351.43326 1719.34680
1579.0 0.000633 351.02231 1516.26721
1271.0 0.000787 350.61426 1306.66113
1054.0 0.000949 350.20932 1110.32263
894.0 0.001119 349.80707 925.55377
703.0 0.001422 349.40808 759.09155
630.0 0.001587 349.01190 623.01031
530.0 0.001887 348.61865 523.61487
452.0 0.002212 348.22870 459.12695
421.0 0.002375 347.84158 421.73978
425.0 0.002353 347.45764 401.84613
367.0 0.002725 347.07648 391.56287
396.0 0.002525 346.69846 386.02795
378.0 0.002646 346.32370 382.82031
367.0 0.002725 345.95166 380.91754
408.0 0.002451 345.58304 379.93744
414.0 0.002415 345.21719 379.75171
370.0 0.002703 344.85452 380.34445
411.0 0.002433 344.49493 381.77145
423.0 0.002364 344.13840 384.17419
397.0 0.002519 343.78494 387.84991
422.0 0.002370 343.43460 393.50565
410.0 0.002439 343.08728 402.96115
428.0 0.002336 342.74319 420.80359
439.0 0.002278 342.40201 457.35522
505.0 0.001980 342.06415 531.93884
604.0 0.001656 341.72934 672.95874
934.0 0.001071 341.39755 908.73846
1280.0 0.000781 341.06894 1246.90149
1622.0 0.000617 340.74332 1650.33691
1938.0 0.000516 340.42087 2026.35144
2138.0 0.000468 340.10159 2252.60156
2298.0 0.000435 339.78534 2254.03711
2129.0 0.000470 339.47217 2076.42456
1935.0 0.000517 339.16211 1827.41052
1523.0 0.000657 338.85532 1573.58032
1157.0 0.000864 338.55139 1324.64368
1067.0 0.000937 338.25061 1079.84216
865.0 0.001156 337.95303 857.08557
663.0 0.001508 337.65845 676.55627
492.0 0.002033 337.36697 547.06580
480.0 0.002083 337.07855 464.78040
376.0 0.002660 336.79318 417.82150
409.0 0.002445 336.51096 392.73581
361.0 0.002770 336.23172 379.19800
382.0 0.002618 335.95566 370.98456
378.0 0.002646 335.68250 365.34274
361.0 0.002770 335.41254 361.15973
372.0 0.002688 335.14557 357.77802
353.0 0.002833 334.88144 354.89813
361.0 0.002770 334.62051 351.54904
346.0 0.002890 334.36255 349.53180
380.0 0.002632 334.10760 347.78159
378.0 0.002646 333.85559 346.24774
356.0 0.002809 333.60666 344.89102
347.0 0.002882 333.36066 343.35529
365.0 0.002740 333.11755 342.28091
382.0 0.002618 332.87738 341.30951
398.0 0.002513 332.64029 340.42575
370.0 0.002703 332.40601 339.62061
370.0 0.002703 332.17459 338.87656
352.0 0.002841 331.94617 338.18839
352.0 0.002841 331.72055 337.54913
354.0 0.002825 331.49802 336.95328
364.0 0.002747 331.27814 336.39502
320.0 0.003125 331.06119 335.87061
350.0 0.002857 330.84705 335.37610
325.0 0.003077 330.63574 334.90863
327.0 0.003058 330.42712 334.46552
329.0 0.003040 330.22144 334.04431
327.0 0.003058 330.01855 333.64310
342.0 0.002924 329.81808 333.25980
319.0 0.003135 329.62054 332.89325
317.0 0.003155 329.42590 332.54214
314.0 0.003185 329.23383 332.20496
327.0 0.003058 329.04440 331.88098
338.0 0.002959 328.85751 331.56903
337.0 0.002967 328.67352 331.26834
335.0 0.002985 328.49203 330.97818
295.0 0.003390 328.31311 330.69818
322.0 0.003106 328.13684 330.42746
351.0 0.002849 327.96310 330.16531
300.0 0.003333 327.79187 329.91196
329.0 0.003040 327.62314 328.29691
288.0 0.003472 327.45697 328.13483
331.0 0.003021 327.29327 327.95370
340.0 0.002941 327.13205 327.77737
325.0 0.003077 326.97330 327.07840
303.0 0.003300 326.81683 326.93124
282.0 0.00355 326.66278 326.79721
327.0 0.003058 326.51114 326.65860
327.0 0.003058 326.36176 326.52423
295.0 0.003390 326.21478 326.39490
316.0 0.003165 326.07013 326.27136
303.0 0.003300 325.92755 326.15472
314.0 0.003185 325.78735 326.15540
308.0 0.003247 325.64951 326.06461
291.0 0.003436 325.51358 325.99713
325.0 0.003077 325.37997 325.97775
339.0 0.002950 325.24857 326.06131
302.0 0.003311 325.11914 326.39194
304.0 0.003289 324.99182 327.03976
328.0 0.003049 324.86667 328.20010
281.0 0.00356 324.74344 329.92990
356.0 0.002809 324.62219 332.06223
316.0 0.003165 324.50293 334.13690
375.0 0.002667 324.38574 335.51010
357.0 0.002801 324.27032 335.72473
305.0 0.003279 324.15698 334.93402
340.0 0.002941 324.04535 333.69556
337.0 0.002967 323.93555 332.37991
320.0 0.003125 323.82764 331.02490
373.0 0.002681 323.72147 329.58389
333.0 0.003003 323.61710 328.15527
310.0 0.003226 323.51440 326.89972
302.0 0.003311 323.41348 325.90903
309.0 0.003236 323.31409 325.18961
312.0 0.003205 323.21634 324.69940
355.0 0.002817 323.12039 324.37918
325.0 0.003077 323.02588 324.17395
314.0 0.003185 322.93283 324.04428
364.0 0.002747 322.84134 323.96628
321.0 0.003115 322.75131 323.92593
298.0 0.003356 322.66281 323.91666
320.0 0.003125 322.57556 323.93777
326.0 0.003067 322.48993 323.99545
349.0 0.002865 322.40555 324.10876
354.0 0.002825 322.32236 324.32706
356.0 0.002809 322.24072 324.76486
286.0 0.003497 322.16028 325.65256
297.0 0.003367 322.08090 327.36719
339.0 0.002950 322.00287 330.37445
321.0 0.003115 321.92596 335.00342
360.0 0.002778 321.85019 341.09427
299.0 0.003344 321.77539 347.70139
362.0 0.002762 321.70181 353.11502
337.0 0.002967 321.62924 355.59042
337.0 0.002967 321.55774 354.73166
324.0 0.003086 321.48706 352.03775
361.0 0.002770 321.41742 349.48660
336.0 0.002976 321.34872 348.52206
327.0 0.003058 321.28067 350.40833
334.0 0.002994 321.21375 356.98798
336.0 0.002976 321.14758 370.98248
350.0 0.002857 321.08209 392.07059
405.0 0.002469 321.01743 418.43060
442.0 0.002262 320.95340 443.80185
432.0 0.002315 320.89014 459.61279
475.0 0.002105 320.82745 460.37473
428.0 0.002336 320.76547 448.19180
440.0 0.002273 320.70398 430.91544
396.0 0.002525 320.64310 413.77704
410.0 0.002439 320.58273 397.59979
415.0 0.002410 320.52280 381.42709
352.0 0.002841 320.46338 365.67267
336.0 0.002976 320.40427 351.88412
334.0 0.002994 320.34576 341.18274
308.0 0.003247 320.28741 333.83093
342.0 0.002924 320.22943 329.32562
341.0 0.002933 320.17184 326.81778
339.0 0.002950 320.11447 325.48105
336.0 0.002976 320.05722 324.74838
309.0 0.003236 320.00021 324.30817
347.0 0.002882 319.94342 324.24872
345.0 0.002899 319.88684 324.05603
339.0 0.002950 319.83032 323.92694
318.0 0.003145 319.77393 323.84955
354.0 0.002825 319.71750 323.81699
324.0 0.003086 319.66101 323.91519
316.0 0.003165 319.60452 323.96808
346.0 0.002890 319.54810 324.06104
307.0 0.003257 319.49158 324.19528
331.0 0.003021 319.43484 324.37375
311.0 0.003215 319.37808 324.60071
360.0 0.002778 319.32111 324.88184
318.0 0.003145 319.26382 325.22525
326.0 0.003067 319.20651 325.64124
324.0 0.003086 319.14883 326.14359
316.0 0.003165 319.09091 326.74982
315.0 0.003175 319.03259 327.48325
323.0 0.003096 318.97403 328.37473
332.0 0.003012 318.91507 329.46628
313.0 0.003195 318.85556 330.81943
351.0 0.002849 318.79581 332.53220
315.0 0.003175 318.73553 334.80035
332.0 0.003012 318.67480 338.24390
340.0 0.002941 318.61362 343.67117
338.0 0.002959 318.55176 353.79126
361.0 0.002770 318.48935 373.74393
460.0 0.002174 318.42648 412.99820
499.0 0.002004 318.36270 478.90738
603.0 0.001658 318.29858 579.31158
706.0 0.001416 318.23370 710.41095
863.0 0.001159 318.16812 851.43634
922.0 0.001085 318.10181 965.69476
929.0 0.001076 318.03479 1013.57733
1074.0 0.000931 317.96692 985.41119
1001.0 0.000999 317.89822 910.57550
901.0 0.001110 317.82886 825.55823
743.0 0.001346 317.75861 746.46680
659.0 0.001517 317.68738 670.92480
630.0 0.001587 317.61536 594.23608
554.0 0.001805 317.54239 520.85156
480.0 0.002083 317.46851 458.46689
421.0 0.002375 317.39365 411.68665
352.0 0.002841 317.31778 381.08511
383.0 0.002611 317.24100 364.03787
333.0 0.003003 317.16321 357.23431
341.0 0.002933 317.08423 358.84329
385.0 0.002597 317.00421 369.73093
389.0 0.002571 316.92316 392.17300
472.0 0.002119 316.84113 428.88251
500.0 0.002000 316.75781 479.05603
564.0 0.001773 316.67328 535.59290
606.0 0.001650 316.58774 584.56976
606.0 0.001650 316.50098 609.52917
604.0 0.001656 316.41293 603.33252
660.0 0.001515 316.32376 575.38983
617.0 0.001621 316.23340 541.18622
531.0 0.001883 316.14160 509.25079
509.0 0.001965 316.04871 479.58627
484.0 0.002066 315.95453 449.66809
425.0 0.002353 315.85898 420.35449
389.0 0.002571 315.76224 394.79834
369.0 0.002710 315.66397 375.62653
348.0 0.002874 315.56445 362.99600
375.0 0.002667 315.46362 356.39072
358.0 0.002793 315.36136 354.36627
374.0 0.002674 315.25775 355.70337
386.0 0.002591 315.15268 360.13986
455.0 0.002198 315.04623 368.37015
380.0 0.002632 314.93832 383.02328
436.0 0.002294 314.82901 408.70511
497.0 0.002012 314.71826 452.51752
562.0 0.001779 314.60599 524.40485
682.0 0.001466 314.49228 636.81049
766.0 0.001305 314.37729 802.06653
1054.0 0.000949 314.26062 1026.00964
1415.0 0.000707 314.14240 1299.91211
1649.0 0.000606 314.02280 1592.43298
1752.0 0.000571 313.90158 1840.54675
1840.0 0.000543 313.77896 1962.79675
1936.0 0.000517 313.65460 1916.87305
1794.0 0.000557 313.52878 1747.87146
1708.0 0.000585 313.40149 1540.53320
1294.0 0.000773 313.27258 1346.75854
1062.0 0.000942 313.14221 1169.79822
928.0 0.001078 313.01019 995.80304
861.0 0.001161 312.87659 825.13892
762.0 0.001312 312.74136 673.26300
514.0 0.001946 312.60477 552.97253
417.0 0.002398 312.46631 468.33417
367.0 0.002725 312.32642 415.74942
369.0 0.002710 312.18500 387.20135
367.0 0.002725 312.04190 375.17160
351.0 0.002849 311.89725 375.40646
400.0 0.002500 311.75089 387.33487
426.0 0.002347 311.60303 411.27728
481.0 0.002079 311.45349 446.81744
545.0 0.001835 311.30240 489.14648
531.0 0.001883 311.14981 528.13556
556.0 0.001799 310.99548 550.86359
540.0 0.001852 310.83951 549.34955
591.0 0.001692 310.68210 528.71637
534.0 0.001873 310.52298 501.31961
521.0 0.001919 310.36230 475.59851
420.0 0.002381 310.20010 452.92191
394.0 0.002538 310.03635 431.11557
407.0 0.002457 309.87070 411.23416
388.0 0.002577 309.70377 397.40906
393.0 0.002545 309.53503 395.36746
384.0 0.002604 309.36505 410.27377
473.0 0.002114 309.19321 444.57581
516.0 0.001938 309.01987 495.73828
537.0 0.001862 308.84494 553.77118
598.0 0.001672 308.66852 602.01117
560.0 0.001786 308.49057 622.99194
591.0 0.001692 308.31100 611.16229
635.0 0.001575 308.12997 578.16248
566.0 0.001767 307.94757 540.47491
479.0 0.002088 307.76337 506.29892
462.0 0.002165 307.57779 475.33441
430.0 0.002326 307.39066 443.17139
452.0 0.002212 307.20212 410.78268
375.0 0.002667 307.01205 381.55005
338.0 0.002959 306.82062 358.16177
308.0 0.003247 306.62756 341.52463
320.0 0.003125 306.43314 331.12762
329.0 0.003040 306.23730 324.92081
330.0 0.003030 306.03989 321.25983
358.0 0.002793 305.84128 319.23404
321.0 0.003115 305.64117 317.94666
351.0 0.002849 305.43970 317.04114
335.0 0.002985 305.23679 315.06256
332.0 0.003012 305.03244 314.53036
323.0 0.003096 304.82700 314.19095
344.0 0.002907 304.62015 313.96628
309.0 0.003236 304.41183 313.85126
295.0 0.003390 304.20227 313.35394
348.0 0.002874 303.99130 313.48364
293.0 0.003413 303.77924 313.74118
344.0 0.002907 303.56592 314.14822
310.0 0.003226 303.35126 314.74054
280.0 0.00357 303.13541 315.58752
327.0 0.003058 302.91830 316.84082
319.0 0.003135 302.69998 318.85373
306.0 0.003268 302.48062 322.41052
325.0 0.003077 302.26013 329.04718
343.0 0.002915 302.03818 341.27054
390.0 0.002564 301.81540 362.28323
408.0 0.002451 301.59152 394.82816
497.0 0.002012 301.36652 439.36493
559.0 0.001789 301.14038 492.44092
534.0 0.001873 300.91312 546.20074
545.0 0.001835 300.68506 591.94666
610.0 0.001639 300.45584 626.07025
659.0 0.001517 300.22565 654.85773
701.0 0.001427 299.99451 684.37238
722.0 0.001385 299.76242 709.10352
688.0 0.001453 299.52936 713.70691
675.0 0.001481 299.29553 687.11139
660.0 0.001515 299.06076 636.80511
602.0 0.001661 298.82513 580.66418
545.0 0.001835 298.58853 530.95709
467.0 0.002141 298.35117 489.73779
445.0 0.002247 298.11316 453.28961
423.0 0.002364 297.87424 419.47885
379.0 0.002639 297.63474 389.69205
356.0 0.002809 297.39423 365.66028
364.0 0.002747 297.15320 348.88547
330.0 0.003030 296.91150 338.82196
347.0 0.002882 296.66904 334.43558
322.0 0.003106 296.42603 334.84698
363.0 0.002755 296.18228 340.10281
397.0 0.002519 295.93805 352.08508
419.0 0.002387 295.69339 373.87741
452.0 0.002212 295.44815 409.65015
548.0 0.001825 295.20227 463.71997
584.0 0.001712 294.95596 539.69312
634.0 0.001577 294.70923 639.48163
766.0 0.001305 294.46207 762.14795
975.0 0.001026 294.21448 904.24500
1111.0 0.000900 293.96640 1057.85791
1191.0 0.000840 293.71808 1200.07886
1172.0 0.000853 293.46927 1289.20068
1256.0 0.000796 293.22034 1288.23608
1288.0 0.000776 292.97107 1202.97095
1120.0 0.000893 292.72150 1078.46814
955.0 0.001047 292.47183 956.29224
721.0 0.001387 292.22174 850.74548
654.0 0.001529 291.97153 753.96344
618.0 0.001618 291.72125 656.91394
599.0 0.001669 291.47083 562.98242
479.0 0.002088 291.22021 481.02396
399.0 0.002506 290.96973 417.06839
366.0 0.002732 290.71918 372.39102
314.0 0.003185 290.46835 344.17609
306.0 0.003268 290.21771 327.63733
297.0 0.003367 289.96713 318.17798
313.0 0.003195 289.71652 312.51474
308.0 0.003247 289.46603 308.75604
296.0 0.003378 289.21573 305.96872
313.0 0.003195 288.96545 303.73334
273.0 0.00366 288.71536 301.86163
282.0 0.00355 288.46548 300.25604
278.0 0.00360 288.21588 298.85782
295.0 0.003390 287.96658 297.62543
298.0 0.003356 287.71738 296.56763
261.0 0.00383 287.46848 295.58176
284.0 0.00352 287.22000 294.68826
243.0 0.00412 286.97183 293.87241
283.0 0.00353 286.72418 293.22803
284.0 0.00352 286.47678 292.55133
329.0 0.003040 286.22986 291.90854
309.0 0.003236 285.98331 291.30716
297.0 0.003367 285.73746 290.74213
297.0 0.003367 285.49203 290.20929
293.0 0.003413 285.24707 289.60367
273.0 0.00366 285.00272 289.12848
308.0 0.003247 284.75897 288.67502
267.0 0.00375 284.51590 288.24130
293.0 0.003413 284.27344 287.85660
277.0 0.00361 284.03152 287.22736
318.0 0.003145 283.79034 286.84946
273.0 0.00366 283.55005 286.48465
274.0 0.00365 283.31042 286.13159
284.0 0.00352 283.07150 285.80142
323.0 0.003096 282.83340 285.40247
312.0 0.003205 282.59619 285.08246
271.0 0.00369 282.35986 284.77127
286.0 0.003497 282.12424 284.46866
299.0 0.003344 281.88965 284.17383
287.0 0.003484 281.65601 283.88660
270.0 0.00370 281.42319 283.60672
288.0 0.003472 281.19153 283.33408
254.0 0.00394 280.96072 283.06839
288.0 0.003472 280.73099 282.80975
278.0 0.00360 280.50226 282.55783
277.0 0.00361 280.27457 282.31647
257.0 0.00389 280.04797 282.07864
290.0 0.003448 279.82257 281.84833
272.0 0.00368 279.59836 281.62518
246.0 0.00407 279.37524 281.40988
259.0 0.00386 279.15329 281.07434
293.0 0.003413 278.93237 280.88129
274.0 0.00365 278.71304 280.69611
272.0 0.00368 278.49475 280.52106
271.0 0.00369 278.27777 279.79089
274.0 0.00365 278.06204 279.60754
265.0 0.00377 277.84766 279.48758
289.0 0.003460 277.63474 279.38232
284.0 0.00352 277.42297 279.29401
291.0 0.003436 277.21271 279.22565
261.0 0.00383 277.00385 278.97110
272.0 0.00368 276.79626 278.96054
278.0 0.00360 276.59036 278.98352
270.0 0.00370 276.38577 279.04764
249.0 0.00402 276.18277 279.16376
288.0 0.003472 275.98111 279.34875
276.0 0.00362 275.78098 279.63373
294.0 0.003401 275.58252 280.08389
276.0 0.00362 275.38553 280.84003
263.0 0.00380 275.19012 282.18732
320.0 0.003125 274.99634 284.63165
282.0 0.00355 274.80405 288.92377
279.0 0.00358 274.61346 295.94666
317.0 0.003155 274.42462 306.44449
296.0 0.003378 274.23730 320.69894
334.0 0.002994 274.05164 338.31116
380.0 0.002632 273.86771 358.22125
387.0 0.002584 273.68558 379.29205
404.0 0.002475 273.50510 401.51352
460.0 0.002174 273.32632 425.29590
395.0 0.002532 273.14926 448.13043
448.0 0.002232 272.97415 463.25046
443.0 0.002257 272.80072 463.48541
452.0 0.002212 272.62921 448.58194
440.0 0.002273 272.45917 426.29129
413.0 0.002421 272.29126 405.18988
381.0 0.002625 272.12509 389.47067
355.0 0.002817 271.96072 378.58569
351.0 0.002849 271.79825 369.97299
383.0 0.002611 271.63766 362.57388
363.0 0.002755 271.47900 354.66827
312.0 0.003205 271.32205 345.61462
304.0 0.003289 271.16711 334.95801
289.0 0.003460 271.01425 323.99655
277.0 0.00361 270.86313 314.71149
267.0 0.00375 270.71405 307.49979
314.0 0.003185 270.56689 302.02115
295.0 0.003390 270.42160 297.15048
302.0 0.003311 270.27835 292.20682
259.0 0.00386 270.13699 287.35901
284.0 0.00352 269.99765 283.09238
281.0 0.00356 269.86032 279.77182
311.0 0.003215 269.72501 277.53946
275.0 0.00364 269.59174 276.33585
282.0 0.00355 269.46036 275.97546
254.0 0.00394 269.33109 276.20905
282.0 0.00355 269.20374 276.74411
283.0 0.00353 269.07858 277.24042
271.0 0.00369 268.95526 277.35956
269.0 0.00372 268.83411 276.95877
289.0 0.003460 268.71484 276.21490
283.0 0.00353 268.59781 275.41141
293.0 0.003413 268.48276 274.71878
270.0 0.00370 268.36972 274.14566
256.0 0.00391 268.25870 273.60052
299.0 0.003344 268.14987 273.02780
284.0 0.00352 268.04285 272.46097
283.0 0.00353 267.93808 271.96024
302.0 0.003311 267.83545 271.56677
266.0 0.00376 267.73483 271.29312
291.0 0.003436 267.63617 271.12787
273.0 0.00366 267.53964 271.04678
308.0 0.003247 267.44513 271.02631
277.0 0.00361 267.35275 271.04977
276.0 0.00362 267.26245 271.10883
254.0 0.00394 267.17413 271.20032
299.0 0.003344 267.08786 271.32465
263.0 0.00380 267.00369 271.48471
242.0 0.00413 266.92163 271.68436
294.0 0.003401 266.84143 271.92892
263.0 0.00380 266.76355 272.22504
265.0 0.00377 266.68753 272.58096
279.0 0.00358 266.61356 273.00723
271.0 0.00369 266.54172 273.51712
297.0 0.003367 266.47192 274.12753
287.0 0.003484 266.40405 274.85992
273.0 0.00366 266.33823 275.74283
297.0 0.003367 266.27448 276.81308
269.0 0.00372 266.21277 278.12268
274.0 0.00365 266.15302 279.75012
287.0 0.003484 266.09525 281.79370
300.0 0.003333 266.03949 284.62451
298.0 0.003356 265.98572 288.87396
303.0 0.003300 265.93402 296.08264
312.0 0.003205 265.88422 309.35159
317.0 0.003155 265.83633 334.03342
363.0 0.002755 265.79031 378.07391
383.0 0.002611 265.74646 449.18259
568.0 0.001761 265.70453 550.83771
679.0 0.001473 265.66437 676.58148
767.0 0.001304 265.62616 805.91858
771.0 0.001297 265.58990 904.97272
825.0 0.001212 265.55554 939.08856
879.0 0.001138 265.52316 903.05328
896.0 0.001116 265.49252 827.61768
831.0 0.001203 265.46378 748.38068
703.0 0.001422 265.43689 683.24194
604.0 0.001656 265.41183 629.96277
523.0 0.001912 265.38858 575.91272
552.0 0.001812 265.36731 515.29926
517.0 0.001934 265.34763 453.27963
439.0 0.002278 265.32977 397.76031
360.0 0.002778 265.31384 353.82526
358.0 0.002793 265.29950 322.84164
313.0 0.003195 265.28699 303.36621
275.0 0.00364 265.27612 291.79031
279.0 0.00358 265.26715 285.17859
293.0 0.003413 265.25977 281.29379
286.0 0.003497 265.25406 278.80032
267.0 0.00375 265.25000 277.02301
265.0 0.00377 265.24762 275.74292
301.0 0.003322 265.24692 274.63486
300.0 0.003333 265.24783 273.72250
293.0 0.003413 265.25031 272.95926
275.0 0.00364 265.25436 272.31546
286.0 0.003497 265.26004 271.76953
297.0 0.003367 265.26736 271.30466
295.0 0.003390 265.27600 270.90924
270.0 0.00370 265.28635 270.57047
265.0 0.00377 265.29819 270.28107
286.0 0.003497 265.31140 270.04883
290.0 0.003448 265.32623 269.84058
284.0 0.00352 265.34232 269.66559
272.0 0.00368 265.36002 269.52179
269.0 0.00372 265.37894 269.40411
243.0 0.00412 265.39938 269.33029
253.0 0.00395 265.42114 269.26733
271.0 0.00369 265.44431 269.22153
255.0 0.00392 265.46878 269.19748
271.0 0.00369 265.49451 269.19485
254.0 0.00394 265.52158 269.21381
269.0 0.00372 265.54990 269.26215
296.0 0.003378 265.57953 269.32709
282.0 0.00355 265.61026 269.41849
261.0 0.00383 265.64227 269.53995
248.0 0.00403 265.67554 269.70074
288.0 0.003472 265.70978 269.92090
271.0 0.00369 265.74533 270.44434
259.0 0.00386 265.78198 271.51355
264.0 0.00379 265.81976 272.38358
271.0 0.00369 265.85849 273.79263
297.0 0.003367 265.89838 275.94659
275.0 0.00364 265.93924 278.93735
287.0 0.003484 265.98111 282.68176
316.0 0.003165 266.02405 286.72797
302.0 0.003311 266.06784 289.88300
281.0 0.00356 266.11264 291.47186
303.0 0.003300 266.15836 291.38181
294.0 0.003401 266.20505 290.53543
313.0 0.003195 266.25241 290.14578
291.0 0.003436 266.30081 291.12045
333.0 0.003003 266.35004 293.96228
315.0 0.003175 266.39996 298.52383
307.0 0.003257 266.45074 304.62906
326.0 0.003067 266.50229 311.87338
320.0 0.003125 266.55447 319.06271
318.0 0.003145 266.60742 326.44821
307.0 0.003257 266.66119 334.10605
365.0 0.002740 266.71542 344.60779
385.0 0.002597 266.77029 361.24207
369.0 0.002710 266.82602 386.16281
394.0 0.002538 266.88208 419.47345
428.0 0.002336 266.93884 459.70352
465.0 0.002151 266.99612 504.06186
572.0 0.001748 267.05389 551.12280
607.0 0.001647 267.11221 597.64032
609.0 0.001642 267.17096 633.67328
633.0 0.001580 267.23019 644.95715
655.0 0.001527 267.28995 625.18048
679.0 0.001473 267.34995 584.46777
623.0 0.001605 267.41040 538.92957
524.0 0.001908 267.47119 499.52020
453.0 0.002208 267.53226 468.30270
426.0 0.002347 267.59384 440.51157
408.0 0.002451 267.65555 411.41550
417.0 0.002398 267.71753 381.66171
386.0 0.002591 267.77975 354.60522
326.0 0.003067 267.84216 333.06290
327.0 0.003058 267.90482 318.33752
296.0 0.003378 267.96765 310.19858
301.0 0.003322 268.03061 307.32001
333.0 0.003003 268.09360 307.98669
290.0 0.003448 268.15680 310.64096
342.0 0.002924 268.21997 313.98694
325.0 0.003077 268.28329 317.16083
349.0 0.002865 268.34662 320.15732
327.0 0.003058 268.41000 323.44354
341.0 0.002933 268.47327 327.00504
344.0 0.002907 268.53653 330.05133
389.0 0.002571 268.59976 331.66122
351.0 0.002849 268.66290 332.11655
374.0 0.002674 268.72592 333.40771
384.0 0.002604 268.78888 338.79047
364.0 0.002747 268.85147 352.86850
345.0 0.002899 268.91394 382.31973
413.0 0.002421 268.97632 436.20993
530.0 0.001887 269.03854 524.47595
655.0 0.001527 269.10043 653.13702
839.0 0.001192 269.16202 817.41602
946.0 0.001057 269.22345 995.84729
1117.0 0.000895 269.28439 1149.14954
1157.0 0.000864 269.34521 1231.37744
1355.0 0.000738 269.40564 1218.60120
1410.0 0.000709 269.46561 1132.26855
1336.0 0.000749 269.52533 1020.07184
1068.0 0.000936 269.58447 919.06152
870.0 0.001149 269.64328 840.63495
748.0 0.001337 269.70163 774.84045
761.0 0.001314 269.75952 706.59717
726.0 0.001377 269.81689 632.21063
657.0 0.001522 269.87381 560.70221
573.0 0.001745 269.93021 501.88348
452.0 0.002212 269.98602 460.13458
434.0 0.002304 270.04123 433.28839
337.0 0.002967 270.09598 414.61389
376.0 0.002660 270.14999 397.39603
370.0 0.002703 270.20349 380.06122
360.0 0.002778 270.25626 364.36340
343.0 0.002915 270.30850 351.98300
329.0 0.003040 270.35995 343.01007
325.0 0.003077 270.41077 336.07410
299.0 0.003344 270.46088 329.49759
344.0 0.002907 270.51031 323.37756
288.0 0.003472 270.55899 319.51578
313.0 0.003195 270.60681 320.31985
321.0 0.003115 270.65396 327.89258
334.0 0.002994 270.70029 343.50452
402.0 0.002488 270.74582 366.14630
404.0 0.002475 270.79041 392.17572
421.0 0.002375 270.83432 415.11444
439.0 0.002278 270.87741 426.82480
436.0 0.002294 270.91953 423.53641
465.0 0.002151 270.96075 408.89725
455.0 0.002198 271.00119 390.71384
385.0 0.002597 271.04059 374.74850
356.0 0.002809 271.07922 362.83746
308.0 0.003247 271.11688 352.71078
356.0 0.002809 271.15356 341.77158
343.0 0.002915 271.18933 329.13315
357.0 0.002801 271.22406 316.16534
305.0 0.003279 271.25787 304.52701
273.0 0.00366 271.29065 295.31302
272.0 0.00368 271.32242 288.69791
274.0 0.00365 271.35312 284.40421
240.0 0.00417 271.38293 281.81421
281.0 0.00356 271.41162 280.30304
276.0 0.00362 271.43921 279.39264
297.0 0.003367 271.46585 278.83041
261.0 0.00383 271.49136 278.45358
255.0 0.00392 271.51572 278.19116
250.0 0.00400 271.53912 278.01425
256.0 0.00391 271.56140 277.90765
270.0 0.00370 271.58258 277.84616
246.0 0.00407 271.60266 277.86014
312.0 0.003205 271.62146 277.94229
272.0 0.00368 271.63922 278.09116
291.0 0.003436 271.65585 278.31424
279.0 0.00358 271.67151 278.62350
285.0 0.00351 271.68582 279.03220
260.0 0.00385 271.69904 279.59204
254.0 0.00394 271.71109 280.37354
276.0 0.00362 271.72195 281.54996
283.0 0.00353 271.73157 283.49646
263.0 0.00380 271.74008 286.74802
270.0 0.00370 271.74744 292.41141
265.0 0.00377 271.75363 303.18552
315.0 0.003175 271.75854 320.34610
341.0 0.002933 271.76242 344.94009
363.0 0.002755 271.76489 376.06088
387.0 0.002584 271.76624 409.85556
434.0 0.002304 271.76639 439.60324
416.0 0.002404 271.76529 456.78897
449.0 0.002227 271.76306 458.14948
452.0 0.002212 271.75964 448.75839
445.0 0.002247 271.75491 437.50409
403.0 0.002481 271.74899 429.80750
402.0 0.002488 271.74188 425.35538
383.0 0.002611 271.73340 419.10269
383.0 0.002611 271.72394 406.18134
397.0 0.002519 271.71307 386.78998
374.0 0.002674 271.70114 365.34933
330.0 0.003030 271.68793 346.03467
367.0 0.002725 271.67349 330.87369
310.0 0.003226 271.65790 319.64557
258.0 0.00388 271.64090 310.98019
279.0 0.00358 271.62289 303.74438
294.0 0.003401 271.60361 297.69260
287.0 0.003484 271.58307 292.98834
275.0 0.00364 271.56143 289.90784
289.0 0.003460 271.53848 288.83356
289.0 0.003460 271.51440 290.39041
289.0 0.003460 271.48911 295.63483
290.0 0.003448 271.46265 306.24457
301.0 0.003322 271.43491 323.31070
403.0 0.002481 271.40607 347.88068
394.0 0.002538 271.37604 378.39743
431.0 0.002320 271.34491 410.44360
416.0 0.002404 271.31247 436.76740
468.0 0.002137 271.27902 448.42575
446.0 0.002242 271.24429 442.37003
491.0 0.002037 271.20840 424.32394
466.0 0.002146 271.17148 403.34323
409.0 0.002445 271.13330 385.57138
404.0 0.002475 271.09402 372.62778
355.0 0.002817 271.05374 361.93341
334.0 0.002994 271.01224 350.07980
330.0 0.003030 270.96964 335.97339
335.0 0.002985 270.92590 321.16293
310.0 0.003226 270.88116 307.61401
281.0 0.00356 270.83524 296.62103
283.0 0.00353 270.78830 288.62030
303.0 0.003300 270.74039 283.32629
275.0 0.00364 270.69131 280.06839
283.0 0.00353 270.64117 278.13120
282.0 0.00355 270.59006 276.95813
251.0 0.00398 270.53796 276.19690
269.0 0.00372 270.48483 275.65579
257.0 0.00389 270.43063 275.24057
242.0 0.00413 270.37546 274.90677
272.0 0.00368 270.31931 274.63242
287.0 0.003484 270.26221 274.40530
314.0 0.003185 270.20410 274.21753
275.0 0.00364 270.14511 274.06339
270.0 0.00370 270.08524 273.93921
270.0 0.00370 270.02438 273.84167
264.0 0.00379 269.96255 273.76907
242.0 0.00413 269.90005 273.72015
279.0 0.00358 269.83649 273.69415
232.0 0.00431 269.77206 273.69119
288.0 0.003472 269.70676 273.71167
244.0 0.00410 269.64069 273.75674
277.0 0.00361 269.57379 273.82825
278.0 0.00360 269.50601 273.92780
287.0 0.003484 269.43750 274.05884
263.0 0.00380 269.36832 274.08063
277.0 0.00361 269.29816 274.29178
278.0 0.00360 269.22733 274.54895
282.0 0.00355 269.15573 274.85965
272.0 0.00368 269.08340 275.23428
263.0 0.00380 269.01035 275.68478
264.0 0.00379 268.93665 276.12589
260.0 0.00385 268.86221 276.78528
265.0 0.00377 268.78720 277.58789
265.0 0.00377 268.71152 278.58063
266.0 0.00376 268.63519 279.84814
293.0 0.003413 268.55826 281.56091
253.0 0.00395 268.48071 284.05414
308.0 0.003247 268.40259 288.05969
269.0 0.00372 268.32382 294.79498
276.0 0.00362 268.24472 306.15912
369.0 0.002710 268.16498 324.56522
379.0 0.002639 268.08456 352.39154
397.0 0.002519 268.00381 391.06830
438.0 0.002283 267.92252 440.42261
494.0 0.002024 267.84091 496.67349
561.0 0.001783 267.75873 553.74652
558.0 0.001792 267.67609 604.71271
622.0 0.001608 267.59311 647.32697
700.0 0.001429 267.50970 682.51727
697.0 0.001435 267.42599 706.70477
659.0 0.001517 267.34180 711.03839
591.0 0.001692 267.25735 689.98267
597.0 0.001675 267.17252 649.04755
655.0 0.001527 267.08746 598.92694
584.0 0.001712 267.00214 550.31378
494.0 0.002024 266.91647 509.16495
459.0 0.002179 266.83054 474.68137
440.0 0.002273 266.74451 442.31076
377.0 0.002653 266.65817 409.63037
402.0 0.002488 266.57156 377.70325
321.0 0.003115 266.48486 348.98151
295.0 0.003390 266.39804 325.37753
313.0 0.003195 266.31113 307.62363
275.0 0.00364 266.22391 295.30777
313.0 0.003195 266.13684 287.30884
304.0 0.003289 266.04941 282.31305
282.0 0.00355 265.96207 279.18967
256.0 0.00391 265.87469 277.14554
278.0 0.00360 265.78732 275.70261
290.0 0.003448 265.69980 274.60355
293.0 0.003413 265.61237 273.71884
290.0 0.003448 265.52496 272.98288
298.0 0.003356 265.43765 272.36002
300.0 0.003333 265.35040 271.82809
268.0 0.00373 265.26321 271.37167
301.0 0.003322 265.17621 270.97974
268.0 0.00373 265.08914 270.64374
278.0 0.00360 265.00232 270.75583
276.0 0.00362 264.91556 270.52518
261.0 0.00383 264.82910 270.33679
267.0 0.00375 264.74280 270.18805
268.0 0.00373 264.65665 270.07764
271.0 0.00369 264.57083 270.00592
275.0 0.00364 264.48511 270.15826
286.0 0.003497 264.39990 270.17181
270.0 0.00370 264.31470 270.22949
250.0 0.00400 264.23004 270.33600
258.0 0.00388 264.14560 270.49683
260.0 0.00385 264.06143 270.72070
287.0 0.003484 263.97760 271.01764
279.0 0.00358 263.89429 271.41632
259.0 0.00386 263.81125 271.90790
258.0 0.00388 263.72867 272.53363
283.0 0.00353 263.64645 273.33865
269.0 0.00372 263.56476 274.40634
262.0 0.00382 263.48349 275.91119
261.0 0.00383 263.40265 278.23026
273.0 0.00366 263.32233 282.13620
308.0 0.003247 263.24255 289.05740
305.0 0.003279 263.16324 301.26334
315.0 0.003175 263.08444 321.71063
361.0 0.002770 263.00632 353.23203
424.0 0.002358 262.92865 396.99854
456.0 0.002193 262.85165 450.73868
515.0 0.001942 262.77524 507.34625
545.0 0.001835 262.69937 554.52728
551.0 0.001815 262.62408 577.80048
568.0 0.001761 262.54956 570.26105
593.0 0.001686 262.47580 540.05475
587.0 0.001704 262.40250 502.43915
536.0 0.001866 262.33005 469.60870
468.0 0.002137 262.25815 445.86874
426.0 0.002347 262.18707 428.69806
418.0 0.002392 262.11667 411.37137
420.0 0.002381 262.04709 389.92007
398.0 0.002513 261.97818 365.01166
387.0 0.002584 261.91013 340.24155
359.0 0.002786 261.84283 318.57043
276.0 0.00362 261.77625 301.63525
302.0 0.003311 261.71066 289.58115
320.0 0.003125 261.64581 281.85132
255.0 0.00392 261.58167 277.15753
291.0 0.003436 261.51855 274.41290
279.0 0.00358 261.45633 272.78522
259.0 0.00386 261.39471 271.77338
275.0 0.00364 261.33423 271.11053
254.0 0.00394 261.27457 270.66663
270.0 0.00370 261.21573 270.38144
293.0 0.003413 261.15796 270.22620
294.0 0.003401 261.10101 270.18652
280.0 0.00357 261.04501 270.25476
276.0 0.00362 260.98996 270.42783
291.0 0.003436 260.93597 270.70676
284.0 0.00352 260.88284 271.09830
305.0 0.003279 260.83072 271.61713
285.0 0.00351 260.77951 272.28448
247.0 0.00405 260.72937 273.12759
281.0 0.00356 260.68024 274.18292
298.0 0.003356 260.63208 275.50229
281.0 0.00356 260.58502 277.16977
311.0 0.003215 260.53891 279.34204
328.0 0.003049 260.49387 282.34702
273.0 0.00366 260.44983 286.88354
293.0 0.003413 260.40692 294.37329
309.0 0.003236 260.36496 307.42474
318.0 0.003145 260.32413 330.17352
330.0 0.003030 260.28436 368.03296
445.0 0.002247 260.24573 426.27832
560.0 0.001786 260.20798 507.40518
626.0 0.001597 260.17145 607.89954
702.0 0.001425 260.13589 715.62189
745.0 0.001342 260.10162 809.05896
733.0 0.001364 260.06836 861.72119
849.0 0.001178 260.03625 858.75018
884.0 0.001131 260.00513 812.46869
791.0 0.001264 259.97519 750.94238
771.0 0.001297 259.94632 696.80591
625.0 0.001600 259.91873 658.74805
572.0 0.001748 259.89209 631.60529
575.0 0.001739 259.86646 602.28253
536.0 0.001866 259.84229 560.82617
555.0 0.001802 259.81903 509.25037
503.0 0.001988 259.79700 455.97354
412.0 0.002427 259.77600 408.43619
337.0 0.002967 259.75610 370.45874
333.0 0.003003 259.73749 342.28925
301.0 0.003322 259.71991 322.02957
321.0 0.003115 259.70352 307.31882
321.0 0.003115 259.68817 296.64606
323.0 0.003096 259.67401 288.50409
274.0 0.00365 259.66098 282.83286
304.0 0.003289 259.64905 278.82773
276.0 0.00362 259.63824 276.07846
264.0 0.00379 259.62851 274.09235
262.0 0.00382 259.62009 272.53552
269.0 0.00372 259.61270 271.19592
300.0 0.003333 259.60648 269.93106
247.0 0.00405 259.60129 268.91818
263.0 0.00380 259.59717 268.07693
250.0 0.00400 259.59421 267.40082
298.0 0.003356 259.59241 266.81845
270.0 0.00370 259.59164 266.28537
245.0 0.00408 259.59201 265.77350
251.0 0.00398 259.59357 265.28772
260.0 0.00385 259.59610 264.84488
279.0 0.00358 259.59967 264.45853
264.0 0.00379 259.60446 264.13358
283.0 0.00353 259.61035 263.86707
298.0 0.003356 259.61725 263.65115
290.0 0.003448 259.62521 263.47556
271.0 0.00369 259.63412 263.33127
279.0 0.00358 259.64420 263.21155
274.0 0.00365 259.65524 263.11176
273.0 0.00366 259.66736 263.02905
268.0 0.00373 259.68060 262.96170
265.0 0.00377 259.69473 262.90829
313.0 0.003195 259.71002 262.86826
273.0 0.00366 259.72620 262.84088
277.0 0.00361 259.74344 262.82562
246.0 0.00407 259.76160 262.82251
256.0 0.00391 259.78079 262.83099
259.0 0.00386 259.80096 262.85168
285.0 0.00351 259.82202 262.88440
285.0 0.00351 259.84406 263.11670
245.0 0.00408 259.86710 263.17978
262.0 0.00382 259.89099 263.25693
276.0 0.00362 259.91586 263.34860
295.0 0.003390 259.94153 263.45615
276.0 0.00362 259.96826 263.58078
252.0 0.00397 259.99579 263.72430
302.0 0.003311 260.02423 263.95938
286.0 0.003497 260.05347 264.14954
239.0 0.00418 260.08368 264.36655
305.0 0.003279 260.11465 264.61429
266.0 0.00376 260.14655 264.89764
280.0 0.00357 260.17911 265.22263
246.0 0.00407 260.21259 265.59695
281.0 0.00356 260.24680 266.02991
251.0 0.00398 260.28174 266.53421
247.0 0.00405 260.31750 267.12668
285.0 0.00351 260.35394 267.83124
266.0 0.00376 260.39130 268.68747
272.0 0.00368 260.42923 269.77795
270.0 0.00370 260.46786 271.23465
289.0 0.003460 260.50714 273.38065
261.0 0.00383 260.54721 276.82880
263.0 0.00380 260.58798 282.65924
297.0 0.003367 260.62933 292.51212
282.0 0.00355 260.67130 308.04739
311.0 0.003215 260.71399 331.93985
376.0 0.002660 260.75711 364.47803
371.0 0.002695 260.80093 403.99521
390.0 0.002564 260.84531 445.59702
448.0 0.002232 260.89023 480.94830
458.0 0.002183 260.93570 500.05133
491.0 0.002037 260.98166 497.61215
526.0 0.001901 261.02814 479.13721
437.0 0.002288 261.07516 455.93152
436.0 0.002294 261.12262 437.94110
427.0 0.002342 261.17050 430.38693
408.0 0.002451 261.21881 433.20297
444.0 0.002252 261.26764 441.82178
411.0 0.002433 261.31677 450.06366
416.0 0.002404 261.36627 453.42297
469.0 0.002132 261.41626 449.54556
448.0 0.002232 261.46661 438.11414
403.0 0.002481 261.51709 421.50894
406.0 0.002463 261.56802 402.92575
348.0 0.002874 261.61929 384.72891
346.0 0.002890 261.67075 368.74481
325.0 0.003077 261.72250 355.84204
326.0 0.003067 261.77457 345.29858
344.0 0.002907 261.82681 335.67715
318.0 0.003145 261.87924 326.18155
313.0 0.003195 261.93182 316.68860
301.0 0.003322 261.98468 307.27390
323.0 0.003096 262.03754 298.34497
251.0 0.00398 262.09061 290.53925
279.0 0.00358 262.14374 284.28244
271.0 0.00369 262.19711 279.65662
262.0 0.00382 262.25043 276.49738
281.0 0.00356 262.30386 274.51688
274.0 0.00365 262.35721 273.40765
283.0 0.00353 262.41077 272.90894
288.0 0.003472 262.46429 272.83862
282.0 0.00355 262.51776 273.09772
269.0 0.00372 262.57108 273.66602
291.0 0.003436 262.62439 274.61615
305.0 0.003279 262.67770 276.19077
259.0 0.00386 262.73083 278.80875
272.0 0.00368 262.78391 283.38260
278.0 0.00360 262.83679 291.59256
295.0 0.003390 262.88962 305.01077
323.0 0.003096 262.94211 326.06241
374.0 0.002674 262.99451 356.29779
416.0 0.002404 263.04666 395.39606
466.0 0.002146 263.09860 440.04932
446.0 0.002242 263.15039 483.20895
428.0 0.002336 263.20175 514.53345
525.0 0.001905 263.25302 524.25116
528.0 0.001894 263.30383 510.71188
453.0 0.002208 263.35431 482.91354
497.0 0.002012 263.40436 452.48526
433.0 0.002309 263.45419 427.35968
394.0 0.002538 263.50366 410.17322
344.0 0.002907 263.55261 398.68872
374.0 0.002674 263.60126 387.72299
398.0 0.002513 263.64935 373.14044
373.0 0.002681 263.69702 354.86804
350.0 0.002857 263.74426 335.51874
337.0 0.002967 263.79080 317.80533
321.0 0.003115 263.83707 303.51172
265.0 0.00377 263.88269 293.35217
274.0 0.00365 263.92786 287.15683
303.0 0.003300 263.97235 284.17859
280.0 0.00357 264.01645 283.42209
264.0 0.00379 264.05969 283.85040
341.0 0.002933 264.10239 284.47269
277.0 0.00361 264.14450 284.46976
278.0 0.00360 264.18588 283.46536
285.0 0.00351 264.22668 281.74219
304.0 0.003289 264.26663 279.86316
271.0 0.00369 264.30600 278.28165
283.0 0.00353 264.34464 277.21274
277.0 0.00361 264.38251 276.64154
285.0 0.00351 264.41965 276.44266
295.0 0.003390 264.45584 276.36877
285.0 0.00351 264.49142 276.48386
280.0 0.00357 264.52606 276.93332
247.0 0.00405 264.56000 277.79614
282.0 0.00355 264.59308 278.80219
257.0 0.00389 264.62521 279.95435
294.0 0.003401 264.65656 280.59906
269.0 0.00372 264.68695 280.43646
285.0 0.00351 264.71649 279.39084
270.0 0.00370 264.74500 277.97943
289.0 0.003460 264.77271 276.89853
281.0 0.00356 264.79941 276.00171
274.0 0.00365 264.82510 275.41476
247.0 0.00405 264.84985 275.05341
279.0 0.00358 264.87363 274.61066
281.0 0.00356 264.89630 274.09808
254.0 0.00394 264.91815 273.44287
276.0 0.00362 264.93872 272.76303
246.0 0.00407 264.95834 272.32901
277.0 0.00361 264.97693 272.04691
280.0 0.00357 264.99432 271.92752
270.0 0.00370 265.01077 271.98822
267.0 0.00375 265.02600 272.25476
266.0 0.00376 265.04022 272.67740
272.0 0.00368 265.05328 273.23273
288.0 0.003472 265.06516 273.95132
298.0 0.003356 265.07584 274.85312
264.0 0.00379 265.08554 276.00992
264.0 0.00379 265.09387 277.56577
272.0 0.00368 265.10117 279.79773
274.0 0.00365 265.10712 283.21609
299.0 0.003344 265.11197 288.69318
310.0 0.003226 265.11548 297.59167
312.0 0.003205 265.11783 311.79556
332.0 0.003012 265.11893 333.49039
351.0 0.002849 265.11893 364.55948
446.0 0.002242 265.11755 405.52222
437.0 0.002288 265.11481 454.37576
496.0 0.002016 265.11093 505.83691
557.0 0.001795 265.10574 551.80499
604.0 0.001656 265.09921 581.97583
589.0 0.001698 265.09140 587.32465
653.0 0.001531 265.08234 567.81427
657.0 0.001522 265.07184 533.82257
567.0 0.001764 265.06009 497.85818
509.0 0.001965 265.04694 468.05621
483.0 0.002070 265.03259 446.92380
399.0 0.002506 265.01675 432.22125
448.0 0.002232 264.99976 418.44516
380.0 0.002632 264.98123 401.20288
384.0 0.002604 264.96140 379.65305
385.0 0.002597 264.94016 356.51050
367.0 0.002725 264.91760 334.87289
309.0 0.003236 264.89355 316.83401
292.0 0.003425 264.86819 303.30447
295.0 0.003390 264.84152 294.18597
295.0 0.003390 264.81345 288.67438
277.0 0.00361 264.78391 285.94073
277.0 0.00361 264.75299 285.00082
283.0 0.00353 264.72064 285.12619
263.0 0.00380 264.68695 285.77713
270.0 0.00370 264.65173 286.61505
266.0 0.00376 264.61523 287.58350
270.0 0.00370 264.57727 288.89981
301.0 0.003322 264.53784 290.69101
289.0 0.003460 264.49713 292.98535
287.0 0.003484 264.45486 295.56473
254.0 0.00394 264.41122 298.13431
276.0 0.00362 264.36615 300.68628
297.0 0.003367 264.31970 303.84143
306.0 0.003268 264.27182 308.48834
291.0 0.003436 264.22263 315.28690
315.0 0.003175 264.17181 324.18488
312.0 0.003205 264.11960 334.32974
346.0 0.002890 264.06607 344.12268
342.0 0.002924 264.01108 351.95065
344.0 0.002907 263.95474 357.91165
337.0 0.002967 263.89697 365.10687
377.0 0.002653 263.83774 378.63745
367.0 0.002725 263.77713 403.80945
415.0 0.002410 263.71503 444.81152
492.0 0.002033 263.65155 503.31555
571.0 0.001751 263.58667 576.95142
656.0 0.001524 263.52051 658.17554
710.0 0.001408 263.45288 735.78979
823.0 0.001215 263.38388 795.99829
841.0 0.001189 263.31345 823.61029
884.0 0.001131 263.24170 809.99036
873.0 0.001145 263.16852 762.61237
817.0 0.001224 263.09406 700.58893
704.0 0.001420 263.01816 641.66217
609.0 0.001642 262.94086 595.25854
525.0 0.001905 262.86227 562.57214
519.0 0.001927 262.78232 538.21454
506.0 0.001976 262.70111 513.41748
505.0 0.001980 262.61835 482.03302
498.0 0.002008 262.53452 444.56778
440.0 0.002273 262.44925 405.67532
384.0 0.002604 262.36261 370.03372
359.0 0.002786 262.27478 340.56537
296.0 0.003378 262.18555 318.29617
283.0 0.00353 262.09512 302.76367
282.0 0.00355 262.00333 292.64737
277.0 0.00361 261.91037 286.43961
259.0 0.00386 261.81604 282.90625
273.0 0.00366 261.72052 281.26520
275.0 0.00364 261.62366 281.17804
275.0 0.00364 261.52576 282.58981
304.0 0.003289 261.42651 285.52155
293.0 0.003413 261.32602 289.84509
330.0 0.003030 261.22443 295.10126
270.0 0.00370 261.12158 300.38190
320.0 0.003125 261.01755 304.34128
302.0 0.003311 260.91238 305.56049
288.0 0.003472 260.80597 303.62766
299.0 0.003344 260.69852 299.47327
345.0 0.002899 260.58981 294.43344
261.0 0.00383 260.48004 290.20486
270.0 0.00370 260.36923 287.11365
268.0 0.00373 260.25714 285.10709
260.0 0.00385 260.14410 283.60855
291.0 0.003436 260.03006 281.87393
278.0 0.00360 259.91483 279.55182
271.0 0.00369 259.79858 276.79703
288.0 0.003472 259.68118 273.91589
261.0 0.00383 259.56290 271.41943
264.0 0.00379 259.44366 269.41574
291.0 0.003436 259.32330 267.98663
269.0 0.00372 259.20190 267.12866
281.0 0.00356 259.07971 266.82199
252.0 0.00397 258.95639 267.09830
279.0 0.00358 258.83228 268.08105
274.0 0.00365 258.70715 269.98480
260.0 0.00385 258.58118 273.05252
286.0 0.003497 258.45428 277.43430
319.0 0.003135 258.32645 283.04141
273.0 0.00366 258.19778 289.41116
320.0 0.003125 258.06830 295.65613
312.0 0.003205 257.93793 300.48483
334.0 0.002994 257.80688 302.71521
344.0 0.002907 257.67487 302.23264
303.0 0.003300 257.54205 300.18591
346.0 0.002890 257.40860 298.00494
334.0 0.002994 257.27441 296.55161
287.0 0.003484 257.13925 295.95071
309.0 0.003236 257.00360 295.70413
308.0 0.003247 256.86713 295.15704
307.0 0.003257 256.73004 293.98038
314.0 0.003185 256.59216 292.47610
306.0 0.003268 256.45367 291.47800
306.0 0.003268 256.31451 291.95297
316.0 0.003165 256.17484 294.75467
299.0 0.003344 256.03448 300.73749
308.0 0.003247 255.89354 310.41953
315.0 0.003175 255.75200 323.89087
309.0 0.003236 255.60991 340.49359
363.0 0.002755 255.46735 358.56592
356.0 0.002809 255.32423 375.42108
385.0 0.002597 255.18059 388.25366
406.0 0.002463 255.03654 396.33981
424.0 0.002358 254.89183 401.86899
410.0 0.002439 254.74690 407.13016
429.0 0.002331 254.60138 411.92398
379.0 0.002639 254.45543 414.78006
423.0 0.002364 254.30911 412.17453
437.0 0.002288 254.16240 402.89313
421.0 0.002375 254.01540 388.37338
411.0 0.002433 253.86801 371.54410
377.0 0.002653 253.72031 355.63123
337.0 0.002967 253.57217 342.56250
325.0 0.003077 253.42387 332.64633
362.0 0.002762 253.27524 324.59784
313.0 0.003195 253.12639 316.31296
326.0 0.003067 252.97733 307.01227
335.0 0.002985 252.82788 297.17252
264.0 0.00379 252.67830 287.75043
271.0 0.00369 252.52856 279.59369
277.0 0.00361 252.37866 273.11880
263.0 0.00380 252.22856 268.34561
265.0 0.00377 252.07831 265.03171
231.0 0.00433 251.92796 262.67563
264.0 0.00379 251.77750 260.93677
257.0 0.00389 251.62703 259.59207
280.0 0.00357 251.47643 258.55731
290.0 0.003448 251.32568 257.83371
275.0 0.00364 251.17494 257.47348
242.0 0.00413 251.02429 257.55371
276.0 0.00362 250.87360 258.14761
254.0 0.00394 250.72287 259.24765
271.0 0.00369 250.57222 260.84985
264.0 0.00379 250.42157 262.72464
270.0 0.00370 250.27106 264.51630
238.0 0.00420 250.12056 265.73224
282.0 0.00355 249.97017 265.91684
270.0 0.00370 249.81996 264.99219
279.0 0.00358 249.66975 263.35165
245.0 0.00408 249.51979 261.52878
292.0 0.003425 249.36993 259.95325
272.0 0.00368 249.22032 258.79816
288.0 0.003472 249.07085 258.03308
257.0 0.00389 248.92159 257.45450
249.0 0.00402 248.77258 256.80005
231.0 0.00433 248.62384 255.92198
268.0 0.00373 248.47531 254.86272
252.0 0.00397 248.32703 253.75789
258.0 0.00388 248.17905 252.73050
232.0 0.00431 248.03137 251.85716
239.0 0.00418 247.88408 251.16663
241.0 0.00415 247.73709 250.64926
243.0 0.00412 247.59038 250.27356
261.0 0.00383 247.44406 250.00154
278.0 0.00360 247.29810 249.79996
235.0 0.00426 247.15256 249.74347
275.0 0.00364 247.00743 249.62355
252.0 0.00397 246.86273 249.49823
258.0 0.00388 246.71835 249.42656
250.0 0.00400 246.57448 249.39148
237.0 0.00422 246.43118 249.37320
259.0 0.00386 246.28818 249.37056
223.0 0.00448 246.14566 249.39330
231.0 0.00433 246.00372 249.47266
258.0 0.00388 245.86227 249.55112
240.0 0.00417 245.72144 249.65384
218.0 0.00459 245.58098 249.80989
277.0 0.00361 245.44107 250.02570
236.0 0.00424 245.30179 250.31334
217.0 0.00461 245.16301 250.70001
222.0 0.00450 245.02490 251.25313
245.0 0.00408 244.88725 252.06860
258.0 0.00388 244.75023 253.33118
282.0 0.00355 244.61389 255.33134
239.0 0.00418 244.47816 258.49445
234.0 0.00427 244.34303 263.37048
293.0 0.003413 244.20854 270.47983
277.0 0.00361 244.07471 280.49274
277.0 0.00361 243.94154 293.54990
296.0 0.003378 243.80896 309.34613
284.0 0.00352 243.67723 326.85577
335.0 0.002985 243.54605 344.41968
347.0 0.002882 243.41559 360.45102
367.0 0.002725 243.28580 374.25192
420.0 0.002381 243.15675 385.57837
382.0 0.002618 243.02850 394.13528
383.0 0.002611 242.90092 400.81900
362.0 0.002762 242.77405 406.43961
376.0 0.002660 242.64786 410.03543
383.0 0.002611 242.52258 408.86566
351.0 0.002849 242.39796 400.90057
378.0 0.002646 242.27417 387.22928
381.0 0.002625 242.15108 370.94696
376.0 0.002660 242.02878 354.61768
343.0 0.002915 241.90729 340.13672
315.0 0.003175 241.78654 328.57239
268.0 0.00373 241.66666 319.51501
299.0 0.003344 241.54750 311.49344
269.0 0.00372 241.42917 302.90839
283.0 0.00353 241.31160 293.35663
286.0 0.003497 241.19495 283.57877
268.0 0.00373 241.07906 274.57489
248.0 0.00403 240.96404 266.94565
262.0 0.00382 240.84975 260.99887
247.0 0.00405 240.73634 256.68631
272.0 0.00368 240.62383 253.66911
223.0 0.00448 240.51199 251.56146
259.0 0.00386 240.40111 250.10756
270.0 0.00370 240.29102 248.92776
238.0 0.00420 240.18181 247.99716
252.0 0.00397 240.07347 247.26399
241.0 0.00415 239.96591 246.69096
273.0 0.00366 239.85913 246.28528
241.0 0.00415 239.75331 246.01979
233.0 0.00429 239.64833 245.87962
241.0 0.00415 239.54427 245.85353
272.0 0.00368 239.44095 245.97215
255.0 0.00392 239.33859 246.18440
217.0 0.00461 239.23692 246.56285
261.0 0.00383 239.13617 247.19344
265.0 0.00377 239.03632 248.26161
262.0 0.00382 238.93732 250.12743
250.0 0.00400 238.83914 253.18269
254.0 0.00394 238.74174 258.15491
299.0 0.003344 238.64531 265.81509
273.0 0.00366 238.54968 276.81668
294.0 0.003401 238.45494 291.37753
275.0 0.00364 238.36098 308.92542
318.0 0.003145 238.26782 327.82114
314.0 0.003185 238.17554 345.21643
355.0 0.002817 238.08415 357.35806
390.0 0.002564 237.99355 361.46490
359.0 0.002786 237.90379 357.93005
408.0 0.002451 237.81488 349.87146
368.0 0.002717 237.72672 340.52167
331.0 0.003021 237.63945 331.76178
322.0 0.003106 237.55298 324.35391
353.0 0.002833 237.46732 318.29132
343.0 0.002915 237.38246 312.82111
293.0 0.003413 237.29842 306.75626
324.0 0.003086 237.21518 299.47305
317.0 0.003155 237.13266 291.41226
293.0 0.003413 237.05098 283.40546
298.0 0.003356 236.97008 276.00266
258.0 0.00388 236.88997 269.42987
285.0 0.00351 236.81062 263.83630
283.0 0.00353 236.73199 259.35434
249.0 0.00402 236.65425 256.04736
291.0 0.003436 236.57715 253.90839
234.0 0.00427 236.50082 252.94325
226.0 0.00442 236.42520 253.26596
265.0 0.00377 236.35036 255.18173
280.0 0.00357 236.27623 259.22708
248.0 0.00403 236.20284 266.13754
274.0 0.00365 236.13011 276.64349
307.0 0.003257 236.05814 291.20105
309.0 0.003236 235.98685 309.57816
330.0 0.003030 235.91621 330.46814
336.0 0.002976 235.84628 351.44812
369.0 0.002710 235.77701 368.82764
385.0 0.002597 235.70847 378.92691
434.0 0.002304 235.64053 380.99759
438.0 0.002283 235.57324 378.34116
408.0 0.002451 235.50653 376.25027
396.0 0.002525 235.44058 378.85379
371.0 0.002695 235.37523 387.57129
368.0 0.002717 235.31038 401.14743
376.0 0.002660 235.24620 415.15259
416.0 0.002404 235.18262 423.72433
428.0 0.002336 235.11961 422.73047
422.0 0.002370 235.05724 412.10211
380.0 0.002632 234.99529 394.86923
393.0 0.002545 234.93402 375.12158
332.0 0.003012 234.87326 356.85226
348.0 0.002874 234.81303 343.05112
305.0 0.003279 234.75328 334.79602
329.0 0.003040 234.69414 331.59677
330.0 0.003030 234.63538 332.20508
335.0 0.002985 234.57718 335.55371
365.0 0.002740 234.51945 340.79395
349.0 0.002865 234.46223 346.76517
374.0 0.002674 234.40543 351.74936
364.0 0.002747 234.34909 353.41458
375.0 0.002667 234.29320 349.55072
358.0 0.002793 234.23778 340.00500
358.0 0.002793 234.18277 327.10220
340.0 0.002941 234.12813 314.17776
324.0 0.003086 234.07391 303.79086
289.0 0.003460 234.02007 297.31107
294.0 0.003401 233.96655 294.94946
275.0 0.00364 233.91351 295.90396
290.0 0.003448 233.86073 298.69620
306.0 0.003268 233.80832 301.90536
343.0 0.002915 233.75626 304.78912
305.0 0.003279 233.70453 307.07944
290.0 0.003448 233.65309 308.15506
289.0 0.003460 233.60193 306.83246
314.0 0.003185 233.55106 302.20999
310.0 0.003226 233.50043 294.77692
296.0 0.003378 233.45010 286.23035
300.0 0.003333 233.40002 278.27066
225.0 0.00444 233.35027 271.99893
264.0 0.00379 233.30063 267.77228
284.0 0.00352 233.25125 265.27225
245.0 0.00408 233.20206 263.64246
241.0 0.00415 233.15317 261.83908
249.0 0.00402 233.10435 259.13348
297.0 0.003367 233.05574 255.64818
268.0 0.00373 233.00729 251.81418
241.0 0.00415 232.95897 248.12265
263.0 0.00380 232.91081 244.90889
254.0 0.00394 232.86278 242.36993
237.0 0.00422 232.81487 240.54562
260.0 0.00385 232.76709 239.36990
247.0 0.00405 232.71938 238.73015
213.0 0.00469 232.67178 238.67207
244.0 0.00410 232.62430 239.11484
277.0 0.00361 232.57675 240.11105
245.0 0.00408 232.52937 241.68442
251.0 0.00398 232.48199 243.78574
260.0 0.00385 232.43463 246.25714
242.0 0.00413 232.38739 248.81703
243.0 0.00412 232.34007 250.86661
245.0 0.00408 232.29279 251.87753
237.0 0.00422 232.24547 251.52632
264.0 0.00379 232.19818 250.03021
262.0 0.00382 232.15085 247.98106
254.0 0.00394 232.10347 245.96175
235.0 0.00426 232.05605 244.35143
223.0 0.00448 232.00858 243.29167
249.0 0.00402 231.96115 242.72456
237.0 0.00422 231.91348 242.38802
263.0 0.00380 231.86581 241.98514
235.0 0.00426 231.81799 241.37471
224.0 0.00446 231.77014 240.63588
243.0 0.00412 231.72215 239.98254
272.0 0.00368 231.67410 239.50887
252.0 0.00397 231.62584 239.58070
247.0 0.00405 231.57747 240.10437
245.0 0.00408 231.52905 240.97891
256.0 0.00391 231.48035 241.98279
239.0 0.00418 231.43153 242.82739
262.0 0.00382 231.38255 243.07939
264.0 0.00379 231.33345 242.64510
219.0 0.00457 231.28409 241.55708
262.0 0.00382 231.23456 240.40135
259.0 0.00386 231.18486 239.29086
259.0 0.00386 231.13496 238.48061
236.0 0.00424 231.08485 237.97470
221.0 0.00452 231.03448 237.70581
223.0 0.00448 230.98396 237.52367
241.0 0.00415 230.93317 237.28410
256.0 0.00391 230.88214 236.83455
214.0 0.00467 230.83084 236.38000
237.0 0.00422 230.77943 235.81500
247.0 0.00405 230.72762 235.28851
231.0 0.00433 230.67563 234.88773
258.0 0.00388 230.62334 234.62532
235.0 0.00426 230.57080 234.42236
212.0 0.00472 230.51802 234.45049
236.0 0.00424 230.46492 234.62521
240.0 0.00417 230.41156 234.97519
221.0 0.00452 230.35783 235.60815
237.0 0.00422 230.30389 236.61024
252.0 0.00397 230.24968 238.25221
244.0 0.00410 230.19513 240.86673
235.0 0.00426 230.14027 244.83939
240.0 0.00417 230.08514 250.47395
251.0 0.00398 230.02966 257.97107
291.0 0.003436 229.97392 267.05890
301.0 0.003322 229.91785 276.98236
305.0 0.003279 229.86148 286.37256
292.0 0.003425 229.80481 293.26978
347.0 0.002882 229.74774 295.99463
254.0 0.00394 229.69041 294.06781
275.0 0.00364 229.63275 288.89255
304.0 0.003289 229.57472 282.64395
265.0 0.00377 229.51645 277.18918
282.0 0.00355 229.45786 273.63028
275.0 0.00364 229.39882 272.25296
254.0 0.00394 229.33955 272.55783
285.0 0.00351 229.27997 273.44803
311.0 0.003215 229.21999 273.79364
284.0 0.00352 229.15967 273.04065
286.0 0.003497 229.09909 271.58002
296.0 0.003378 229.03815 270.24207
262.0 0.00382 228.97688 269.75775
265.0 0.00377 228.91525 270.55341
233.0 0.00429 228.85335 272.78790
255.0 0.00392 228.79114 276.59995
273.0 0.00366 228.72858 282.23331
280.0 0.00357 228.66568 289.76572
252.0 0.00397 228.60248 298.82254
303.0 0.003300 228.53899 308.21790
292.0 0.003425 228.47510 316.34763
311.0 0.003215 228.41101 321.05261
336.0 0.002976 228.34653 320.55215
307.0 0.003257 228.28175 314.88739
341.0 0.002933 228.21671 306.08044
256.0 0.00391 228.15134 296.77072
272.0 0.00368 228.08569 289.06213
252.0 0.00397 228.01968 284.19745
263.0 0.00380 227.95351 282.50439
264.0 0.00379 227.88699 283.67874
276.0 0.00362 227.82011 286.86710
299.0 0.003344 227.75311 291.08804
276.0 0.00362 227.68575 295.72729
292.0 0.003425 227.61807 300.45703
311.0 0.003215 227.55014 304.62640
282.0 0.00355 227.48206 306.92499
321.0 0.003115 227.41368 305.86652
320.0 0.003125 227.34503 301.02841
313.0 0.003195 227.27609 293.68991
302.0 0.003311 227.20697 285.98566
276.0 0.00362 227.13768 279.69516
248.0 0.00403 227.06813 275.84058
268.0 0.00373 226.99834 274.62512
259.0 0.00386 226.92828 275.49014
279.0 0.00358 226.85811 277.20413
299.0 0.003344 226.78773 278.28726
293.0 0.003413 226.71712 277.64923
295.0 0.003390 226.64632 275.20163
289.0 0.003460 226.57541 271.89331
254.0 0.00394 226.50424 269.16904
252.0 0.00397 226.43300 268.40170
269.0 0.00372 226.36162 270.53064
252.0 0.00397 226.29002 275.88120
296.0 0.003378 226.21837 284.02567
311.0 0.003215 226.14648 293.75183
298.0 0.003356 226.07454 303.08521
259.0 0.00386 226.00246 309.61395
312.0 0.003205 225.93022 311.44260
317.0 0.003155 225.85802 308.60626
330.0 0.003030 225.78561 303.28448
307.0 0.003257 225.71326 298.52817
301.0 0.003322 225.64075 296.98154
271.0 0.00369 225.56818 300.33432
298.0 0.003356 225.49554 309.06085
288.0 0.003472 225.42290 322.24399
294.0 0.003401 225.35019 337.54758
317.0 0.003155 225.27753 351.51282
367.0 0.002725 225.20482 360.29074
349.0 0.002865 225.13206 360.84381
347.0 0.002882 225.05933 352.64288
312.0 0.003205 224.98665 338.30896
311.0 0.003215 224.91397 321.90338
310.0 0.003226 224.84135 306.88263
305.0 0.003279 224.76872 295.29800
255.0 0.00392 224.69621 287.74243
283.0 0.00353 224.62375 283.53757
256.0 0.00391 224.55128 281.04688
249.0 0.00402 224.47897 278.28268
296.0 0.003378 224.40678 273.89130
257.0 0.00389 224.33469 267.82666
287.0 0.003484 224.26270 260.95795
241.0 0.00415 224.19080 254.28215
246.0 0.00407 224.11905 248.54237
262.0 0.00382 224.04742 244.15794
238.0 0.00420 223.97598 241.23985
229.0 0.00437 223.90477 239.65390
227.0 0.00441 223.83368 239.09741
233.0 0.00429 223.76274 239.18147
267.0 0.00375 223.69199 239.60406
243.0 0.00412 223.62151 239.93520
252.0 0.00397 223.55125 240.15405
263.0 0.00380 223.48122 240.23422
232.0 0.00431 223.41138 240.10802
219.0 0.00457 223.34180 239.71049
235.0 0.00426 223.27249 239.10315
250.0 0.00400 223.20345 238.49512
255.0 0.00392 223.13464 238.14371
260.0 0.00385 223.06619 238.34927
227.0 0.00441 222.99806 239.32748
233.0 0.00429 222.93015 241.52283
239.0 0.00418 222.86258 245.41591
261.0 0.00383 222.79543 251.40585
256.0 0.00391 222.72849 259.73584
271.0 0.00369 222.66197 270.28482
303.0 0.003300 222.59578 282.45279
304.0 0.003289 222.53000 294.89850
287.0 0.003484 222.46451 305.50082
306.0 0.003268 222.39952 311.63571
328.0 0.003049 222.33482 311.47552
352.0 0.002841 222.27063 305.42380
304.0 0.003289 222.20673 295.91534
321.0 0.003115 222.14336 285.71658
296.0 0.003378 222.08035 277.00897
282.0 0.00355 222.01779 270.81207
247.0 0.00405 221.95569 267.20117
263.0 0.00380 221.89404 265.40329
275.0 0.00364 221.83289 264.06036
252.0 0.00397 221.77219 261.80075
265.0 0.00377 221.71205 257.98401
259.0 0.00386 221.65230 252.92952
254.0 0.00394 221.59302 247.39667
213.0 0.00469 221.53426 242.14896
239.0 0.00418 221.47606 237.66434
230.0 0.00435 221.41841 234.21698
230.0 0.00435 221.36122 231.89355
249.0 0.00402 221.30457 230.60631
232.0 0.00431 221.24847 230.33417
234.0 0.00427 221.19298 230.87888
215.0 0.00465 221.13795 232.05598
249.0 0.00402 221.08351 233.63152
226.0 0.00442 221.02969 235.29494
231.0 0.00433 220.97638 236.64951
251.0 0.00398 220.92371 237.27258
272.0 0.00368 220.87149 236.92540
229.0 0.00437 220.82001 235.72371
254.0 0.00394 220.76907 234.10622
233.0 0.00429 220.71870 232.46097
242.0 0.00413 220.66904 231.10721
260.0 0.00385 220.61984 230.17249
229.0 0.00437 220.57137 229.65260
251.0 0.00398 220.52347 229.47856
213.0 0.00469 220.47618 229.32561
242.0 0.00413 220.42953 229.05148
228.0 0.00439 220.38351 228.57307
224.0 0.00446 220.33818 227.94112
225.0 0.00444 220.29343 227.24980
236.0 0.00424 220.24933 226.53154
239.0 0.00418 220.20584 225.91876
221.0 0.00452 220.16309 225.36952
239.0 0.00418 220.12091 224.89629
230.0 0.00435 220.07936 224.54008
238.0 0.00420 220.03854 224.26695
199.0 0.00503 219.99832 224.09961
230.0 0.00435 219.95882 224.03021
218.0 0.00459 219.91986 224.04468
232.0 0.00431 219.88165 224.10492
219.0 0.00457 219.84412 224.22929
269.0 0.00372 219.80716 224.29808
237.0 0.00422 219.77090 224.47246
239.0 0.00418 219.73529 224.67912
213.0 0.00469 219.70038 225.00041
227.0 0.00441 219.66608 225.33736
225.0 0.00444 219.63245 225.78082
237.0 0.00422 219.59950 226.37451
247.0 0.00405 219.56714 227.19354
220.0 0.00455 219.53552 228.37305
267.0 0.00375 219.50452 230.12030
255.0 0.00392 219.47414 232.89130
256.0 0.00391 219.44443 237.23892
260.0 0.00385 219.41536 243.93332
247.0 0.00405 219.38692 253.85274
287.0 0.003484 219.35918 267.68036
287.0 0.003484 219.33200 285.72830
307.0 0.003257 219.30551 307.48477
288.0 0.003472 219.27959 331.34149
311.0 0.003215 219.25429 354.37616
348.0 0.002874 219.22964 372.43558
376.0 0.002660 219.20567 381.21237
364.0 0.002747 219.18225 378.86172
423.0 0.002364 219.15945 367.74667
395.0 0.002532 219.13722 352.82571
335.0 0.002985 219.11560 338.81418
298.0 0.003356 219.09459 328.77985
294.0 0.003401 219.07414 323.98587
327.0 0.003058 219.05431 323.52161
304.0 0.003289 219.03506 325.17468
322.0 0.003106 219.01631 325.76901
331.0 0.003021 218.99814 322.63223
323.0 0.003096 218.98051 314.98618
333.0 0.003003 218.96347 303.92664
286.0 0.003497 218.94693 291.37506
288.0 0.003472 218.93094 279.20593
260.0 0.00385 218.91548 268.76852
261.0 0.00383 218.90048 260.75476
240.0 0.00417 218.88603 255.04692
254.0 0.00394 218.87209 251.13074
258.0 0.00388 218.85860 248.25258
253.0 0.00395 218.84558 245.75221
259.0 0.00386 218.83305 243.18321
259.0 0.00386 218.82095 240.38556
238.0 0.00420 218.80940 237.45654
262.0 0.00382 218.79820 234.63885
235.0 0.00426 218.78748 232.15283
215.0 0.00465 218.77710 230.13274
224.0 0.00446 218.76717 228.60680
231.0 0.00433 218.75761 227.51959
221.0 0.00452 218.74847 226.73334
241.0 0.00415 218.73970 226.19574
198.0 0.00505 218.73126 225.71815
232.0 0.00431 218.72324 225.28125
217.0 0.00461 218.71552 224.88954
208.0 0.00481 218.70818 224.55704
230.0 0.00435 218.70105 224.30927
195.0 0.00513 218.69435 224.15553
238.0 0.00420 218.68790 224.10889
233.0 0.00429 218.68172 224.17967
216.0 0.00463 218.67580 224.38661
232.0 0.00431 218.67015 224.77119
210.0 0.00476 218.66475 225.41594
236.0 0.00424 218.65955 226.46628
258.0 0.00388 218.65456 228.15015
245.0 0.00408 218.64980 230.78922
253.0 0.00395 218.64526 234.72749
229.0 0.00437 218.64087 240.31468
238.0 0.00420 218.63666 247.74428
319.0 0.003135 218.63257 256.90900
267.0 0.00375 218.62862 267.26962
262.0 0.00382 218.62483 277.74362
295.0 0.003390 218.62115 286.66000
313.0 0.003195 218.61752 292.02600
319.0 0.003135 218.61398 292.44174
310.0 0.003226 218.61057 288.18683
305.0 0.003279 218.60712 281.06100
308.0 0.003247 218.60381 273.24033
258.0 0.00388 218.60045 266.40533
241.0 0.00415 218.59709 261.51599
220.0 0.00455 218.59377 258.83179
255.0 0.00392 218.59042 258.02148
225.0 0.00444 218.58704 258.27841
257.0 0.00389 218.58359 258.72070
259.0 0.00386 218.58017 258.81055
281.0 0.00356 218.57661 258.84393
270.0 0.00370 218.57294 259.67548
266.0 0.00376 218.56918 262.18478
268.0 0.00373 218.56531 266.88046
256.0 0.00391 218.56134 273.70016
274.0 0.00365 218.55711 281.90561
270.0 0.00370 218.55286 290.04300
262.0 0.00382 218.54831 296.04437
274.0 0.00365 218.54367 297.92868
296.0 0.003378 218.53873 294.97232
289.0 0.003460 218.53365 288.31586
294.0 0.003401 218.52827 280.06647
274.0 0.00365 218.52274 272.17099
249.0 0.00402 218.51686 265.91541
263.0 0.00380 218.51071 261.85934
263.0 0.00380 218.50432 259.88492
257.0 0.00389 218.49757 259.32144
248.0 0.00403 218.49055 259.10327
260.0 0.00385 218.48314 258.26419
280.0 0.00357 218.47549 256.53201
242.0 0.00413 218.46738 254.20282
238.0 0.00420 218.45888 252.28918
243.0 0.00412 218.45010 251.82339
267.0 0.00375 218.44090 253.76514
250.0 0.00400 218.43123 258.89566
261.0 0.00383 218.42117 267.55310
287.0 0.003484 218.41068 279.97769
282.0 0.00355 218.39969 295.33945
317.0 0.003155 218.38824 312.14767
316.0 0.003165 218.37636 328.03650
349.0 0.002865 218.36403 339.83817
351.0 0.002849 218.35115 344.78400
365.0 0.002740 218.33775 342.15512
368.0 0.002717 218.32387 333.91754
321.0 0.003115 218.30942 323.29089
317.0 0.003155 218.29446 313.26486
261.0 0.00383 218.27890 306.11691
275.0 0.00364 218.26277 303.02954
263.0 0.00380 218.24612 304.24377
304.0 0.003289 218.22885 309.01425
323.0 0.003096 218.21098 315.94101
328.0 0.003049 218.19252 323.47321
353.0 0.002833 218.17342 330.50375
360.0 0.002778 218.15370 336.26324
312.0 0.003205 218.13335 339.80896
357.0 0.002801 218.11235 339.64560
350.0 0.002857 218.09070 334.46454
339.0 0.002950 218.06836 324.50504
348.0 0.002874 218.04541 311.72232
314.0 0.003185 218.02179 298.58478
284.0 0.00352 217.99739 287.04681
268.0 0.00373 217.97240 278.26984
266.0 0.00376 217.94664 272.63361
261.0 0.00383 217.92014 269.74670
271.0 0.00369 217.89297 268.61761
273.0 0.00366 217.86504 267.85800
269.0 0.00372 217.83650 266.19388
263.0 0.00380 217.80710 263.05444
268.0 0.00373 217.77707 258.69888
251.0 0.00398 217.74625 253.79982
253.0 0.00395 217.71461 249.04837
248.0 0.00403 217.68231 245.01338
233.0 0.00429 217.64923 242.12965
248.0 0.00403 217.61534 240.67763
229.0 0.00437 217.58075 240.74055
272.0 0.00368 217.54536 242.17871
250.0 0.00400 217.50922 244.63107
234.0 0.00427 217.47227 247.52042
250.0 0.00400 217.43457 250.07794
251.0 0.00398 217.39613 251.46718
249.0 0.00402 217.35681 251.11758
254.0 0.00394 217.31679 249.08641
235.0 0.00426 217.27596 246.01245
214.0 0.00467 217.23433 242.70508
219.0 0.00457 217.19196 239.83093
198.0 0.00505 217.14877 237.81874
224.0 0.00446 217.10483 236.86584
217.0 0.00461 217.06007 236.96555
213.0 0.00469 217.01453 237.88438
251.0 0.00398 216.96828 239.46060
213.0 0.00469 216.92114 241.37396
245.0 0.00408 216.87329 243.50844
240.0 0.00417 216.82468 245.85040
237.0 0.00422 216.77530 248.38155
246.0 0.00407 216.72516 250.62778
260.0 0.00385 216.67421 252.19490
255.0 0.00392 216.62250 252.65709
257.0 0.00389 216.57005 251.78615
264.0 0.00379 216.51678 249.71196
292.0 0.003425 216.46288 246.82309
257.0 0.00389 216.40820 243.73785
243.0 0.00412 216.35275 241.02412
257.0 0.00389 216.29662 239.03671
233.0 0.00429 216.23970 237.88803
248.0 0.00403 216.18214 237.52058
253.0 0.00395 216.12376 237.67287
239.0 0.00418 216.06479 238.20631
226.0 0.00442 216.00507 239.04907
246.0 0.00407 215.94469 240.53824
252.0 0.00397 215.88358 243.05922
245.0 0.00408 215.82181 247.21457
261.0 0.00383 215.75943 253.56789
257.0 0.00389 215.69630 262.42026
275.0 0.00364 215.63257 273.62119
272.0 0.00368 215.56825 286.41623
289.0 0.003460 215.50327 299.40723
336.0 0.002976 215.43764 310.66510
304.0 0.003289 215.37141 317.93671
347.0 0.002882 215.30464 319.43237
341.0 0.002933 215.23730 314.77637
330.0 0.003030 215.16937 305.64194
322.0 0.003106 215.10089 294.64429
283.0 0.00353 215.03183 284.14075
253.0 0.00395 214.96223 275.69772
261.0 0.00383 214.89214 269.99103
260.0 0.00385 214.82153 266.75107
273.0 0.00366 214.75044 265.17627
266.0 0.00376 214.67888 264.09573
295.0 0.003390 214.60684 262.29861
285.0 0.00351 214.53426 259.06741
265.0 0.00377 214.46133 254.44701
259.0 0.00386 214.38799 249.36716
219.0 0.00457 214.31419 244.60555
234.0 0.00427 214.24007 240.84023
218.0 0.00459 214.16551 238.51775
232.0 0.00431 214.09064 237.78781
215.0 0.00465 214.01537 238.54349
252.0 0.00397 213.93983 240.41193
250.0 0.00400 213.86386 242.83217
235.0 0.00426 213.78767 245.11517
249.0 0.00402 213.71121 246.44762
258.0 0.00388 213.63445 246.28537
252.0 0.00397 213.55751 244.48128
248.0 0.00403 213.48021 241.51752
241.0 0.00415 213.40283 238.13885
233.0 0.00429 213.32513 234.90494
211.0 0.00474 213.24736 232.37102
241.0 0.00415 213.16939 230.61636
231.0 0.00433 213.09120 229.57637
226.0 0.00442 213.01302 229.02351
224.0 0.00446 212.93465 228.60855
233.0 0.00429 212.85614 227.96965
217.0 0.00461 212.77754 226.88878
244.0 0.00410 212.69905 225.39200
234.0 0.00427 212.62042 223.67154
226.0 0.00442 212.54181 221.91144
231.0 0.00433 212.46318 220.32941
182.0 0.00549 212.38455 218.98811
227.0 0.00441 212.30591 217.92970
188.0 0.00532 212.22745 217.14365
238.0 0.00420 212.14905 216.59079
237.0 0.00422 212.07072 216.22913
253.0 0.00395 211.99248 216.00945
217.0 0.00461 211.91429 215.89494
222.0 0.00450 211.83640 215.86017
197.0 0.00508 211.75865 215.89099
225.0 0.00444 211.68106 215.98395
219.0 0.00457 211.60368 216.14412
225.0 0.00444 211.52649 216.39249
197.0 0.00508 211.44960 216.74330
196.0 0.00510 211.37296 217.31206
238.0 0.00420 211.29660 218.19705
230.0 0.00435 211.22052 219.58633
189.0 0.00529 211.14473 221.75238
223.0 0.00448 211.06935 225.04669
242.0 0.00413 210.99435 229.86047
248.0 0.00403 210.91971 236.54140
260.0 0.00385 210.84537 245.26378
271.0 0.00369 210.77147 255.88757
246.0 0.00407 210.69807 267.81137
265.0 0.00377 210.62511 279.90680
270.0 0.00370 210.55255 290.40897
305.0 0.003279 210.48045 297.16122
306.0 0.003268 210.40894 298.46271
301.0 0.003322 210.33791 294.21875
287.0 0.003484 210.26743 286.13803
292.0 0.003425 210.19743 276.56454
239.0 0.00418 210.12808 267.50256
276.0 0.00362 210.05927 260.29169
232.0 0.00431 209.99103 255.49214
245.0 0.00408 209.92343 253.00800
244.0 0.00410 209.85649 252.15581
242.0 0.00413 209.79008 251.84973
246.0 0.00407 209.72444 250.90355
266.0 0.00376 209.65947 248.55034
266.0 0.00376 209.59520 244.81047
258.0 0.00388 209.53156 240.27733
264.0 0.00379 209.46869 235.60294
259.0 0.00386 209.40656 231.39326
237.0 0.00422 209.34514 228.04974
229.0 0.00437 209.28448 225.87587
214.0 0.00467 209.22458 224.97263
206.0 0.00485 209.16557 225.49908
225.0 0.00444 209.10724 227.59531
216.0 0.00463 209.04974 231.29875
246.0 0.00407 208.99304 236.72496
242.0 0.00413 208.93721 243.83389
240.0 0.00417 208.88226 252.28932
253.0 0.00395 208.82808 261.66165
270.0 0.00370 208.77484 270.97229
265.0 0.00377 208.72246 279.12296
302.0 0.003311 208.67094 285.21045
317.0 0.003155 208.62033 288.62842
299.0 0.003344 208.57057 289.03323
322.0 0.003106 208.52177 286.47226
286.0 0.003497 208.47389 281.78986
280.0 0.00357 208.42690 276.54260
265.0 0.00377 208.38081 272.24893
237.0 0.00422 208.33571 269.97928
262.0 0.00382 208.29156 270.03268
267.0 0.00375 208.24841 272.10492
269.0 0.00372 208.20616 275.43262
233.0 0.00429 208.16486 278.96851
288.0 0.003472 208.12454 281.52780
319.0 0.003135 208.08522 282.09030
304.0 0.003289 208.04681 280.34418
266.0 0.00376 208.00941 276.84744
266.0 0.00376 207.97310 272.47675
272.0 0.00368 207.93764 267.84296
257.0 0.00389 207.90320 263.12308
262.0 0.00382 207.86977 258.30692
244.0 0.00410 207.83733 253.59505
233.0 0.00429 207.80586 249.23917
230.0 0.00435 207.77538 245.39084
236.0 0.00424 207.74588 241.98801
249.0 0.00402 207.71739 238.88681
247.0 0.00405 207.68991 236.02745
236.0 0.00424 207.66341 233.43352
241.0 0.00415 207.63789 231.13214
237.0 0.00422 207.61340 228.95433
228.0 0.00439 207.58983 226.76103
223.0 0.00448 207.56728 224.47615
213.0 0.00469 207.54572 222.14191
208.0 0.00481 207.52504 219.89781
243.0 0.00412 207.50539 217.87163
236.0 0.00424 207.48676 216.13342
231.0 0.00433 207.46901 214.70010
218.0 0.00459 207.45226 213.55048
223.0 0.00448 207.43640 212.64339
209.0 0.00478 207.42154 211.93449
220.0 0.00455 207.40761 211.39589
214.0 0.00467 207.39456 210.96780
199.0 0.00503 207.38240 210.63333
213.0 0.00469 207.37125 210.39604
228.0 0.00439 207.36092 210.18820
212.0 0.00472 207.35153 210.02298
207.0 0.00483 207.34303 209.89134
210.0 0.00476 207.33537 209.78630
208.0 0.00481 207.32857 209.70255
224.0 0.00446 207.32263 209.63602
198.0 0.00505 207.31754 209.58382
226.0 0.00442 207.31329 209.54388
215.0 0.00465 207.30983 209.51460
197.0 0.00508 207.30714 209.49521
239.0 0.00418 207.30536 209.49474
191.0 0.00524 207.30434 209.49367
214.0 0.00467 207.30396 209.50111
214.0 0.00467 207.30443 209.51717
204.0 0.00490 207.30560 209.54195
188.0 0.00532 207.30754 209.57552
230.0 0.00435 207.31021 209.61833
207.0 0.00483 207.31348 209.67052
190.0 0.00526 207.31754 209.65210
206.0 0.00485 207.32220 209.72734
235.0 0.00426 207.32750 209.81421
244.0 0.00410 207.33345 209.91415
217.0 0.00461 207.34009 210.02858
195.0 0.00513 207.34726 210.15939
213.0 0.00469 207.35503 210.30931
269.0 0.00372 207.36334 210.48193
227.0 0.00441 207.37224 210.68318
215.0 0.00465 207.38168 210.92142
232.0 0.00431 207.39157 211.17825
211.0 0.00474 207.40204 211.53551
225.0 0.00444 207.41299 211.98714
204.0 0.00490 207.42436 212.56711
230.0 0.00435 207.43614 213.31740
230.0 0.00435 207.44841 214.28595
180.0 0.00556 207.46106 215.52576
224.0 0.00446 207.47414 217.09439
237.0 0.00422 207.48753 219.05464
233.0 0.00429 207.50133 221.47392
217.0 0.00461 207.51540 224.42026
233.0 0.00429 207.52985 227.97005
280.0 0.00357 207.54451 232.23978
253.0 0.00395 207.55954 237.43944
222.0 0.00450 207.57472 243.78423
260.0 0.00385 207.59027 251.44205
239.0 0.00418 207.60588 260.35995
279.0 0.00358 207.62183 270.21210
243.0 0.00412 207.63782 280.50540
279.0 0.00358 207.65408 290.82742
286.0 0.003497 207.67041 300.91843
307.0 0.003257 207.68689 310.43265
338.0 0.002959 207.70345 318.57318
341.0 0.002933 207.72008 324.66016
344.0 0.002907 207.73680 328.29745
360.0 0.002778 207.75352 329.53110
338.0 0.002959 207.77036 328.51233
330.0 0.003030 207.78708 325.44379
316.0 0.003165 207.80383 320.52158
312.0 0.003205 207.82057 314.00266
278.0 0.00360 207.83722 306.51230
285.0 0.00351 207.85385 299.00751
262.0 0.00382 207.87033 292.29031
263.0 0.00380 207.88672 286.67612
283.0 0.00353 207.90297 282.02145
291.0 0.003436 207.91910 278.06235
289.0 0.003460 207.93507 274.39767
283.0 0.00353 207.95087 270.62601
278.0 0.00360 207.96643 266.43503
265.0 0.00377 207.98181 261.66245
233.0 0.00429 207.99695 256.27945
259.0 0.00386 208.01183 250.44725
245.0 0.00408 208.02643 244.53278
234.0 0.00427 208.04083 239.00298
242.0 0.00413 208.05484 234.20480
217.0 0.00461 208.06853 230.32335
215.0 0.00465 208.08197 227.30435
209.0 0.00478 208.09505 225.24324
209.0 0.00478 208.10774 223.92506
222.0 0.00450 208.12015 223.16241
207.0 0.00483 208.13210 222.95885
225.0 0.00444 208.14360 223.33200
223.0 0.00448 208.15475 224.37521
217.0 0.00461 208.16548 226.20879
224.0 0.00446 208.17580 228.96928
207.0 0.00483 208.18567 232.71941
236.0 0.00424 208.19499 237.35373
228.0 0.00439 208.20396 242.58055
250.0 0.00400 208.21236 247.82510
237.0 0.00422 208.22032 252.23874
268.0 0.00373 208.22774 254.83012
253.0 0.00395 208.23466 254.95833
230.0 0.00435 208.24104 252.72070
251.0 0.00398 208.24690 248.96437
233.0 0.00429 208.25226 244.78708
214.0 0.00467 208.25702 241.15445
245.0 0.00408 208.26126 238.77109
232.0 0.00431 208.26492 238.03983
255.0 0.00392 208.26807 239.07457
250.0 0.00400 208.27057 241.69846
248.0 0.00403 208.27254 245.43694
243.0 0.00412 208.27390 249.56337
246.0 0.00407 208.27464 253.28552
241.0 0.00415 208.27486 255.87401
218.0 0.00459 208.27437 256.76273
223.0 0.00448 208.27338 255.57457
248.0 0.00403 208.27171 252.34444
287.0 0.003484 208.26947 247.64502
274.0 0.00365 208.26665 242.36516
210.0 0.00476 208.26315 237.31308
221.0 0.00452 208.25908 233.04620
228.0 0.00439 208.25446 229.86011
221.0 0.00452 208.24911 227.79935
248.0 0.00403 208.24315 226.70583
259.0 0.00386 208.23665 226.26549
245.0 0.00408 208.22948 226.05605
226.0 0.00442 208.22173 225.64447
254.0 0.00394 208.21335 224.74207
216.0 0.00463 208.20441 223.32170
197.0 0.00508 208.19481 221.55836
208.0 0.00481 208.18459 219.68237
214.0 0.00467 208.17383 217.89046
234.0 0.00427 208.16243 216.30580
217.0 0.00461 208.15047 214.99887
196.0 0.00510 208.13791 213.98344
232.0 0.00431 208.12479 213.23781
199.0 0.00503 208.11105 212.72072
215.0 0.00465 208.09668 212.38161
217.0 0.00461 208.08186 212.17552
220.0 0.00455 208.06644 212.06555
191.0 0.00524 208.05043 212.02667
221.0 0.00452 208.03397 212.04382
213.0 0.00469 208.01685 212.11157
193.0 0.00518 207.99928 212.23270
198.0 0.00505 207.98119 212.41797
211.0 0.00474 207.96252 212.68971
207.0 0.00483 207.94342 213.08159
232.0 0.00431 207.92378 213.64236
233.0 0.00429 207.90364 214.43181
226.0 0.00442 207.88307 215.51851
216.0 0.00463 207.86198 216.97122
232.0 0.00431 207.84039 218.84065
229.0 0.00437 207.81847 221.15865
233.0 0.00429 207.79599 223.91733
199.0 0.00503 207.77312 227.07912
248.0 0.00403 207.74983 230.57385
222.0 0.00450 207.72617 234.30426
247.0 0.00405 207.70209 238.26863
227.0 0.00441 207.67758 242.63939
240.0 0.00417 207.65271 247.84003
271.0 0.00369 207.62749 254.29103
275.0 0.00364 207.60190 262.16553
223.0 0.00448 207.57594 271.25082
287.0 0.003484 207.54971 280.83423
272.0 0.00368 207.52310 289.64484
285.0 0.00351 207.49615 296.14728
330.0 0.003030 207.46892 299.00467
336.0 0.002976 207.44138 297.77515
315.0 0.003175 207.41365 292.79529
316.0 0.003165 207.38556 285.17496
269.0 0.00372 207.35719 276.52237
290.0 0.003448 207.32858 268.28098
248.0 0.00403 207.29977 261.47052
265.0 0.00377 207.27075 256.65048
250.0 0.00400 207.24141 253.79478
259.0 0.00386 207.21196 252.44783
224.0 0.00446 207.18231 251.86861
229.0 0.00437 207.15237 251.26564
268.0 0.00373 207.12231 250.08279
275.0 0.00364 207.09212 248.17212
247.0 0.00405 207.06168 245.77647
240.0 0.00417 207.03117 243.48053
267.0 0.00375 207.00043 241.98969
256.0 0.00391 206.96962 241.97816
225.0 0.00444 206.93864 244.04611
244.0 0.00410 206.90758 248.56715
225.0 0.00444 206.87636 255.65300
276.0 0.00362 206.84506 265.06735
271.0 0.00369 206.81363 276.12790
301.0 0.003322 206.78215 287.70532
302.0 0.003311 206.75060 298.17792
361.0 0.002770 206.71893 305.68112
359.0 0.002786 206.68718 308.79980
368.0 0.002717 206.65535 307.30463
341.0 0.002933 206.62350 302.31699
330.0 0.003030 206.59154 295.47095
278.0 0.00360 206.55959 288.54126
308.0 0.003247 206.52747 282.86838
288.0 0.003472 206.49539 279.23303
263.0 0.00380 206.46324 277.71957
259.0 0.00386 206.43100 277.74875
277.0 0.00361 206.39882 278.21945
275.0 0.00364 206.36656 277.86185
286.0 0.003497 206.33427 275.73407
296.0 0.003378 206.30190 271.54947
273.0 0.00366 206.26953 265.80542
284.0 0.00352 206.23711 259.31479
253.0 0.00395 206.20462 252.88254
239.0 0.00418 206.17216 247.21527
205.0 0.00488 206.13966 242.72676
240.0 0.00417 206.10707 239.53543
231.0 0.00433 206.07443 237.47148
235.0 0.00426 206.04181 236.11095
259.0 0.00386 206.00909 234.89821
247.0 0.00405 205.97636 233.33360
239.0 0.00418 205.94357 231.17413
247.0 0.00405 205.91078 228.47984
245.0 0.00408 205.87788 225.54945
238.0 0.00420 205.84489 222.68259
226.0 0.00442 205.81192 220.09154
210.0 0.00476 205.77879 217.97423
200.0 0.00500 205.74571 216.36588
219.0 0.00457 205.71245 215.24290
223.0 0.00448 205.67917 214.52229
193.0 0.00518 205.64581 214.07570
208.0 0.00481 205.61227 213.74542
183.0 0.00546 205.57877 213.39407
217.0 0.00461 205.54507 212.94044
238.0 0.00420 205.51135 212.38153
217.0 0.00461 205.47751 211.77051
213.0 0.00469 205.44347 211.15933
202.0 0.00495 205.40939 210.61600
240.0 0.00417 205.37514 210.15508
229.0 0.00437 205.34081 209.78160
215.0 0.00465 205.30632 209.49940
210.0 0.00476 205.27170 209.24515
214.0 0.00467 205.23698 209.01373
196.0 0.00510 205.20203 208.79138
193.0 0.00518 205.16705 208.58205
214.0 0.00467 205.13188 208.39487
211.0 0.00474 205.09648 208.24263
202.0 0.00495 205.06104 208.12651
182.0 0.00549 205.02536 208.05331
236.0 0.00424 204.98955 208.02370
220.0 0.00455 204.95357 208.03503
205.0 0.00488 204.91747 208.08318
194.0 0.00515 204.88121 208.17485
241.0 0.00415 204.84473 208.28058
203.0 0.00493 204.80815 208.41901
195.0 0.00513 204.77141 208.61012
221.0 0.00452 204.73448 208.89098
225.0 0.00444 204.69746 209.31752
182.0 0.00549 204.66026 209.96962
226.0 0.00442 204.62302 210.95129
238.0 0.00420 204.58556 212.38498
223.0 0.00448 204.54799 214.40186
203.0 0.00493 204.51033 217.10362
189.0 0.00529 204.47256 220.54108
238.0 0.00420 204.43472 224.65739
214.0 0.00467 204.39684 229.26208
243.0 0.00412 204.35884 234.03596
252.0 0.00397 204.32091 238.35605
278.0 0.00360 204.28282 241.61621
227.0 0.00441 204.24483 243.19504
236.0 0.00424 204.20679 242.84485
251.0 0.00398 204.16878 240.82404
220.0 0.00455 204.13089 237.79358
229.0 0.00437 204.09306 234.51738
201.0 0.00498 204.05533 231.65027
206.0 0.00485 204.01778 229.58640
216.0 0.00463 203.98029 228.61859
202.0 0.00495 203.94310 228.68205
224.0 0.00446 203.90610 229.66061
240.0 0.00417 203.86945 231.17026
216.0 0.00463 203.83305 232.80551
227.0 0.00441 203.79701 234.21318
217.0 0.00461 203.76138 235.21413
244.0 0.00410 203.72617 235.81195
224.0 0.00446 203.69142 236.07076
237.0 0.00422 203.65718 235.97911
254.0 0.00394 203.62360 235.39273
216.0 0.00463 203.59061 234.11868
239.0 0.00418 203.55826 232.16356
251.0 0.00398 203.52673 229.73352
227.0 0.00441 203.49597 227.21837
242.0 0.00413 203.46608 224.95642
209.0 0.00478 203.43703 223.22701
214.0 0.00467 203.40903 222.24763
209.0 0.00478 203.38208 222.20058
202.0 0.00495 203.35625 223.22310
212.0 0.00472 203.33165 225.39322
227.0 0.00441 203.30829 228.69460
224.0 0.00446 203.28629 233.01399
218.0 0.00459 203.26564 238.12427
232.0 0.00431 203.24654 243.73116
257.0 0.00389 203.22896 249.42352
261.0 0.00383 203.21312 254.60477
220.0 0.00455 203.19896 258.53592
264.0 0.00379 203.18666 260.24982
243.0 0.00412 203.17628 259.18121
260.0 0.00385 203.16789 255.55347
266.0 0.00376 203.16162 250.25017
220.0 0.00455 203.15755 244.35541
241.0 0.00415 203.15569 238.80099
204.0 0.00490 203.15627 234.20804
231.0 0.00433 203.15933 230.90576
218.0 0.00459 203.16499 228.94220
240.0 0.00417 203.17328 228.15509
226.0 0.00442 203.18437 228.20773
214.0 0.00467 203.19833 228.55859
239.0 0.00418 203.21521 228.65248
242.0 0.00413 203.23520 228.09535
245.0 0.00408 203.25838 226.79591
232.0 0.00431 203.28481 224.95883
220.0 0.00455 203.31461 222.88980
262.0 0.00382 203.34790 220.84377
224.0 0.00446 203.38470 218.98170
218.0 0.00459 203.42523 217.36021
233.0 0.00429 203.46954 215.99258
241.0 0.00415 203.51767 214.85078
214.0 0.00467 203.56984 213.88408
236.0 0.00424 203.62599 213.08104
215.0 0.00465 203.68636 212.46933
235.0 0.00426 203.75090 212.05702
241.0 0.00415 203.81973 211.87074
233.0 0.00429 203.89313 211.91174
214.0 0.00467 203.97083 212.16731
206.0 0.00485 204.05330 212.61537
217.0 0.00461 204.14023 213.24356
219.0 0.00457 204.23195 214.07076
235.0 0.00426 204.32846 215.14894
229.0 0.00437 204.42972 216.54839
238.0 0.00420 204.53606 218.32132
234.0 0.00427 204.64723 220.45525
219.0 0.00457 204.76335 222.90073
231.0 0.00433 204.88466 225.52031
235.0 0.00426 205.01099 228.00067
225.0 0.00444 205.14241 229.99261
238.0 0.00420 205.27888 231.13837
213.0 0.00469 205.42049 231.28065
225.0 0.00444 205.56738 230.62265
265.0 0.00377 205.71927 229.45071
219.0 0.00457 205.87639 228.21309
183.0 0.00546 206.03854 227.21727
226.0 0.00442 206.20578 226.63420
252.0 0.00397 206.37807 226.52333
215.0 0.00465 206.55528 226.85966
244.0 0.00410 206.73759 227.53784
230.0 0.00435 206.92458 228.35490
222.0 0.00450 207.11633 229.02835
231.0 0.00433 207.31293 229.27853
249.0 0.00402 207.51401 228.97595
223.0 0.00448 207.71965 228.23572
214.0 0.00467 207.92932 227.37291
238.0 0.00420 208.14330 226.71628
212.0 0.00472 208.36140 226.58873
216.0 0.00463 208.58330 227.22362
211.0 0.00474 208.80899 228.76225
250.0 0.00400 209.03783 231.23671
244.0 0.00410 209.26999 234.55847
244.0 0.00410 209.50533 238.50662
225.0 0.00444 209.74319 242.62386
249.0 0.00402 209.98386 246.34592
270.0 0.00370 210.22638 248.98045
278.0 0.00360 210.47086 249.91110
286.0 0.003497 210.71722 248.92429
288.0 0.003472 210.96452 246.31892
269.0 0.00372 211.21307 242.79379
229.0 0.00437 211.46193 239.03183
215.0 0.00465 211.71098 235.62085
205.0 0.00488 211.96001 232.90555
223.0 0.00448 212.20815 231.06175
223.0 0.00448 212.45551 230.08414
229.0 0.00437 212.70102 229.82927
260.0 0.00385 212.94467 230.01324
227.0 0.00441 213.18602 230.29897
201.0 0.00498 213.42416 230.32666
226.0 0.00442 213.65912 229.85617
247.0 0.00405 213.88991 228.82944
223.0 0.00448 214.11607 227.41287
209.0 0.00478 214.33746 225.80325
214.0 0.00467 214.55286 224.20757
207.0 0.00483 214.76224 222.75383
213.0 0.00469 214.96468 221.52356
216.0 0.00463 215.15959 220.54475
206.0 0.00485 215.34673 219.79094
223.0 0.00448 215.52492 219.26299
223.0 0.00448 215.69402 218.89876
218.0 0.00459 215.85304 218.68878
216.0 0.00463 216.00150 218.53387
227.0 0.00441 216.13890 218.43874
217.0 0.00461 216.26433 218.38451
214.0 0.00467 216.37737 218.35715
211.0 0.00474 216.47723 218.34706
233.0 0.00429 216.56334 218.34705
245.0 0.00408 216.63516 218.35220
220.0 0.00455 216.69194 218.35789
220.0 0.00455 216.73320 218.35378
206.0 0.00485 216.75829 218.34935
210.0 0.00476 216.76675 218.33583
221.0 0.00452 216.75804 218.31169
212.0 0.00472 216.73161 218.28871
203.0 0.00493 216.68692 218.19650
217.0 0.00461 216.62369 218.13914
189.0 0.00529 216.54150 218.07014
231.0 0.00433 216.43985 217.98955
218.0 0.00459 216.31874 217.89766
212.0 0.00472 216.17769 217.79495
225.0 0.00444 216.01669 217.68246
202.0 0.00495 215.83563 217.56229
226.0 0.00442 215.63422 217.44637
207.0 0.00483 215.41289 217.32259
197.0 0.00508 215.17152 217.20880
220.0 0.00455 214.91071 217.11810
231.0 0.00433 214.63048 217.05267
221.0 0.00452 214.33113 217.07394
222.0 0.00450 214.01379 217.19705
239.0 0.00418 213.67874 217.45503
222.0 0.00450 213.32730 217.88129
220.0 0.00455 212.96016 218.51639
220.0 0.00455 212.57831 219.32794
231.0 0.00433 212.18358 220.30975
198.0 0.00505 211.77702 221.40085
228.0 0.00439 211.36118 222.50313
235.0 0.00426 210.93733 223.45305
225.0 0.00444 210.50761 224.08633
209.0 0.00478 210.07501 224.27074
233.0 0.00429 209.64163 224.00728
221.0 0.00452 209.21118 223.46048
223.0 0.00448 208.78635 222.89450
220.0 0.00455 208.37064 222.58849
248.0 0.00403 207.96857 222.78748
217.0 0.00461 207.58350 223.68942
240.0 0.00417 207.22105 225.40778
231.0 0.00433 206.88559 227.97707
234.0 0.00427 206.58257 231.31328
256.0 0.00391 206.31815 235.18857
269.0 0.00372 206.09828 239.23232
279.0 0.00358 205.93007 242.91391
268.0 0.00373 205.82069 245.69118
243.0 0.00412 205.77800 247.18918
250.0 0.00400 205.81036 247.35612
228.0 0.00439 205.92690 246.37370
225.0 0.00444 206.13702 244.56754
255.0 0.00392 206.45120 242.21571
211.0 0.00474 206.88066 239.68573
226.0 0.00442 207.43631 237.42009
250.0 0.00400 208.13177 235.83015
217.0 0.00461 208.97919 235.22061
228.0 0.00439 209.99272 235.76543
248.0 0.00403 211.18939 237.51120
230.0 0.00435 212.58173 240.39891
235.0 0.00426 214.19003 244.32155
236.0 0.00424 216.02942 249.15805
265.0 0.00377 218.11914 254.80360
273.0 0.00366 220.48238 261.15402
280.0 0.00357 223.13658 267.92661
246.0 0.00407 226.10773 274.71921
255.0 0.00392 229.41548 280.96707
301.0 0.003322 233.08546 286.04831
331.0 0.003021 237.14954 289.48587
294.0 0.003401 241.62894 291.25153
303.0 . . .
loop_
_refln_index_h
_refln_index_k
_refln_index_l
_pd_refln_wavelength_id
_refln_observed_status
_refln_F_squared_meas
_refln_F_squared_calc
_refln_phase_calc
_refln_d_spacing
_gsas_i100_meas
1 0 0 1 o 239.046 231.828 0.00 8.19135 38.04
1 0 0 2 o 248.919 231.828 0.00 8.19135 14.95
1 1 0 1 o 7.938 8.639 180.00 4.83898 0.78
1 1 0 2 o 8.833 8.639 180.00 4.83898 0.34
0 0 1 1 o 7.804 10.198 0.00 4.53576 0.30
0 0 1 2 o 1.678 10.198 0.00 4.53576 0.00
2 0 0 1 o 179.253 158.595 180.00 4.09568 6.76
1 0 -1 1 o 179.374 163.997 0.00 4.08599 6.35
2 0 0 2 o 173.954 158.595 180.00 4.09568 2.48
1 0 -1 2 o 172.216 163.997 0.00 4.08599 2.31
1 0 1 1 o 1223.851 1215.030 180.00 3.85976 44.88
1 0 1 2 o 1233.446 1215.030 180.00 3.85976 17.09
0 1 1 1 o -2.056 2.138 0.00 3.61764 0.00
0 1 1 2 o -2.056 2.138 0.00 3.61764 0.00
2 1 0 1 o 505.164 479.856 0.00 3.38222 30.02
1 1 -1 1 o 1789.497 1752.106 180.00 3.37676 100.00
2 1 0 2 o 487.684 479.856 0.00 3.38222 10.98
1 1 -1 2 o 1744.470 1752.106 180.00 3.37676 36.88
1 1 1 1 o 414.185 406.143 180.00 3.24567 22.62
1 1 1 2 o 401.907 406.143 180.00 3.24567 8.30
2 0 -1 1 o 486.559 465.961 0.00 3.14668 9.97
2 0 -1 2 o 487.245 465.961 0.00 3.14668 3.77
0 2 0 1 o 2520.078 2582.228 180.00 2.99865 50.10
0 2 0 2 o 2430.482 2582.228 180.00 2.99865 18.29
2 0 1 1 o 298.709 253.942 180.00 2.94311 5.61
2 0 1 2 o 300.507 253.942 180.00 2.94311 2.13
1 2 0 1 o 176.598 162.914 180.00 2.81590 6.69
1 2 0 2 o 182.152 162.914 180.00 2.81590 2.60
2 1 -1 1 o 29.383 24.631 180.00 2.78642 1.11
2 1 -1 2 o 26.006 24.631 180.00 2.78642 0.38
3 0 0 1 o 862.245 848.091 180.00 2.73045 13.68
3 0 0 2 o 809.361 848.091 180.00 2.73045 4.87
2 1 1 1 o 932.286 934.623 180.00 2.64211 31.18
2 1 1 2 o 869.502 934.623 180.00 2.64211 11.02
0 2 1 1 o -1.229 0.050 0.00 2.50142 0.00
0 2 1 2 o -1.229 0.050 0.00 2.50142 0.00
3 1 0 1 o 0.416 5.878 180.00 2.48502 0.00
3 1 0 2 o 4.645 5.878 180.00 2.48502 0.04
2 2 0 1 o 87.392 76.102 0.00 2.41949 2.51
1 2 -1 1 o 78.854 71.041 180.00 2.41749 2.15
2 2 0 2 o 79.924 76.102 0.00 2.41949 0.87
3 0 -1 1 o 1112.884 1083.638 0.00 2.41193 12.64
1 2 -1 2 o 72.645 71.041 180.00 2.41749 0.75
3 0 -1 2 o 1074.792 1083.638 0.00 2.41193 4.62
1 2 1 1 o 668.625 666.477 0.00 2.36800 18.59
1 2 1 2 o 655.699 666.477 0.00 2.36800 6.90
3 0 1 1 o 1.584 12.298 180.00 2.27285 0.00
0 0 2 1 o -0.009 0.671 0.00 2.26788 0.00
3 0 1 2 o 2.942 12.298 180.00 2.27285 0.01
0 0 2 2 o -0.162 0.671 0.00 2.26788 0.00
3 1 -1 1 o 4.243 12.955 0.00 2.23774 0.13
3 1 -1 2 o 5.103 12.955 0.00 2.23774 0.06
1 0 -2 1 o 112.376 130.571 180.00 2.22439 1.21
1 0 -2 2 o 132.164 130.571 180.00 2.22439 0.53
2 2 -1 1 o 326.609 315.364 180.00 2.17081 7.22
2 2 -1 2 o 337.395 315.364 180.00 2.17081 2.81
1 0 2 1 o 304.128 268.531 0.00 2.14888 3.21
1 0 2 2 o 308.232 268.531 0.00 2.14888 1.23
3 1 1 1 o 103.787 95.628 180.00 2.12534 2.12
0 1 2 1 o 771.902 758.435 180.00 2.12128 15.95
3 1 1 2 o 96.840 95.628 180.00 2.12534 0.75
0 1 2 2 o 746.575 758.435 180.00 2.12128 5.84
2 2 1 1 o 119.772 108.905 0.00 2.10045 2.52
2 2 1 2 o 107.665 108.905 0.00 2.10045 0.86
1 1 -2 1 o 165.867 166.128 0.00 2.08556 3.16
1 1 -2 2 o 165.973 166.128 0.00 2.08556 1.19
4 0 0 1 o 306.238 288.211 180.00 2.04784 2.53
2 0 -2 1 o 379.817 374.434 180.00 2.04299 3.03
4 0 0 2 o 292.391 288.211 180.00 2.04784 0.92
2 0 -2 2 o 373.815 374.434 180.00 2.04299 1.13
1 1 2 1 o 126.456 113.424 180.00 2.02294 2.39
3 2 0 1 o 486.420 489.709 0.00 2.01889 9.31
1 1 2 2 o 110.952 113.424 180.00 2.02294 0.80
3 2 0 2 o 442.670 489.709 0.00 2.01889 3.22
1 3 0 1 o 34.157 36.643 180.00 1.94210 0.60
4 1 0 1 o 100.725 107.649 180.00 1.93797 1.62
1 3 0 2 o 34.113 36.643 180.00 1.94210 0.23
2 1 -2 1 o 0.492 0.527 0.00 1.93387 0.01
4 1 0 2 o 96.462 107.649 180.00 1.93797 0.59
2 0 2 1 o 40.376 58.521 0.00 1.92988 0.37
2 1 -2 2 o 0.386 0.527 0.00 1.93387 0.00
2 0 2 2 o 45.308 58.521 0.00 1.92988 0.15
4 0 -1 1 o 10.920 8.761 180.00 1.91527 0.07
4 0 -1 2 o 20.669 8.761 180.00 1.91527 0.05
3 2 -1 1 o 478.153 483.266 180.00 1.87941 7.38
3 2 -1 2 o 536.242 483.266 180.00 1.87941 3.11
2 1 2 1 o 17.852 12.323 0.00 1.83711 0.28
2 1 2 2 o 17.799 12.323 0.00 1.83711 0.11
0 3 1 1 o 27.857 25.166 180.00 1.82930 0.43
0 3 1 2 o 24.429 25.166 180.00 1.82930 0.14
4 1 -1 1 o 70.911 72.948 0.00 1.82449 1.01
4 0 1 1 o 614.242 581.507 0.00 1.82114 3.76
4 1 -1 2 o 80.029 72.948 0.00 1.82449 0.42
4 0 1 2 o 635.858 581.507 0.00 1.82114 1.47
3 2 1 1 o 1.809 1.553 180.00 1.81134 0.04
0 2 2 1 o 17.951 14.832 180.00 1.80882 0.26
3 2 1 2 o 2.361 1.553 180.00 1.81134 0.02
3 0 -2 1 o 70.791 53.347 0.00 1.80516 0.37
0 2 2 2 o 20.090 14.832 180.00 1.80882 0.11
3 0 -2 2 o 58.614 53.347 0.00 1.80516 0.12
2 3 0 1 o 224.675 210.969 180.00 1.79652 3.15
1 3 -1 1 o 665.800 608.249 0.00 1.79570 8.93
2 3 0 2 o 242.889 210.969 180.00 1.79652 1.28
1 3 -1 2 o 692.807 608.249 0.00 1.79570 3.50
1 2 -2 1 o 62.877 68.758 0.00 1.78652 0.93
1 2 -2 2 o 56.833 68.758 0.00 1.78652 0.32
1 3 1 1 o 140.839 129.306 0.00 1.77513 1.86
1 3 1 2 o 126.591 129.306 0.00 1.77513 0.63
1 2 2 1 o 117.545 144.025 180.00 1.74669 1.71
4 1 1 1 o 50.498 57.730 0.00 1.74257 0.57
1 2 2 2 o 124.806 144.025 180.00 1.74669 0.68
4 1 1 2 o 40.038 57.730 0.00 1.74257 0.17
3 1 -2 1 o 199.985 182.508 180.00 1.72856 2.24
3 1 -2 2 o 187.573 182.508 180.00 1.72856 0.80
4 2 0 1 o 183.725 191.604 0.00 1.69111 2.27
3 0 2 1 o 18.373 19.393 180.00 1.68973 0.10
2 2 -2 1 o 269.148 286.065 0.00 1.68838 3.20
2 3 -1 1 o 38.019 40.006 0.00 1.68737 0.47
4 2 0 2 o 183.502 191.604 0.00 1.69111 0.86
3 0 2 2 o 18.908 19.393 180.00 1.68973 0.04
2 2 -2 2 o 276.568 286.065 0.00 1.68838 1.24
2 3 -1 2 o 38.509 40.006 0.00 1.68737 0.18
2 3 1 1 o 352.550 323.955 0.00 1.65369 4.16
2 3 1 2 o 397.842 323.955 0.00 1.65369 1.76
5 0 0 2 o 0.281 0.177 180.00 1.63827 0.00
5 0 0 1 o 0.354 0.177 180.00 1.63827 0.00
3 1 2 1 o 737.576 711.818 0.00 1.62640 7.64
2 2 2 1 o 59.425 56.735 180.00 1.62284 0.73
3 1 2 2 o 744.177 711.818 0.00 1.62640 2.91
2 2 2 2 o 65.657 56.735 180.00 1.62284 0.30
4 2 -1 1 o 2.998 2.695 0.00 1.61412 0.03
3 3 0 1 o 0.024 0.019 180.00 1.61299 0.00
4 2 -1 2 o 2.950 2.695 0.00 1.61412 0.01
3 3 0 2 o 0.060 0.019 180.00 1.61299 0.00
5 1 0 1 o 296.886 317.824 180.00 1.58037 2.79
5 1 0 2 o 303.284 317.824 180.00 1.58037 1.08
5 0 -1 1 o 260.950 276.948 180.00 1.57499 1.13
4 0 -2 1 o 124.098 137.064 0.00 1.57334 0.51
5 0 -1 2 o 244.497 276.948 180.00 1.57499 0.40
4 0 -2 2 o 118.361 137.064 0.00 1.57334 0.19
4 2 1 1 o 329.791 337.601 180.00 1.55657 3.26
4 2 1 2 o 344.796 337.601 180.00 1.55657 1.28
3 2 -2 1 o 25.970 20.743 180.00 1.54655 0.22
3 2 -2 2 o 25.901 20.743 180.00 1.54655 0.08
3 3 -1 1 o 11.538 14.485 180.00 1.53915 0.13
3 3 -1 2 o 7.614 14.485 180.00 1.53915 0.03
5 1 -1 1 o 55.700 53.143 0.00 1.52334 0.48
4 1 -2 1 o 543.407 492.500 180.00 1.52184 4.25
5 1 -1 2 o 60.197 53.143 0.00 1.52334 0.19
4 1 -2 2 o 529.282 492.500 180.00 1.52184 1.57
0 0 3 1 o 8.742 17.792 0.00 1.51192 0.05
5 0 1 1 o 24.944 44.022 0.00 1.50882 0.11
0 0 3 2 o 10.209 17.792 0.00 1.51192 0.02
5 0 1 2 o 35.397 44.022 0.00 1.50882 0.06
1 0 -3 1 o 133.325 164.406 0.00 1.50495 0.58
1 0 -3 2 o 157.528 164.406 0.00 1.50495 0.26
3 3 1 1 o 102.446 105.847 0.00 1.50108 1.00
0 3 2 1 o 469.867 451.083 0.00 1.49965 4.36
0 4 0 1 o 619.653 588.171 0.00 1.49932 2.48
3 3 1 2 o 112.494 105.847 0.00 1.50108 0.41
0 3 2 2 o 471.234 451.083 0.00 1.49965 1.65
0 4 0 2 o 613.303 588.171 0.00 1.49932 0.93
1 3 -2 1 o 53.603 52.845 180.00 1.48687 0.50
1 3 -2 2 o 45.322 52.845 180.00 1.48687 0.16
1 4 0 1 o 92.964 62.180 0.00 1.47482 0.73
3 2 2 1 o 21.974 15.529 0.00 1.47210 0.18
4 0 2 1 o 11.741 7.633 180.00 1.47155 0.05
1 4 0 2 o 87.268 62.180 0.00 1.47482 0.26
1 0 3 1 o 17.489 13.921 180.00 1.46930 0.08
3 2 2 2 o 17.542 15.529 0.00 1.47210 0.05
4 0 2 2 o 8.418 7.633 180.00 1.47155 0.02
0 1 3 1 o 157.773 155.055 0.00 1.46605 1.34
1 0 3 2 o 14.297 13.921 180.00 1.46930 0.02
1 3 2 1 o 88.588 81.124 0.00 1.46366 0.79
5 1 1 1 o 101.621 91.210 0.00 1.46323 0.80
0 1 3 2 o 176.721 155.055 0.00 1.46605 0.56
1 3 2 2 o 93.058 81.124 0.00 1.46366 0.31
1 1 -3 1 o 12.741 11.292 0.00 1.45969 0.10
5 1 1 2 o 103.666 91.210 0.00 1.46323 0.31
1 1 -3 2 o 13.518 11.292 0.00 1.45969 0.04
2 0 -3 1 o 70.048 50.105 0.00 1.45035 0.25
2 0 -3 2 o 54.396 50.105 0.00 1.45035 0.08
5 2 0 1 o -0.064 0.042 180.00 1.43770 0.00
5 2 0 2 o -0.049 0.042 180.00 1.43770 0.00
4 3 0 1 o 58.720 73.893 0.00 1.43050 0.51
4 1 2 1 o 113.326 133.035 0.00 1.42916 0.85
2 3 -2 1 o 0.629 0.773 0.00 1.42884 0.01
1 1 3 1 o 147.976 173.103 0.00 1.42710 1.22
4 3 0 2 o 63.175 73.893 0.00 1.43050 0.21
4 1 2 2 o 114.923 133.035 0.00 1.42916 0.33
2 3 -2 2 o 0.629 0.773 0.00 1.42884 0.00
1 1 3 2 o 134.615 173.103 0.00 1.42710 0.42
0 4 1 1 o 5.534 7.669 180.00 1.42356 0.06
0 4 1 2 o 8.029 7.669 180.00 1.42356 0.03
2 1 -3 1 o 235.312 218.508 0.00 1.40971 1.64
2 4 0 1 o 35.964 30.491 180.00 1.40795 0.27
1 4 -1 1 o 21.958 18.468 0.00 1.40755 0.16
2 1 -3 2 o 271.694 218.508 0.00 1.40971 0.71
2 4 0 2 o 40.008 30.491 180.00 1.40795 0.11
1 4 -1 2 o 24.072 18.468 0.00 1.40755 0.06
1 4 1 1 o 264.821 242.034 180.00 1.39758 1.95
5 2 -1 1 o 181.799 183.600 0.00 1.39436 1.33
1 4 1 2 o 238.741 242.034 180.00 1.39758 0.67
4 2 -2 1 o 86.704 88.541 180.00 1.39321 0.62
5 2 -1 2 o 185.958 183.600 0.00 1.39436 0.51
4 2 -2 2 o 95.560 88.541 180.00 1.39321 0.25
2 3 2 1 o 15.584 13.497 180.00 1.38846 0.13
2 0 3 1 o 370.829 324.170 180.00 1.38841 1.35
2 3 2 2 o 14.085 13.497 180.00 1.38846 0.05
2 0 3 2 o 337.063 324.170 180.00 1.38841 0.47
4 3 -1 1 o 103.100 99.477 180.00 1.38299 0.81
4 3 -1 2 o 116.965 99.477 180.00 1.38299 0.34
5 0 -2 1 o 93.945 78.572 0.00 1.37247 0.29
5 0 -2 2 o 100.430 78.572 0.00 1.37247 0.12
6 0 0 1 o 77.464 40.046 0.00 1.36523 0.25
3 0 -3 1 o 0.090 0.070 0.00 1.36200 0.00
6 0 0 2 o 45.676 40.046 0.00 1.36523 0.06
3 0 -3 2 o 0.063 0.070 0.00 1.36200 0.00
2 4 -1 1 o 141.433 127.698 0.00 1.35353 0.98
2 1 3 1 o 5.294 4.928 0.00 1.35263 0.04
2 4 -1 2 o 144.855 127.698 0.00 1.35353 0.38
0 2 3 1 o 17.556 15.373 180.00 1.35003 0.13
2 1 3 2 o 5.365 4.928 0.00 1.35263 0.01
5 2 1 1 o 27.297 32.289 180.00 1.34782 0.20
0 2 3 2 o 11.744 15.373 180.00 1.35003 0.04
4 3 1 1 o 12.273 15.364 180.00 1.34627 0.09
1 2 -3 1 o 130.458 155.498 180.00 1.34505 0.94
5 2 1 2 o 27.062 32.289 180.00 1.34782 0.07
4 3 1 2 o 12.258 15.364 180.00 1.34627 0.03
1 2 -3 2 o 129.643 155.498 180.00 1.34505 0.35
3 3 -2 1 o 131.025 132.864 0.00 1.33977 0.92
5 1 -2 1 o 1.197 1.214 180.00 1.33788 0.01
3 3 -2 2 o 136.911 132.864 0.00 1.33977 0.36
2 4 1 1 o 39.209 37.798 180.00 1.33596 0.27
5 1 -2 2 o 1.181 1.214 180.00 1.33788 0.00
2 4 1 2 o 35.790 37.798 180.00 1.33596 0.09
6 0 -1 1 o 340.258 356.816 180.00 1.33221 0.99
6 1 0 1 o 0.832 0.871 0.00 1.33117 0.00
6 0 -1 2 o 304.963 356.816 180.00 1.33221 0.34
3 1 -3 1 o 243.212 280.335 0.00 1.32818 1.43
6 1 0 2 o 0.783 0.871 0.00 1.33117 0.00
3 1 -3 2 o 259.305 280.335 0.00 1.32818 0.58
4 2 2 1 o 13.657 11.350 0.00 1.32106 0.10
1 2 3 1 o 18.109 14.929 0.00 1.31943 0.13
4 2 2 2 o 13.692 11.350 0.00 1.32106 0.04
1 2 3 2 o 16.225 14.929 0.00 1.31943 0.04
3 4 0 1 o 226.629 196.521 180.00 1.31422 1.50
3 4 0 2 o 205.685 196.521 180.00 1.31422 0.52
2 2 -3 1 o 49.617 31.832 180.00 1.30565 0.31
2 2 -3 2 o 53.628 31.832 180.00 1.30565 0.13
6 1 -1 1 o 5.364 2.928 180.00 1.30051 0.03
6 1 -1 2 o 7.598 2.928 180.00 1.30051 0.02
3 3 2 1 o 384.412 366.634 180.00 1.29049 2.55
5 0 2 1 o 130.663 127.943 180.00 1.28762 0.37
3 3 2 2 o 377.273 366.634 180.00 1.29049 0.95
3 0 3 1 o 69.530 66.232 180.00 1.28659 0.22
5 0 2 2 o 150.258 127.943 180.00 1.28762 0.16
6 0 1 1 o 32.584 26.183 180.00 1.28372 0.09
3 0 3 2 o 83.095 66.232 180.00 1.28659 0.10
6 0 1 2 o 14.474 26.183 180.00 1.28372 0.02
3 4 -1 1 o 216.083 179.648 0.00 1.27335 1.32
3 4 -1 2 o 162.560 179.648 0.00 1.27335 0.38
5 3 0 1 o 161.739 181.096 0.00 1.26713 1.04
5 3 0 2 o 173.150 181.096 0.00 1.26713 0.42
2 2 3 1 o 285.053 286.621 0.00 1.25991 1.78
5 1 2 1 o 24.245 25.317 180.00 1.25893 0.13
3 1 3 1 o 0.705 0.852 180.00 1.25797 0.01
4 0 -3 1 o 42.885 46.027 180.00 1.25733 0.12
2 2 3 2 o 279.337 286.621 0.00 1.25991 0.66
5 1 2 2 o 26.357 25.317 180.00 1.25893 0.05
6 1 1 1 o 281.045 265.056 0.00 1.25529 1.48
3 1 3 2 o 0.963 0.852 180.00 1.25797 0.00
4 0 -3 2 o 48.408 46.027 180.00 1.25733 0.05
6 1 1 2 o 269.082 265.056 0.00 1.25529 0.54
3 4 1 1 o 7.408 7.202 0.00 1.25154 0.05
0 4 2 1 o 9.115 8.855 0.00 1.25071 0.05
3 4 1 2 o 6.290 7.202 0.00 1.25154 0.02
5 2 -2 1 o 56.177 73.801 180.00 1.24796 0.33
0 4 2 2 o 6.124 8.855 0.00 1.25071 0.01
5 2 -2 2 o 39.230 73.801 180.00 1.24796 0.09
1 4 -2 1 o 37.496 36.404 180.00 1.24327 0.23
6 2 0 1 o 55.576 45.050 180.00 1.24251 0.33
1 4 -2 2 o 44.620 36.404 180.00 1.24327 0.10
3 2 -3 1 o 0.912 0.788 180.00 1.24007 0.00
6 2 0 2 o 51.342 45.050 180.00 1.24251 0.12
5 3 -1 1 o 37.789 35.712 180.00 1.23716 0.23
3 2 -3 2 o 0.825 0.788 180.00 1.24007 0.00
4 3 -2 1 o 279.440 259.045 0.00 1.23636 1.58
5 3 -1 2 o 38.476 35.712 180.00 1.23716 0.09
4 3 -2 2 o 276.020 259.045 0.00 1.23636 0.59
4 1 -3 1 o 8.238 8.922 180.00 1.23058 0.04
1 4 2 1 o 72.214 71.306 0.00 1.22961 0.44
4 1 -3 2 o 9.211 8.922 180.00 1.23058 0.02
1 4 2 2 o 78.927 71.306 0.00 1.22961 0.18
6 2 -1 1 o 268.452 268.149 0.00 1.21746 1.43
6 2 -1 2 o 312.518 268.149 0.00 1.21746 0.62
4 4 0 2 o 87.070 90.348 180.00 1.20974 0.19
6 0 -2 1 o 13.681 13.696 0.00 1.20596 0.03
0 3 3 1 o 82.556 82.305 180.00 1.20588 0.49
2 4 -2 2 o 153.385 152.241 180.00 1.20874 0.33
4 4 0 1 o 91.216 90.348 180.00 1.20974 0.53
2 4 -2 1 o 160.585 152.241 180.00 1.20874 0.90
5 3 1 1 o 69.014 68.521 180.00 1.20430 0.41
6 0 -2 2 o 14.883 13.696 0.00 1.20596 0.01
0 3 3 2 o 90.153 82.305 180.00 1.20588 0.20
1 3 -3 1 o 5.459 4.645 180.00 1.20233 0.03
5 3 1 2 o 95.814 68.521 180.00 1.20430 0.21
1 3 -3 2 o 8.952 4.645 180.00 1.20233 0.02
1 5 0 1 o 26.943 17.945 0.00 1.18680 0.14
4 3 2 1 o 95.135 86.857 180.00 1.18510 0.53
2 4 2 1 o 40.418 37.645 0.00 1.18400 0.24
1 3 3 1 o 115.071 107.402 180.00 1.18392 0.66
1 5 0 2 o 19.364 17.945 0.00 1.18680 0.04
5 2 2 1 o 124.888 117.694 0.00 1.18315 0.65
3 2 3 1 o 59.461 58.984 0.00 1.18235 0.33
6 1 -2 1 o 75.319 75.008 0.00 1.18230 0.36
4 3 2 2 o 86.557 86.857 180.00 1.18510 0.18
2 4 2 2 o 36.717 37.645 0.00 1.18400 0.08
1 3 3 2 o 105.134 107.402 180.00 1.18392 0.23
4 4 -1 1 o 0.671 0.675 180.00 1.18060 0.00
5 2 2 2 o 117.639 117.694 0.00 1.18315 0.23
6 2 1 1 o 24.675 24.710 0.00 1.18013 0.13
3 2 3 2 o 56.453 58.984 0.00 1.18235 0.12
6 1 -2 2 o 71.330 75.008 0.00 1.18230 0.13
4 0 3 1 o 42.028 45.798 0.00 1.17910 0.10
4 4 -1 2 o 0.471 0.675 180.00 1.18060 0.00
6 2 1 2 o 15.109 24.710 0.00 1.18013 0.03
4 0 3 2 o 29.431 45.798 0.00 1.17910 0.03
2 3 -3 1 o 113.115 139.061 180.00 1.17394 0.61
2 3 -3 2 o 125.833 139.061 180.00 1.17394 0.25
7 0 0 1 o 237.141 254.052 0.00 1.17019 0.54
7 0 0 2 o 309.865 254.052 0.00 1.17019 0.26
0 5 1 1 o 15.338 14.355 0.00 1.15960 0.08
4 2 -3 1 o 40.019 37.886 0.00 1.15953 0.20
4 4 1 1 o 166.051 157.250 0.00 1.15751 0.90
4 1 3 1 o 142.154 130.096 180.00 1.15695 0.70
0 5 1 2 o 15.872 14.355 0.00 1.15960 0.03
4 2 -3 2 o 41.861 37.886 0.00 1.15953 0.08
4 4 1 2 o 164.207 157.250 0.00 1.15751 0.34
4 1 3 2 o 139.210 130.096 180.00 1.15695 0.26
3 4 -2 1 o 4.525 4.240 0.00 1.15337 0.02
7 0 -1 1 o 1.204 1.074 180.00 1.15195 0.00
2 5 0 1 o 111.447 93.107 0.00 1.15111 0.54
1 5 -1 1 o 265.281 219.580 180.00 1.15089 1.25
3 4 -2 2 o 5.027 4.240 0.00 1.15337 0.01
5 0 -3 1 o 132.467 110.018 180.00 1.15022 0.27
7 0 -1 2 o 1.212 1.074 180.00 1.15195 0.00
7 1 0 1 o 107.078 99.514 0.00 1.14853 0.48
2 5 0 2 o 99.953 93.107 0.00 1.15111 0.19
1 5 -1 2 o 234.523 219.580 180.00 1.15089 0.42
5 0 -3 2 o 115.743 110.018 180.00 1.15022 0.09
7 1 0 2 o 120.206 99.514 0.00 1.14853 0.20
1 5 1 1 o 48.604 39.291 180.00 1.14542 0.23
1 5 1 2 o 43.635 39.291 180.00 1.14542 0.08
2 3 3 1 o 4.121 2.865 180.00 1.14036 0.02
2 3 3 2 o 4.770 2.865 180.00 1.14036 0.01
6 0 2 1 o 1.753 1.120 180.00 1.13642 0.00
0 0 4 1 o 137.528 144.412 180.00 1.13394 0.34
6 0 2 2 o 0.973 1.120 180.00 1.13642 0.00
1 0 -4 1 o 121.570 137.150 180.00 1.13361 0.29
5 3 -2 1 o 0.578 0.800 0.00 1.13147 0.00
7 1 -1 1 o 11.592 16.904 180.00 1.13127 0.06
0 0 4 2 o 107.570 144.412 180.00 1.13394 0.10
1 0 -4 2 o 110.319 137.150 180.00 1.13361 0.10
5 1 -3 1 o 80.647 84.261 180.00 1.12964 0.34
5 3 -2 2 o 0.711 0.800 0.00 1.13147 0.00
7 1 -1 2 o 13.766 16.904 180.00 1.13127 0.03
6 3 0 1 o 0.118 0.275 0.00 1.12741 0.00
5 1 -3 2 o 62.488 84.261 180.00 1.12964 0.10
3 3 -3 1 o 169.030 196.448 180.00 1.12559 0.82
6 3 0 2 o 0.225 0.275 0.00 1.12741 0.00
3 3 -3 2 o 261.099 196.448 180.00 1.12559 0.47
3 4 2 1 o 11.148 6.151 180.00 1.12148 0.05
2 5 -1 1 o 29.254 13.271 180.00 1.12079 0.14
6 2 -2 1 o 16.429 7.851 180.00 1.11887 0.07
3 4 2 2 o 11.502 6.151 180.00 1.12148 0.02
2 5 -1 2 o 23.204 13.271 180.00 1.12079 0.04
6 1 2 1 o 102.320 86.415 180.00 1.11656 0.45
6 2 -2 2 o 8.598 7.851 180.00 1.11887 0.02
7 0 1 1 o 28.241 27.375 180.00 1.11513 0.07
0 1 4 1 o 2.604 2.508 0.00 1.11420 0.01
1 1 -4 1 o 29.124 28.226 180.00 1.11389 0.14
6 1 2 2 o 88.677 86.415 180.00 1.11656 0.15
1 0 4 1 o 2.011 2.080 180.00 1.11312 0.01
7 0 1 2 o 26.879 27.375 180.00 1.11513 0.02
2 0 -4 1 o 0.634 0.630 0.00 1.11220 0.00
0 1 4 2 o 2.780 2.508 0.00 1.11420 0.00
1 1 -4 2 o 33.156 28.226 180.00 1.11389 0.06
2 5 1 1 o 157.931 133.231 180.00 1.11075 0.75
1 0 4 2 o 2.437 2.080 180.00 1.11312 0.00
2 0 -4 2 o 0.573 0.630 0.00 1.11220 0.00
6 3 -1 1 o 1.785 2.378 0.00 1.10860 0.01
2 5 1 2 o 86.103 133.231 180.00 1.11075 0.16
5 4 0 1 o 0.180 0.303 0.00 1.10605 0.00
6 3 -1 2 o 1.805 2.378 0.00 1.10860 0.00
5 4 0 2 o -0.008 0.303 0.00 1.10605 0.00
3 5 0 1 o 0.245 0.158 0.00 1.09817 0.00
4 2 3 1 o 50.894 43.918 180.00 1.09732 0.23
7 1 1 1 o 3.261 2.633 0.00 1.09634 0.01
3 5 0 2 o 0.233 0.158 0.00 1.09817 0.00
1 1 4 2 o 86.721 96.140 180.00 1.09443 0.16
4 2 3 2 o 53.788 43.918 180.00 1.09732 0.09
1 1 4 1 o 114.439 96.140 180.00 1.09443 0.55
2 1 -4 2 o 60.430 61.992 180.00 1.09355 0.10
7 1 1 2 o 2.570 2.633 0.00 1.09634 0.00
2 1 -4 1 o 59.191 61.992 180.00 1.09355 0.27
7 2 0 1 o 193.513 186.024 180.00 1.09013 0.87
