#------------------------------------------------------------------------------
#$Date: 2016-02-18 17:37:37 +0200 (Thu, 18 Feb 2016) $
#$Revision: 176729 $
#$URL: svn://www.crystallography.net/cod/cif/1/50/16/1501695.cif $
#------------------------------------------------------------------------------
#
# This file is available in the Crystallography Open Database (COD),
# http://www.crystallography.net/
#
# All data on this site have been placed in the public domain by the
# contributors.
#
data_1501695
loop_
_publ_author_name
'Migliorati, Valentina'
'Ballirano, Paolo'
'Gontrani, Lorenzo'
'Triolo, Alessandro'
'Caminiti, Ruggero'
_publ_section_title
;
 Thermal and structural properties of ethylammonium chloride and its
 mixture with water.
;
_journal_issue                   17
_journal_name_full               'The journal of physical chemistry. B'
_journal_page_first              4887
_journal_page_last               4899
_journal_paper_doi               10.1021/jp2010138
_journal_volume                  115
_journal_year                    2011
_chemical_formula_sum            'C2 H8 Cl N'
_chemical_formula_weight         81.55
_chemical_name_systematic        ' ?'
_space_group_IT_number           11
_symmetry_cell_setting           monoclinic
_symmetry_space_group_name_Hall  '-P 2yb'
_symmetry_space_group_name_H-M   'P 1 21/m 1'
_audit_creation_date             2010-05-18T16:56
_audit_creation_method           'from EXP file using GSAS2CIF'
_audit_update_record
' 2010-05-18T16:56  Initial CIF as created by GSAS2CIF'
_cell_angle_alpha                90.0
_cell_angle_beta                 94.2836(14)
_cell_angle_gamma                90.0
_cell_formula_units_Z            2
_cell_length_a                   8.26972(14)
_cell_length_b                   6.00243(8)
_cell_length_c                   4.56867(7)
_cell_volume                     226.148(6)
_computing_structure_refinement  GSAS
_diffrn_radiation_probe          x-ray
_exptl_absorpt_correction_T_max  0.77480
_exptl_absorpt_correction_T_min  0.76997
_exptl_absorpt_process_details
;   GSAS Absorption/surface roughness correction: function number 0
 Debye-Scherrer absorption correction
Term (= MU.r/wave) =     0.10041    
Correction is not refined.
;
_pd_block_id
2010-05-18T16:56|80_OPT|paolo|Bruker_AXS_D8_Advance
_pd_calc_method                  'Rietveld Refinement'
_pd_instr_location               ' ?'
_pd_meas_2theta_range_inc        0.022
_pd_meas_2theta_range_max        89.994
_pd_meas_2theta_range_min        8.0
_pd_meas_number_of_points        3728
_pd_phase_name                   ethyl
_pd_proc_2theta_range_inc        0.022
_pd_proc_2theta_range_max        89.994
_pd_proc_2theta_range_min        8.0
_pd_proc_info_datetime           2010-05-18T16:56:28
_pd_proc_info_excluded_regions   ' ?'
_pd_proc_ls_background_function
;   GSAS Background function number 1 with 30 terms.
 Shifted Chebyshev function of 1st kind
      1:    478.261     2:   -409.632     3:    215.374     4:   -93.7725    
      5:    66.0093     6:   -68.7942     7:    86.1940     8:   -62.8332    
      9:    19.8610    10:    10.5190    11:   -10.8876    12:   -1.08525    
     13:    15.6020    14:   -21.0591    15:    16.1657    16:   -5.85712    
     17:    3.70104    18:   -5.82626    19:    9.93366    20:   -10.5004    
     21:    10.8550    22:   -6.80277    23:    5.63300    24:   -2.19545    
     25:  -0.595707    26:    1.67789    27:  -0.336196    28:   -1.71171    
     29:   -2.44153    30:    2.04292    
;
_pd_proc_ls_peak_cutoff          0.00100
_pd_proc_ls_profile_function
;
 CW Profile function number 3 with  19 terms
 Pseudovoigt profile coefficients as parameterized in
 P. Thompson, D.E. Cox & J.B. Hastings (1987). J. Appl. Cryst.,20,79-83.
 Asymmetry correction of L.W. Finger, D.E. Cox & A. P. Jephcoat (1994).
 J. Appl. Cryst.,27,892-900.
 Peak tails are ignored  where the intensity is below 0.0010 times the peak
   Aniso. broadening axis   0.0   1.0   0.0
;
_pd_proc_ls_prof_R_factor        0.0462
_pd_proc_ls_prof_wR_expected     0.0429
_pd_proc_ls_prof_wR_factor       0.0605
_pd_proc_number_of_points        3728
_pd_spec_mounting                ' ?'
_refine_ls_goodness_of_fit_all   1.42
_refine_ls_matrix_type           full
_refine_ls_number_parameters     63
_refine_ls_number_restraints     27
_refine_ls_R_Fsqd_factor         0.06919
_refine_ls_shift/su_max          0.08
_refine_ls_shift/su_mean         0.00
_reflns_d_resolution_high        1.091
_reflns_d_resolution_low         8.247
_reflns_limit_h_max              7
_reflns_limit_h_min              0
_reflns_limit_k_max              5
_reflns_limit_k_min              0
_reflns_limit_l_max              4
_reflns_limit_l_min              -4
_reflns_number_total             410
_cod_data_source_file            jp2010138_si_011.cif
_cod_data_source_block           80_OPT_publ
_cod_depositor_comments
;
The following automatic conversions were performed:

'_geom_bond_publ_flag' value 'N' changed to 'n' according to
/home/saulius/struct/CIF-dictionaries/cif_core.dic dictionary named
'cif_core.dic' version 2.4.1 from 2010-06-29 (47
times).

'_geom_angle_publ_flag' value 'N' changed to 'n' according
to /home/saulius/struct/CIF-dictionaries/cif_core.dic dictionary
named 'cif_core.dic' version 2.4.1 from 2010-06-29 (23 times).

Automatic conversion script
Id: cif_fix_values 1715 2011-07-08 13:25:40Z adriana 
;
_cod_original_sg_symbol_H-M      'p 21/m'
_cod_database_code               1501695
#BEGIN Tags that were not found in dictionaries:
_gsas_exptl_extinct_corr_t_min   1.00000
_gsas_exptl_extinct_corr_t_max   1.00000
#END Tags that were not found in dictionaries
loop_
_symmetry_equiv_pos_site_id
_symmetry_equiv_pos_as_xyz
1 +x,+y,+z
2 -x,+y+1/2,-z
-1 -x,-y,-z
-2 +x,-y+1/2,+z
loop_
_atom_site_type_symbol
_atom_site_label
_atom_site_fract_x
_atom_site_fract_y
_atom_site_fract_z
_atom_site_occupancy
_atom_site_thermal_displace_type
_atom_site_U_iso_or_equiv
_atom_site_symmetry_multiplicity
Cl Cl 0.15359(20) 0.75 0.3862(4) 1.0 Uiso 0.0351(4) 2
N N 0.12476(33) 0.25 0.1440(6) 1.0 Uiso 0.0428(12) 2
C C1 0.26506(31) 0.25 -0.0328(6) 1.0 Uiso 0.0428(12) 2
C C2 0.4207(4) 0.25 0.1721(7) 1.0 Uiso 0.0428(12) 2
H H1 0.0241(5) 0.25 0.0165(13) 1.0 Uiso 0.0642(19) 2
H H2 0.5146(5) 0.25 0.0535(12) 1.0 Uiso 0.0642(19) 2
H H3 0.1275(9) 0.1168(5) 0.2688(9) 1.0 Uiso 0.0642(19) 4
H H4 0.2645(8) 0.1161(5) -0.1555(9) 1.0 Uiso 0.0642(19) 4
H H5 0.4223(9) 0.1157(5) 0.2946(9) 1.0 Uiso 0.0642(19) 4
loop_
_atom_type_symbol
_atom_type_number_in_cell
_atom_type_scat_dispersion_real
_atom_type_scat_dispersion_imag
_atom_type_scat_Cromer_Mann_a1
_atom_type_scat_Cromer_Mann_a2
_atom_type_scat_Cromer_Mann_a3
_atom_type_scat_Cromer_Mann_a4
_atom_type_scat_Cromer_Mann_b1
_atom_type_scat_Cromer_Mann_b2
_atom_type_scat_Cromer_Mann_b3
_atom_type_scat_Cromer_Mann_b4
_atom_type_scat_Cromer_Mann_c
_atom_type_scat_source
Cl 2.0 0.000 0.000 11.4604 0.01040 7.19640 1.16620 6.25560 18.5194 1.64550
47.7784 -9.5574 International_Tables_Vol_C
N 2.0 0.000 0.000 12.2126 0.00570 3.13220 9.89330 2.01250 28.9975 1.16630
0.58260 -11.529 International_Tables_Vol_C
C 4.0 0.000 0.000 2.31000 20.8439 1.02000 10.2075 1.58860 0.56870 0.86500
51.6512 0.21560 International_Tables_Vol_C
H 16.0 0.000 0.000 0.49300 10.5109 0.32291 26.1257 0.14019 3.14236 0.04081
57.7997 0.00304 International_Tables_Vol_C
loop_
_diffrn_radiation_wavelength
_diffrn_radiation_wavelength_wt
_diffrn_radiation_type
_diffrn_radiation_wavelength_id
1.540598 1.000 K\a~1~ 1
1.544390 0.380 K\a~2~ 2
loop_
_geom_angle_atom_site_label_1
_geom_angle_atom_site_label_2
_geom_angle_atom_site_label_3
_geom_angle
_geom_angle_site_symmetry_1
_geom_angle_site_symmetry_3
_geom_angle_publ_flag
H1 Cl H3 76.35(14) 2_555 1_565 n
H1 Cl H3 76.35(14) 2_555 -2_565 n
H3 Cl H3 151.32(24) 1_565 -2_565 n
C1 N H1 110.2(4) 1_555 1_555 n
C1 N H3 109.7(4) 1_555 1_555 n
C1 N H3 109.7(4) 1_555 -2_565 n
H1 N H3 109.1(5) 1_555 1_555 n
H1 N H3 109.1(5) 1_555 -2_565 n
H3 N H3 109.1(5) 1_555 -2_565 n
N C1 C2 109.09(24) 1_555 1_555 n
N C1 H4 110.2(4) 1_555 1_555 n
N C1 H4 110.2(4) 1_555 -2_565 n
C2 C1 H4 108.5(4) 1_555 1_555 n
C2 C1 H4 108.5(4) 1_555 -2_565 n
H4 C1 H4 110.2(5) 1_555 -2_565 n
C1 C2 H2 109.0(4) 1_555 1_555 n
C1 C2 H5 108.9(4) 1_555 1_555 n
C1 C2 H5 108.9(4) 1_555 -2_565 n
H2 C2 H5 109.8(5) 1_555 1_555 n
H2 C2 H5 109.8(5) 1_555 -2_565 n
H5 C2 H5 110.5(5) 1_555 -2_565 n
Cl H1 N 162.3(5) 2_545 1_555 n
Cl H3 N 157.5(4) 1_545 1_555 n
loop_
_geom_bond_atom_site_label_1
_geom_bond_atom_site_label_2
_geom_bond_distance
_geom_bond_site_symmetry_2
_geom_bond_publ_flag
Cl H1 2.267(6) 2_555 n
Cl H3 2.2728(30) 1_565 n
Cl H3 2.2728(30) -2_555 n
N C1 1.462(4) 1_555 n
N H1 0.980(5) 1_555 n
N H3 0.981(4) 1_555 n
N H3 0.981(4) -2_555 n
N H4 2.022(6) 1_555 n
N H4 2.022(6) -2_555 n
C1 N 1.462(4) 1_555 n
C1 C2 1.534(4) 1_555 n
C1 H1 2.022(5) 1_555 n
C1 H2 2.072(5) 1_555 n
C1 H3 2.017(6) 1_555 n
C1 H3 2.017(6) -2_555 n
C1 H4 0.980(4) 1_555 n
C1 H4 0.980(4) -2_555 n
C1 H5 2.070(6) 1_555 n
C1 H5 2.070(6) -2_555 n
C2 C1 1.534(4) 1_555 n
C2 H2 0.980(6) 1_555 n
C2 H4 2.065(6) 1_555 n
C2 H4 2.065(6) -2_555 n
C2 H5 0.981(4) 1_555 n
C2 H5 0.981(4) -2_555 n
H1 Cl 2.267(6) 2_545 n
H1 N 0.980(5) 1_555 n
H1 C1 2.022(5) 1_555 n
H1 H3 1.597(7) 1_555 n
H1 H3 1.597(7) -2_555 n
H2 C1 2.072(5) 1_555 n
H2 C2 0.980(6) 1_555 n
H2 H5 1.604(7) 1_555 n
H2 H5 1.604(7) -2_555 n
H3 Cl 2.2728(30) 1_545 n
H3 N 0.981(4) 1_555 n
H3 C1 2.017(6) 1_555 n
H3 H1 1.597(7) 1_555 n
H3 H3 1.599(6) -2_555 n
H4 N 2.022(6) 1_555 n
H4 C1 0.980(4) 1_555 n
H4 C2 2.065(6) 1_555 n
H4 H4 1.607(6) -2_555 n
H5 C1 2.070(6) 1_555 n
H5 C2 0.981(4) 1_555 n
H5 H2 1.604(7) 1_555 n
H5 H5 1.612(6) -2_555 n
loop_
_pd_meas_counts_total
_pd_proc_ls_weight
_pd_proc_intensity_bkg_calc
_pd_calc_intensity_total
1612.0 0.000620 1589.15869 1589.16052
1498.0 0.000668 1569.26807 1569.26917
1583.0 0.000632 1550.04932 1550.05066
1523.0 0.000657 1531.49365 1531.49451
1589.0 0.000629 1513.58398 1513.58508
1406.0 0.000711 1496.30798 1496.30896
1512.0 0.000661 1479.65198 1479.65259
1472.0 0.000679 1463.60168 1463.60181
1447.0 0.000691 1448.14404 1448.14404
1446.0 0.000692 1433.26379 1433.26367
1417.0 0.000706 1418.94531 1418.94507
1394.0 0.000717 1405.17627 1405.17603
1397.0 0.000716 1391.94153 1391.94141
1412.0 0.000708 1379.22668 1379.22705
1420.0 0.000704 1367.01709 1367.01709
1287.0 0.000777 1355.29871 1355.29883
1291.0 0.000775 1344.05762 1344.05762
1254.0 0.000797 1333.27747 1333.27698
1365.0 0.000733 1322.94580 1322.94592
1246.0 0.000803 1313.04944 1313.04895
1287.0 0.000777 1303.57251 1303.57190
1327.0 0.000754 1294.50171 1294.50073
1312.0 0.000762 1285.82336 1285.82275
1255.0 0.000797 1277.52441 1277.52393
1262.0 0.000792 1269.59119 1269.59058
1215.0 0.000823 1262.01001 1262.00916
1317.0 0.000759 1254.76843 1254.76782
1227.0 0.000815 1247.85352 1247.85254
1284.0 0.000779 1241.25232 1241.25171
1309.0 0.000764 1234.95337 1234.95288
1234.0 0.000810 1228.94397 1228.94360
1237.0 0.000808 1223.21179 1223.21094
1242.0 0.000805 1217.74500 1217.74451
1237.0 0.000808 1212.53320 1212.53259
1215.0 0.000823 1207.56421 1207.56348
1278.0 0.000782 1202.82690 1202.82629
1248.0 0.000801 1198.31128 1198.31079
1228.0 0.000814 1194.00610 1194.00537
1235.0 0.000810 1189.90161 1189.90100
1205.0 0.000830 1185.98767 1185.98730
1197.0 0.000835 1182.25354 1182.25342
1222.0 0.000818 1178.69141 1178.69080
1189.0 0.000841 1175.29065 1175.29028
1171.0 0.000854 1172.04297 1172.04260
1167.0 0.000857 1168.93945 1168.93933
1176.0 0.000850 1165.97131 1165.97046
1156.0 0.000865 1163.13013 1163.13000
1157.0 0.000864 1160.40869 1160.40808
1168.0 0.000856 1157.79895 1157.79822
1160.0 0.000862 1155.29285 1155.29236
1188.0 0.000842 1152.88318 1152.88232
1109.0 0.000902 1150.56360 1150.56323
1105.0 0.000905 1148.32654 1148.32605
1151.0 0.000869 1146.16577 1146.16528
1092.0 0.000916 1144.07520 1144.07458
1144.0 0.000874 1142.04785 1142.04785
1127.0 0.000887 1140.07922 1140.07861
1164.0 0.000859 1138.16309 1138.16235
1119.0 0.000894 1136.29297 1136.29297
1065.0 0.000939 1134.46545 1134.46545
1115.0 0.000897 1132.67444 1132.67419
1088.0 0.000919 1130.91577 1130.91516
1086.0 0.000921 1129.18347 1129.18311
1085.0 0.000922 1127.47522 1127.47473
1100.0 0.000909 1125.78540 1125.78455
1082.0 0.000924 1124.11023 1124.10950
1078.0 0.000928 1122.44653 1122.44592
1075.0 0.000930 1120.78967 1120.78894
1106.0 0.000904 1119.13770 1119.13696
1096.0 0.000912 1117.48633 1117.48547
1084.0 0.000923 1115.83240 1115.83191
1079.0 0.000927 1114.17407 1114.17334
1033.0 0.000968 1112.50696 1112.50635
1103.0 0.000907 1110.83044 1110.82959
1099.0 0.000910 1109.14050 1109.14038
1112.0 0.000899 1107.43579 1107.43530
1143.0 0.000875 1105.71387 1105.71338
1108.0 0.000903 1103.97302 1103.97241
1080.0 0.000926 1102.21130 1102.21057
1084.0 0.000923 1100.42712 1100.42651
1102.0 0.000907 1098.61792 1098.61755
1077.0 0.000929 1096.78442 1096.78369
1115.0 0.000897 1094.92371 1094.92285
1141.0 0.000876 1093.03528 1093.03418
1103.0 0.000907 1091.11768 1091.11682
1091.0 0.000917 1089.16980 1089.16943
1089.0 0.000918 1087.19165 1087.19080
1077.0 0.000929 1085.18225 1085.18127
1081.0 0.000925 1083.14026 1083.13989
1052.0 0.000951 1081.06580 1081.06531
1086.0 0.000921 1078.95862 1078.95825
1057.0 0.000946 1076.81763 1076.81653
1055.0 0.000948 1074.64307 1077.20581
1096.0 0.000912 1072.43494 1076.13062
1006.0 0.000994 1070.19324 1074.14539
1015.0 0.000985 1067.91687 1072.15405
1123.0 0.000890 1065.60742 1070.16162
1059.0 0.000944 1063.26392 1068.17285
1016.0 0.000984 1060.88721 1066.19336
1103.0 0.000907 1058.47729 1064.23206
1081.0 0.000925 1056.03406 1062.29773
1087.0 0.000920 1053.55884 1060.40283
1087.0 0.000920 1051.05115 1058.56177
1053.0 0.000950 1048.51233 1056.79333
1072.0 0.000933 1045.94226 1055.12146
1131.0 0.000884 1043.34216 1053.57678
1111.0 0.000900 1040.71155 1052.20166
1149.0 0.000870 1038.05237 1051.05298
1133.0 0.000883 1035.36401 1050.21851
1178.0 0.000849 1032.64856 1049.88196
1142.0 0.000876 1029.90613 1050.57385
1193.0 0.000838 1027.13782 1053.94434
1214.0 0.000824 1024.34326 1064.34631
1216.0 0.000822 1021.52484 1090.66821
1270.0 0.000787 1018.68292 1146.40735
1248.0 0.000801 1015.81824 1246.27039
1426.0 0.000701 1012.93176 1401.34619
1607.0 0.000622 1010.02460 1618.63721
1869.0 0.000535 1007.09766 1907.56104
2264.0 0.000442 1004.15125 2291.75635
2854.0 0.0003504 1001.18768 2823.54468
3584.0 0.0002790 998.20673 3586.56738
4562.0 0.0002192 995.21008 4638.95410
5323.0 0.0001879 992.19794 5855.91406
6187.0 0.0001616 989.17285 6791.22266
6955.0 0.0001438 986.13416 6845.48584
6595.0 0.0001516 983.08411 5807.80273
4926.0 0.0002030 980.02246 4172.16895
2833.0 0.000353 976.95166 2677.04614
1705.0 0.000587 973.87177 1719.18433
1193.0 0.000838 970.78418 1259.65796
1069.0 0.000935 967.68964 1085.62732
995.0 0.001005 964.58954 1027.48083
973.0 0.001028 961.48425 1005.29608
936.0 0.001068 958.37531 992.87811
979.0 0.001021 955.26337 983.61694
992.0 0.001008 952.15002 975.92761
940.0 0.001064 949.03577 969.26929
929.0 0.001076 945.92102 963.34955
921.0 0.001086 942.80737 957.97778
883.0 0.001133 939.69592 953.02112
918.0 0.001089 936.58740 948.38531
887.0 0.001127 933.48206 944.00165
895.0 0.001117 930.38147 939.82050
901.0 0.001110 927.28662 935.80359
949.0 0.001054 924.19800 931.92200
922.0 0.001085 921.11639 928.15356
924.0 0.001082 918.04272 924.48108
932.0 0.001073 914.97803 920.89081
892.0 0.001121 911.92261 913.52802
895.0 0.001117 908.87787 908.87732
911.0 0.001098 905.84412 905.84338
917.0 0.001091 902.82190 902.82153
874.0 0.001144 899.81226 899.81171
851.0 0.001175 896.81580 896.81555
867.0 0.001153 893.83392 893.83307
912.0 0.001096 890.86603 890.86542
917.0 0.001091 887.91302 887.91229
889.0 0.001125 884.97595 884.97522
835.0 0.001198 882.05548 882.05463
892.0 0.001121 879.15155 879.15094
886.0 0.001129 876.26532 876.26477
878.0 0.001139 873.39716 873.39642
851.0 0.001175 870.54712 870.54645
863.0 0.001159 867.71637 867.71594
858.0 0.001166 864.90527 864.90479
816.0 0.001225 862.11407 862.11359
891.0 0.001122 859.34326 859.34265
846.0 0.001182 856.59265 856.59229
771.0 0.001297 853.86383 853.86340
850.0 0.001176 851.15662 851.15601
863.0 0.001159 848.47107 848.47058
864.0 0.001157 845.80743 845.80701
827.0 0.001209 843.16650 843.16589
824.0 0.001214 840.54865 840.54797
806.0 0.001241 837.95331 837.95294
856.0 0.001168 835.38208 835.38147
808.0 0.001238 832.83386 832.83331
812.0 0.001232 830.30963 830.30896
827.0 0.001209 827.80951 827.80890
841.0 0.001189 825.33331 825.33325
819.0 0.001221 822.88184 822.88129
820.0 0.001220 820.45465 820.45404
812.0 0.001232 818.05176 818.05151
816.0 0.001225 815.67432 815.67383
835.0 0.001198 813.32117 813.32092
817.0 0.001224 810.99335 810.99292
834.0 0.001199 808.69006 808.68939
814.0 0.001229 806.41217 806.41150
820.0 0.001220 804.15900 804.15863
833.0 0.001200 801.93134 801.93103
758.0 0.001319 799.72852 799.72809
763.0 0.001311 797.55090 797.55060
812.0 0.001232 795.39813 795.39789
736.0 0.001359 793.27063 793.27045
867.0 0.001153 791.16821 791.16785
742.0 0.001348 789.09070 789.09021
738.0 0.001355 787.03778 787.03729
791.0 0.001264 785.00977 785.00940
788.0 0.001269 783.00641 783.00610
806.0 0.001241 781.02759 781.02734
729.0 0.001372 779.07355 779.07318
797.0 0.001255 777.14319 777.14294
832.0 0.001202 775.23755 775.23718
788.0 0.001269 773.35583 773.35541
702.0 0.001425 771.49786 771.49750
774.0 0.001292 769.66351 769.66302
767.0 0.001304 767.85266 767.85254
783.0 0.001277 766.06506 766.06482
769.0 0.001300 764.30096 764.30066
755.0 0.001325 762.55951 762.55896
806.0 0.001241 760.84088 760.84045
738.0 0.001355 759.14447 759.14410
783.0 0.001277 757.47040 757.47009
745.0 0.001342 755.81873 755.81812
769.0 0.001300 754.18854 754.18805
736.0 0.001359 752.57990 752.57953
737.0 0.001357 750.99249 750.99231
713.0 0.001403 749.42633 749.42590
741.0 0.001350 747.88074 747.88043
777.0 0.001287 746.35596 746.35553
742.0 0.001348 744.85114 744.85101
789.0 0.001267 743.36664 743.36591
733.0 0.001364 741.90143 741.90088
785.0 0.001274 740.45575 740.45544
754.0 0.001326 739.02924 739.02881
714.0 0.001401 737.62152 737.62115
760.0 0.001316 736.23224 736.23206
754.0 0.001326 734.86157 734.86102
720.0 0.001389 733.50861 733.50818
772.0 0.001295 732.17346 732.17291
736.0 0.001359 730.85571 730.85510
764.0 0.001309 729.55469 729.55432
793.0 0.001261 728.27051 728.27020
743.0 0.001346 727.00275 727.00244
711.0 0.001406 725.75165 725.75116
744.0 0.001344 724.51617 724.51569
712.0 0.001404 723.29602 723.29565
715.0 0.001399 722.09113 722.09070
695.0 0.001439 720.90137 720.90100
752.0 0.001330 719.72632 719.72565
706.0 0.001416 718.56543 718.56494
729.0 0.001372 717.41864 717.41803
666.0 0.001502 716.28558 716.28510
721.0 0.001387 715.16608 715.16541
737.0 0.001357 714.05951 714.05914
678.0 0.001475 712.96594 712.96545
773.0 0.001294 711.88495 711.88434
753.0 0.001328 710.81586 710.81561
694.0 0.001441 709.75934 709.75879
730.0 0.001370 708.71405 708.71375
730.0 0.001370 707.68036 707.67981
730.0 0.001370 706.65796 706.65747
705.0 0.001418 705.64618 705.64569
703.0 0.001422 704.64478 704.64459
709.0 0.001410 703.65411 703.65350
759.0 0.001318 702.67322 702.67279
701.0 0.001427 701.70221 701.70148
720.0 0.001389 700.74030 700.73993
690.0 0.001449 699.78784 699.78723
744.0 0.001344 698.84467 698.84418
666.0 0.001502 697.90985 697.90936
658.0 0.001520 696.98334 696.98279
682.0 0.001466 696.06531 696.06458
692.0 0.001445 695.15533 695.15448
696.0 0.001437 694.25299 694.25256
693.0 0.001443 693.35785 693.35736
686.0 0.001458 692.47028 692.46942
717.0 0.001395 691.58954 691.58899
720.0 0.001389 690.71576 690.71527
704.0 0.001420 689.84851 689.84784
671.0 0.001490 688.98785 688.98718
677.0 0.001477 688.13300 688.13245
657.0 0.001522 687.28430 687.28369
658.0 0.001520 686.44104 686.44043
698.0 0.001433 685.60382 685.60327
692.0 0.001445 684.77167 684.77106
651.0 0.001536 683.94489 683.94415
636.0 0.001572 683.12274 683.12219
674.0 0.001484 682.30566 682.30530
707.0 0.001414 681.49341 681.49261
671.0 0.001490 680.68524 680.68488
652.0 0.001534 679.88177 679.88110
697.0 0.001435 679.08240 679.08179
696.0 0.001437 678.28662 678.28613
678.0 0.001475 677.49481 677.49426
709.0 0.001410 676.70715 676.70636
690.0 0.001449 675.92236 675.92175
676.0 0.001479 675.14130 675.14063
663.0 0.001508 674.36334 674.36285
643.0 0.001555 673.58881 673.58801
693.0 0.001443 672.81714 672.81647
709.0 0.001410 672.04852 672.04767
676.0 0.001479 671.28235 671.28180
694.0 0.001441 670.51935 670.51849
642.0 0.001558 669.75836 669.75763
648.0 0.001543 669.00043 668.99939
668.0 0.001497 668.24426 668.24341
683.0 0.001464 667.49072 667.48993
612.0 0.001634 666.73907 666.73834
686.0 0.001458 665.98987 665.98920
697.0 0.001435 665.24255 665.24188
666.0 0.001502 664.49750 664.49646
646.0 0.001548 663.75360 663.75293
678.0 0.001475 663.01202 663.01129
696.0 0.001437 662.27203 662.27124
675.0 0.001481 661.53363 661.53314
651.0 0.001536 660.79730 660.79645
653.0 0.001531 660.06207 660.06128
644.0 0.001553 659.32837 659.32776
645.0 0.001550 658.59650 658.59564
640.0 0.001563 657.86597 657.86523
658.0 0.001520 657.13660 657.13562
685.0 0.001460 656.40881 656.40796
651.0 0.001536 655.68207 655.68152
661.0 0.001513 654.95703 654.95636
651.0 0.001536 654.23328 654.23254
686.0 0.001458 653.51044 653.50970
664.0 0.001506 652.78912 652.78845
668.0 0.001497 652.06915 652.06848
644.0 0.001553 651.35010 651.34943
635.0 0.001575 650.63251 650.63184
655.0 0.001527 649.91620 649.91534
617.0 0.001621 649.20099 649.20032
671.0 0.001490 648.48724 648.48639
650.0 0.001538 647.77441 647.77380
630.0 0.001587 647.06305 647.06213
681.0 0.001468 646.35260 646.35199
641.0 0.001560 645.64386 645.64294
624.0 0.001603 644.93616 644.93542
623.0 0.001605 644.22992 644.22925
653.0 0.001531 643.52484 643.52405
691.0 0.001447 642.82129 642.82056
649.0 0.001541 642.11902 642.11804
617.0 0.001621 641.41840 641.41754
643.0 0.001555 640.71875 640.71820
641.0 0.001560 640.02094 640.02014
684.0 0.001462 639.32465 639.32385
640.0 0.001563 638.62988 638.62897
608.0 0.001645 637.93665 637.93597
619.0 0.001616 637.24512 637.24414
602.0 0.001661 636.55499 636.55444
640.0 0.001563 635.86694 635.86609
627.0 0.001595 635.18048 635.17969
600.0 0.001667 634.49585 634.49500
626.0 0.001597 633.81323 633.81250
621.0 0.001610 633.13245 633.13159
650.0 0.001538 632.45361 632.45270
624.0 0.001603 631.77698 631.77612
605.0 0.001653 631.10236 631.10150
624.0 0.001603 630.42987 630.42896
602.0 0.001661 629.75940 629.75873
631.0 0.001585 629.09155 629.09045
597.0 0.001675 628.42572 628.42493
606.0 0.001650 627.76239 627.76160
625.0 0.001600 627.10144 627.10065
657.0 0.001522 626.44324 626.44250
603.0 0.001658 625.78741 625.78674
624.0 0.001603 625.13428 625.13354
621.0 0.001610 624.48407 624.48315
649.0 0.001541 623.83655 623.83569
638.0 0.001567 623.19153 623.19098
593.0 0.001686 622.54993 622.54932
611.0 0.001637 621.91101 621.91034
605.0 0.001653 621.27521 621.27441
647.0 0.001546 620.64270 620.64203
602.0 0.001661 620.01337 620.01263
628.0 0.001592 619.38715 619.38635
622.0 0.001608 618.76447 618.76349
665.0 0.001504 618.14484 618.14423
626.0 0.001597 617.52936 617.52844
608.0 0.001645 616.91693 616.91626
617.0 0.001621 616.30798 616.30762
594.0 0.001684 615.70331 615.70239
605.0 0.001653 615.10193 615.10144
657.0 0.001522 614.50470 614.50403
603.0 0.001658 613.91132 613.91071
647.0 0.001546 613.32178 613.32098
588.0 0.001701 612.73663 612.73566
631.0 0.001585 612.15509 612.15479
571.0 0.001751 611.57825 611.57782
634.0 0.001577 611.00562 611.00482
561.0 0.001783 610.43732 610.43671
601.0 0.001664 609.87341 609.87262
606.0 0.001650 609.31403 609.31305
610.0 0.001639 608.75909 608.75812
609.0 0.001642 608.20898 608.20831
587.0 0.001704 607.66321 607.66278
616.0 0.001623 607.12274 607.12201
591.0 0.001692 606.58673 606.58594
615.0 0.001626 606.05573 606.05505
583.0 0.001715 605.52997 605.52905
640.0 0.001563 605.00879 605.00818
622.0 0.001608 604.49304 604.49237
615.0 0.001626 603.98248 603.98157
544.0 0.001838 603.47675 603.47607
585.0 0.001709 602.97668 602.97626
638.0 0.001567 602.48212 602.48126
584.0 0.001712 601.99268 601.99188
627.0 0.001595 601.50903 601.50830
604.0 0.001656 601.03082 601.03015
583.0 0.001715 600.55817 600.55743
637.0 0.001570 600.09106 600.09045
585.0 0.001709 599.62994 599.62921
607.0 0.001647 599.17468 599.17395
636.0 0.001572 598.72491 598.72437
603.0 0.001658 598.28131 598.28052
584.0 0.001712 597.84357 597.84277
583.0 0.001715 597.41187 597.41107
581.0 0.001721 596.98615 596.98547
625.0 0.001600 596.56677 596.56616
586.0 0.001706 596.15350 596.15277
608.0 0.001645 595.74628 595.74554
576.0 0.001736 595.34540 595.34473
616.0 0.001623 594.95081 594.95001
629.0 0.001590 594.56281 594.56213
639.0 0.001565 594.18109 594.18036
639.0 0.001565 593.80579 593.80511
594.0 0.001684 593.43707 593.43634
595.0 0.001681 593.07489 593.07416
588.0 0.001701 592.71924 592.71832
579.0 0.001727 592.37030 592.36951
591.0 0.001692 592.02802 592.02722
583.0 0.001715 591.69232 591.69153
547.0 0.001828 591.36340 591.36292
572.0 0.001748 591.04150 591.04077
651.0 0.001536 590.72626 590.72559
608.0 0.001645 590.41785 590.41718
615.0 0.001626 590.11627 590.11578
636.0 0.001572 589.82178 589.82098
606.0 0.001650 589.53430 589.53345
584.0 0.001712 589.25378 589.25293
607.0 0.001647 588.97980 588.97937
550.0 0.001818 588.71350 588.71277
621.0 0.001610 588.45398 588.45343
582.0 0.001718 588.20166 588.31586
623.0 0.001605 587.95642 588.07794
600.0 0.001667 587.71820 587.89148
582.0 0.001718 587.48749 587.67255
576.0 0.001736 587.26373 587.46222
610.0 0.001639 587.04706 587.26050
586.0 0.001706 586.83783 587.06744
599.0 0.001669 586.63568 586.88361
592.0 0.001689 586.44110 586.70941
600.0 0.001667 586.25378 586.54510
581.0 0.001721 586.07349 586.39148
581.0 0.001721 585.90070 586.24878
580.0 0.001724 585.73511 586.11823
636.0 0.001572 585.57690 586.00012
597.0 0.001675 585.42609 585.89575
602.0 0.001661 585.28271 585.80762
625.0 0.001600 585.14673 585.73669
581.0 0.001721 585.01801 585.68616
599.0 0.001669 584.89667 585.65985
569.0 0.001757 584.78271 585.66278
613.0 0.001631 584.67633 585.70349
598.0 0.001672 584.57721 585.79706
646.0 0.001548 584.48560 585.98279
578.0 0.001730 584.40118 586.36786
571.0 0.001751 584.32440 587.23041
561.0 0.001783 584.25507 589.18579
621.0 0.001610 584.19305 593.38562
597.0 0.001675 584.13831 601.67889
591.0 0.001692 584.09119 616.57959
623.0 0.001605 584.05121 640.61768
643.0 0.001555 584.01904 674.27142
642.0 0.001558 583.99414 712.57825
698.0 0.001433 583.97650 743.55530
706.0 0.001416 583.96588 752.80713
722.0 0.001385 583.96326 734.77515
654.0 0.001529 583.96783 698.51904
639.0 0.001565 583.97974 658.43646
638.0 0.001567 583.99878 625.82025
569.0 0.001757 584.02545 604.85754
647.0 0.001546 584.05914 593.80969
583.0 0.001715 584.10052 588.90186
603.0 0.001658 584.14874 586.96368
584.0 0.001712 584.20453 586.19482
571.0 0.001751 584.26752 585.83527
589.0 0.001698 584.33801 585.63062
549.0 0.001821 584.41534 585.50446
604.0 0.001656 584.49988 585.43103
573.0 0.001745 584.59186 585.39661
623.0 0.001605 584.69086 585.39349
580.0 0.001724 584.79712 585.41583
552.0 0.001812 584.91040 585.45941
634.0 0.001577 585.03094 585.52130
591.0 0.001692 585.15826 585.59906
562.0 0.001779 585.29291 585.69104
562.0 0.001779 585.43451 585.79590
635.0 0.001575 585.58289 585.94531
532.0 0.001880 585.73877 586.07568
573.0 0.001745 585.90118 586.22809
586.0 0.001706 586.07092 586.37964
568.0 0.001761 586.24725 586.54071
580.0 0.001724 586.43036 586.71094
597.0 0.001675 586.62042 586.89063
653.0 0.001531 586.81720 587.07886
630.0 0.001587 587.02100 587.27612
596.0 0.001678 587.23145 587.48199
580.0 0.001724 587.44855 587.58673
575.0 0.001739 587.67242 587.81641
617.0 0.001621 587.90302 588.01251
586.0 0.001706 588.13995 588.26117
562.0 0.001779 588.38385 588.51843
579.0 0.001727 588.63403 588.78479
583.0 0.001715 588.89081 589.06067
592.0 0.001689 589.15424 589.34692
545.0 0.001835 589.42383 589.64423
575.0 0.001739 589.69995 589.95477
536.0 0.001866 589.98230 590.28070
574.0 0.001742 590.27118 590.62683
592.0 0.001689 590.56616 591.00482
623.0 0.001605 590.86749 591.44769
567.0 0.001764 591.17505 592.04016
574.0 0.001742 591.48883 592.97070
566.0 0.001767 591.80853 594.59839
603.0 0.001658 592.13458 597.50055
617.0 0.001621 592.46631 602.42181
592.0 0.001689 592.80438 609.95197
644.0 0.001553 593.14856 619.80585
643.0 0.001555 593.49823 630.01306
692.0 0.001445 593.85400 637.02301
649.0 0.001541 594.21545 637.57593
640.0 0.001563 594.58276 631.60059
659.0 0.001517 594.95569 622.13312
575.0 0.001739 595.33453 612.58887
607.0 0.001647 595.71893 605.30420
611.0 0.001637 596.10889 600.90210
621.0 0.001610 596.50452 598.80096
624.0 0.001603 596.90533 598.08606
606.0 0.001650 597.31183 598.03516
591.0 0.001692 597.72375 598.24866
588.0 0.001701 598.14099 598.55902
621.0 0.001610 598.56342 598.91010
598.0 0.001672 598.99109 599.28436
611.0 0.001637 599.42413 599.67529
576.0 0.001736 599.86230 600.07996
619.0 0.001616 600.30536 600.49597
594.0 0.001684 600.75366 600.92169
615.0 0.001626 601.20691 601.35620
610.0 0.001639 601.66516 601.79852
592.0 0.001689 602.12817 602.24811
599.0 0.001669 602.59619 602.70459
590.0 0.001695 603.06873 603.16736
612.0 0.001634 603.54608 603.63599
583.0 0.001715 604.02802 604.11066
548.0 0.001825 604.51514 604.59058
559.0 0.001789 605.00647 605.07611
620.0 0.001613 605.50201 605.56647
600.0 0.001667 606.00220 606.06213
575.0 0.001739 606.50671 606.56232
593.0 0.001686 607.01569 607.06775
603.0 0.001658 607.52905 607.57776
603.0 0.001658 608.04639 608.05957
625.0 0.001600 608.56781 608.58020
543.0 0.001842 609.09351 609.10541
582.0 0.001718 609.62360 609.62268
663.0 0.001508 610.15717 610.15631
563.0 0.001776 610.69501 610.69403
601.0 0.001664 611.23645 611.23553
606.0 0.001650 611.78162 611.78107
644.0 0.001553 612.33081 612.33002
623.0 0.001605 612.88373 612.88293
579.0 0.001727 613.44000 613.43939
567.0 0.001764 614.00012 613.99945
608.0 0.001645 614.56360 614.56274
583.0 0.001715 615.13068 615.12976
590.0 0.001695 615.70105 615.70020
591.0 0.001692 616.27466 616.27386
575.0 0.001739 616.85156 616.85065
587.0 0.001704 617.43182 617.43085
614.0 0.001629 618.01501 618.01416
584.0 0.001712 618.60132 618.60052
649.0 0.001541 619.19055 619.18994
610.0 0.001639 619.78290 620.62451
658.0 0.001520 620.37805 621.26215
624.0 0.001603 620.97607 622.06201
658.0 0.001520 621.57690 622.88403
708.0 0.001412 622.18036 623.55756
673.0 0.001486 622.78650 624.23932
697.0 0.001435 623.39502 624.92999
665.0 0.001504 624.00598 625.63043
720.0 0.001389 624.61969 626.34137
690.0 0.001449 625.23566 627.06378
639.0 0.001565 625.85376 627.79871
689.0 0.001451 626.47394 628.54730
681.0 0.001468 627.09662 629.31079
694.0 0.001441 627.72131 630.09186
663.0 0.001508 628.34790 630.89197
687.0 0.001456 628.97662 631.71350
662.0 0.001511 629.60730 632.56000
697.0 0.001435 630.23969 633.43475
654.0 0.001529 630.87366 634.34265
708.0 0.001412 631.50977 635.28900
676.0 0.001479 632.14691 636.28027
669.0 0.001495 632.78625 637.32544
654.0 0.001529 633.42645 638.43494
604.0 0.001656 634.06854 639.62292
637.0 0.001570 634.71149 640.90662
565.0 0.001770 635.35620 642.30865
693.0 0.001443 636.00195 643.86084
629.0 0.001590 636.64886 645.60339
648.0 0.001543 637.29669 647.59448
641.0 0.001560 637.94580 649.91833
635.0 0.001575 638.59558 652.71906
661.0 0.001513 639.24640 656.30902
641.0 0.001560 639.89783 661.50531
734.0 0.001362 640.55011 670.51172
669.0 0.001495 641.20319 688.71570
728.0 0.001374 641.85645 727.51385
829.0 0.001206 642.51056 807.21075
1083.0 0.000923 643.16479 956.32495
1286.0 0.000778 643.81976 1201.05127
1512.0 0.000661 644.47491 1540.00623
1853.0 0.000540 645.13025 1915.44299
2158.0 0.000463 645.78583 2210.56274
2310.0 0.000433 646.44116 2300.93701
2249.0 0.000445 647.09692 2149.64551
1981.0 0.000505 647.75232 1835.47009
1545.0 0.000647 648.40765 1473.36841
1124.0 0.000890 649.06287 1155.14124
921.0 0.001086 649.71765 927.99609
788.0 0.001269 650.37238 792.10541
696.0 0.001437 651.02667 722.73761
639.0 0.001565 651.68018 691.73364
624.0 0.001603 652.33319 678.74823
657.0 0.001522 652.98560 672.94977
635.0 0.001575 653.63739 669.83661
701.0 0.001427 654.28851 667.85858
657.0 0.001522 654.93872 666.50311
648.0 0.001543 655.58777 665.56519
664.0 0.001506 656.23621 664.93231
634.0 0.001577 656.88318 664.53033
652.0 0.001534 657.52948 664.30615
627.0 0.001595 658.17413 664.22101
653.0 0.001531 658.81793 664.24701
659.0 0.001517 659.46008 664.36139
667.0 0.001499 660.10089 664.54767
682.0 0.001466 660.74036 664.79309
688.0 0.001453 661.37805 668.41296
691.0 0.001447 662.01404 668.91327
708.0 0.001412 662.64856 669.45972
683.0 0.001464 663.28125 671.33313
727.0 0.001376 663.91205 672.02606
667.0 0.001499 664.54108 672.76160
702.0 0.001425 665.16779 673.53925
653.0 0.001531 665.79279 674.35876
651.0 0.001536 666.41565 675.22192
707.0 0.001414 667.03613 676.13025
653.0 0.001531 667.65424 677.08649
693.0 0.001443 668.27026 678.09448
700.0 0.001429 668.88373 679.15894
671.0 0.001490 669.49475 680.28607
656.0 0.001524 670.10345 681.48291
663.0 0.001508 670.70935 682.75824
691.0 0.001447 671.31250 684.12384
642.0 0.001558 671.91284 685.17725
703.0 0.001422 672.51056 686.35986
709.0 0.001410 673.10547 688.12604
746.0 0.001340 673.69702 689.90051
693.0 0.001443 674.28577 691.87286
733.0 0.001364 674.87158 694.24133
713.0 0.001403 675.45404 696.89301
720.0 0.001389 676.03333 699.89130
765.0 0.001307 676.60919 703.31903
752.0 0.001330 677.18170 707.28784
716.0 0.001397 677.75098 711.94354
740.0 0.001351 678.31653 717.48932
723.0 0.001383 678.87854 724.21033
716.0 0.001397 679.43713 732.54889
759.0 0.001318 679.99207 743.34839
776.0 0.001289 680.54303 758.63202
800.0 0.001250 681.09009 783.94556
833.0 0.001200 681.63354 833.86566
1026.0 0.000975 682.17303 942.19574
1225.0 0.000816 682.70825 1175.23071
1612.0 0.000620 683.23926 1636.74976
2527.0 0.000396 683.76648 2440.65283
3482.0 0.0002872 684.28937 3624.73926
4849.0 0.0002062 684.80804 5033.68945
6122.0 0.0001633 685.32227 6274.65527
6828.0 0.0001465 685.83228 6852.59180
6814.0 0.0001468 686.33765 6517.68213
5829.0 0.0001716 686.83856 5495.55615
4337.0 0.0002306 687.33484 4197.03809
2947.0 0.0003393 687.82660 2960.35132
1996.0 0.000501 688.31342 2005.44836
1335.0 0.000749 688.79578 1387.44775
840.0 0.001190 689.27325 1045.92371
748.0 0.001337 689.74591 881.91736
717.0 0.001395 690.21332 809.90295
679.0 0.001473 690.67596 777.49005
704.0 0.001420 691.13361 760.22382
716.0 0.001397 691.58606 748.97644
645.0 0.001550 692.03345 740.71252
668.0 0.001497 692.47565 734.32562
660.0 0.001515 692.91241 729.28094
688.0 0.001453 693.34393 725.24042
685.0 0.001460 693.77014 721.97137
707.0 0.001414 694.19104 719.30408
635.0 0.001575 694.60620 717.11163
672.0 0.001488 695.01575 715.30011
661.0 0.001513 695.41998 713.79596
656.0 0.001524 695.81848 712.54352
655.0 0.001527 696.21124 711.49829
639.0 0.001565 696.59827 710.62506
677.0 0.001477 696.97980 709.89569
734.0 0.001362 697.35504 709.28741
746.0 0.001340 697.72467 708.78131
765.0 0.001307 698.08838 708.37445
772.0 0.001295 698.44604 708.03021
804.0 0.001244 698.79749 707.74982
798.0 0.001253 699.14307 707.52881
796.0 0.001256 699.48260 707.35034
752.0 0.001330 699.81580 707.21271
729.0 0.001372 700.14301 707.11035
716.0 0.001397 700.46381 707.03827
807.0 0.001239 700.77832 706.99274
781.0 0.001280 701.08667 706.97015
785.0 0.001274 701.38855 706.96741
780.0 0.001282 701.68402 706.98187
754.0 0.001326 701.97296 707.01105
781.0 0.001280 702.25555 703.72339
798.0 0.001253 702.53162 703.93103
818.0 0.001222 702.80096 704.13696
789.0 0.001267 703.06366 703.10352
745.0 0.001342 703.31995 703.36292
722.0 0.001385 703.56940 703.61633
679.0 0.001473 703.81226 703.86328
691.0 0.001447 704.04810 704.10419
679.0 0.001473 704.27747 704.33905
682.0 0.001466 704.50000 704.56775
644.0 0.001553 704.71564 704.79071
647.0 0.001546 704.92438 705.00830
622.0 0.001608 705.12616 705.22040
644.0 0.001553 705.32104 705.42761
642.0 0.001558 705.50891 705.63037
631.0 0.001585 705.68994 705.82935
618.0 0.001618 705.86395 706.02594
625.0 0.001600 706.03076 706.22131
640.0 0.001563 706.19067 706.41919
619.0 0.001616 706.34338 706.62817
628.0 0.001592 706.48877 706.87183
654.0 0.001529 706.62744 707.21088
598.0 0.001672 706.75861 707.78223
599.0 0.001669 706.88275 708.84155
692.0 0.001445 706.99963 710.75214
698.0 0.001433 707.10931 713.83405
651.0 0.001536 707.21167 718.02820
698.0 0.001433 707.30676 722.56927
665.0 0.001504 707.39465 726.03925
682.0 0.001466 707.47504 727.03619
679.0 0.001473 707.54834 725.31366
742.0 0.001348 707.61450 721.90540
669.0 0.001495 707.67279 717.97058
636.0 0.001572 707.72382 714.37128
658.0 0.001520 707.76776 711.64490
628.0 0.001592 707.80420 709.89252
662.0 0.001511 707.83301 708.92535
700.0 0.001429 707.85486 708.46118
674.0 0.001484 707.86877 708.25604
683.0 0.001464 707.87579 708.16028
656.0 0.001524 707.87494 708.10272
693.0 0.001443 707.86664 708.05640
685.0 0.001460 707.85114 708.01257
677.0 0.001477 707.82800 707.96698
669.0 0.001495 707.79749 707.91827
715.0 0.001399 707.75940 707.86548
735.0 0.001361 707.71393 707.80786
697.0 0.001435 707.66089 707.74457
719.0 0.001391 707.60040 707.67542
717.0 0.001395 707.53259 707.59991
771.0 0.001297 707.45703 707.51837
756.0 0.001323 707.37408 707.42975
748.0 0.001337 707.28400 707.33466
729.0 0.001372 707.18579 707.23254
709.0 0.001410 707.08069 707.12354
715.0 0.001399 706.96771 707.00732
744.0 0.001344 706.84766 706.88416
695.0 0.001439 706.71979 706.75385
687.0 0.001456 706.58447 706.61609
706.0 0.001416 706.44202 706.47144
725.0 0.001379 706.29181 706.31946
736.0 0.001359 706.13434 706.16016
772.0 0.001295 705.96942 705.99371
765.0 0.001307 705.79718 705.81982
735.0 0.001361 705.61749 716.36938
782.0 0.001279 705.43011 716.71539
787.0 0.001271 705.23572 717.09546
748.0 0.001337 705.03394 721.58215
756.0 0.001323 704.82471 722.24554
756.0 0.001323 704.60803 722.97278
790.0 0.001266 704.38403 723.76038
738.0 0.001355 704.15295 724.64069
839.0 0.001192 703.91461 725.61243
814.0 0.001229 703.66882 726.68335
794.0 0.001259 703.41577 727.87561
843.0 0.001186 703.15564 729.20142
796.0 0.001256 702.88818 730.67926
815.0 0.001227 702.61359 732.33130
842.0 0.001188 702.33179 734.18414
822.0 0.001217 702.04279 736.26788
855.0 0.001170 701.74677 738.62000
867.0 0.001153 701.44354 741.28503
877.0 0.001140 701.13324 744.31525
834.0 0.001199 700.81604 747.77771
846.0 0.001182 700.49158 751.75098
854.0 0.001171 700.16028 756.33588
877.0 0.001140 699.82214 761.65662
900.0 0.001111 699.47693 767.86835
837.0 0.001195 699.12451 775.17535
883.0 0.001133 698.76569 783.83441
870.0 0.001149 698.39978 794.19141
889.0 0.001125 698.02704 806.70117
862.0 0.001160 697.64758 821.98187
963.0 0.001038 697.26129 840.91748
937.0 0.001067 696.86835 864.84662
1019.0 0.000981 696.46869 896.25537
1073.0 0.000932 696.06226 940.91968
1223.0 0.000818 695.64923 1014.35492
1370.0 0.000730 695.22949 1157.67664
1678.0 0.000596 694.80334 1467.22717
2390.0 0.000418 694.37067 2131.95435
3710.0 0.0002695 693.93164 3439.95605
5840.0 0.0001712 693.48602 5682.15576
8627.0 0.0001159 693.03375 8908.76660
12091.0 0.0000827 692.57544 12639.60449
15658.0 0.0000639 692.11072 15821.82715
17001.0 0.0000588 691.63965 17248.42188
16456.0 0.0000608 691.16217 16421.13281
14763.0 0.0000677 690.67889 13960.20020
10979.0 0.0000911 690.18890 10816.46289
7449.0 0.0001342 689.69318 7687.75586
4944.0 0.0002023 689.19110 5071.90088
3115.0 0.0003210 688.68304 3205.07666
1810.0 0.000552 688.16901 2051.30786
1207.0 0.000829 687.64929 1429.24341
1020.0 0.000980 687.12317 1128.91980
927.0 0.001079 686.59143 989.51343
873.0 0.001145 686.05365 919.05212
837.0 0.001195 685.51044 876.32800
795.0 0.001258 684.96130 847.89600
812.0 0.001232 684.40637 824.50385
751.0 0.001332 683.84589 805.75714
799.0 0.001252 683.27979 791.16461
752.0 0.001330 682.70795 778.48792
747.0 0.001339 682.13116 767.85327
747.0 0.001339 681.54828 758.83215
726.0 0.001377 680.96014 751.10895
722.0 0.001385 680.36676 744.44281
688.0 0.001453 679.76807 738.64502
749.0 0.001335 679.16400 733.57190
676.0 0.001479 678.55481 729.10754
717.0 0.001395 677.94043 725.16302
806.0 0.001241 677.32104 721.66699
760.0 0.001316 676.69641 718.56073
710.0 0.001408 676.06702 715.80096
742.0 0.001348 675.43231 713.35120
691.0 0.001447 674.79291 711.18549
730.0 0.001370 674.14856 709.28455
746.0 0.001340 673.49939 707.63507
713.0 0.001403 672.84558 706.23187
702.0 0.001425 672.18707 705.07556
759.0 0.001318 671.52380 704.17383
675.0 0.001481 670.85590 703.54395
721.0 0.001387 670.18365 703.21313
722.0 0.001385 669.50690 703.22052
696.0 0.001437 668.82532 703.62378
685.0 0.001460 668.13959 704.50354
752.0 0.001330 667.44977 695.21173
757.0 0.001321 666.75537 698.72302
685.0 0.001460 666.05695 702.48395
707.0 0.001414 665.35419 703.70490
708.0 0.001412 664.64740 712.34558
730.0 0.001370 663.93646 727.16632
753.0 0.001328 663.22162 757.80896
762.0 0.001312 662.50287 825.23022
944.0 0.001059 661.77997 967.73120
1200.0 0.000833 661.05347 1237.42188
1713.0 0.000584 660.32324 1674.73328
2264.0 0.000442 659.58899 2260.74438
2966.0 0.0003372 658.85138 2877.17603
3334.0 0.0002999 658.10980 3325.41797
3625.0 0.0002759 657.36487 3428.25195
3495.0 0.0002861 656.61664 3178.72290
2919.0 0.0003426 655.86456 2724.14819
2330.0 0.000429 655.10938 2203.35498
1752.0 0.000571 654.35046 1708.85864
1388.0 0.000720 653.58868 1308.60095
931.0 0.001074 652.82361 1029.27380
738.0 0.001355 652.05530 859.46387
714.0 0.001401 651.28387 768.91888
665.0 0.001504 650.50897 725.14746
646.0 0.001548 649.73145 704.34045
636.0 0.001572 648.95105 693.35858
646.0 0.001548 648.16760 686.46808
668.0 0.001497 647.38123 681.56030
640.0 0.001563 646.59222 677.88965
619.0 0.001616 645.80035 675.16223
659.0 0.001517 645.00586 673.24768
638.0 0.001567 644.20868 672.10651
620.0 0.001613 643.40906 671.80786
570.0 0.001754 642.60675 672.64862
652.0 0.001534 641.80182 675.55029
626.0 0.001597 640.99500 683.07269
663.0 0.001508 640.18536 701.39825
722.0 0.001385 639.37354 742.83923
801.0 0.001248 638.55957 826.46973
932.0 0.001073 637.74310 971.88318
1176.0 0.000850 636.92474 1183.07300
1443.0 0.000693 636.10431 1429.69604
1812.0 0.000552 635.28180 1643.11829
1793.0 0.000558 634.45728 1743.55371
1660.0 0.000602 633.63049 1696.82581
1640.0 0.000610 632.80231 1544.36536
1337.0 0.000748 631.97198 1347.16333
1067.0 0.000937 631.14001 1145.35608
928.0 0.001078 630.30603 967.89624
743.0 0.001346 629.47064 833.37054
620.0 0.001613 628.63361 744.50116
596.0 0.001678 627.79492 692.95929
627.0 0.001595 626.95490 666.21216
574.0 0.001742 626.11304 652.97955
603.0 0.001658 625.26996 645.97400
604.0 0.001656 624.42560 639.67932
605.0 0.001653 623.57959 636.46875
564.0 0.001773 622.73230 633.83252
581.0 0.001721 621.88379 630.84503
592.0 0.001689 621.03424 628.87170
654.0 0.001529 620.18359 627.09662
574.0 0.001742 619.33185 625.47461
597.0 0.001675 618.47894 623.97375
638.0 0.001567 617.62488 622.56915
606.0 0.001650 616.77002 621.24249
567.0 0.001764 615.91425 619.97949
635.0 0.001575 615.05750 618.76855
610.0 0.001639 614.20020 617.60150
584.0 0.001712 613.34167 616.47070
598.0 0.001672 612.48285 615.37030
564.0 0.001773 611.62311 614.29675
625.0 0.001600 610.76276 613.24518
622.0 0.001608 609.90186 612.21277
640.0 0.001563 609.04028 611.19690
602.0 0.001661 608.17804 610.19562
650.0 0.001538 607.31567 609.20709
598.0 0.001672 606.45264 608.22925
647.0 0.001546 605.58929 607.26141
616.0 0.001623 604.72552 611.14496
577.0 0.001733 603.86157 610.43597
629.0 0.001590 602.99713 609.75250
629.0 0.001590 602.13245 610.89526
623.0 0.001605 601.26794 610.35663
614.0 0.001629 600.40271 609.85455
599.0 0.001669 599.53766 608.60126
603.0 0.001658 598.67249 608.22076
579.0 0.001727 597.80750 607.88623
620.0 0.001613 596.94220 607.30023
636.0 0.001572 596.07703 607.08899
639.0 0.001565 595.21179 606.94153
653.0 0.001531 594.34656 606.86676
607.0 0.001647 593.48193 606.87488
582.0 0.001718 592.61700 606.97748
685.0 0.001460 591.75244 607.18927
653.0 0.001531 590.88788 607.52679
626.0 0.001597 590.02399 608.01050
642.0 0.001558 589.16022 608.66492
629.0 0.001590 588.29681 609.52039
676.0 0.001479 587.43335 610.61365
634.0 0.001577 586.57074 611.99097
684.0 0.001462 585.70862 613.70862
666.0 0.001502 584.84650 615.84052
623.0 0.001605 583.98529 618.95343
621.0 0.001610 583.12427 622.24304
669.0 0.001495 582.26385 626.32031
641.0 0.001560 581.40411 631.39618
619.0 0.001616 580.54492 637.94769
657.0 0.001522 579.68634 646.02649
668.0 0.001497 578.82831 656.46735
720.0 0.001389 577.97083 670.54169
792.0 0.001263 577.11438 691.34436
747.0 0.001339 576.25836 727.23297
891.0 0.001122 575.40350 799.57098
1042.0 0.000960 574.54883 955.74347
1335.0 0.000749 573.69531 1280.59778
1853.0 0.000540 572.84235 1886.44922
2789.0 0.000359 571.99060 2856.76172
4124.0 0.0002425 571.13947 4143.63379
5417.0 0.0001846 570.28943 5490.20605
6429.0 0.0001555 569.43970 6470.87939
6724.0 0.0001487 568.59149 6714.32080
6446.0 0.0001551 567.74396 6216.42725
5449.0 0.0001835 566.89746 5296.95508
4123.0 0.0002425 566.05194 4236.16553
2949.0 0.0003391 565.20728 3191.05249
2129.0 0.000470 564.36371 2288.14771
1551.0 0.000645 563.52112 1608.06555
1017.0 0.000983 562.67987 1159.58350
711.0 0.001406 561.83948 899.90479
720.0 0.001389 561.00024 765.86938
700.0 0.001429 560.16205 700.83673
583.0 0.001715 559.32489 668.05585
653.0 0.001531 558.48907 649.12970
606.0 0.001650 557.65411 636.52686
624.0 0.001603 556.82031 627.65466
600.0 0.001667 555.98798 622.03522
601.0 0.001664 555.15656 620.79413
594.0 0.001684 554.32672 627.45215
678.0 0.001475 553.49780 649.05890
712.0 0.001404 552.67010 695.86859
793.0 0.001261 551.84387 777.03442
956.0 0.001046 551.01849 891.70239
1075.0 0.000930 550.19458 1020.04602
1208.0 0.000828 549.37183 1124.02124
1275.0 0.000784 548.55042 1163.99475
1233.0 0.000811 547.73035 1129.45837
1157.0 0.000864 546.91168 1046.75574
922.0 0.001085 546.09436 945.81079
853.0 0.001172 545.27802 842.96863
733.0 0.001364 544.46289 749.94122
710.0 0.001408 543.64948 676.14661
657.0 0.001522 542.83710 624.57562
607.0 0.001647 542.02655 592.66449
577.0 0.001733 541.21661 574.84070
606.0 0.001650 540.40839 565.33734
536.0 0.001866 539.60168 559.97137
557.0 0.001795 538.79620 556.43707
546.0 0.001832 537.99207 554.14014
576.0 0.001736 537.18921 551.84943
584.0 0.001712 536.38770 549.82263
531.0 0.001883 535.58795 548.14642
513.0 0.001949 534.78912 541.74011
571.0 0.001751 533.99200 540.40155
528.0 0.001894 533.19598 539.23798
551.0 0.001815 532.40149 536.22937
580.0 0.001724 531.60834 535.19067
599.0 0.001669 530.81671 534.19476
540.0 0.001852 530.02637 533.27014
529.0 0.001890 529.23743 532.34357
528.0 0.001894 528.44965 531.44360
525.0 0.001905 527.66382 530.56897
525.0 0.001905 526.87866 529.71545
521.0 0.001919 526.09540 528.88251
586.0 0.001706 525.31335 528.06805
534.0 0.001873 524.53253 527.27167
542.0 0.001845 523.75348 526.49200
482.0 0.002075 522.97552 525.72919
528.0 0.001894 522.19940 524.98328
505.0 0.001980 521.42377 524.25403
504.0 0.001984 520.65015 523.54272
526.0 0.001901 519.87781 522.84967
508.0 0.001969 519.10687 522.17639
520.0 0.001923 518.33746 521.52448
474.0 0.002110 517.56897 520.89532
557.0 0.001795 516.80206 520.29266
506.0 0.001976 516.03674 519.24347
480.0 0.002083 515.27228 518.72522
548.0 0.001825 514.50946 518.24371
521.0 0.001919 513.74792 517.62079
506.0 0.001976 512.98779 517.24237
505.0 0.001980 512.22900 516.92480
527.0 0.001898 511.47137 516.68134
504.0 0.001984 510.71536 516.52930
518.0 0.001931 509.96045 516.49017
488.0 0.002049 509.20682 516.59412
545.0 0.001835 508.45471 517.75989
555.0 0.001802 507.70380 518.32312
534.0 0.001873 506.95413 519.22107
490.0 0.002041 506.20566 520.63538
528.0 0.001894 505.45844 523.34216
516.0 0.001938 504.71277 527.84790
538.0 0.001859 503.96829 537.38123
528.0 0.001894 503.22507 558.14630
637.0 0.001570 502.48300 600.82941
711.0 0.001406 501.74222 678.82611
853.0 0.001172 501.00262 800.89740
975.0 0.001026 500.26428 959.49072
1215.0 0.000823 499.52728 1122.42529
1338.0 0.000747 498.79144 1239.72241
1339.0 0.000747 498.05670 1271.37158
1388.0 0.000720 497.32336 1223.77930
1270.0 0.000787 496.59097 1139.02161
1147.0 0.000872 495.86008 1048.57593
957.0 0.001045 495.13022 961.81598
999.0 0.001001 494.40137 880.69714
865.0 0.001156 493.67389 805.24579
750.0 0.001333 492.94742 736.26062
688.0 0.001453 492.22232 678.02863
611.0 0.001637 491.49820 632.01105
623.0 0.001605 490.77502 595.32648
623.0 0.001605 490.05322 565.45752
531.0 0.001883 489.33243 542.09296
484.0 0.002066 488.61298 525.24237
492.0 0.002033 487.89441 514.18286
517.0 0.001934 487.17667 507.53751
498.0 0.002008 486.46051 503.73941
503.0 0.001988 485.74524 501.53363
477.0 0.002096 485.03113 500.16507
500.0 0.002000 484.31790 499.27148
493.0 0.002028 483.60568 498.71292
521.0 0.001919 482.89471 498.44937
538.0 0.001859 482.18469 498.48489
513.0 0.001949 481.47568 498.84967
488.0 0.002049 480.76755 499.59775
476.0 0.002101 480.06079 500.81525
468.0 0.002137 479.35468 502.64005
492.0 0.002033 478.64975 505.33115
499.0 0.002004 477.94574 509.47968
473.0 0.002114 477.24286 516.64606
554.0 0.001805 476.54071 530.86078
582.0 0.001718 475.83975 561.34668
737.0 0.001357 475.13959 625.56201
797.0 0.001255 474.44043 748.75409
1106.0 0.000904 473.74222 954.60651
1343.0 0.000745 473.04495 1244.50916
1576.0 0.000635 472.34875 1575.68823
1772.0 0.000564 471.65317 1858.95056
1757.0 0.000569 470.95868 1993.37061
1899.0 0.000527 470.26514 1940.69360
1770.0 0.000565 469.57224 1759.27905
1478.0 0.000677 468.88065 1527.82263
1148.0 0.000871 468.18967 1286.39160
960.0 0.001042 467.49979 1055.29407
815.0 0.001227 466.81061 857.05359
706.0 0.001416 466.12222 709.09357
528.0 0.001894 465.43497 608.86359
505.0 0.001980 464.74832 549.59717
515.0 0.001942 464.06287 518.73871
478.0 0.002092 463.37796 502.59113
472.0 0.002119 462.69394 493.87497
471.0 0.002123 462.01086 488.02289
523.0 0.001912 461.32858 484.10571
453.0 0.002208 460.64719 481.00171
505.0 0.001980 459.96637 478.42853
450.0 0.002222 459.28665 476.09045
464.0 0.002155 458.60767 474.21851
505.0 0.001980 457.92960 472.49786
430.0 0.002326 457.25220 471.06995
468.0 0.002137 456.57568 469.80664
481.0 0.002079 455.89987 468.68381
468.0 0.002137 455.22501 467.64902
461.0 0.002169 454.55096 466.75769
449.0 0.002227 453.87759 465.96466
483.0 0.002070 453.20505 465.26285
480.0 0.002083 452.53323 464.64807
472.0 0.002119 451.86258 464.11859
510.0 0.001961 451.19229 463.67392
486.0 0.002058 450.52307 463.31625
485.0 0.002062 449.85437 463.04926
470.0 0.002128 449.18658 462.87933
445.0 0.002247 448.51965 462.81470
498.0 0.002008 447.85330 462.86667
471.0 0.002123 447.18802 463.04938
476.0 0.002101 446.52335 463.38116
460.0 0.002174 445.85938 463.88507
553.0 0.001808 445.19656 464.59033
469.0 0.002132 444.53412 465.53360
500.0 0.002000 443.87271 466.76245
486.0 0.002058 443.21194 468.33774
462.0 0.002165 442.55209 470.33875
443.0 0.002257 441.89297 472.86890
487.0 0.002053 441.23456 476.06946
492.0 0.002033 440.57721 480.13068
510.0 0.001961 439.92029 485.33289
522.0 0.001916 439.26434 492.13718
544.0 0.001838 438.60928 501.48816
529.0 0.001890 437.95486 515.74487
596.0 0.001678 437.30133 541.03857
608.0 0.001645 436.64859 591.22455
723.0 0.001383 435.99670 698.15417
921.0 0.001086 435.34558 909.57385
1315.0 0.000760 434.69528 1282.12146
1951.0 0.000513 434.04587 1845.29578
2665.0 0.000375 433.39728 2554.13306
3339.0 0.0002995 432.74936 3256.93823
3412.0 0.0002931 432.10251 3731.22168
3575.0 0.0002797 431.45621 3808.81226
3531.0 0.0002832 430.81119 3526.95215
3128.0 0.0003197 430.16663 3065.64771
2334.0 0.000428 429.52307 2556.47021
1883.0 0.000531 428.88046 2046.62939
1484.0 0.000674 428.23853 1571.68042
1108.0 0.000903 427.59772 1176.57288
866.0 0.001155 426.95749 885.48151
615.0 0.001626 426.31833 695.94733
519.0 0.001927 425.68021 586.38477
516.0 0.001938 425.04282 528.53778
485.0 0.002062 424.40634 498.76572
490.0 0.002041 423.77075 482.26239
485.0 0.002062 423.13614 471.67703
455.0 0.002198 422.50253 463.90948
442.0 0.002262 421.86978 457.73581
408.0 0.002451 421.23813 452.63580
428.0 0.002336 420.60730 448.32800
463.0 0.002160 419.97748 444.63348
471.0 0.002123 419.34869 441.42303
445.0 0.002247 418.72089 438.59924
469.0 0.002132 418.09396 436.08960
432.0 0.002315 417.46814 433.83630
453.0 0.002208 416.84329 431.79562
381.0 0.002625 416.21951 429.93268
445.0 0.002247 415.59695 428.21866
479.0 0.002088 414.97519 426.63129
422.0 0.002370 414.35458 425.15182
402.0 0.002488 413.73495 423.76489
446.0 0.002242 413.11670 422.45844
413.0 0.002421 412.49927 421.22128
433.0 0.002309 411.88312 420.04520
381.0 0.002625 411.26794 418.92242
432.0 0.002315 410.65390 417.84671
391.0 0.002558 410.04126 416.81296
442.0 0.002262 409.42947 415.81610
415.0 0.002410 408.81909 414.85248
412.0 0.002427 408.20963 413.92212
412.0 0.002427 407.60150 413.01489
389.0 0.002571 406.99466 412.13199
406.0 0.002463 406.38895 411.27090
387.0 0.002584 405.78461 410.43118
387.0 0.002584 405.18130 409.61349
407.0 0.002457 404.57932 408.80701
375.0 0.002667 403.97873 408.01611
416.0 0.002404 403.37939 407.23904
371.0 0.002695 402.78146 406.47693
419.0 0.002387 402.18460 405.72482
390.0 0.002564 401.58926 404.98389
368.0 0.002717 400.99530 404.25330
384.0 0.002604 400.40256 403.53244
397.0 0.002519 399.81137 400.74747
415.0 0.002410 399.22134 400.12149
383.0 0.002611 398.63284 399.49918
370.0 0.002703 398.04584 398.88046
391.0 0.002558 397.46030 397.48267
381.0 0.002625 396.87604 396.89978
356.0 0.002809 396.29340 396.31860
379.0 0.002639 395.71216 395.73886
391.0 0.002558 395.13245 395.16104
393.0 0.002545 394.55423 394.58463
394.0 0.002538 393.97751 394.01001
406.0 0.002463 393.40247 393.43723
356.0 0.002809 392.82874 392.86603
411.0 0.002433 392.25693 392.29706
360.0 0.002778 391.68655 391.72977
386.0 0.002591 391.11783 391.16461
375.0 0.002667 390.55069 390.60138
380.0 0.002632 389.98508 390.04022
413.0 0.002421 389.42136 389.48163
373.0 0.002681 388.85907 388.92514
379.0 0.002639 388.29874 388.37158
370.0 0.002703 387.73999 387.82040
375.0 0.002667 387.18286 387.27225
385.0 0.002597 386.62775 386.72781
391.0 0.002558 386.07413 386.18680
371.0 0.002695 385.52255 385.65039
382.0 0.002618 384.97256 385.11899
355.0 0.002817 384.42432 384.59476
372.0 0.002688 383.87808 384.08060
414.0 0.002415 383.33353 383.58511
374.0 0.002674 382.79099 383.12891
385.0 0.002597 382.25012 382.75278
397.0 0.002519 381.71136 382.52817
357.0 0.002801 381.17438 382.54691
355.0 0.002817 380.63940 382.88489
381.0 0.002625 380.10638 384.50165
398.0 0.002513 379.57529 385.39954
395.0 0.002532 379.04596 386.28726
411.0 0.002433 378.51880 386.97543
389.0 0.002571 377.99365 387.83939
389.0 0.002571 377.47052 388.32196
384.0 0.002604 376.94946 388.84586
392.0 0.002551 376.43033 388.87054
402.0 0.002488 375.91333 387.90717
409.0 0.002445 375.39847 386.22180
363.0 0.002755 374.88577 384.27957
407.0 0.002457 374.37506 382.52301
391.0 0.002558 373.86639 380.80923
372.0 0.002688 373.35999 379.25012
385.0 0.002597 372.85574 377.89230
373.0 0.002681 372.35373 376.78131
382.0 0.002618 371.85373 375.92020
385.0 0.002597 371.35605 375.27496
420.0 0.002381 370.86066 374.78888
371.0 0.002695 370.36740 374.40604
371.0 0.002695 369.87653 374.08820
371.0 0.002695 369.38779 373.81464
379.0 0.002639 368.90137 373.57751
397.0 0.002519 368.41733 373.37537
377.0 0.002653 367.93527 373.21045
370.0 0.002703 367.45599 373.08582
389.0 0.002571 366.97870 373.00656
363.0 0.002755 366.50391 372.97852
396.0 0.002525 366.03149 373.00912
376.0 0.002660 365.56149 373.10699
403.0 0.002481 365.09369 373.28363
413.0 0.002421 364.62851 373.55267
377.0 0.002653 364.16553 373.93103
372.0 0.002688 363.70526 374.44022
387.0 0.002584 363.24728 375.10779
392.0 0.002551 362.79172 375.96820
405.0 0.002469 362.33862 377.06763
393.0 0.002545 361.88806 378.46582
390.0 0.002564 361.43994 380.24365
432.0 0.002315 360.99423 382.51785
438.0 0.002283 360.55127 385.47284
418.0 0.002392 360.11063 389.47290
395.0 0.002532 359.67255 395.37598
435.0 0.002299 359.23718 405.34488
422.0 0.002370 358.80417 424.49979
513.0 0.001949 358.37405 463.25128
529.0 0.001890 357.94617 538.81708
718.0 0.001393 357.52084 673.61517
973.0 0.001028 357.09836 879.00037
1211.0 0.000826 356.67831 1146.97913
1382.0 0.000724 356.26096 1431.50928
1668.0 0.000600 355.84616 1655.44409
1609.0 0.000622 355.43402 1747.78296
1599.0 0.000625 355.02466 1704.06909
1641.0 0.000609 354.61774 1593.91943
1363.0 0.000734 354.21365 1482.25952
1321.0 0.000757 353.81204 1385.20813
1342.0 0.000745 353.41327 1287.04297
1211.0 0.000826 353.01718 1172.90503
1063.0 0.000941 352.62372 1040.39221
956.0 0.001046 352.23291 903.97736
829.0 0.001206 351.84479 784.12378
660.0 0.001515 351.45944 688.53259
612.0 0.001634 351.07675 611.40173
541.0 0.001848 350.69678 545.74695
530.0 0.001887 350.31958 490.57745
485.0 0.002062 349.94513 447.36694
409.0 0.002445 349.57321 416.53641
417.0 0.002398 349.20428 396.59042
384.0 0.002604 348.83789 384.68121
407.0 0.002457 348.47443 377.81772
375.0 0.002667 348.11365 373.72702
382.0 0.002618 347.75543 371.06458
366.0 0.002732 347.40030 369.16727
362.0 0.002762 347.04761 367.74347
384.0 0.002604 346.69791 366.66940
394.0 0.002538 346.35089 365.88620
370.0 0.002703 346.00656 365.36475
377.0 0.002653 345.66510 365.09103
351.0 0.002849 345.32632 365.06293
408.0 0.002451 344.99039 365.28912
365.0 0.002740 344.65710 365.78934
357.0 0.002801 344.32654 366.59613
372.0 0.002688 343.99893 367.75714
354.0 0.002825 343.67401 369.34097
409.0 0.002445 343.35184 371.44290
390.0 0.002564 343.03253 374.20273
360.0 0.002778 342.71579 377.84225
394.0 0.002538 342.40186 382.78342
415.0 0.002410 342.09076 390.00891
418.0 0.002392 341.78235 401.98199
458.0 0.002183 341.47678 424.62988
471.0 0.002123 341.17380 470.38254
527.0 0.001898 340.87369 560.68256
673.0 0.001486 340.57632 723.84821
924.0 0.001082 340.28165 982.97809
1353.0 0.000739 339.98984 1334.92371
1675.0 0.000597 339.70053 1729.33179
1978.0 0.000506 339.41425 2066.42871
2104.0 0.000475 339.13040 2233.09814
2171.0 0.000461 338.84930 2184.35938
2084.0 0.000480 338.57104 1987.79846
1772.0 0.000564 338.29541 1741.45947
1399.0 0.000715 338.02249 1492.67578
1110.0 0.000901 337.75220 1247.39832
980.0 0.001020 337.48465 1010.01788
779.0 0.001284 337.21973 800.63708
673.0 0.001486 336.95740 636.04462
507.0 0.001972 336.69788 520.68427
413.0 0.002421 336.44098 449.08884
439.0 0.002278 336.18668 408.39117
373.0 0.002681 335.93500 386.74969
356.0 0.002809 335.68579 374.86182
377.0 0.002653 335.43951 367.60141
357.0 0.002801 335.19562 362.42142
358.0 0.002793 334.95447 358.52628
366.0 0.002732 334.71561 355.36404
375.0 0.002667 334.47961 352.72678
391.0 0.002558 334.24597 350.49115
354.0 0.002825 334.01498 348.58267
348.0 0.002874 333.78656 346.91846
362.0 0.002762 333.56052 345.45886
377.0 0.002653 333.33704 344.16852
373.0 0.002681 333.11621 343.01898
363.0 0.002755 332.89774 341.99118
345.0 0.002899 332.68176 341.05908
344.0 0.002907 332.46808 340.21100
340.0 0.002941 332.25699 339.43530
308.0 0.003247 332.04819 338.72232
355.0 0.002817 331.84198 338.06345
342.0 0.002924 331.63809 337.45224
341.0 0.002933 331.43658 336.88245
337.0 0.002967 331.23740 336.34952
332.0 0.003012 331.04065 335.84927
333.0 0.003003 330.84616 335.37802
312.0 0.003205 330.65405 334.93307
359.0 0.002786 330.46414 334.51144
333.0 0.003003 330.27652 334.11099
345.0 0.002899 330.09137 333.75226
320.0 0.003125 329.90817 333.38953
319.0 0.003135 329.72748 333.04300
303.0 0.003300 329.54883 332.71118
336.0 0.002976 329.37244 332.39322
338.0 0.002959 329.19812 332.09634
358.0 0.002793 329.02609 331.80313
318.0 0.003145 328.85602 331.52094
339.0 0.002950 328.68820 331.24911
291.0 0.003436 328.52249 330.98721
317.0 0.003155 328.35883 330.73462
299.0 0.003344 328.19720 330.49088
297.0 0.003367 328.03769 330.25586
353.0 0.002833 327.88010 328.65433
329.0 0.003040 327.72449 328.48685
302.0 0.003311 327.57092 328.42468
344.0 0.002907 327.41940 328.27219
322.0 0.003106 327.26962 327.59711
301.0 0.003322 327.12189 327.47754
303.0 0.003300 326.97598 327.36462
335.0 0.002985 326.83197 327.29797
331.0 0.003021 326.68979 327.20456
277.0 0.00361 326.54953 327.12537
305.0 0.003279 326.41086 327.06946
315.0 0.003175 326.27399 327.05991
322.0 0.003106 326.13910 327.14902
311.0 0.003215 326.00577 327.44238
338.0 0.002959 325.87418 328.11444
342.0 0.002924 325.74426 329.38358
328.0 0.003049 325.61603 331.41583
311.0 0.003215 325.48950 334.16373
359.0 0.002786 325.36450 337.22122
337.0 0.002967 325.24115 339.81021
359.0 0.002786 325.11932 341.07272
327.0 0.003058 324.99890 340.67078
338.0 0.002959 324.88013 339.10272
352.0 0.002841 324.76294 337.12033
346.0 0.002890 324.64700 335.13434
351.0 0.002849 324.53262 333.18887
333.0 0.003003 324.41965 331.28531
360.0 0.002778 324.30811 329.55588
319.0 0.003135 324.19791 328.15543
342.0 0.002924 324.08905 327.17700
328.0 0.003049 323.98145 326.65390
332.0 0.003012 323.87512 326.61945
318.0 0.003145 323.77011 327.19183
321.0 0.003115 323.66629 328.62750
329.0 0.003040 323.56378 331.26395
356.0 0.002809 323.46234 335.31409
321.0 0.003115 323.36218 340.55798
325.0 0.003077 323.26300 346.10638
296.0 0.003378 323.16495 350.46967
316.0 0.003165 323.06808 352.19739
334.0 0.002994 322.97217 351.02728
321.0 0.003115 322.87720 348.15512
305.0 0.003279 322.78348 344.92145
300.0 0.003333 322.69058 341.90024
321.0 0.003115 322.59869 339.12927
338.0 0.002959 322.50772 336.82599
356.0 0.002809 322.41757 335.75616
300.0 0.003333 322.32825 337.13831
329.0 0.003040 322.23984 342.56503
367.0 0.002725 322.15222 353.67447
376.0 0.002660 322.06537 371.30801
419.0 0.002387 321.97922 394.28314
409.0 0.002445 321.89398 419.00540
400.0 0.002500 321.80939 437.75162
429.0 0.002331 321.72540 444.65903
432.0 0.002315 321.64218 438.70508
448.0 0.002232 321.55945 425.20560
408.0 0.002451 321.47733 410.15863
407.0 0.002457 321.39572 395.46844
413.0 0.002421 321.31473 381.02393
367.0 0.002725 321.23434 366.72287
360.0 0.002778 321.15436 353.69540
330.0 0.003030 321.07480 343.08987
329.0 0.003040 320.99573 335.38678
359.0 0.002786 320.91708 330.39224
346.0 0.002890 320.83878 327.45828
306.0 0.003268 320.76093 325.84091
335.0 0.002985 320.68329 324.94925
301.0 0.003322 320.60596 324.42020
326.0 0.003067 320.52893 324.06937
359.0 0.002786 320.45212 323.81497
311.0 0.003215 320.37558 323.61121
323.0 0.003096 320.29919 323.46609
282.0 0.00355 320.22308 323.35806
307.0 0.003257 320.14700 323.28519
327.0 0.003058 320.07117 323.24277
351.0 0.002849 319.99539 323.22543
305.0 0.003279 319.91956 323.47675
286.0 0.003497 319.84396 323.53091
338.0 0.002959 319.76819 323.61630
331.0 0.003021 319.69260 323.73495
323.0 0.003096 319.61688 323.89050
308.0 0.003247 319.54105 324.17691
319.0 0.003135 319.46524 324.42432
344.0 0.002907 319.38931 324.72687
333.0 0.003003 319.31329 325.09421
310.0 0.003226 319.23703 325.53922
304.0 0.003289 319.16058 326.07803
337.0 0.002967 319.08401 326.73239
348.0 0.002874 319.00717 327.53036
331.0 0.003021 318.93011 328.48831
353.0 0.002833 318.85281 329.70898
331.0 0.003021 318.77521 331.26273
330.0 0.003030 318.69730 333.38535
370.0 0.002703 318.61896 336.76855
346.0 0.002890 318.54034 341.86435
354.0 0.002825 318.46124 351.41110
348.0 0.002874 318.38184 369.99155
395.0 0.002532 318.30209 404.78976
502.0 0.001992 318.22168 464.36993
565.0 0.001770 318.14099 555.15369
730.0 0.001370 318.05960 671.16833
811.0 0.001233 317.97778 795.82019
904.0 0.001106 317.89554 897.49579
929.0 0.001076 317.81271 942.94556
954.0 0.001048 317.72925 921.95587
927.0 0.001079 317.64529 858.16077
843.0 0.001186 317.56055 782.53247
670.0 0.001493 317.47528 710.08405
622.0 0.001608 317.38940 640.10809
589.0 0.001698 317.30273 569.65790
550.0 0.001818 317.21539 502.80237
487.0 0.002053 317.12741 445.92065
408.0 0.002451 317.03864 402.80399
357.0 0.002801 316.94919 373.88660
385.0 0.002597 316.85889 356.42746
337.0 0.002967 316.76788 346.95975
327.0 0.003058 316.67599 342.26974
348.0 0.002874 316.58337 340.25131
337.0 0.002967 316.48984 340.00000
347.0 0.002882 316.39551 341.65585
365.0 0.002740 316.30035 345.93604
370.0 0.002703 316.20419 355.26144
352.0 0.002841 316.10727 372.91449
376.0 0.002660 316.00946 402.23630
466.0 0.002146 315.91064 444.59399
512.0 0.001953 315.81088 496.48050
558.0 0.001792 315.71014 548.31409
546.0 0.001832 315.60840 585.58917
573.0 0.001745 315.50580 596.06995
554.0 0.001805 315.40213 580.28601
565.0 0.001770 315.29749 550.84930
577.0 0.001733 315.19168 519.55096
497.0 0.002012 315.08493 490.42773
470.0 0.002128 314.97723 462.09384
438.0 0.002283 314.86838 433.83185
458.0 0.002183 314.75851 407.90152
427.0 0.002342 314.64749 386.97629
358.0 0.002793 314.53537 372.47113
390.0 0.002564 314.42227 364.40164
363.0 0.002755 314.30786 361.85123
351.0 0.002849 314.19247 363.86703
389.0 0.002571 314.07596 370.50473
413.0 0.002421 313.95822 384.06927
386.0 0.002591 313.83942 410.80301
457.0 0.002188 313.71936 462.78500
584.0 0.001712 313.59814 558.38837
737.0 0.001357 313.47580 718.26367
985.0 0.001015 313.35223 954.85175
1381.0 0.000724 313.22757 1257.34338
1603.0 0.000624 313.10153 1579.98206
1722.0 0.000581 312.97446 1844.05457
1853.0 0.000540 312.84616 1967.43750
1954.0 0.000512 312.71658 1921.67810
1930.0 0.000518 312.58588 1760.16968
1706.0 0.000586 312.45386 1562.56128
1339.0 0.000747 312.32062 1372.03406
1134.0 0.000882 312.18616 1191.43823
963.0 0.001038 312.05029 1010.02283
862.0 0.001160 311.91351 833.53046
703.0 0.001422 311.77539 677.91931
536.0 0.001866 311.63589 555.56360
417.0 0.002398 311.49524 469.35336
406.0 0.002463 311.35318 414.90878
348.0 0.002874 311.21002 383.46112
367.0 0.002725 311.06552 366.34674
349.0 0.002865 310.91980 357.15207
378.0 0.002646 310.77298 352.18875
332.0 0.003012 310.62466 349.88293
334.0 0.002994 310.47519 350.14603
344.0 0.002907 310.32446 354.09540
366.0 0.002732 310.17236 363.95172
365.0 0.002740 310.01910 382.60626
442.0 0.002262 309.86462 412.44345
503.0 0.001988 309.70883 453.54697
520.0 0.001923 309.55170 502.22296
612.0 0.001634 309.39340 550.93976
590.0 0.001695 309.23392 591.24976
675.0 0.001481 309.07300 620.80292
717.0 0.001395 308.91092 647.42871
742.0 0.001348 308.74780 679.69366
689.0 0.001451 308.58328 715.81049
711.0 0.001406 308.41751 740.45679
699.0 0.001431 308.25046 735.78668
655.0 0.001527 308.08231 698.26959
705.0 0.001418 307.91287 642.58905
648.0 0.001543 307.74213 586.31439
538.0 0.001859 307.57034 537.47583
473.0 0.002114 307.39731 494.95462
432.0 0.002315 307.22302 455.32065
451.0 0.002217 307.04776 418.61661
397.0 0.002519 306.87112 387.23361
353.0 0.002833 306.69339 363.19376
367.0 0.002725 306.51447 345.84970
335.0 0.002985 306.33435 334.73077
328.0 0.003049 306.15314 328.11536
346.0 0.002890 305.97070 324.35052
352.0 0.002841 305.78729 322.30353
328.0 0.003049 305.60263 320.87546
330.0 0.003030 305.41690 319.89584
314.0 0.003185 305.23013 319.19955
312.0 0.003205 305.04227 318.71768
336.0 0.002976 304.85315 318.42236
300.0 0.003333 304.66306 318.30536
340.0 0.002941 304.47202 318.37079
344.0 0.002907 304.27982 318.63370
356.0 0.002809 304.08661 319.12448
322.0 0.003106 303.89240 319.89792
342.0 0.002924 303.69717 321.06659
364.0 0.002747 303.50101 322.88235
317.0 0.003155 303.30383 325.93240
341.0 0.002933 303.10559 331.50577
326.0 0.003067 302.90637 342.11740
350.0 0.002857 302.70633 361.94278
441.0 0.002268 302.50540 396.56241
464.0 0.002155 302.30353 451.34900
594.0 0.001684 302.10074 528.25861
666.0 0.001502 301.89694 621.86255
711.0 0.001406 301.69244 716.84875
772.0 0.001295 301.48694 790.37701
803.0 0.001245 301.28082 821.52118
842.0 0.001188 301.07358 808.01306
789.0 0.001267 300.86569 761.62524
684.0 0.001462 300.65692 702.64282
635.0 0.001575 300.44754 644.03992
534.0 0.001873 300.23737 588.18909
492.0 0.002033 300.02634 533.32959
506.0 0.001976 299.81467 479.75247
448.0 0.002232 299.60226 431.08426
352.0 0.002841 299.38925 391.17773
370.0 0.002703 299.17557 361.69461
317.0 0.003155 298.96115 342.01431
320.0 0.003125 298.74603 330.05130
317.0 0.003155 298.53030 323.30157
317.0 0.003155 298.31412 319.66068
306.0 0.003268 298.09729 317.72797
284.0 0.00352 297.87985 316.73157
311.0 0.003215 297.66183 316.30905
289.0 0.003460 297.44345 316.31476
324.0 0.003086 297.22452 316.70792
321.0 0.003115 297.00516 317.36298
324.0 0.003086 296.78522 318.61462
351.0 0.002849 296.56482 320.42920
311.0 0.003215 296.34402 323.03662
324.0 0.003086 296.12289 326.96112
324.0 0.003086 295.90131 333.37894
356.0 0.002809 295.67938 344.90918
365.0 0.002740 295.45715 367.18002
415.0 0.002410 295.23447 408.72089
482.0 0.002075 295.01169 481.01987
614.0 0.001629 294.78845 594.63165
839.0 0.001192 294.56497 752.08795
979.0 0.001021 294.34134 940.12323
1148.0 0.000871 294.11740 1124.86609
1256.0 0.000796 293.89334 1257.50061
1228.0 0.000814 293.66910 1297.25635
1326.0 0.000754 293.44485 1243.46875
1304.0 0.000767 293.22025 1136.87317
1068.0 0.000936 292.99548 1020.94434
828.0 0.001208 292.77084 914.59698
734.0 0.001362 292.54614 814.23022
711.0 0.001406 292.32120 711.95258
694.0 0.001441 292.09644 610.29663
538.0 0.001859 291.87149 518.70624
429.0 0.002331 291.64679 444.74646
357.0 0.002801 291.42209 391.08588
306.0 0.003268 291.19733 355.89572
312.0 0.003205 290.97266 334.67197
284.0 0.00352 290.74826 322.45285
327.0 0.003058 290.52396 315.33197
314.0 0.003185 290.29962 310.84872
322.0 0.003106 290.07571 307.69818
275.0 0.00364 289.85187 305.26523
295.0 0.003390 289.62833 303.27213
271.0 0.00369 289.40494 301.58615
322.0 0.003106 289.18192 300.13223
322.0 0.003106 288.95920 298.86136
303.0 0.003300 288.73682 297.82886
313.0 0.003195 288.51468 296.83109
281.0 0.00356 288.29291 295.93307
299.0 0.003344 288.07159 295.11874
285.0 0.00351 287.85062 294.37500
310.0 0.003226 287.63004 293.57089
291.0 0.003436 287.41000 292.97897
273.0 0.00366 287.19040 292.21457
274.0 0.00365 286.97137 291.67664
316.0 0.003165 286.75284 291.17172
293.0 0.003413 286.53476 290.63708
285.0 0.00351 286.31729 290.18854
281.0 0.00356 286.10043 289.70605
277.0 0.00361 285.88412 289.30261
278.0 0.00360 285.66852 288.91693
308.0 0.003247 285.45352 288.54758
294.0 0.003401 285.23917 288.19254
293.0 0.003413 285.02551 287.85083
291.0 0.003436 284.81268 287.55154
309.0 0.003236 284.60043 287.23499
284.0 0.00352 284.38910 286.92801
300.0 0.003333 284.17834 286.63052
280.0 0.00357 283.96875 286.34222
277.0 0.00361 283.75958 286.06256
302.0 0.003311 283.55154 285.80261
302.0 0.003311 283.34418 285.53891
336.0 0.002976 283.13779 285.28271
296.0 0.003378 282.93234 285.03381
278.0 0.00360 282.72769 284.79196
293.0 0.003413 282.52408 284.55713
274.0 0.00365 282.32144 284.32910
244.0 0.00410 282.11987 284.10815
299.0 0.003344 281.91913 283.89435
257.0 0.00389 281.71970 283.68802
283.0 0.00353 281.52094 283.48895
274.0 0.00365 281.32349 283.29773
285.0 0.00351 281.12698 283.11508
267.0 0.00375 280.93167 282.94131
300.0 0.003333 280.73761 282.77728
275.0 0.00364 280.54446 282.62372
285.0 0.00351 280.35260 282.36072
312.0 0.003205 280.16193 281.69794
238.0 0.00420 279.97241 281.60428
282.0 0.00355 279.78412 281.52698
262.0 0.00382 279.59702 281.46848
302.0 0.003311 279.41129 281.38605
266.0 0.00376 279.22672 281.17288
260.0 0.00385 279.04340 281.20392
297.0 0.003367 278.86157 281.27515
258.0 0.00388 278.68082 281.39648
289.0 0.003460 278.50159 281.58447
269.0 0.00372 278.32370 281.86728
284.0 0.00352 278.14716 282.30481
298.0 0.003356 277.97195 283.03229
281.0 0.00356 277.79819 284.34659
286.0 0.003497 277.62573 286.83591
291.0 0.003436 277.45486 291.50049
297.0 0.003367 277.28543 299.72183
313.0 0.003195 277.11743 312.90451
321.0 0.003115 276.95084 331.71747
335.0 0.002985 276.78589 355.15121
361.0 0.002770 276.62222 379.88333
421.0 0.002375 276.46021 400.46167
418.0 0.002392 276.29977 411.43011
435.0 0.002299 276.14075 411.62741
428.0 0.002336 275.98334 405.73801
429.0 0.002331 275.82748 399.58228
418.0 0.002392 275.67334 395.54391
340.0 0.002941 275.52066 391.75699
403.0 0.002481 275.36960 384.83572
382.0 0.002618 275.22012 372.02664
380.0 0.002632 275.07236 355.91125
389.0 0.002571 274.92621 340.13837
333.0 0.003003 274.78177 327.26669
318.0 0.003145 274.63889 318.06750
298.0 0.003356 274.49771 312.29077
298.0 0.003356 274.35822 309.09171
297.0 0.003367 274.22046 308.68353
343.0 0.002915 274.08438 311.03000
299.0 0.003344 273.94992 315.37146
309.0 0.003236 273.81732 319.97214
299.0 0.003344 273.68637 322.43149
288.0 0.003472 273.55719 321.12570
286.0 0.003497 273.42969 316.71793
314.0 0.003185 273.30396 311.20541
312.0 0.003205 273.18002 306.09650
291.0 0.003436 273.05774 301.74927
303.0 0.003300 272.93741 297.65182
281.0 0.00356 272.81879 293.34015
281.0 0.00356 272.70206 288.97662
296.0 0.003378 272.58688 284.99924
285.0 0.00351 272.47363 281.74118
274.0 0.00365 272.36215 279.33353
269.0 0.00372 272.25244 277.71313
282.0 0.00355 272.14462 276.69989
276.0 0.00362 272.03857 276.08902
272.0 0.00368 271.93430 275.71619
278.0 0.00360 271.83188 275.47617
291.0 0.003436 271.73132 275.31183
259.0 0.00386 271.63254 275.19598
265.0 0.00377 271.53577 275.11679
245.0 0.00408 271.44052 275.06909
273.0 0.00366 271.34726 275.05090
240.0 0.00417 271.25577 275.06152
272.0 0.00368 271.16626 275.10123
245.0 0.00408 271.07852 275.17105
271.0 0.00369 270.99249 275.27344
302.0 0.003311 270.90851 275.41058
264.0 0.00379 270.82626 275.58618
264.0 0.00379 270.74579 275.80524
257.0 0.00389 270.66730 276.07355
287.0 0.003484 270.59048 276.39838
292.0 0.003425 270.51572 276.78903
264.0 0.00379 270.44260 277.25754
305.0 0.003279 270.37137 277.81873
238.0 0.00420 270.30191 278.49170
281.0 0.00356 270.23438 279.30136
291.0 0.003436 270.16858 280.27988
322.0 0.003106 270.10468 281.47171
285.0 0.00351 270.04257 282.94333
294.0 0.003401 269.98227 284.80658
270.0 0.00370 269.92371 287.28973
268.0 0.00373 269.86719 290.90381
318.0 0.003145 269.81219 296.79694
316.0 0.003165 269.75909 307.34088
303.0 0.003300 269.70782 326.79489
356.0 0.002809 269.65833 361.42975
415.0 0.002410 269.61063 418.71887
501.0 0.001996 269.56470 503.66852
596.0 0.001678 269.52039 614.58368
685.0 0.001460 269.47784 738.82452
708.0 0.001412 269.43735 851.27826
761.0 0.001314 269.39835 919.00244
828.0 0.001208 269.36121 920.77698
885.0 0.001130 269.32578 868.47070
928.0 0.001078 269.29196 794.13080
778.0 0.001285 269.25983 723.07660
625.0 0.001600 269.22955 663.23364
541.0 0.001848 269.20093 608.07056
488.0 0.002049 269.17395 549.29327
508.0 0.001969 269.14880 487.62613
485.0 0.002062 269.12512 429.41751
416.0 0.002404 269.10315 380.34088
339.0 0.002950 269.08276 343.17682
307.0 0.003257 269.06409 317.73273
304.0 0.003289 269.04718 301.85248
302.0 0.003311 269.03174 292.48715
285.0 0.00351 269.01776 287.04688
268.0 0.00373 269.00558 283.73816
324.0 0.003086 268.99481 281.53281
293.0 0.003413 268.98572 280.13831
308.0 0.003247 268.97821 278.87299
290.0 0.003448 268.97214 277.83939
280.0 0.00357 268.96768 276.97751
307.0 0.003257 268.96466 276.24976
261.0 0.00383 268.96317 275.63107
283.0 0.00353 268.96313 275.18826
307.0 0.003257 268.96466 274.73605
258.0 0.00388 268.96747 274.35983
285.0 0.00351 268.97186 274.02417
251.0 0.00398 268.97766 273.73425
278.0 0.00360 268.98486 273.48425
252.0 0.00397 268.99350 273.26895
279.0 0.00358 269.00339 273.08441
267.0 0.00375 269.01480 272.93222
247.0 0.00405 269.02747 272.80008
256.0 0.00391 269.04144 272.69055
249.0 0.00402 269.05679 272.60312
290.0 0.003448 269.07352 272.54831
254.0 0.00394 269.09140 272.49805
297.0 0.003367 269.11053 272.46545
269.0 0.00372 269.13095 272.45020
252.0 0.00397 269.15259 272.45184
292.0 0.003425 269.17554 272.47137
274.0 0.00365 269.19962 272.51343
268.0 0.00373 269.22488 272.56860
304.0 0.003289 269.25131 272.64325
297.0 0.003367 269.27890 272.73892
269.0 0.00372 269.30750 272.85764
255.0 0.00392 269.33740 273.00253
268.0 0.00373 269.36816 273.17728
261.0 0.00383 269.40018 273.38638
262.0 0.00382 269.43323 273.63675
286.0 0.003497 269.46725 273.93796
274.0 0.00365 269.50232 274.30515
282.0 0.00355 269.53830 274.76828
273.0 0.00366 269.57529 275.38998
254.0 0.00394 269.61334 276.50339
279.0 0.00358 269.65216 278.55612
289.0 0.003460 269.69202 281.19775
287.0 0.003484 269.73267 285.77518
308.0 0.003247 269.77423 293.30862
311.0 0.003215 269.81674 304.66837
309.0 0.003236 269.85992 320.06992
312.0 0.003205 269.90405 338.37885
340.0 0.002941 269.94891 355.92276
356.0 0.002809 269.99466 369.40625
356.0 0.002809 270.04102 374.29608
347.0 0.002882 270.08820 370.28909
362.0 0.002762 270.13599 361.32095
340.0 0.002941 270.18457 351.96252
326.0 0.003067 270.23373 344.69043
336.0 0.002976 270.28357 340.19565
314.0 0.003185 270.33411 337.41788
361.0 0.002770 270.38513 336.16937
332.0 0.003012 270.43677 337.76843
382.0 0.002618 270.48911 344.29523
361.0 0.002770 270.54169 357.95334
401.0 0.002494 270.59503 380.82532
428.0 0.002336 270.64883 414.48801
518.0 0.001931 270.70313 458.35922
528.0 0.001894 270.75787 507.37772
560.0 0.001786 270.81290 551.02887
590.0 0.001695 270.86853 575.59906
589.0 0.001698 270.92447 572.79248
627.0 0.001595 270.98080 548.27167
635.0 0.001575 271.03751 515.77521
550.0 0.001818 271.09445 486.03415
487.0 0.002053 271.15179 462.46454
440.0 0.002273 271.20935 442.12497
419.0 0.002387 271.26718 419.99127
390.0 0.002564 271.32532 394.92087
396.0 0.002525 271.38361 369.31583
355.0 0.002817 271.44208 346.42148
347.0 0.002882 271.50073 328.56873
357.0 0.002801 271.55963 316.63199
364.0 0.002747 271.61859 309.97559
310.0 0.003226 271.67776 307.27271
274.0 0.00365 271.73694 307.03000
322.0 0.003106 271.79614 307.95236
344.0 0.002907 271.85547 308.86517
346.0 0.002890 271.91476 308.82010
350.0 0.002857 271.97424 307.58557
322.0 0.003106 272.03354 305.77026
315.0 0.003175 272.09280 304.17853
338.0 0.002959 272.15201 303.28201
337.0 0.002967 272.21115 303.12506
359.0 0.002786 272.27026 303.49829
299.0 0.003344 272.32925 304.31387
316.0 0.003165 272.38809 305.89075
344.0 0.002907 272.44669 309.01511
342.0 0.002924 272.50525 315.17111
344.0 0.002907 272.56348 327.13745
349.0 0.002865 272.62149 349.76523
416.0 0.002404 272.67938 390.37381
417.0 0.002398 272.73694 457.79248
520.0 0.001923 272.79434 559.26721
757.0 0.001321 272.85135 695.41248
882.0 0.001134 272.90802 855.21753
1032.0 0.000969 272.96439 1013.08295
1113.0 0.000898 273.02045 1130.58813
1142.0 0.000876 273.07608 1172.04932
1247.0 0.000802 273.13123 1134.34277
1399.0 0.000715 273.18610 1051.40637
1302.0 0.000768 273.24051 962.70221
982.0 0.001018 273.29449 889.85132
832.0 0.001202 273.34799 832.24402
669.0 0.001495 273.40109 774.70978
711.0 0.001406 273.45358 705.00140
721.0 0.001387 273.50562 624.67072
692.0 0.001445 273.55707 544.48169
508.0 0.001969 273.60803 474.58472
418.0 0.002392 273.65829 420.40128
349.0 0.002865 273.70801 382.12888
330.0 0.003030 273.75739 356.29037
305.0 0.003279 273.80576 338.30338
313.0 0.003195 273.85376 325.02426
319.0 0.003135 273.90106 314.88141
322.0 0.003106 273.94754 307.19446
294.0 0.003401 273.99344 301.37680
306.0 0.003268 274.03864 297.28122
266.0 0.00376 274.08313 294.60611
301.0 0.003322 274.12689 293.15778
304.0 0.003289 274.16989 292.85721
302.0 0.003311 274.21228 294.01657
309.0 0.003236 274.25366 297.23630
278.0 0.00360 274.29446 303.42865
293.0 0.003413 274.33435 314.29184
351.0 0.002849 274.37347 330.41806
382.0 0.002618 274.41168 351.41504
384.0 0.002604 274.44919 375.01361
392.0 0.002551 274.48578 396.78665
399.0 0.002506 274.52151 410.68661
442.0 0.002262 274.55634 412.46426
413.0 0.002421 274.59021 403.23135
426.0 0.002347 274.62323 388.70847
393.0 0.002545 274.65533 374.20709
379.0 0.002639 274.68655 362.20367
338.0 0.002959 274.71680 352.20490
344.0 0.002907 274.74619 342.18527
327.0 0.003058 274.77454 331.04745
326.0 0.003067 274.80179 319.48492
327.0 0.003058 274.82828 308.76514
340.0 0.002941 274.85361 299.83841
277.0 0.00361 274.87799 293.11084
275.0 0.00364 274.90146 288.52289
297.0 0.003367 274.92377 285.63843
299.0 0.003344 274.94519 283.93484
297.0 0.003367 274.96539 282.96024
268.0 0.00373 274.98468 282.40277
256.0 0.00391 275.00296 282.07736
313.0 0.003195 275.02002 281.90240
262.0 0.00382 275.03622 281.82999
283.0 0.00353 275.05115 281.84363
294.0 0.003401 275.06516 281.93814
319.0 0.003135 275.07800 282.11600
286.0 0.003497 275.08966 282.38501
264.0 0.00379 275.10031 282.76004
272.0 0.00368 275.10989 283.26962
279.0 0.00358 275.11832 283.97217
289.0 0.003460 275.12561 284.99252
298.0 0.003356 275.13174 286.59549
294.0 0.003401 275.13693 289.30215
275.0 0.00364 275.14075 293.82611
302.0 0.003311 275.14362 301.40607
284.0 0.00352 275.14523 314.58090
323.0 0.003096 275.14566 334.25140
348.0 0.002874 275.14499 360.82983
393.0 0.002545 275.14325 392.82672
391.0 0.002558 275.14023 426.21625
453.0 0.002208 275.13611 454.20587
432.0 0.002315 275.13092 470.65622
445.0 0.002247 275.12451 473.73044
466.0 0.002146 275.11697 467.58099
458.0 0.002183 275.10818 458.21268
451.0 0.002217 275.09839 451.33878
424.0 0.002358 275.08710 450.39505
453.0 0.002208 275.07504 455.26328
421.0 0.002375 275.06158 463.22827
442.0 0.002262 275.04706 470.44119
491.0 0.002037 275.03128 471.81622
480.0 0.002083 275.01443 462.67017
460.0 0.002174 274.99643 443.31174
420.0 0.002381 274.97714 419.15878
423.0 0.002364 274.95688 396.26236
382.0 0.002618 274.93536 377.86917
351.0 0.002849 274.91263 363.93982
305.0 0.003279 274.88879 352.14270
342.0 0.002924 274.86401 340.17627
347.0 0.002882 274.83771 327.64185
323.0 0.003096 274.81055 315.54016
286.0 0.003497 274.78210 304.94965
269.0 0.00372 274.75272 296.52206
283.0 0.00353 274.72189 290.38947
261.0 0.00383 274.69022 286.26236
259.0 0.00386 274.65735 283.52344
285.0 0.00351 274.62338 281.88931
237.0 0.00422 274.58823 280.84360
269.0 0.00372 274.55203 280.12738
266.0 0.00376 274.51471 279.59537
294.0 0.003401 274.47629 279.17310
252.0 0.00397 274.43683 278.82352
248.0 0.00403 274.39624 278.48550
291.0 0.003436 274.35455 278.23328
297.0 0.003367 274.31192 278.01611
307.0 0.003257 274.26807 277.82828
266.0 0.00376 274.22324 277.66602
271.0 0.00369 274.17740 277.52603
269.0 0.00372 274.13052 277.40607
254.0 0.00394 274.08258 277.30389
275.0 0.00364 274.03372 277.21808
282.0 0.00355 273.98373 277.14767
227.0 0.00441 273.93286 277.09213
276.0 0.00362 273.88092 277.05078
249.0 0.00402 273.82791 277.02338
292.0 0.003425 273.77405 277.01019
302.0 0.003311 273.71924 277.01147
270.0 0.00370 273.66345 277.02792
278.0 0.00360 273.60678 277.06030
260.0 0.00385 273.54913 277.10977
249.0 0.00402 273.49063 277.17776
277.0 0.00361 273.43100 277.26636
256.0 0.00391 273.37073 277.37747
281.0 0.00356 273.30945 277.51434
281.0 0.00356 273.24741 277.68027
273.0 0.00366 273.18436 277.87939
289.0 0.003460 273.12067 278.11691
293.0 0.003413 273.05597 278.39948
259.0 0.00386 272.99054 278.73453
262.0 0.00382 272.92419 279.13235
264.0 0.00379 272.85718 279.60513
253.0 0.00395 272.78937 280.16876
284.0 0.00352 272.72073 280.84360
276.0 0.00362 272.65137 281.65732
281.0 0.00356 272.58130 282.51550
305.0 0.003279 272.51047 283.75870
292.0 0.003425 272.43890 285.37332
298.0 0.003356 272.36664 287.57599
276.0 0.00362 272.29376 290.98633
296.0 0.003378 272.22012 296.61301
300.0 0.003333 272.14594 306.25833
288.0 0.003472 272.07111 322.88138
335.0 0.002985 271.99561 350.26846
366.0 0.002732 271.91949 391.61578
421.0 0.002375 271.84277 448.84866
516.0 0.001938 271.76547 520.17645
594.0 0.001684 271.68759 597.86981
620.0 0.001613 271.60931 668.25604
638.0 0.001567 271.53030 714.68152
683.0 0.001464 271.45099 725.78882
730.0 0.001370 271.37103 703.39276
723.0 0.001383 271.29071 662.26129
606.0 0.001650 271.20984 619.18451
561.0 0.001783 271.12845 584.10089
498.0 0.002008 271.04675 557.85974
493.0 0.002028 270.96457 535.02448
514.0 0.001946 270.88208 509.32657
489.0 0.002045 270.79913 478.04071
441.0 0.002268 270.71591 442.58649
449.0 0.002227 270.63229 406.85196
402.0 0.002488 270.54825 375.09265
366.0 0.002732 270.46405 349.98322
367.0 0.002725 270.37949 331.98648
308.0 0.003247 270.29468 319.77676
298.0 0.003356 270.20947 311.16190
304.0 0.003289 270.12424 304.22598
310.0 0.003226 270.03870 298.06506
299.0 0.003344 269.95294 292.56042
267.0 0.00375 269.86697 287.84424
268.0 0.00373 269.78088 284.03217
312.0 0.003205 269.69464 281.13019
276.0 0.00362 269.60815 279.02423
270.0 0.00370 269.52176 277.53253
283.0 0.00353 269.43506 276.46646
263.0 0.00380 269.34833 275.67438
298.0 0.003356 269.26163 275.05319
232.0 0.00431 269.17477 274.54108
309.0 0.003236 269.08804 274.10336
270.0 0.00370 269.00119 273.72073
250.0 0.00400 268.91428 273.38260
267.0 0.00375 268.82758 273.08163
240.0 0.00417 268.74072 272.81308
282.0 0.00355 268.65405 272.57281
231.0 0.00433 268.56750 272.35818
293.0 0.003413 268.48087 272.16669
258.0 0.00388 268.39453 271.99710
268.0 0.00373 268.30829 272.21069
271.0 0.00369 268.22211 272.09052
265.0 0.00377 268.13620 271.98981
259.0 0.00386 268.05051 271.90866
235.0 0.00426 267.96487 271.84702
278.0 0.00360 267.87958 271.80582
259.0 0.00386 267.79449 271.78592
252.0 0.00397 267.70975 271.96088
322.0 0.003106 267.62518 271.99368
252.0 0.00397 267.54089 272.05411
274.0 0.00365 267.45700 272.14554
282.0 0.00355 267.37332 272.27271
274.0 0.00365 267.29013 272.44061
273.0 0.00366 267.20718 272.65668
309.0 0.003236 267.12466 272.94244
276.0 0.00362 267.04254 273.28424
263.0 0.00380 266.96085 273.70993
277.0 0.00361 266.87967 274.24216
263.0 0.00380 266.79880 274.91742
282.0 0.00355 266.71841 275.80191
260.0 0.00385 266.63846 277.03265
311.0 0.003215 266.55905 278.89447
302.0 0.003311 266.48019 281.95386
272.0 0.00368 266.40189 287.23663
319.0 0.003135 266.32397 296.36273
316.0 0.003165 266.24680 311.48517
365.0 0.002740 266.17010 334.81866
389.0 0.002571 266.09399 367.70709
431.0 0.002320 266.01855 409.40283
470.0 0.002128 265.94366 455.98291
513.0 0.001949 265.86948 499.86517
531.0 0.001883 265.79593 530.54559
504.0 0.001984 265.72296 539.02405
547.0 0.001828 265.65079 525.16748
535.0 0.001869 265.57922 498.19403
547.0 0.001828 265.50842 468.87103
466.0 0.002146 265.43835 443.89560
434.0 0.002304 265.36893 424.51648
353.0 0.002833 265.30032 408.03156
396.0 0.002525 265.23254 390.04453
416.0 0.002404 265.16544 369.53140
372.0 0.002688 265.09921 347.99506
362.0 0.002762 265.03372 327.82932
308.0 0.003247 264.96906 310.79056
300.0 0.003333 264.90527 297.65302
273.0 0.00366 264.84229 288.38083
299.0 0.003344 264.78012 282.38931
326.0 0.003067 264.71890 278.67999
291.0 0.003436 264.65857 276.49417
298.0 0.003356 264.59903 275.19205
301.0 0.003322 264.54037 274.39355
314.0 0.003185 264.48273 273.89041
268.0 0.00373 264.42606 273.58038
291.0 0.003436 264.37015 273.41660
263.0 0.00380 264.31537 273.36670
290.0 0.003448 264.26138 273.44757
276.0 0.00362 264.20840 273.64551
274.0 0.00365 264.15649 273.96503
312.0 0.003205 264.10544 274.41559
252.0 0.00397 264.05542 275.01260
262.0 0.00382 264.00647 275.77908
307.0 0.003257 263.95840 276.74948
265.0 0.00377 263.91159 277.97986
305.0 0.003279 263.86554 279.57089
289.0 0.003460 263.82068 281.72272
327.0 0.003058 263.77682 284.85059
306.0 0.003268 263.73392 289.79114
305.0 0.003279 263.69226 298.10275
317.0 0.003155 263.65149 312.36807
349.0 0.002865 263.61194 336.40369
341.0 0.002933 263.57346 374.13025
441.0 0.002268 263.53592 429.15228
513.0 0.001949 263.49960 501.92151
623.0 0.001605 263.46432 587.99426
650.0 0.001538 263.43008 676.53577
708.0 0.001412 263.39719 750.33423
749.0 0.001335 263.36523 790.14996
829.0 0.001206 263.33438 786.78357
781.0 0.001280 263.30457 750.54620
754.0 0.001326 263.27603 701.87506
689.0 0.001451 263.24863 657.20013
559.0 0.001789 263.22238 623.11749
515.0 0.001942 263.19714 596.31982
499.0 0.002004 263.17313 567.63513
543.0 0.001842 263.15024 530.40668
536.0 0.001866 263.12848 486.01938
470.0 0.002128 263.10788 440.51968
365.0 0.002740 263.08847 399.44208
375.0 0.002667 263.07007 365.92090
314.0 0.003185 263.05301 340.54700
293.0 0.003413 263.03693 322.03885
306.0 0.003268 263.02213 308.54596
305.0 0.003279 263.00845 298.56808
311.0 0.003215 262.99591 291.09006
286.0 0.003497 262.98456 285.45340
267.0 0.00375 262.97430 281.22931
313.0 0.003195 262.96527 278.10654
285.0 0.00351 262.95740 275.81796
295.0 0.003390 262.95050 274.13544
279.0 0.00358 262.94492 272.87875
238.0 0.00420 262.94049 271.91534
284.0 0.00352 262.93713 271.15393
280.0 0.00357 262.93491 270.53400
264.0 0.00379 262.93387 270.01379
266.0 0.00376 262.93408 269.56552
256.0 0.00391 262.93515 269.17410
247.0 0.00405 262.93759 268.83273
270.0 0.00370 262.94119 268.35172
261.0 0.00383 262.94568 268.10562
263.0 0.00380 262.95135 267.90021
280.0 0.00357 262.95816 267.73209
256.0 0.00391 262.96616 267.59775
278.0 0.00360 262.97519 267.49377
264.0 0.00379 262.98532 267.41718
256.0 0.00391 262.99652 267.29626
315.0 0.003175 263.00888 267.27167
286.0 0.003497 263.02237 267.27072
257.0 0.00389 263.03680 267.29337
260.0 0.00385 263.05240 267.34009
264.0 0.00379 263.06894 267.41202
300.0 0.003333 263.08652 267.51050
279.0 0.00358 263.10522 267.63757
289.0 0.003460 263.12506 267.79590
284.0 0.00352 263.14581 267.98898
277.0 0.00361 263.16760 268.39511
282.0 0.00355 263.19037 268.67651
279.0 0.00358 263.21411 269.00992
281.0 0.00356 263.23889 269.40460
264.0 0.00379 263.26465 269.87189
308.0 0.003247 263.29138 270.42752
258.0 0.00388 263.31909 271.09897
270.0 0.00370 263.34778 271.97525
305.0 0.003279 263.37735 272.99399
306.0 0.003268 263.40784 274.33850
267.0 0.00375 263.43933 276.24747
305.0 0.003279 263.47168 279.18411
306.0 0.003268 263.50488 283.97577
269.0 0.00372 263.53900 291.95047
296.0 0.003378 263.57404 304.95831
321.0 0.003115 263.60999 325.11697
314.0 0.003185 263.64664 354.22339
400.0 0.002500 263.68417 392.81973
419.0 0.002387 263.72250 439.21072
463.0 0.002160 263.76178 488.62653
508.0 0.001969 263.80173 532.99719
511.0 0.001957 263.84244 562.92181
517.0 0.001934 263.88400 572.63464
592.0 0.001689 263.92624 563.20038
561.0 0.001783 263.96921 540.48212
517.0 0.001934 264.01306 512.12042
478.0 0.002092 264.05750 484.61978
423.0 0.002364 264.10269 460.84143
453.0 0.002208 264.14844 439.44446
410.0 0.002439 264.19495 418.73438
421.0 0.002375 264.24222 396.94846
397.0 0.002519 264.28992 374.15787
345.0 0.002899 264.33829 351.56000
334.0 0.002994 264.38733 330.85773
327.0 0.003058 264.43695 313.38492
310.0 0.003226 264.48718 299.66800
305.0 0.003279 264.53790 289.81711
273.0 0.00366 264.58911 283.08762
268.0 0.00373 264.64093 278.70026
285.0 0.00351 264.69318 275.91309
299.0 0.003344 264.74597 274.14063
260.0 0.00385 264.79919 272.96521
272.0 0.00368 264.85284 272.16321
292.0 0.003425 264.90704 271.57935
276.0 0.00362 264.96164 271.13708
259.0 0.00386 265.01657 270.79572
252.0 0.00397 265.07187 270.53293
293.0 0.003413 265.12753 270.36420
272.0 0.00368 265.18359 270.44092
264.0 0.00379 265.23993 270.35452
281.0 0.00356 265.29669 270.31390
299.0 0.003344 265.35358 270.31601
279.0 0.00358 265.41074 270.35974
268.0 0.00373 265.46826 270.44479
240.0 0.00417 265.52594 270.57220
275.0 0.00364 265.58386 270.75580
283.0 0.00353 265.64203 271.06113
270.0 0.00370 265.70035 271.33859
268.0 0.00373 265.75882 271.67844
289.0 0.003460 265.81732 272.09128
288.0 0.003472 265.87610 272.59329
300.0 0.003333 265.93484 273.21082
293.0 0.003413 265.99371 273.99081
313.0 0.003195 266.05267 275.02701
257.0 0.00389 266.11160 276.50854
307.0 0.003257 266.17068 278.80179
272.0 0.00368 266.22964 282.56232
294.0 0.003401 266.28864 288.83466
289.0 0.003460 266.34750 299.05878
298.0 0.003356 266.40649 314.85788
333.0 0.003003 266.46518 337.51819
382.0 0.002618 266.52402 367.24463
399.0 0.002506 266.58264 402.38358
426.0 0.002347 266.64096 438.91367
437.0 0.002288 266.69922 470.34564
479.0 0.002088 266.75739 488.94553
488.0 0.002049 266.81525 489.93268
516.0 0.001938 266.87296 475.76709
460.0 0.002174 266.93033 454.13672
420.0 0.002381 266.98755 432.43112
361.0 0.002770 267.04446 414.81726
405.0 0.002469 267.10104 401.75043
379.0 0.002639 267.15726 390.69614
376.0 0.002660 267.21326 378.25375
351.0 0.002849 267.26883 362.95459
392.0 0.002551 267.32401 345.92761
297.0 0.003367 267.37885 329.21368
332.0 0.003012 267.43320 314.46674
299.0 0.003344 267.48706 302.57300
282.0 0.00355 267.54059 293.67551
278.0 0.00360 267.59366 287.40625
267.0 0.00375 267.64612 283.13809
298.0 0.003356 267.69812 280.33829
312.0 0.003205 267.74951 278.46960
289.0 0.003460 267.80051 277.25403
269.0 0.00372 267.85083 276.51169
255.0 0.00392 267.90054 276.00177
278.0 0.00360 267.94965 276.02130
270.0 0.00370 267.99814 276.34476
287.0 0.003484 268.04593 277.06628
278.0 0.00360 268.09314 278.16748
266.0 0.00376 268.13959 279.49463
273.0 0.00366 268.18530 280.88617
287.0 0.003484 268.23032 282.08878
289.0 0.003460 268.27463 282.77826
314.0 0.003185 268.31815 282.95847
282.0 0.00355 268.36093 282.70334
286.0 0.003497 268.40280 282.34689
300.0 0.003333 268.44394 282.15601
247.0 0.00405 268.48422 282.27798
314.0 0.003185 268.52365 282.76965
298.0 0.003356 268.56226 283.64337
278.0 0.00360 268.59979 284.99850
273.0 0.00366 268.63669 287.26599
286.0 0.003497 268.67252 291.35794
293.0 0.003413 268.70743 298.18356
260.0 0.00385 268.74133 309.78189
340.0 0.002941 268.77435 328.29401
343.0 0.002915 268.80634 355.65698
372.0 0.002688 268.83737 392.85352
429.0 0.002331 268.86737 438.37473
508.0 0.001969 268.89627 488.17395
500.0 0.002000 268.92422 534.80048
512.0 0.001953 268.95099 568.11890
580.0 0.001724 268.97678 579.42450
553.0 0.001808 269.00137 567.38763
547.0 0.001828 269.02496 539.75507
534.0 0.001873 269.04733 507.40161
472.0 0.002119 269.06851 478.28519
434.0 0.002304 269.08868 455.82397
417.0 0.002398 269.10757 438.89401
430.0 0.002326 269.12537 423.41449
392.0 0.002551 269.14191 405.53006
409.0 0.002445 269.15729 384.43500
357.0 0.002801 269.17142 361.99869
378.0 0.002646 269.18436 340.66425
299.0 0.003344 269.19601 322.24567
300.0 0.003333 269.20630 307.66467
280.0 0.00357 269.21542 297.02618
287.0 0.003484 269.22342 289.73947
288.0 0.003472 269.22986 285.02188
292.0 0.003425 269.23508 282.05646
280.0 0.00357 269.23895 280.18872
256.0 0.00391 269.24173 278.97034
293.0 0.003413 269.24292 278.13101
287.0 0.003484 269.24277 277.53302
273.0 0.00366 269.24127 277.07855
277.0 0.00361 269.23846 276.74319
266.0 0.00376 269.23422 276.51453
287.0 0.003484 269.22864 276.39572
272.0 0.00368 269.22165 276.40381
266.0 0.00376 269.21323 276.39429
265.0 0.00377 269.20340 276.74783
271.0 0.00369 269.19220 277.31610
279.0 0.00358 269.17950 278.11298
265.0 0.00377 269.16544 279.13159
285.0 0.00351 269.14990 280.34894
271.0 0.00369 269.13284 281.73953
268.0 0.00373 269.11444 283.28268
287.0 0.003484 269.09439 285.28772
290.0 0.003448 269.07300 288.07202
287.0 0.003484 269.05017 292.10806
304.0 0.003289 269.02576 297.73575
340.0 0.002941 268.99991 304.96494
314.0 0.003185 268.97253 313.31494
272.0 0.00368 268.94366 321.75562
336.0 0.002976 268.91330 328.91287
319.0 0.003135 268.88147 333.44424
337.0 0.002967 268.84821 334.42920
305.0 0.003279 268.81320 331.89777
319.0 0.003135 268.77676 327.08990
318.0 0.003145 268.73892 321.72656
312.0 0.003205 268.69940 316.98538
309.0 0.003236 268.65842 313.37326
306.0 0.003268 268.61588 310.75809
300.0 0.003333 268.57184 308.66949
292.0 0.003425 268.52628 306.63672
312.0 0.003205 268.47919 304.63644
328.0 0.003049 268.43060 303.24930
304.0 0.003289 268.38031 303.49319
301.0 0.003322 268.32861 306.76575
290.0 0.003448 268.27542 314.67242
337.0 0.002967 268.22076 329.36728
325.0 0.003077 268.16437 353.00549
375.0 0.002667 268.10651 387.19427
434.0 0.002304 268.04709 432.11517
502.0 0.001992 267.98627 485.67529
511.0 0.001957 267.92383 542.90594
575.0 0.001739 267.85989 595.81787
646.0 0.001548 267.79440 634.96722
643.0 0.001555 267.72736 654.11469
715.0 0.001399 267.65897 655.14520
691.0 0.001447 267.58887 646.31653
715.0 0.001399 267.51730 635.34021
639.0 0.001565 267.44427 624.75476
604.0 0.001656 267.36981 612.15521
610.0 0.001639 267.29379 593.28369
609.0 0.001642 267.21625 566.02313
587.0 0.001704 267.13727 531.67596
588.0 0.001701 267.05676 494.15256
476.0 0.002101 266.97482 458.50616
453.0 0.002208 266.89148 427.42496
412.0 0.002427 266.80655 401.33319
373.0 0.002681 266.72031 379.04617
376.0 0.002660 266.63242 359.42603
364.0 0.002747 266.54318 342.40137
344.0 0.002907 266.45251 328.45016
327.0 0.003058 266.36041 317.99387
289.0 0.003460 266.26694 311.36758
317.0 0.003155 266.17200 308.27914
307.0 0.003257 266.07581 308.06726
291.0 0.003436 265.97800 309.61862
295.0 0.003390 265.87894 311.46707
303.0 0.003300 265.77859 312.09277
283.0 0.00353 265.67664 310.55356
296.0 0.003378 265.57355 307.06403
326.0 0.003067 265.46906 302.63608
293.0 0.003413 265.36316 298.30356
287.0 0.003484 265.25607 294.69861
259.0 0.00386 265.14758 291.96680
274.0 0.00365 265.03784 289.82123
288.0 0.003472 264.92673 287.74319
278.0 0.00360 264.81454 285.34985
267.0 0.00375 264.70081 282.63223
314.0 0.003185 264.58609 279.82925
297.0 0.003367 264.47003 277.20468
253.0 0.00395 264.35266 274.94406
280.0 0.00357 264.23425 273.13757
295.0 0.003390 264.11462 271.78735
271.0 0.00369 263.99371 270.83426
249.0 0.00402 263.87158 270.19202
307.0 0.003257 263.74847 269.77579
269.0 0.00372 263.62408 269.52060
273.0 0.00366 263.49869 269.38739
294.0 0.003401 263.37213 269.36111
258.0 0.00388 263.24432 269.46826
268.0 0.00373 263.11566 269.75983
288.0 0.003472 262.98581 270.33649
244.0 0.00410 262.85498 271.35571
305.0 0.003279 262.72305 273.02548
297.0 0.003367 262.59006 275.57632
274.0 0.00365 262.45630 279.18805
287.0 0.003484 262.32135 283.96616
302.0 0.003311 262.18549 289.78299
280.0 0.00357 262.04871 296.24783
315.0 0.003175 261.91095 302.83231
329.0 0.003040 261.77228 308.79068
319.0 0.003135 261.63269 313.77460
362.0 0.002762 261.49225 318.33206
295.0 0.003390 261.35095 323.58829
364.0 0.002747 261.20874 330.60666
331.0 0.003021 261.06561 339.75705
341.0 0.002933 260.92178 350.68784
358.0 0.002793 260.77734 362.15549
357.0 0.002801 260.63190 372.03064
332.0 0.003012 260.48569 377.80994
361.0 0.002770 260.33881 378.19022
394.0 0.002538 260.19122 374.17361
360.0 0.002778 260.04288 368.65744
378.0 0.002646 259.89395 364.13907
374.0 0.002674 259.74432 362.05093
344.0 0.002907 259.59396 362.28726
337.0 0.002967 259.44312 363.41708
368.0 0.002717 259.29163 363.51050
346.0 0.002890 259.13953 361.48965
366.0 0.002732 258.98685 357.64532
394.0 0.002538 258.83365 353.43420
385.0 0.002597 258.67978 349.09738
333.0 0.003003 258.52554 344.30640
355.0 0.002817 258.37088 338.30945
342.0 0.002924 258.21564 330.84076
339.0 0.002950 258.06000 322.32938
332.0 0.003012 257.90390 314.01462
302.0 0.003311 257.74744 306.67160
305.0 0.003279 257.59048 301.01547
315.0 0.003175 257.43332 296.99063
319.0 0.003135 257.27563 294.14474
305.0 0.003279 257.11774 291.82184
313.0 0.003195 256.95956 289.48407
283.0 0.00353 256.80109 286.97614
308.0 0.003247 256.64227 284.07901
292.0 0.003425 256.48325 280.74197
263.0 0.00380 256.32413 277.18735
266.0 0.00376 256.16464 273.80475
272.0 0.00368 256.00497 270.91721
234.0 0.00427 255.84517 268.66730
258.0 0.00388 255.68521 267.07800
264.0 0.00379 255.52521 265.85641
245.0 0.00408 255.36507 264.81183
248.0 0.00403 255.20482 263.70825
276.0 0.00362 255.04453 262.54251
256.0 0.00391 254.88425 261.33728
258.0 0.00388 254.72392 260.17917
253.0 0.00395 254.56354 259.13794
263.0 0.00380 254.40326 258.27487
227.0 0.00441 254.24280 257.55515
263.0 0.00380 254.08261 256.97382
237.0 0.00422 253.92252 256.52542
252.0 0.00397 253.76244 256.16553
259.0 0.00386 253.60251 255.86673
277.0 0.00361 253.44275 255.60789
235.0 0.00426 253.28314 255.37589
243.0 0.00412 253.12375 255.16231
254.0 0.00394 252.96449 254.96254
259.0 0.00386 252.80545 254.77431
254.0 0.00394 252.64662 254.59615
268.0 0.00373 252.48808 254.42758
228.0 0.00439 252.32986 254.26816
268.0 0.00373 252.17195 254.12660
235.0 0.00426 252.01434 253.99110
273.0 0.00366 251.85701 253.85980
264.0 0.00379 251.69994 253.73801
260.0 0.00385 251.54341 253.62593
257.0 0.00389 251.38731 253.52313
224.0 0.00446 251.23146 253.42967
264.0 0.00379 251.07614 253.34544
231.0 0.00433 250.92119 253.27153
238.0 0.00420 250.76669 253.21552
257.0 0.00389 250.61287 253.16925
271.0 0.00369 250.45937 253.14127
265.0 0.00377 250.30638 253.13489
264.0 0.00379 250.15393 253.15440
250.0 0.00400 250.00206 253.22833
266.0 0.00376 249.85074 253.34810
258.0 0.00388 249.70004 253.50044
255.0 0.00392 249.54984 253.74072
268.0 0.00373 249.40034 254.12103
253.0 0.00395 249.25151 254.73888
260.0 0.00385 249.10332 255.73195
245.0 0.00408 248.95578 257.27762
267.0 0.00375 248.80887 259.58813
280.0 0.00357 248.66266 262.75854
268.0 0.00373 248.51714 267.01694
246.0 0.00407 248.37247 272.21756
297.0 0.003367 248.22842 278.08408
266.0 0.00376 248.08514 284.21811
300.0 0.003333 247.94269 289.89731
279.0 0.00358 247.80096 294.83539
301.0 0.003322 247.66011 299.42261
316.0 0.003165 247.51997 305.07602
304.0 0.003289 247.38063 313.50342
303.0 0.003300 247.24225 325.83490
361.0 0.002770 247.10461 342.15414
348.0 0.002874 246.96793 361.14563
341.0 0.002933 246.83208 379.99271
397.0 0.002519 246.69714 394.78537
404.0 0.002475 246.56305 401.76086
385.0 0.002597 246.42993 399.26627
391.0 0.002558 246.29771 388.65668
369.0 0.002710 246.16641 373.56439
352.0 0.002841 246.03604 357.93512
305.0 0.003279 245.90665 344.48865
330.0 0.003030 245.77826 334.21555
295.0 0.003390 245.65077 326.63330
282.0 0.00355 245.52435 320.11694
302.0 0.003311 245.39888 313.21146
316.0 0.003165 245.27434 305.23221
252.0 0.00397 245.15085 296.54587
297.0 0.003367 245.02844 287.90082
263.0 0.00380 244.90709 280.08060
268.0 0.00373 244.78670 273.52463
291.0 0.003436 244.66739 268.34250
252.0 0.00397 244.54910 264.45468
276.0 0.00362 244.43187 261.68719
264.0 0.00379 244.31581 259.99164
266.0 0.00376 244.20065 259.43292
245.0 0.00408 244.08669 260.14267
261.0 0.00383 243.97382 262.41949
254.0 0.00394 243.86208 266.63080
262.0 0.00382 243.75137 273.06918
264.0 0.00379 243.64171 281.84842
295.0 0.003390 243.53322 292.69351
308.0 0.003247 243.42584 304.78308
338.0 0.002959 243.31961 316.63080
333.0 0.003003 243.21445 326.09634
351.0 0.002849 243.11043 330.88181
377.0 0.002653 243.00758 329.81955
323.0 0.003096 242.90579 323.86227
317.0 0.003155 242.80525 315.40674
303.0 0.003300 242.70576 306.80801
298.0 0.003356 242.60738 299.59601
302.0 0.003311 242.51013 294.30371
290.0 0.003448 242.41409 290.54581
291.0 0.003436 242.31926 287.29721
261.0 0.00383 242.22546 283.50421
283.0 0.00353 242.13287 278.76563
294.0 0.003401 242.04141 273.42084
286.0 0.003497 241.95113 268.10910
265.0 0.00377 241.86195 263.41519
287.0 0.003484 241.77390 259.76572
263.0 0.00380 241.68701 257.41226
276.0 0.00362 241.60124 256.43808
242.0 0.00413 241.51671 256.77847
277.0 0.00361 241.43323 258.24149
282.0 0.00355 241.35095 260.51984
260.0 0.00385 241.26971 263.19000
277.0 0.00361 241.18968 265.71631
285.0 0.00351 241.11076 267.51831
296.0 0.003378 241.03296 268.18338
295.0 0.003390 240.95638 267.80026
298.0 0.003356 240.88077 266.96393
305.0 0.003279 240.80638 266.49426
265.0 0.00377 240.73309 267.20178
269.0 0.00372 240.66090 269.80423
287.0 0.003484 240.58977 274.87613
293.0 0.003413 240.51974 282.75519
271.0 0.00369 240.45082 293.44772
318.0 0.003145 240.38303 306.54541
324.0 0.003086 240.31630 321.13547
343.0 0.002915 240.25061 335.59769
338.0 0.002959 240.18607 347.53406
343.0 0.002915 240.12245 354.28925
360.0 0.002778 240.05997 354.32956
338.0 0.002959 239.99857 348.50122
341.0 0.002933 239.93814 339.60999
343.0 0.002915 239.87872 330.88367
287.0 0.003484 239.82047 324.85272
311.0 0.003215 239.76309 322.96640
291.0 0.003436 239.70671 325.51953
321.0 0.003115 239.65141 331.75250
343.0 0.002915 239.59709 340.24423
376.0 0.002660 239.54367 349.50986
374.0 0.002674 239.49129 358.17673
368.0 0.002717 239.43982 364.59286
408.0 0.002451 239.38934 366.66827
392.0 0.002551 239.33978 362.82166
399.0 0.002506 239.29112 353.44327
416.0 0.002404 239.24335 340.99765
357.0 0.002801 239.19656 328.32977
334.0 0.002994 239.15065 317.53439
288.0 0.003472 239.10558 309.60010
287.0 0.003484 239.06137 304.46027
289.0 0.003460 239.01804 301.22729
298.0 0.003356 238.97559 298.70651
323.0 0.003096 238.93396 296.20877
337.0 0.002967 238.89319 294.05707
306.0 0.003268 238.85318 293.31729
305.0 0.003279 238.81389 295.13458
309.0 0.003236 238.77544 300.12686
300.0 0.003333 238.73776 308.33691
333.0 0.003003 238.70085 319.01755
308.0 0.003247 238.66464 330.57303
343.0 0.002915 238.62926 340.77905
353.0 0.002833 238.59453 347.62384
368.0 0.002717 238.56047 350.16626
377.0 0.002653 238.52708 348.69843
364.0 0.002747 238.49443 343.84329
348.0 0.002874 238.46234 336.57767
319.0 0.003135 238.43102 328.36273
330.0 0.003030 238.40021 320.59933
309.0 0.003236 238.37003 314.00711
306.0 0.003268 238.34050 308.54758
316.0 0.003165 238.31155 303.82895
280.0 0.00357 238.28307 299.51816
284.0 0.00352 238.25528 295.26682
272.0 0.00368 238.22795 290.62735
302.0 0.003311 238.20107 285.34509
272.0 0.00368 238.17476 279.49954
272.0 0.00368 238.14893 273.31998
260.0 0.00385 238.12360 267.35022
260.0 0.00385 238.09862 262.07437
286.0 0.003497 238.07417 257.78064
256.0 0.00391 238.05016 254.54216
254.0 0.00394 238.02652 252.25024
257.0 0.00389 238.00328 250.57635
239.0 0.00418 237.98035 249.33560
252.0 0.00397 237.95786 248.21391
242.0 0.00413 237.93564 247.04543
256.0 0.00391 237.91377 245.85347
253.0 0.00395 237.89220 244.74036
243.0 0.00412 237.87096 243.70021
235.0 0.00426 237.84991 242.81508
245.0 0.00408 237.82912 242.10133
244.0 0.00410 237.80865 241.53525
245.0 0.00408 237.78835 241.14400
214.0 0.00467 237.76830 240.88527
245.0 0.00408 237.74837 240.74469
238.0 0.00420 237.72855 240.76761
242.0 0.00413 237.70895 240.88647
239.0 0.00418 237.68962 241.14063
261.0 0.00383 237.67026 241.56248
267.0 0.00375 237.65102 242.15685
249.0 0.00402 237.63182 242.90036
235.0 0.00426 237.61276 243.73090
213.0 0.00469 237.59380 244.54077
223.0 0.00448 237.57475 245.18001
237.0 0.00422 237.55580 245.50896
238.0 0.00420 237.53683 245.39822
249.0 0.00402 237.51788 244.95404
239.0 0.00418 237.49889 244.32129
240.0 0.00417 237.47980 243.66306
216.0 0.00463 237.46068 243.17053
242.0 0.00413 237.44142 242.73933
269.0 0.00372 237.42215 242.43288
229.0 0.00437 237.40280 242.19002
242.0 0.00413 237.38321 241.93907
261.0 0.00383 237.36346 241.61746
235.0 0.00426 237.34364 241.23506
235.0 0.00426 237.32364 240.82826
245.0 0.00408 237.30348 240.43695
245.0 0.00408 237.28305 240.06969
226.0 0.00442 237.26230 239.76401
210.0 0.00476 237.24149 239.55341
233.0 0.00429 237.22032 239.40724
227.0 0.00441 237.19890 239.31963
248.0 0.00403 237.17722 239.26964
238.0 0.00420 237.15526 239.25089
253.0 0.00395 237.13292 239.25517
253.0 0.00395 237.11034 239.27702
240.0 0.00417 237.08737 239.29425
237.0 0.00422 237.06401 239.33505
232.0 0.00431 237.04037 239.39905
244.0 0.00410 237.01625 239.47769
247.0 0.00405 236.99182 239.57233
242.0 0.00413 236.96695 239.61195
253.0 0.00395 236.94164 239.74928
255.0 0.00392 236.91588 239.91469
228.0 0.00439 236.88968 240.11760
245.0 0.00408 236.86302 240.37486
227.0 0.00441 236.83588 240.71738
255.0 0.00392 236.80827 241.19832
255.0 0.00392 236.78018 241.90709
254.0 0.00394 236.75163 242.95169
246.0 0.00407 236.72250 244.57829
256.0 0.00391 236.69281 246.98793
241.0 0.00415 236.66255 250.41249
256.0 0.00391 236.63182 255.02112
246.0 0.00407 236.60049 260.83398
276.0 0.00362 236.56857 267.64374
280.0 0.00357 236.53607 274.95010
273.0 0.00366 236.50299 281.92218
298.0 0.003356 236.46927 287.47293
332.0 0.003012 236.43495 290.56342
319.0 0.003135 236.39999 291.03088
308.0 0.003247 236.36440 289.54559
288.0 0.003472 236.32825 287.30597
296.0 0.003378 236.29137 285.56308
296.0 0.003378 236.25383 285.18826
227.0 0.00441 236.21561 286.76892
247.0 0.00405 236.17677 290.53568
310.0 0.003226 236.13724 296.26465
302.0 0.003311 236.09700 303.39966
308.0 0.003247 236.05608 311.11380
331.0 0.003021 236.01443 318.46948
306.0 0.003268 235.97212 324.34903
326.0 0.003067 235.92908 327.60562
312.0 0.003205 235.88527 327.38785
338.0 0.002959 235.84076 323.81516
298.0 0.003356 235.79558 318.13812
318.0 0.003145 235.74959 312.16623
279.0 0.00358 235.70287 307.45029
289.0 0.003460 235.65544 304.89474
293.0 0.003413 235.60721 304.76251
308.0 0.003247 235.55826 306.55676
312.0 0.003205 235.50861 309.52948
287.0 0.003484 235.45808 312.64502
322.0 0.003106 235.40683 314.91830
337.0 0.002967 235.35480 315.60825
302.0 0.003311 235.30209 314.40302
303.0 0.003300 235.24857 311.72906
317.0 0.003155 235.19424 308.79837
311.0 0.003215 235.13921 307.04938
284.0 0.00352 235.08339 307.42386
350.0 0.002857 235.02681 310.13821
270.0 0.00370 234.96939 314.57568
284.0 0.00352 234.91124 319.29779
300.0 0.003333 234.85231 322.33017
343.0 0.002915 234.79262 321.95126
342.0 0.002924 234.73215 317.78128
301.0 0.003322 234.67087 311.04996
334.0 0.002994 234.60889 303.75778
290.0 0.003448 234.54613 297.78268
303.0 0.003300 234.48262 294.51819
260.0 0.00385 234.41833 294.75882
298.0 0.003356 234.35330 298.68988
280.0 0.00357 234.28745 305.87805
286.0 0.003497 234.22089 315.46121
338.0 0.002959 234.15353 326.37125
318.0 0.003145 234.08554 337.37662
309.0 0.003236 234.01675 346.82190
319.0 0.003135 233.94724 352.64105
358.0 0.002793 233.87697 353.18002
372.0 0.002688 233.80597 348.36584
363.0 0.002755 233.73431 339.77911
332.0 0.003012 233.66187 329.52847
317.0 0.003155 233.58870 319.37997
288.0 0.003472 233.51494 310.52197
298.0 0.003356 233.44040 303.49139
281.0 0.00356 233.36522 298.07059
292.0 0.003425 233.28938 293.41119
286.0 0.003497 233.21277 288.51282
247.0 0.00405 233.13557 282.83167
258.0 0.00388 233.05766 276.46228
259.0 0.00386 232.97917 269.80679
270.0 0.00370 232.90001 263.28418
285.0 0.00351 232.82018 257.26410
261.0 0.00383 232.73972 252.02940
238.0 0.00420 232.65868 247.72791
233.0 0.00429 232.57707 244.36108
242.0 0.00413 232.49483 241.82700
251.0 0.00398 232.41206 239.97343
214.0 0.00467 232.32861 238.63823
244.0 0.00410 232.24464 237.67682
229.0 0.00437 232.16016 236.97337
229.0 0.00437 232.07515 236.44328
213.0 0.00469 231.98958 236.02907
233.0 0.00429 231.90344 235.69353
222.0 0.00450 231.81686 235.41423
228.0 0.00439 231.72981 235.17836
249.0 0.00402 231.64224 234.97995
242.0 0.00413 231.55420 234.81841
235.0 0.00426 231.46568 234.69879
242.0 0.00413 231.37680 234.63290
240.0 0.00417 231.28745 234.64070
211.0 0.00474 231.19768 234.75243
215.0 0.00465 231.10751 235.00648
253.0 0.00395 231.01695 235.44577
213.0 0.00469 230.92603 236.10751
257.0 0.00389 230.83475 237.00984
223.0 0.00448 230.74315 238.13640
230.0 0.00435 230.65108 239.42101
243.0 0.00412 230.55879 240.70357
229.0 0.00437 230.46625 241.87442
220.0 0.00455 230.37343 242.69165
260.0 0.00385 230.28027 243.10703
270.0 0.00370 230.18684 242.89235
240.0 0.00417 230.09319 242.29630
248.0 0.00403 229.99937 241.57524
224.0 0.00446 229.90535 240.97693
281.0 0.00356 229.81102 240.72986
218.0 0.00459 229.71660 240.96155
251.0 0.00398 229.62199 241.87030
216.0 0.00463 229.52724 243.60501
260.0 0.00385 229.43242 246.34985
274.0 0.00365 229.33751 250.40247
262.0 0.00382 229.24237 255.80118
248.0 0.00403 229.14723 262.74585
289.0 0.003460 229.05202 270.95462
298.0 0.003356 228.95677 279.81616
326.0 0.003067 228.86156 288.26938
307.0 0.003257 228.76622 294.88449
315.0 0.003175 228.67102 298.21780
346.0 0.002890 228.57573 297.60956
343.0 0.002915 228.48051 293.72607
346.0 0.002890 228.38533 288.12866
306.0 0.003268 228.29030 282.48148
276.0 0.00362 228.19527 277.92981
267.0 0.00375 228.10045 274.96927
255.0 0.00392 228.00569 273.57199
271.0 0.00369 227.91109 273.04251
300.0 0.003333 227.81659 272.36414
293.0 0.003413 227.72237 270.58408
279.0 0.00358 227.62831 267.28711
295.0 0.003390 227.53450 262.73889
287.0 0.003484 227.44089 257.58890
269.0 0.00372 227.34744 252.50409
266.0 0.00376 227.25443 247.91168
251.0 0.00398 227.16161 244.19644
239.0 0.00418 227.06911 241.34503
248.0 0.00403 226.97690 239.23831
224.0 0.00446 226.88507 237.65266
250.0 0.00400 226.79353 236.34361
231.0 0.00433 226.70242 235.14131
227.0 0.00441 226.61160 233.98508
280.0 0.00357 226.52136 232.88609
236.0 0.00424 226.43143 231.85930
248.0 0.00403 226.34187 230.96771
237.0 0.00422 226.25290 230.20670
231.0 0.00433 226.16434 229.57726
220.0 0.00455 226.07629 229.12189
233.0 0.00429 225.98866 228.64157
209.0 0.00478 225.90157 228.32491
210.0 0.00476 225.81512 228.07263
211.0 0.00474 225.72906 227.85587
241.0 0.00415 225.64374 227.68666
243.0 0.00412 225.55885 227.54381
211.0 0.00474 225.47462 227.42105
242.0 0.00413 225.39099 227.31465
244.0 0.00410 225.30807 227.22195
231.0 0.00433 225.22563 227.13208
236.0 0.00424 225.14389 227.06372
226.0 0.00442 225.06290 227.00609
251.0 0.00398 224.98254 226.95894
218.0 0.00459 224.90292 226.91795
228.0 0.00439 224.82397 226.94531
213.0 0.00469 224.74579 226.93294
237.0 0.00422 224.66829 226.93304
229.0 0.00437 224.59163 226.94667
257.0 0.00389 224.51564 226.97527
229.0 0.00437 224.44052 227.02032
231.0 0.00433 224.36603 227.08406
242.0 0.00413 224.29248 227.16875
239.0 0.00418 224.21976 227.27768
248.0 0.00403 224.14784 227.41455
243.0 0.00412 224.07669 227.60448
211.0 0.00474 224.00647 227.81424
225.0 0.00444 223.93709 228.07751
214.0 0.00467 223.86861 228.40060
231.0 0.00433 223.80098 228.81299
222.0 0.00450 223.73425 229.35883
237.0 0.00422 223.66838 230.11552
190.0 0.00526 223.60342 231.21487
237.0 0.00422 223.53951 232.86891
215.0 0.00465 223.47641 235.39412
231.0 0.00433 223.41428 239.22232
228.0 0.00439 223.35307 244.87282
253.0 0.00395 223.29286 252.88173
244.0 0.00410 223.23364 263.70892
263.0 0.00380 223.17535 277.39288
275.0 0.00364 223.11804 293.65164
298.0 0.003356 223.06169 311.53830
304.0 0.003289 223.00642 329.41724
335.0 0.002985 222.95201 344.87964
370.0 0.002703 222.89874 355.32877
381.0 0.002625 222.84642 359.02118
350.0 0.002857 222.79512 356.25647
405.0 0.002469 222.74483 349.18051
363.0 0.002755 222.69553 340.18369
331.0 0.003021 222.64738 331.27240
295.0 0.003390 222.60013 323.65512
301.0 0.003322 222.55399 317.82315
314.0 0.003185 222.50885 313.47217
332.0 0.003012 222.46478 309.56274
272.0 0.00368 222.42169 304.77325
317.0 0.003155 222.37973 298.29340
285.0 0.00351 222.33879 290.25742
325.0 0.003077 222.29889 281.39603
268.0 0.00373 222.26006 272.50833
261.0 0.00383 222.22223 264.18948
265.0 0.00377 222.18549 256.84009
225.0 0.00444 222.14978 250.62222
230.0 0.00435 222.11508 245.66335
243.0 0.00412 222.08151 241.74036
226.0 0.00442 222.04895 238.60815
268.0 0.00373 222.01747 236.05757
222.0 0.00450 221.98697 233.95570
227.0 0.00441 221.95760 232.22800
235.0 0.00426 221.92912 230.82736
255.0 0.00392 221.90182 229.71631
214.0 0.00467 221.87544 228.86253
266.0 0.00376 221.85011 228.21330
234.0 0.00427 221.82579 227.77127
241.0 0.00415 221.80258 227.50806
258.0 0.00388 221.78029 227.40022
225.0 0.00444 221.75908 227.42845
230.0 0.00435 221.73880 227.61748
233.0 0.00429 221.71954 228.01701
244.0 0.00410 221.70128 228.71751
241.0 0.00415 221.68394 229.86198
252.0 0.00397 221.66765 231.64343
225.0 0.00444 221.65225 234.28593
255.0 0.00392 221.63788 238.02234
247.0 0.00405 221.62444 243.00627
255.0 0.00392 221.61186 249.26387
261.0 0.00383 221.60027 256.57376
266.0 0.00376 221.58961 264.45895
273.0 0.00366 221.57983 272.11682
279.0 0.00358 221.57103 278.44693
286.0 0.003497 221.56299 282.26926
296.0 0.003378 221.55588 282.85147
305.0 0.003279 221.54962 280.44571
312.0 0.003205 221.54430 276.21472
301.0 0.003322 221.53972 271.46454
244.0 0.00410 221.53601 267.45074
259.0 0.00386 221.53313 264.99677
267.0 0.00375 221.53105 264.53372
267.0 0.00375 221.52969 266.09265
255.0 0.00392 221.52917 269.33768
249.0 0.00402 221.52937 273.68930
295.0 0.003390 221.53038 278.54468
280.0 0.00357 221.53214 283.41949
257.0 0.00389 221.53452 287.83640
303.0 0.003300 221.53772 291.05307
286.0 0.003497 221.54140 292.18973
291.0 0.003436 221.54596 290.57031
279.0 0.00358 221.55109 286.30215
278.0 0.00360 221.55685 280.33450
256.0 0.00391 221.56325 273.92868
286.0 0.003497 221.57022 268.13910
260.0 0.00385 221.57777 263.61401
243.0 0.00412 221.58594 260.57324
253.0 0.00395 221.59462 258.83270
267.0 0.00375 221.60387 257.87488
262.0 0.00382 221.61360 257.00043
258.0 0.00388 221.62389 255.59729
263.0 0.00380 221.63455 253.39722
230.0 0.00435 221.64574 250.50352
262.0 0.00382 221.65736 247.23553
209.0 0.00478 221.66939 243.96770
221.0 0.00452 221.68176 241.02843
254.0 0.00394 221.69458 238.65396
218.0 0.00459 221.70775 236.98138
221.0 0.00452 221.72122 236.07596
229.0 0.00437 221.73500 235.97275
229.0 0.00437 221.74915 236.72607
265.0 0.00377 221.76357 238.45467
257.0 0.00389 221.77823 241.37648
262.0 0.00382 221.79306 245.80928
275.0 0.00364 221.80818 252.11945
259.0 0.00386 221.82343 260.61810
214.0 0.00467 221.83887 271.43475
293.0 0.003413 221.85446 284.40955
299.0 0.003344 221.87013 298.99402
295.0 0.003390 221.88606 314.07520
317.0 0.003155 221.90195 328.42087
348.0 0.002874 221.91789 340.24457
383.0 0.002611 221.93388 348.46988
376.0 0.002660 221.94992 353.16043
361.0 0.002770 221.96596 355.32736
361.0 0.002770 221.98193 355.93219
355.0 0.002817 221.99788 355.32858
303.0 0.003300 222.01376 353.27786
345.0 0.002899 222.02948 349.49472
373.0 0.002681 222.04518 344.33426
341.0 0.002933 222.06067 338.32471
338.0 0.002959 222.07607 331.88922
324.0 0.003086 222.09120 325.25311
333.0 0.003003 222.10622 318.58121
318.0 0.003145 222.12097 311.96524
297.0 0.003367 222.13539 305.25879
266.0 0.00376 222.14960 298.23703
296.0 0.003378 222.16359 290.60779
278.0 0.00360 222.17714 282.51385
279.0 0.00358 222.19040 274.36179
304.0 0.003289 222.20332 266.68848
238.0 0.00420 222.21587 259.94135
233.0 0.00429 222.22791 254.35179
231.0 0.00433 222.23962 249.93105
238.0 0.00420 222.25090 246.51338
256.0 0.00391 222.26167 243.84476
249.0 0.00402 222.27190 241.69528
261.0 0.00383 222.28169 239.94543
225.0 0.00444 222.29102 238.48427
248.0 0.00403 222.29968 237.27444
222.0 0.00450 222.30775 236.24834
234.0 0.00427 222.31528 235.34053
211.0 0.00474 222.32213 234.52104
225.0 0.00444 222.32843 233.82285
238.0 0.00420 222.33403 233.32953
248.0 0.00403 222.33897 233.13564
267.0 0.00375 222.34322 233.31403
245.0 0.00408 222.34685 233.89536
239.0 0.00418 222.34959 234.85742
242.0 0.00413 222.35164 236.11618
263.0 0.00380 222.35298 237.52451
246.0 0.00407 222.35347 238.87930
249.0 0.00402 222.35316 239.95654
247.0 0.00405 222.35201 240.58311
253.0 0.00395 222.35008 240.68484
255.0 0.00392 222.34729 240.53940
223.0 0.00448 222.34366 240.38759
241.0 0.00415 222.33910 240.54056
239.0 0.00418 222.33366 241.25635
233.0 0.00429 222.32729 242.73611
230.0 0.00435 222.31996 245.12097
236.0 0.00424 222.31171 248.49687
247.0 0.00405 222.30249 252.90295
262.0 0.00382 222.29231 258.34125
219.0 0.00457 222.28113 264.91818
284.0 0.00352 222.26895 272.70776
271.0 0.00369 222.25577 281.67337
295.0 0.003390 222.24155 291.44412
299.0 0.003344 222.22627 301.17502
313.0 0.003195 222.20998 309.48981
299.0 0.003344 222.19260 314.89798
322.0 0.003106 222.17413 316.07001
339.0 0.002950 222.15463 312.81049
338.0 0.002959 222.13397 306.19370
332.0 0.003012 222.11232 297.89841
283.0 0.00353 222.08945 289.48538
290.0 0.003448 222.06551 282.13916
226.0 0.00442 222.04045 276.44620
265.0 0.00377 222.01425 272.42926
255.0 0.00392 221.98683 269.59415
264.0 0.00379 221.95837 267.17682
259.0 0.00386 221.92873 264.33163
278.0 0.00360 221.89787 260.60571
229.0 0.00437 221.86592 256.05768
280.0 0.00357 221.83275 251.07124
255.0 0.00392 221.79842 246.09683
242.0 0.00413 221.76295 241.47357
253.0 0.00395 221.72627 237.45586
235.0 0.00426 221.68840 234.15543
214.0 0.00467 221.64935 231.57481
245.0 0.00408 221.60912 229.63924
224.0 0.00446 221.56766 228.23047
224.0 0.00446 221.52513 227.23927
214.0 0.00467 221.48137 226.52663
236.0 0.00424 221.43639 226.01721
201.0 0.00498 221.39020 225.64671
205.0 0.00488 221.34282 225.38103
226.0 0.00442 221.29436 225.18187
249.0 0.00402 221.24469 225.04404
216.0 0.00463 221.19383 224.96591
228.0 0.00439 221.14177 224.95541
197.0 0.00508 221.08856 225.03209
217.0 0.00461 221.03421 225.23346
223.0 0.00448 220.97871 225.59775
210.0 0.00476 220.92209 226.19191
209.0 0.00478 220.86424 227.08665
234.0 0.00427 220.80534 228.34770
220.0 0.00455 220.74529 230.01851
225.0 0.00444 220.68414 232.09781
263.0 0.00380 220.62186 234.51900
235.0 0.00426 220.55853 237.13350
233.0 0.00429 220.49405 239.69856
247.0 0.00405 220.42850 241.88353
270.0 0.00370 220.36191 243.32487
263.0 0.00380 220.29433 243.77275
283.0 0.00353 220.22560 243.25644
249.0 0.00402 220.15594 242.10085
232.0 0.00431 220.08514 240.77335
228.0 0.00439 220.01349 239.73363
263.0 0.00380 219.94070 239.37123
221.0 0.00452 219.86707 239.99672
230.0 0.00435 219.79248 241.78906
265.0 0.00377 219.71689 244.97691
250.0 0.00400 219.64038 249.52827
253.0 0.00395 219.56302 255.34550
278.0 0.00360 219.48479 262.20316
270.0 0.00370 219.40558 269.80981
264.0 0.00379 219.32564 277.58243
263.0 0.00380 219.24477 284.65820
263.0 0.00380 219.16319 289.83273
268.0 0.00373 219.08076 292.09601
281.0 0.00356 218.99757 290.80753
309.0 0.003236 218.91364 286.44955
292.0 0.003425 218.82903 280.19861
283.0 0.00353 218.74371 273.39944
247.0 0.00405 218.65758 267.12021
261.0 0.00383 218.57094 262.01532
258.0 0.00388 218.48358 258.31238
275.0 0.00364 218.39566 255.84583
262.0 0.00382 218.30717 254.11945
236.0 0.00424 218.21811 252.47530
239.0 0.00418 218.12845 250.31812
244.0 0.00410 218.03830 247.39740
250.0 0.00400 217.94774 243.84622
242.0 0.00413 217.85669 240.00639
220.0 0.00455 217.76517 236.19395
231.0 0.00433 217.67325 232.68536
251.0 0.00398 217.58099 229.65240
220.0 0.00455 217.48833 227.17307
221.0 0.00452 217.39549 225.25017
232.0 0.00431 217.30219 223.83344
223.0 0.00448 217.20872 222.84476
225.0 0.00444 217.11501 222.19873
214.0 0.00467 217.02103 221.81831
201.0 0.00498 216.92697 221.64064
241.0 0.00415 216.83269 221.62079
208.0 0.00481 216.73834 221.71132
232.0 0.00431 216.64384 221.87431
235.0 0.00426 216.54939 222.08887
216.0 0.00463 216.45490 222.30882
226.0 0.00442 216.36034 222.49736
218.0 0.00459 216.26590 222.63593
239.0 0.00418 216.17146 222.74500
233.0 0.00429 216.07721 222.89381
236.0 0.00424 215.98302 223.19563
208.0 0.00481 215.88904 223.78586
236.0 0.00424 215.79520 224.83896
233.0 0.00429 215.70166 226.56255
238.0 0.00420 215.60832 229.15298
259.0 0.00386 215.51535 232.84203
224.0 0.00446 215.42262 237.73041
240.0 0.00417 215.33031 243.86906
229.0 0.00437 215.23833 251.14206
244.0 0.00410 215.14687 259.15646
266.0 0.00376 215.05577 267.29822
248.0 0.00403 214.96515 274.65997
288.0 0.003472 214.87515 280.27939
295.0 0.003390 214.78566 283.15982
325.0 0.003077 214.69670 282.92374
315.0 0.003175 214.60841 280.04221
311.0 0.003215 214.52075 275.65314
293.0 0.003413 214.43384 271.02469
257.0 0.00389 214.34752 267.22137
249.0 0.00402 214.26204 264.91394
271.0 0.00369 214.17726 264.31143
260.0 0.00385 214.09337 265.20697
241.0 0.00415 214.01028 267.06766
284.0 0.00352 213.92804 269.04196
290.0 0.003448 213.84671 270.26086
263.0 0.00380 213.76634 270.10895
293.0 0.003413 213.68690 268.45651
297.0 0.003367 213.60851 265.66040
265.0 0.00377 213.53105 262.30167
248.0 0.00403 213.45467 258.89127
237.0 0.00422 213.37943 255.70317
244.0 0.00410 213.30527 252.78842
281.0 0.00356 213.23221 249.98532
268.0 0.00373 213.16032 247.21465
281.0 0.00356 213.08969 244.44954
248.0 0.00403 213.02023 241.69661
226.0 0.00442 212.95203 238.96634
216.0 0.00463 212.88506 236.29942
226.0 0.00442 212.81938 233.81076
206.0 0.00485 212.75517 231.55130
214.0 0.00467 212.69225 229.57643
216.0 0.00463 212.63063 227.84157
210.0 0.00476 212.57047 226.25928
221.0 0.00452 212.51169 224.71820
233.0 0.00429 212.45444 223.19191
255.0 0.00392 212.39862 221.70366
227.0 0.00441 212.34427 220.30196
223.0 0.00448 212.29152 219.03108
236.0 0.00424 212.24020 217.92014
240.0 0.00417 212.19054 216.99039
232.0 0.00431 212.14238 216.22345
234.0 0.00427 212.09584 215.61385
230.0 0.00435 212.05095 215.14046
193.0 0.00518 212.00760 214.77827
228.0 0.00439 211.96597 214.48763
249.0 0.00402 211.92604 214.27676
249.0 0.00402 211.88774 214.11288
212.0 0.00472 211.85120 213.98305
220.0 0.00455 211.81625 213.87836
183.0 0.00546 211.78313 213.79292
240.0 0.00417 211.75172 213.72321
199.0 0.00503 211.72205 213.66690
204.0 0.00490 211.69415 213.62277
215.0 0.00465 211.66814 213.59038
193.0 0.00518 211.64377 213.56390
238.0 0.00420 211.62125 213.55507
234.0 0.00427 211.60054 213.55927
228.0 0.00439 211.58165 213.57837
234.0 0.00427 211.56456 213.61581
223.0 0.00448 211.54929 213.67761
210.0 0.00476 211.53584 213.72113
264.0 0.00379 211.52426 213.86818
194.0 0.00515 211.51450 214.08804
203.0 0.00493 211.50656 214.41206
233.0 0.00429 211.50052 214.88467
199.0 0.00503 211.49628 215.53851
195.0 0.00513 211.49390 216.41980
239.0 0.00418 211.49336 217.55647
216.0 0.00463 211.49466 218.95132
239.0 0.00418 211.49782 220.56967
244.0 0.00410 211.50279 222.31017
232.0 0.00431 211.50961 224.07857
218.0 0.00459 211.51826 225.66302
227.0 0.00441 211.52870 226.83708
247.0 0.00405 211.54102 227.40564
213.0 0.00469 211.55505 227.30751
241.0 0.00415 211.57092 226.65471
219.0 0.00457 211.58861 225.68307
260.0 0.00385 211.60809 224.63972
234.0 0.00427 211.62929 223.72110
213.0 0.00469 211.65224 223.05299
208.0 0.00481 211.67696 222.69276
229.0 0.00437 211.70340 222.63695
235.0 0.00426 211.73152 222.83604
221.0 0.00452 211.76137 223.22063
227.0 0.00441 211.79286 223.74849
252.0 0.00397 211.82608 224.45531
235.0 0.00426 211.86089 225.47704
228.0 0.00439 211.89732 227.02332
217.0 0.00461 211.93535 229.33015
207.0 0.00483 211.97496 232.62082
223.0 0.00448 212.01610 237.06685
214.0 0.00467 212.05884 242.75206
231.0 0.00433 212.10306 249.63704
243.0 0.00412 212.14871 257.49557
248.0 0.00403 212.19583 265.96484
263.0 0.00380 212.24442 274.49310
270.0 0.00370 212.29443 282.39655
314.0 0.003185 212.34583 288.99600
280.0 0.00357 212.39850 293.86832
311.0 0.003215 212.45248 296.84872
304.0 0.003289 212.50784 298.11160
296.0 0.003378 212.56435 297.89355
296.0 0.003378 212.62216 296.38229
288.0 0.003472 212.68111 293.92664
289.0 0.003460 212.74120 290.89859
280.0 0.00357 212.80240 287.53488
288.0 0.003472 212.86478 283.96381
253.0 0.00395 212.92812 280.11166
276.0 0.00362 212.99246 276.04962
253.0 0.00395 213.05779 271.86548
256.0 0.00391 213.12407 267.71875
251.0 0.00398 213.19121 263.80487
236.0 0.00424 213.25922 260.26102
235.0 0.00426 213.32806 257.17639
270.0 0.00370 213.39758 254.62997
225.0 0.00444 213.46797 252.74887
253.0 0.00395 213.53893 251.59419
251.0 0.00398 213.61064 251.16420
269.0 0.00372 213.68291 251.40280
274.0 0.00365 213.75568 252.27600
260.0 0.00385 213.82910 253.70122
268.0 0.00373 213.90288 255.55531
239.0 0.00418 213.97708 257.59891
244.0 0.00410 214.05171 259.48688
264.0 0.00379 214.12663 260.89499
263.0 0.00380 214.20186 261.69177
258.0 0.00388 214.27728 262.01736
263.0 0.00380 214.35295 262.14435
238.0 0.00420 214.42882 262.08322
232.0 0.00431 214.50464 261.80374
283.0 0.00353 214.58057 261.09109
286.0 0.003497 214.65656 259.71997
276.0 0.00362 214.73245 257.64813
220.0 0.00455 214.80827 255.02249
248.0 0.00403 214.88388 252.05157
235.0 0.00426 214.95932 248.91037
255.0 0.00392 215.03461 245.77493
264.0 0.00379 215.10950 242.81444
242.0 0.00413 215.18411 240.17940
204.0 0.00490 215.25830 237.92603
220.0 0.00455 215.33205 235.97319
236.0 0.00424 215.40529 234.19672
232.0 0.00431 215.47803 232.44974
226.0 0.00442 215.55019 230.65340
243.0 0.00412 215.62164 228.83121
252.0 0.00397 215.69249 227.05727
194.0 0.00515 215.76257 225.40906
212.0 0.00472 215.83186 223.94781
219.0 0.00457 215.90033 222.70461
207.0 0.00483 215.96790 221.69275
239.0 0.00418 216.03453 220.90392
208.0 0.00481 216.10030 220.31732
229.0 0.00437 216.16490 219.91301
213.0 0.00469 216.22858 219.64774
217.0 0.00461 216.29102 219.50420
236.0 0.00424 216.35237 219.46568
226.0 0.00442 216.41246 219.52512
221.0 0.00452 216.47139 219.68405
235.0 0.00426 216.52896 219.94994
217.0 0.00461 216.58522 220.33136
222.0 0.00450 216.64009 220.83372
206.0 0.00485 216.69354 221.45288
224.0 0.00446 216.74550 222.16830
228.0 0.00439 216.79602 222.94510
222.0 0.00450 216.84492 223.71594
236.0 0.00424 216.89235 224.40114
246.0 0.00407 216.93802 224.90486
233.0 0.00429 216.98213 225.15399
258.0 0.00388 217.02451 225.10443
234.0 0.00427 217.06517 224.81161
232.0 0.00431 217.10403 224.37263
238.0 0.00420 217.14108 223.89047
215.0 0.00465 217.17636 223.44971
212.0 0.00472 217.20969 223.10271
202.0 0.00495 217.24120 222.87833
237.0 0.00422 217.27077 222.76913
243.0 0.00412 217.29837 222.74579
235.0 0.00426 217.32393 222.75079
260.0 0.00385 217.34756 222.77351
228.0 0.00439 217.36913 222.76073
242.0 0.00413 217.38861 222.68987
201.0 0.00498 217.40604 222.60152
212.0 0.00472 217.42136 222.53670
191.0 0.00524 217.43454 222.53844
227.0 0.00441 217.44557 222.65434
202.0 0.00495 217.45444 222.93407
226.0 0.00442 217.46114 223.43280
198.0 0.00505 217.46565 224.21056
206.0 0.00485 217.46790 225.33110
227.0 0.00441 217.46797 226.87263
213.0 0.00469 217.46579 228.90434
217.0 0.00461 217.46136 231.49785
220.0 0.00455 217.45474 234.70502
256.0 0.00391 217.44583 238.56300
239.0 0.00418 217.43466 243.05254
261.0 0.00383 217.42125 248.10835
248.0 0.00403 217.40558 253.64615
267.0 0.00375 217.38759 259.45499
274.0 0.00365 217.36734 265.44031
271.0 0.00369 217.34480 271.40137
272.0 0.00368 217.32014 277.00604
302.0 0.003311 217.29309 281.80801
290.0 0.003448 217.26385 285.19641
292.0 0.003425 217.23238 286.79385
285.0 0.00351 217.19867 286.44656
268.0 0.00373 217.16281 284.31830
289.0 0.003460 217.12471 280.88962
270.0 0.00370 217.08444 276.80499
273.0 0.00366 217.04202 272.70221
280.0 0.00357 216.99748 269.16656
258.0 0.00388 216.95082 266.55661
294.0 0.003401 216.90202 265.00623
249.0 0.00402 216.85112 264.39236
270.0 0.00370 216.79820 264.35373
258.0 0.00388 216.74338 264.45718
253.0 0.00395 216.68646 264.24649
269.0 0.00372 216.62761 263.35068
293.0 0.003413 216.56683 261.59286
260.0 0.00385 216.50417 259.04791
281.0 0.00356 216.43971 256.09393
242.0 0.00413 216.37346 253.28606
255.0 0.00392 216.30536 251.19923
242.0 0.00413 216.23557 250.32571
218.0 0.00459 216.16402 251.00453
210.0 0.00476 216.09096 253.38492
242.0 0.00413 216.01628 257.40775
229.0 0.00437 215.94005 262.78970
261.0 0.00383 215.86235 268.99228
290.0 0.003448 215.78304 275.24554
309.0 0.003236 215.70258 280.65829
299.0 0.003344 215.62070 284.23474
320.0 0.003125 215.53749 285.20221
360.0 0.002778 215.45314 283.32126
325.0 0.003077 215.36752 279.03647
296.0 0.003378 215.28094 273.27798
264.0 0.00379 215.19322 267.02399
272.0 0.00368 215.10455 261.14069
222.0 0.00450 215.01503 256.16010
228.0 0.00439 214.92464 252.34029
257.0 0.00389 214.83347 249.67558
251.0 0.00398 214.74164 247.94250
274.0 0.00365 214.64908 246.71390
261.0 0.00383 214.55608 245.49913
240.0 0.00417 214.46249 243.88857
276.0 0.00362 214.36855 241.71783
262.0 0.00382 214.27426 239.08110
264.0 0.00379 214.17958 236.21399
240.0 0.00417 214.08488 233.40947
255.0 0.00392 213.98996 230.87489
241.0 0.00415 213.89502 228.76614
221.0 0.00452 213.80017 227.17319
201.0 0.00498 213.70540 226.06900
224.0 0.00446 213.61087 225.40663
220.0 0.00455 213.51657 225.06660
233.0 0.00429 213.42270 224.89233
234.0 0.00427 213.32933 224.71407
232.0 0.00431 213.23639 224.39078
232.0 0.00431 213.14413 223.85857
234.0 0.00427 213.05252 223.14250
229.0 0.00437 212.96172 222.32950
239.0 0.00418 212.87190 221.51547
244.0 0.00410 212.78288 220.78265
249.0 0.00402 212.69496 220.19305
219.0 0.00457 212.60818 219.76147
217.0 0.00461 212.52266 219.49376
230.0 0.00435 212.43840 219.36499
227.0 0.00441 212.35553 219.33337
236.0 0.00424 212.27408 219.35381
242.0 0.00413 212.19423 219.39888
217.0 0.00461 212.11600 219.47798
199.0 0.00503 212.03955 219.64098
216.0 0.00463 211.96486 219.96208
200.0 0.00500 211.89207 220.54723
224.0 0.00446 211.82118 221.49635
224.0 0.00446 211.75249 222.91344
244.0 0.00410 211.68593 224.89183
220.0 0.00455 211.62152 227.49216
206.0 0.00485 211.55939 230.70966
226.0 0.00442 211.49965 234.47133
233.0 0.00429 211.44243 238.59575
229.0 0.00437 211.38771 242.80829
251.0 0.00398 211.33556 246.74246
230.0 0.00435 211.28613 249.97282
251.0 0.00398 211.23943 252.14490
262.0 0.00382 211.19562 253.06233
256.0 0.00391 211.15468 252.78218
271.0 0.00369 211.11670 251.46460
255.0 0.00392 211.08176 249.39029
263.0 0.00380 211.04988 246.83914
238.0 0.00420 211.02122 244.12115
233.0 0.00429 210.99577 241.52319
228.0 0.00439 210.97359 239.24840
216.0 0.00463 210.95476 237.37785
238.0 0.00420 210.93925 235.86038
249.0 0.00402 210.92731 234.56502
235.0 0.00426 210.91884 233.33366
226.0 0.00442 210.91394 232.04872
237.0 0.00422 210.91258 230.66905
224.0 0.00446 210.91492 229.17900
229.0 0.00437 210.92096 227.62079
237.0 0.00422 210.93069 226.04674
200.0 0.00500 210.94418 224.57912
235.0 0.00426 210.96146 223.33963
214.0 0.00467 210.98259 222.46913
199.0 0.00503 211.00755 222.09648
250.0 0.00400 211.03642 222.33832
190.0 0.00526 211.06926 223.26451
235.0 0.00426 211.10590 225.01056
212.0 0.00472 211.14653 227.57840
221.0 0.00452 211.19113 230.90639
214.0 0.00467 211.23964 234.92880
226.0 0.00442 211.29216 239.40553
241.0 0.00415 211.34859 243.98927
249.0 0.00402 211.40915 248.23837
235.0 0.00426 211.47350 251.59390
257.0 0.00389 211.54185 253.52481
251.0 0.00398 211.61429 253.71362
256.0 0.00391 211.69052 252.22324
279.0 0.00358 211.77075 249.51819
240.0 0.00417 211.85486 246.19498
221.0 0.00452 211.94281 242.80576
215.0 0.00465 212.03468 239.77605
235.0 0.00426 212.13029 237.39482
222.0 0.00450 212.22975 235.74123
232.0 0.00431 212.33295 234.76729
227.0 0.00441 212.43974 234.28893
268.0 0.00373 212.55032 234.02928
233.0 0.00429 212.66443 233.68498
224.0 0.00446 212.78212 233.02162
231.0 0.00433 212.90327 231.95409
263.0 0.00380 213.02774 230.53468
214.0 0.00467 213.15576 228.88263
189.0 0.00529 213.28693 227.12703
221.0 0.00452 213.42151 225.37054
226.0 0.00442 213.55898 223.72298
223.0 0.00448 213.69957 222.19963
224.0 0.00446 213.84331 220.96521
246.0 0.00407 213.98978 219.99564
222.0 0.00450 214.13911 219.26767
221.0 0.00452 214.29111 218.76817
221.0 0.00452 214.44565 218.46274
209.0 0.00478 214.60277 218.31363
227.0 0.00441 214.76228 218.28354
215.0 0.00465 214.92412 218.34451
217.0 0.00461 215.08795 218.45863
217.0 0.00461 215.25394 218.61784
210.0 0.00476 215.42194 218.81502
234.0 0.00427 215.59164 219.05855
213.0 0.00469 215.76317 219.39975
239.0 0.00418 215.93605 219.80669
221.0 0.00452 216.11044 220.28914
256.0 0.00391 216.28624 220.84174
215.0 0.00465 216.46295 221.44362
230.0 0.00435 216.64102 222.06474
250.0 0.00400 216.81960 222.66542
245.0 0.00408 216.99908 223.23589
239.0 0.00418 217.17923 223.71320
233.0 0.00429 217.35957 224.14531
230.0 0.00435 217.54045 224.60829
213.0 0.00469 217.72131 225.20070
214.0 0.00467 217.90215 226.01709
216.0 0.00463 218.08290 227.16101
249.0 0.00402 218.26321 228.66292
218.0 0.00459 218.44313 230.53773
238.0 0.00420 218.62230 232.73363
218.0 0.00459 218.80061 235.14151
207.0 0.00483 218.97816 237.58899
272.0 0.00368 219.15433 239.84363
267.0 0.00375 219.32936 241.66135
267.0 0.00375 219.50281 242.77682
243.0 0.00412 219.67455 243.04654
246.0 0.00407 219.84476 242.47302
230.0 0.00435 220.01276 241.24156
223.0 0.00448 220.17886 239.62701
226.0 0.00442 220.34256 237.91515
238.0 0.00420 220.50375 236.33070
207.0 0.00483 220.66249 235.02061
227.0 0.00441 220.81839 234.05597
224.0 0.00446 220.97142 233.42882
259.0 0.00386 221.12137 233.07144
225.0 0.00444 221.26805 232.86806
227.0 0.00441 221.41151 232.69395
241.0 0.00415 221.55136 232.40825
214.0 0.00467 221.68759 231.94014
228.0 0.00439 221.81999 231.29785
227.0 0.00441 221.94844 230.53699
212.0 0.00472 222.07291 229.73230
250.0 0.00400 222.19310 228.95583
208.0 0.00481 222.30904 228.26389
215.0 0.00465 222.42047 227.70203
223.0 0.00448 222.52731 227.30481
248.0 0.00403 222.62964 227.10184
229.0 0.00437 222.72702 227.12144
210.0 0.00476 222.81970 227.39375
206.0 0.00485 222.90723 227.95670
229.0 0.00437 222.98976 228.84021
222.0 0.00450 223.06718 230.07956
221.0 0.00452 223.13943 231.69637
232.0 0.00431 223.20638 233.68951
249.0 0.00402 223.26790 236.01358
244.0 0.00410 223.32405 238.57837
231.0 0.00433 223.37483 241.23569
284.0 0.00352 223.42010 243.76582
287.0 0.003484 223.45984 245.89859
258.0 0.00388 223.49399 247.33446
272.0 0.00368 223.52267 247.84789
341.0 0.002933 223.54579 247.38725
240.0 0.00417 223.56329 246.10533
271.0 0.00369 223.57529 244.31874
225.0 0.00444 223.58179 242.34128
271.0 0.00369 223.58284 240.43765
282.0 0.00355 223.57849 238.79187
260.0 0.00385 223.56874 237.50835
211.0 0.00474 223.55365 236.60088
231.0 0.00433 223.53339 236.01407
220.0 0.00455 223.50793 235.63440
222.0 0.00450 223.47743 235.33374
269.0 0.00372 223.44209 234.89700
257.0 0.00389 223.40182 234.25925
250.0 0.00400 223.35698 233.37894
257.0 0.00389 223.30756 232.34679
238.0 0.00420 223.25375 231.20645
220.0 0.00455 223.19582 230.05707
209.0 0.00478 223.13379 228.96307
226.0 0.00442 223.06793 227.97308
209.0 0.00478 222.99854 227.11363
199.0 0.00503 222.92561 226.39212
233.0 0.00429 222.84964 225.80647
257.0 0.00389 222.77069 225.34157
195.0 0.00513 222.68915 224.99403
220.0 0.00455 222.60516 224.71310
190.0 0.00526 222.51901 224.49454
227.0 0.00441 222.43123 224.32237
229.0 0.00437 222.34171 224.18910
224.0 0.00446 222.25114 224.07668
226.0 0.00442 222.15968 223.95459
219.0 0.00457 222.06755 223.88155
232.0 0.00431 221.97543 223.82361
239.0 0.00418 221.88344 223.78342
225.0 0.00444 221.79211 223.76401
245.0 0.00408 221.70168 223.77078
223.0 0.00448 221.61253 223.81200
214.0 0.00467 221.52524 223.90089
230.0 0.00435 221.44005 224.04915
202.0 0.00495 221.35756 224.27773
205.0 0.00488 221.27811 224.61029
230.0 0.00435 221.20209 225.08047
236.0 0.00424 221.13010 225.68936
229.0 0.00437 221.06242 226.49268
218.0 0.00459 220.99966 227.49329
221.0 0.00452 220.94232 228.69653
232.0 0.00431 220.89067 230.09578
245.0 0.00408 220.84532 231.65694
243.0 0.00412 220.80684 233.34291
243.0 0.00412 220.77559 235.08891
235.0 0.00426 220.75211 236.82272
218.0 0.00459 220.73689 238.47054
250.0 0.00400 220.73047 239.98438
217.0 0.00461 220.73323 241.38782
239.0 0.00418 220.74574 242.77151
224.0 0.00446 220.76849 244.24989
255.0 0.00392 220.80197 245.92119
267.0 0.00375 220.84651 247.82460
229.0 0.00437 220.90283 249.96231
253.0 0.00395 220.97122 252.30690
273.0 0.00366 221.05209 254.82175
236.0 0.00424 221.14606 257.43430
289.0 0.003460 221.25340 260.01746
243.0 0.00412 221.37463 262.43854
227.0 0.00441 221.51003 264.60648
268.0 0.00373 221.66002 266.52008
281.0 0.00356 221.82507 268.21399
280.0 0.00357 222.00536 269.66849
285.0 0.00351 222.20131 270.75433
273.0 0.00366 222.41304 271.22873
246.0 0.00407 222.64090 270.84000
282.0 0.00355 222.88539 269.47882
283.0 0.00353 223.14615 267.26431
291.0 0.003436 223.42401 264.48132
271.0 0.00369 223.71832 261.46127
253.0 0.00395 224.02962 258.47018
261.0 0.00383 224.35814 255.69835
241.0 0.00415 224.70331 253.28815
252.0 0.00397 225.06570 251.32402
251.0 0.00398 225.44467 249.83575
229.0 0.00437 225.84027 248.77063
252.0 0.00397 226.25246 248.00816
260.0 0.00385 226.68039 247.39262
265.0 0.00377 227.12450 246.79338
270.0 0.00370 227.58369 246.16110
239.0 0.00418 228.05779 245.54594
217.0 0.00461 228.54651 245.08765
267.0 0.00375 229.04829 244.91408
236.0 0.00424 229.56367 245.14049
229.0 0.00437 230.09076 245.84041
262.0 0.00382 230.62892 247.03384
269.0 0.00372 231.17807 248.68448
272.0 0.00368 231.73564 250.68590
243.0 0.00412 232.30177 252.87450
253.0 0.00395 232.87413 255.01166
260.0 0.00385 233.45154 256.82910
253.0 0.00395 234.03325 258.06668
264.0 0.00379 234.61668 258.55289
271.0 0.00369 235.20076 258.30304
258.0 0.00388 235.78288 257.47928
268.0 0.00373 236.36111 256.32175
266.0 0.00376 236.93413 255.09569
213.0 0.00469 237.49852 253.99471
259.0 . . .
loop_
_refln_index_h
_refln_index_k
_refln_index_l
_pd_refln_wavelength_id
_refln_observed_status
_refln_F_squared_meas
_refln_F_squared_calc
_refln_phase_calc
_refln_d_spacing
_gsas_i100_meas
1 0 0 1 o 256.695 250.543 0.00 8.24662 41.65
1 0 0 2 o 260.785 250.543 0.00 8.24662 15.98
1 1 0 1 o 10.977 11.248 180.00 4.85301 1.12
1 1 0 2 o 11.149 11.248 180.00 4.85301 0.43
0 0 1 1 o 3.689 7.266 0.00 4.55591 0.12
0 0 1 2 o 1.545 7.266 0.00 4.55591 0.01
2 0 0 1 o 167.462 150.277 180.00 4.12331 6.44
1 0 -1 1 o 182.924 165.938 0.00 4.12020 6.62
2 0 0 2 o 163.041 150.277 180.00 4.12331 2.37
1 0 -1 2 o 176.850 165.938 0.00 4.12020 2.42
1 0 1 1 o 1212.861 1199.002 180.00 3.86742 44.96
1 0 1 2 o 1223.940 1199.002 180.00 3.86742 17.14
0 1 1 1 o -1.470 0.659 0.00 3.62897 0.00
0 1 1 2 o -1.470 0.659 0.00 3.62897 0.00
2 1 0 1 o 487.898 472.804 0.00 3.39867 29.55
1 1 -1 1 o 1753.949 1708.628 180.00 3.39693 100.00
2 1 0 2 o 478.649 472.804 0.00 3.39867 10.97
1 1 -1 2 o 1715.874 1708.628 180.00 3.39693 37.01
1 1 1 1 o 397.966 388.833 180.00 3.25104 21.95
1 1 1 2 o 390.315 388.833 180.00 3.25104 8.14
2 0 -1 1 o 377.592 408.972 0.00 3.17751 8.02
2 0 -1 2 o 317.797 408.972 0.00 3.17751 2.58
0 2 0 1 o 2509.454 2475.490 180.00 3.00122 50.26
0 2 0 2 o 2397.110 2475.490 180.00 3.00122 18.17
2 0 1 1 o 291.201 253.187 180.00 2.94950 5.54
2 0 1 2 o 287.246 253.187 180.00 2.94950 2.07
1 2 0 1 o 185.836 164.235 180.00 2.82025 7.09
1 2 0 2 o 188.423 164.235 180.00 2.82025 2.71
2 1 -1 1 o 39.409 34.773 180.00 2.80829 1.51
2 1 -1 2 o 36.639 34.773 180.00 2.80829 0.54
3 0 0 1 o 786.396 795.103 180.00 2.74887 12.76
3 0 0 2 o 713.630 795.103 180.00 2.74887 4.40
2 1 1 1 o 862.934 869.396 180.00 2.64718 29.19
2 1 1 2 o 810.010 869.396 180.00 2.64718 10.39
0 2 1 1 o -1.404 0.247 0.00 2.50628 0.00
0 2 1 2 o -1.404 0.247 0.00 2.50628 0.00
3 1 0 1 o 0.306 2.815 180.00 2.49926 0.00
3 1 0 2 o 1.412 2.815 180.00 2.49926 0.01
3 0 -1 1 o 1092.379 1053.499 0.00 2.43548 12.76
3 0 -1 2 o 1076.689 1053.499 0.00 2.43548 4.76
2 2 0 1 o 70.477 67.214 0.00 2.42651 2.06
1 2 -1 1 o 70.355 66.892 180.00 2.42587 1.94
2 2 0 2 o 73.159 67.214 0.00 2.42651 0.81
1 2 -1 2 o 73.181 66.892 180.00 2.42587 0.76
1 2 1 1 o 614.313 627.631 0.00 2.37103 17.26
1 2 1 2 o 611.623 627.631 0.00 2.37103 6.50
3 0 1 1 o 10.303 15.264 180.00 2.27953 0.09
0 0 2 1 o 0.865 0.968 0.00 2.27796 0.01
3 0 1 2 o 25.303 15.264 180.00 2.27953 0.09
0 0 2 2 o 2.146 0.968 0.00 2.27796 0.01
3 1 -1 1 o -1.953 10.804 0.00 2.25678 0.00
3 1 -1 2 o -1.678 10.804 0.00 2.25678 0.00
1 0 -2 1 o 97.428 108.242 180.00 2.23907 1.07
1 0 -2 2 o 117.382 108.242 180.00 2.23907 0.48
2 2 -1 1 o 285.513 270.512 180.00 2.18184 6.43
2 2 -1 2 o 288.862 270.512 180.00 2.18184 2.46
1 0 2 1 o 247.297 246.113 0.00 2.15481 2.66
1 0 2 2 o 278.140 246.113 0.00 2.15481 1.12
3 1 1 2 o 96.095 95.273 180.00 2.13103 0.75
0 1 2 2 o 694.289 698.287 180.00 2.12975 5.51
3 1 1 1 o 97.682 95.273 180.00 2.13103 2.03
0 1 2 1 o 712.177 698.287 180.00 2.12975 14.95
2 2 1 1 o 119.511 106.205 0.00 2.10366 2.53
2 2 1 2 o 110.765 106.205 0.00 2.10366 0.89
1 1 -2 1 o 172.606 166.103 0.00 2.09786 3.35
1 1 -2 2 o 177.222 166.103 0.00 2.09786 1.30
4 0 0 1 o 309.999 292.102 180.00 2.06165 2.62
2 0 -2 1 o 373.980 363.996 180.00 2.06010 3.06
4 0 0 2 o 280.966 292.102 180.00 2.06165 0.90
2 0 -2 2 o 340.578 363.996 180.00 2.06010 1.06
1 1 2 1 o 104.439 100.384 180.00 2.02808 2.00
3 2 0 1 o 454.929 439.364 0.00 2.02710 8.83
1 1 2 2 o 100.156 100.384 180.00 2.02808 0.73
3 2 0 2 o 431.523 439.364 0.00 2.02710 3.18
4 1 0 1 o 81.453 82.533 180.00 1.94985 1.34
2 1 -2 1 o 1.159 1.134 0.00 1.94853 0.01
4 1 0 2 o 88.438 82.533 180.00 1.94985 0.54
1 3 0 1 o 32.298 29.650 180.00 1.94440 0.56
2 1 -2 2 o 1.216 1.134 0.00 1.94853 0.01
1 3 0 2 o 28.675 29.650 180.00 1.94440 0.19
2 0 2 1 o 35.234 51.627 0.00 1.93371 0.33
4 0 -1 1 o 1.619 2.212 180.00 1.93331 0.01
2 0 2 2 o 40.205 51.627 0.00 1.93371 0.14
4 0 -1 2 o 1.824 2.212 180.00 1.93331 0.00
3 2 -1 1 o 418.588 453.663 180.00 1.89114 6.64
3 2 -1 2 o 459.221 453.663 180.00 1.89114 2.74
2 1 2 1 o 9.862 11.499 0.00 1.84056 0.17
4 1 -1 1 o 52.513 61.239 0.00 1.84021 0.79
2 1 2 2 o 10.990 11.499 0.00 1.84056 0.07
4 1 -1 2 o 59.749 61.239 0.00 1.84021 0.33
0 3 1 1 o 21.804 18.879 180.00 1.83193 0.34
4 0 1 1 o 598.429 512.919 0.00 1.82771 3.71
0 3 1 2 o 22.502 18.879 180.00 1.83193 0.13
4 0 1 2 o 608.368 512.919 0.00 1.82771 1.42
3 0 -2 1 o 40.208 33.773 0.00 1.82211 0.22
3 0 -2 2 o 47.149 33.773 0.00 1.82211 0.10
3 2 1 1 o 1.230 0.513 180.00 1.81528 0.03
0 2 2 1 o 21.821 13.388 180.00 1.81449 0.32
3 2 1 2 o 1.489 0.513 180.00 1.81528 0.01
0 2 2 2 o 23.125 13.388 180.00 1.81449 0.13
2 3 0 1 o 211.858 189.573 180.00 1.80008 2.99
1 3 -1 1 o 608.042 541.797 0.00 1.79982 8.24
2 3 0 2 o 215.900 189.573 180.00 1.80008 1.15
1 3 -1 2 o 612.762 541.797 0.00 1.79982 3.14
1 2 -2 1 o 58.644 52.061 0.00 1.79465 0.87
1 2 -2 2 o 47.777 52.061 0.00 1.79465 0.27
1 3 1 1 o 125.285 113.783 0.00 1.77708 1.67
1 3 1 2 o 129.585 113.783 0.00 1.77708 0.65
1 2 2 1 o 108.291 125.739 180.00 1.75038 1.58
4 1 1 1 o 43.328 48.204 0.00 1.74845 0.50
1 2 2 2 o 113.590 125.739 180.00 1.75038 0.62
4 1 1 2 o 45.102 48.204 0.00 1.74845 0.20
3 1 -2 1 o 129.525 138.022 180.00 1.74355 1.52
3 1 -2 2 o 104.598 138.022 180.00 1.74355 0.48
4 2 0 1 o 162.791 184.534 0.00 1.69933 2.06
2 2 -2 1 o 237.768 263.259 0.00 1.69846 2.89
4 2 0 2 o 173.635 184.534 0.00 1.69933 0.83
2 2 -2 2 o 254.323 263.259 0.00 1.69846 1.16
2 3 -1 1 o 42.044 41.374 0.00 1.69311 0.52
3 0 2 1 o 15.196 14.879 180.00 1.69295 0.08
2 3 -1 2 o 40.857 41.374 0.00 1.69311 0.19
3 0 2 2 o 14.612 14.879 180.00 1.69295 0.03
2 3 1 1 o 311.029 276.852 0.00 1.65579 3.70
2 3 1 2 o 328.871 276.852 0.00 1.65579 1.47
5 0 0 1 o 0.807 0.588 180.00 1.64932 0.00
5 0 0 2 o 1.378 0.588 180.00 1.64932 0.00
3 1 2 1 o 639.025 614.457 0.00 1.62938 6.69
2 2 2 1 o 47.298 47.612 180.00 1.62552 0.59
3 1 2 2 o 610.640 614.457 0.00 1.62938 2.42
4 2 -1 1 o 0.366 0.368 0.00 1.62528 0.00
2 2 2 2 o 49.058 47.612 180.00 1.62552 0.23
4 2 -1 2 o 0.382 0.368 0.00 1.62528 0.00
3 3 0 1 o 0.499 0.315 180.00 1.61767 0.01
3 3 0 2 o 0.091 0.315 180.00 1.61767 0.00
5 1 0 1 o 273.369 275.116 180.00 1.59038 2.62
5 0 -1 1 o 222.625 219.999 180.00 1.58929 0.99
4 0 -2 1 o 121.668 119.038 0.00 1.58875 0.51
5 1 0 2 o 294.442 275.116 180.00 1.59038 1.06
5 0 -1 2 o 243.162 219.999 180.00 1.58929 0.41
4 0 -2 2 o 133.754 119.038 0.00 1.58875 0.21
4 2 1 1 o 288.908 285.839 180.00 1.56102 2.89
3 2 -2 1 o 11.166 11.291 180.00 1.55753 0.09
4 2 1 2 o 283.054 285.839 180.00 1.56102 1.07
3 2 -2 2 o 12.209 11.291 180.00 1.55753 0.04
3 3 -1 1 o 12.152 9.785 180.00 1.54600 0.13
3 3 -1 2 o 10.310 9.785 180.00 1.54600 0.04
5 1 -1 1 o 50.636 54.494 0.00 1.53635 0.45
4 1 -2 1 o 416.880 441.588 180.00 1.53587 3.39
5 1 -1 2 o 53.105 54.494 0.00 1.53635 0.18
4 1 -2 2 o 431.355 441.588 180.00 1.53587 1.32
0 0 3 1 o 8.350 12.936 0.00 1.51864 0.04
5 0 1 1 o 44.347 49.202 0.00 1.51503 0.18
0 0 3 2 o 11.514 12.936 0.00 1.51864 0.02
1 0 -3 1 o 117.485 135.939 0.00 1.51380 0.52
5 0 1 2 o 43.860 49.202 0.00 1.51503 0.07
1 0 -3 2 o 127.193 135.939 0.00 1.51380 0.21
3 3 1 1 o 92.165 91.517 0.00 1.50373 0.90
0 3 2 1 o 389.475 380.213 0.00 1.50328 3.66
0 4 0 1 o 546.194 495.848 0.00 1.50061 2.20
3 3 1 2 o 102.364 91.517 0.00 1.50373 0.38
0 3 2 2 o 427.379 380.213 0.00 1.50328 1.51
0 4 0 2 o 551.690 495.848 0.00 1.50061 0.84
1 3 -2 1 o 41.089 50.503 180.00 1.49194 0.40
1 3 -2 2 o 47.673 50.503 180.00 1.49194 0.17
1 4 0 1 o 65.560 53.994 0.00 1.47636 0.53
4 0 2 1 o 5.183 4.580 180.00 1.47475 0.03
3 2 2 1 o 12.230 11.397 0.00 1.47453 0.10
1 0 3 1 o 13.583 13.012 180.00 1.47404 0.06
1 4 0 2 o 52.509 53.994 0.00 1.47636 0.16
0 1 3 1 o 132.476 137.335 0.00 1.47225 1.15
4 0 2 2 o 4.411 4.580 180.00 1.47475 0.01
3 2 2 2 o 11.146 11.397 0.00 1.47453 0.03
1 0 3 2 o 12.791 13.012 180.00 1.47404 0.02
5 1 1 1 o 69.289 67.933 0.00 1.46896 0.56
0 1 3 2 o 141.938 137.335 0.00 1.47225 0.46
1 1 -3 1 o 6.926 6.471 0.00 1.46784 0.05
1 3 2 1 o 74.002 64.737 0.00 1.46621 0.66
5 1 1 2 o 79.890 67.933 0.00 1.46896 0.24
1 1 -3 2 o 7.734 6.471 0.00 1.46784 0.02
1 3 2 2 o 79.373 64.737 0.00 1.46621 0.27
2 0 -3 1 o 45.080 46.910 0.00 1.46088 0.17
2 0 -3 2 o 4.955 46.910 0.00 1.46088 0.01
5 2 0 1 o 0.023 0.065 0.00 1.44544 0.00
5 2 0 2 o 0.134 0.065 0.00 1.44544 0.00
4 3 0 1 o 51.894 52.781 0.00 1.43582 0.45
2 3 -2 1 o 0.261 0.273 0.00 1.43529 0.00
4 3 0 2 o 49.024 52.781 0.00 1.43582 0.16
4 1 2 1 o 108.988 117.348 0.00 1.43216 0.82
2 3 -2 2 o 0.242 0.273 0.00 1.43529 0.00
1 1 3 1 o 126.352 138.122 0.00 1.43151 1.05
4 1 2 2 o 95.394 117.348 0.00 1.43216 0.28
1 1 3 2 o 112.786 138.122 0.00 1.43151 0.36
0 4 1 1 o 6.746 6.790 180.00 1.42528 0.06
0 4 1 2 o 5.970 6.790 180.00 1.42528 0.02
2 1 -3 1 o 182.716 167.591 0.00 1.41945 1.30
2 1 -3 2 o 197.870 167.591 0.00 1.41945 0.53
2 4 0 1 o 38.566 23.297 180.00 1.41013 0.28
1 4 -1 1 o 24.131 14.767 0.00 1.41000 0.17
2 4 0 2 o 27.810 23.297 180.00 1.41013 0.08
1 4 -1 2 o 17.278 14.767 0.00 1.41000 0.05
5 2 -1 1 o 138.760 137.183 0.00 1.40451 1.04
4 2 -2 1 o 70.954 71.243 180.00 1.40415 0.51
5 2 -1 2 o 139.192 137.183 0.00 1.40451 0.39
4 2 -2 2 o 74.616 71.243 180.00 1.40415 0.20
1 4 1 1 o 236.123 198.600 180.00 1.39899 1.75
1 4 1 2 o 227.624 198.600 180.00 1.39899 0.64
2 0 3 1 o 289.278 267.468 180.00 1.39174 1.07
2 3 2 1 o 12.061 11.184 180.00 1.39046 0.10
4 3 -1 1 o 83.315 77.673 180.00 1.39031 0.66
2 0 3 2 o 265.842 267.468 180.00 1.39174 0.37
2 3 2 2 o 10.857 11.184 180.00 1.39046 0.04
4 3 -1 2 o 75.700 77.673 180.00 1.39031 0.23
5 0 -2 1 o 63.166 62.144 0.00 1.38600 0.21
5 0 -2 2 o 69.869 62.144 0.00 1.38600 0.09
6 0 0 1 o 4.577 25.748 0.00 1.37444 0.03
3 0 -3 1 o 0.154 0.385 0.00 1.37340 0.00
6 0 0 2 o 17.510 25.748 0.00 1.37444 0.03
3 0 -3 2 o 0.138 0.385 0.00 1.37340 0.00
2 4 -1 1 o 112.484 95.928 0.00 1.35690 0.79
2 1 3 1 o 4.741 4.371 0.00 1.35577 0.04
0 2 3 1 o 10.234 10.372 180.00 1.35504 0.08
2 4 -1 2 o 86.335 95.928 0.00 1.35690 0.23
5 2 1 1 o 31.164 34.124 180.00 1.35247 0.22
2 1 3 2 o 3.987 4.371 0.00 1.35577 0.01
0 2 3 2 o 9.443 10.372 180.00 1.35504 0.03
1 2 -3 1 o 112.949 123.379 180.00 1.35160 0.82
5 1 -2 1 o 4.583 5.056 180.00 1.35047 0.03
4 3 1 1 o 10.073 11.080 180.00 1.34944 0.07
5 2 1 2 o 30.991 34.124 180.00 1.35247 0.08
1 2 -3 2 o 115.146 123.379 180.00 1.35160 0.31
3 3 -2 1 o 89.519 93.907 0.00 1.34718 0.65
5 1 -2 2 o 4.835 5.056 180.00 1.35047 0.01
4 3 1 2 o 10.523 11.080 180.00 1.34944 0.03
6 0 -1 1 o 284.264 299.457 180.00 1.34391 0.85
3 3 -2 2 o 89.051 93.907 0.00 1.34718 0.24
6 0 -1 2 o 257.565 299.457 180.00 1.34391 0.29
6 1 0 1 o 0.021 0.067 180.00 1.33976 0.00
3 1 -3 1 o 221.035 245.925 0.00 1.33880 1.33
2 4 1 1 o 29.524 32.671 180.00 1.33746 0.21
6 1 0 2 o 0.020 0.067 180.00 1.33976 0.00
3 1 -3 2 o 205.640 245.925 0.00 1.33880 0.47
2 4 1 2 o 27.518 32.671 180.00 1.33746 0.07
4 2 2 1 o 5.465 7.089 0.00 1.32359 0.05
1 2 3 1 o 12.683 13.139 0.00 1.32307 0.09
4 2 2 2 o 8.458 7.089 0.00 1.32359 0.03
1 2 3 2 o 15.634 13.139 0.00 1.32307 0.04
3 4 0 1 o 214.513 153.679 180.00 1.31713 1.42
3 4 0 2 o 216.677 153.679 180.00 1.31713 0.54
2 2 -3 1 o 42.541 29.065 180.00 1.31353 0.27
6 1 -1 1 o 1.749 1.065 180.00 1.31144 0.01
2 2 -3 2 o 52.055 29.065 180.00 1.31353 0.12
6 1 -1 2 o 1.494 1.065 180.00 1.31144 0.00
3 3 2 1 o 287.073 290.454 180.00 1.29239 1.93
5 0 2 1 o 106.423 101.092 180.00 1.29090 0.30
6 0 1 1 o 18.558 17.533 180.00 1.28950 0.05
3 3 2 2 o 308.031 290.454 180.00 1.29239 0.78
3 0 3 1 o 53.393 50.202 180.00 1.28914 0.17
5 0 2 2 o 106.742 101.092 180.00 1.29090 0.11
6 0 1 2 o 20.493 17.533 180.00 1.28950 0.02
3 0 3 2 o 63.780 50.202 180.00 1.28914 0.07
3 4 -1 1 o 182.284 148.089 0.00 1.27757 1.13
3 4 -1 2 o 143.130 148.089 0.00 1.27757 0.34
5 3 0 1 o 135.669 143.501 0.00 1.27266 0.88
5 3 0 2 o 127.859 143.501 0.00 1.27266 0.32
4 0 -3 1 o 22.140 27.716 180.00 1.26881 0.06
4 0 -3 2 o 28.971 27.716 180.00 1.26881 0.03
6 1 1 1 o 211.696 209.645 0.00 1.26073 1.14
3 1 3 1 o 0.468 0.458 180.00 1.26040 0.01
2 2 3 2 o 226.188 224.835 0.00 1.26259 0.54
5 1 2 2 o 17.660 17.689 180.00 1.26205 0.04
5 2 -2 1 o 55.410 56.382 180.00 1.25830 0.33
2 2 3 1 o 227.341 224.835 0.00 1.26259 1.43
6 1 1 2 o 202.933 209.645 0.00 1.26073 0.41
5 1 2 1 o 17.945 17.689 180.00 1.26205 0.10
3 1 3 2 o 0.414 0.458 180.00 1.26040 0.00
5 2 -2 2 o 54.832 56.382 180.00 1.25830 0.12
3 4 1 1 o 4.373 4.127 0.00 1.25340 0.03
0 4 2 1 o 7.596 6.908 0.00 1.25314 0.05
3 4 1 2 o 6.801 4.127 0.00 1.25340 0.02
0 4 2 2 o 10.216 6.908 0.00 1.25314 0.02
6 2 0 1 o 40.558 28.858 180.00 1.24963 0.24
3 2 -3 1 o 1.208 1.086 180.00 1.24885 0.01
6 2 0 2 o 23.087 28.858 180.00 1.24963 0.06
1 4 -2 1 o 19.395 24.154 180.00 1.24655 0.13
3 2 -3 2 o 0.969 1.086 180.00 1.24885 0.00
5 3 -1 1 o 33.039 33.699 180.00 1.24446 0.21
4 3 -2 1 o 212.725 214.227 0.00 1.24421 1.23
1 4 -2 2 o 24.000 24.154 180.00 1.24655 0.06
5 3 -1 2 o 31.640 33.699 180.00 1.24446 0.07
4 1 -3 1 o 2.463 2.591 180.00 1.24138 0.01
4 3 -2 2 o 204.513 214.227 0.00 1.24421 0.45
4 1 -3 2 o 1.552 2.591 180.00 1.24138 0.00
1 4 2 1 o 66.218 54.315 0.00 1.23142 0.40
1 4 2 2 o 54.014 54.315 0.00 1.23142 0.13
6 2 -1 1 o 203.680 215.643 0.00 1.22655 1.11
6 2 -1 2 o 212.103 215.643 0.00 1.22655 0.44
6 0 -2 1 o 23.745 15.668 0.00 1.21774 0.06
6 0 -2 2 o 18.679 15.668 0.00 1.21774 0.02
4 4 0 1 o 86.481 75.698 180.00 1.21325 0.50
2 4 -2 1 o 140.527 120.985 180.00 1.21294 0.79
4 4 0 2 o 86.603 75.698 180.00 1.21325 0.19
2 4 -2 2 o 139.751 120.985 180.00 1.21294 0.30
0 3 3 1 o 78.556 67.168 180.00 1.20966 0.47
5 3 1 1 o 56.034 47.045 180.00 1.20783 0.33
1 3 -3 1 o 2.657 2.373 180.00 1.20721 0.01
0 3 3 2 o 71.086 67.168 180.00 1.20966 0.16
5 3 1 2 o 77.900 47.045 180.00 1.20783 0.17
1 3 -3 2 o 5.244 2.373 180.00 1.20721 0.01
6 1 -2 1 o 78.439 49.850 0.00 1.19343 0.37
6 1 -2 2 o 64.058 49.850 0.00 1.19343 0.11
1 5 0 1 o 9.536 12.172 0.00 1.18797 0.06
4 3 2 1 o 62.001 70.055 180.00 1.18712 0.35
1 3 3 1 o 72.238 78.517 180.00 1.18675 0.43
5 2 2 1 o 84.467 88.028 0.00 1.18586 0.45
2 4 2 1 o 26.081 27.407 0.00 1.18551 0.16
4 4 -1 1 o 0.024 0.025 180.00 1.18542 0.00
1 5 0 2 o 11.271 12.172 0.00 1.18797 0.02
6 2 1 1 o 14.430 15.722 0.00 1.18477 0.08
3 2 3 1 o 38.133 42.445 0.00 1.18449 0.22
4 3 2 2 o 61.936 70.055 180.00 1.18712 0.13
1 3 3 2 o 67.881 78.517 180.00 1.18675 0.15
5 2 2 2 o 76.588 88.028 0.00 1.18586 0.16
2 4 2 2 o 24.340 27.407 0.00 1.18551 0.06
4 4 -1 2 o 0.023 0.025 180.00 1.18542 0.00
6 2 1 2 o 15.206 15.722 0.00 1.18477 0.03
3 2 3 2 o 42.082 42.445 0.00 1.18449 0.09
4 0 3 1 o 33.972 33.685 0.00 1.18131 0.08
2 3 -3 1 o 93.855 95.499 180.00 1.17985 0.51
4 0 3 2 o 32.366 33.685 0.00 1.18131 0.03
7 0 0 1 o 188.734 196.442 0.00 1.17809 0.44
2 3 -3 2 o 88.821 95.499 180.00 1.17985 0.18
7 0 0 2 o 166.597 196.442 0.00 1.17809 0.15
4 2 -3 1 o 43.897 21.352 0.00 1.16867 0.21
4 2 -3 2 o 33.428 21.352 0.00 1.16867 0.06
7 0 -1 1 o 2.843 4.639 180.00 1.16180 0.01
5 0 -3 1 o 78.134 93.238 180.00 1.16124 0.17
0 5 1 1 o 8.512 9.314 0.00 1.16086 0.05
4 4 1 1 o 117.581 116.499 0.00 1.15979 0.65
4 1 3 1 o 99.641 98.177 180.00 1.15908 0.50
7 0 -1 2 o 4.716 4.639 180.00 1.16180 0.00
5 0 -3 2 o 95.213 93.238 180.00 1.16124 0.08
3 4 -2 1 o 1.578 1.551 0.00 1.15835 0.01
0 5 1 2 o 9.597 9.314 0.00 1.16086 0.02
4 4 1 2 o 120.950 116.499 0.00 1.15979 0.25
4 1 3 2 o 100.203 98.177 180.00 1.15908 0.19
7 1 0 1 o 70.805 70.320 0.00 1.15603 0.32
3 4 -2 2 o 1.490 1.551 0.00 1.15835 0.00
7 1 0 2 o 74.451 70.320 0.00 1.15603 0.13
2 5 0 1 o 81.336 69.437 0.00 1.15263 0.40
1 5 -1 1 o 191.983 163.211 180.00 1.15256 0.92
2 5 0 2 o 97.849 69.437 0.00 1.15263 0.18
1 5 -1 2 o 229.933 163.211 180.00 1.15256 0.41
1 5 1 1 o 49.147 28.985 180.00 1.14652 0.23
1 5 1 2 o 46.245 28.985 180.00 1.14652 0.08
0 0 4 1 o 98.165 99.608 180.00 1.13898 0.24
2 3 3 1 o 2.381 2.406 180.00 1.14252 0.01
7 1 -1 2 o 8.182 8.706 180.00 1.14063 0.02
5 1 -3 2 o 57.176 61.043 180.00 1.14010 0.09
1 0 -4 2 o 103.086 111.102 180.00 1.13987 0.09
6 0 2 2 o 1.774 1.945 180.00 1.13976 0.00
7 1 -1 1 o 7.386 8.706 180.00 1.14063 0.04
5 3 -2 2 o 2.438 2.726 0.00 1.13934 0.00
5 1 -3 1 o 56.440 61.043 180.00 1.14010 0.24
0 0 4 2 o 84.515 99.608 180.00 1.13898 0.08
1 0 -4 1 o 105.232 111.102 180.00 1.13987 0.25
6 0 2 1 o 1.847 1.945 180.00 1.13976 0.00
2 3 3 2 o 2.302 2.406 180.00 1.14252 0.01
5 3 -2 1 o 2.674 2.726 0.00 1.13934 0.01
6 3 0 1 o 0.999 1.416 0.00 1.13289 0.01
3 3 -3 1 o 130.984 157.437 180.00 1.13231 0.65
6 3 0 2 o 1.328 1.416 0.00 1.13289 0.00
3 3 -3 2 o 156.506 157.437 180.00 1.13231 0.29
6 2 -2 1 o 10.649 9.423 180.00 1.12839 0.05
6 2 -2 2 o 15.803 9.423 180.00 1.12839 0.03
2 5 -1 1 o 27.619 11.739 180.00 1.12301 0.13
3 4 2 1 o 8.415 3.908 180.00 1.12296 0.04
7 0 1 1 o 19.174 18.229 180.00 1.12047 0.05
2 5 -1 2 o 12.099 11.739 180.00 1.12301 0.02
3 4 2 2 o 3.997 3.908 180.00 1.12296 0.01
1 1 -4 1 o 19.101 19.510 180.00 1.11985 0.09
6 1 2 1 o 58.041 60.272 180.00 1.11976 0.26
2 0 -4 1 o 0.000 0.000 0.00 1.11953 0.00
0 1 4 1 o 1.153 1.365 0.00 1.11901 0.00
7 0 1 2 o 11.823 18.229 180.00 1.12047 0.01
1 1 -4 2 o 11.908 19.510 180.00 1.11985 0.02
1 0 4 1 o 0.556 1.036 180.00 1.11702 0.00
6 1 2 2 o 36.395 60.272 180.00 1.11976 0.07
2 0 -4 2 o -0.001 0.000 0.00 1.11953 0.00
0 1 4 2 o 0.801 1.365 0.00 1.11901 0.00
6 3 -1 1 o 0.298 0.810 0.00 1.11561 0.00
1 0 4 2 o 0.361 1.036 180.00 1.11702 0.00
6 3 -1 2 o 1.046 0.810 0.00 1.11561 0.00
2 5 1 1 o 164.025 94.786 180.00 1.11191 0.77
5 4 0 1 o 0.027 0.014 0.00 1.10995 0.00
2 5 1 2 o 116.642 94.786 180.00 1.11191 0.21
5 4 0 2 o -0.015 0.014 0.00 1.10995 0.00
7 1 1 1 o 3.944 4.581 0.00 1.10144 0.02
2 1 -4 1 o 39.868 45.221 180.00 1.10055 0.19
3 5 0 1 o 0.306 0.361 0.00 1.10015 0.00
4 2 3 1 o 28.030 30.710 180.00 1.09923 0.13
7 1 1 2 o 4.273 4.581 0.00 1.10144 0.01
1 1 4 1 o 69.854 72.656 180.00 1.09816 0.34
2 1 -4 2 o 44.310 45.221 180.00 1.10055 0.08
3 5 0 2 o 0.365 0.361 0.00 1.10015 0.00
7 2 0 1 o 147.467 139.029 180.00 1.09663 0.67
4 2 3 2 o 32.636 30.710 180.00 1.09923 0.06
1 1 4 2 o 78.109 72.656 180.00 1.09816 0.14
7 2 0 2 o 154.931 139.029 180.00 1.09663 0.27
5 4 -1 1 o 64.678 58.360 180.00 1.09109 0.32
4 4 -2 1 o 32.262 29.607 0.00 1.09092 0.16
