#------------------------------------------------------------------------------
#$Date: 2016-02-18 17:37:37 +0200 (Thu, 18 Feb 2016) $
#$Revision: 176729 $
#$URL: svn://www.crystallography.net/cod/cif/1/50/16/1501694.cif $
#------------------------------------------------------------------------------
#
# This file is available in the Crystallography Open Database (COD),
# http://www.crystallography.net/
#
# All data on this site have been placed in the public domain by the
# contributors.
#
data_1501694
loop_
_publ_author_name
'Migliorati, Valentina'
'Ballirano, Paolo'
'Gontrani, Lorenzo'
'Triolo, Alessandro'
'Caminiti, Ruggero'
_publ_section_title
;
 Thermal and structural properties of ethylammonium chloride and its
 mixture with water.
;
_journal_issue                   17
_journal_name_full               'The journal of physical chemistry. B'
_journal_page_first              4887
_journal_page_last               4899
_journal_paper_doi               10.1021/jp2010138
_journal_volume                  115
_journal_year                    2011
_chemical_formula_sum            'C2 H8 Cl N'
_chemical_formula_weight         81.55
_chemical_name_systematic        ' ?'
_space_group_IT_number           11
_symmetry_cell_setting           monoclinic
_symmetry_space_group_name_Hall  '-P 2yb'
_symmetry_space_group_name_H-M   'P 1 21/m 1'
_audit_creation_date             2010-05-18T16:50
_audit_creation_method           'from EXP file using GSAS2CIF'
_audit_update_record
' 2010-05-18T16:50  Initial CIF as created by GSAS2CIF'
_cell_angle_alpha                90.0
_cell_angle_beta                 94.2299(14)
_cell_angle_gamma                90.0
_cell_formula_units_Z            2
_cell_length_a                   8.26299(14)
_cell_length_b                   6.00194(8)
_cell_length_c                   4.56608(7)
_cell_volume                     225.833(6)
_computing_structure_refinement  GSAS
_diffrn_radiation_probe          x-ray
_exptl_absorpt_correction_T_max  0.77480
_exptl_absorpt_correction_T_min  0.76997
_exptl_absorpt_process_details
;   GSAS Absorption/surface roughness correction: function number 0
 Debye-Scherrer absorption correction
Term (= MU.r/wave) =     0.10041    
Correction is not refined.
;
_pd_block_id
2010-05-18T16:50|75_OPT|paolo|Bruker_AXS_D8_Advance
_pd_calc_method                  'Rietveld Refinement'
_pd_instr_location               ' ?'
_pd_meas_2theta_range_inc        0.022
_pd_meas_2theta_range_max        89.994
_pd_meas_2theta_range_min        8.0
_pd_meas_number_of_points        3728
_pd_phase_name                   ethyl
_pd_proc_2theta_range_inc        0.022
_pd_proc_2theta_range_max        89.994
_pd_proc_2theta_range_min        8.0
_pd_proc_info_datetime           2010-05-18T16:50:03
_pd_proc_info_excluded_regions   ' ?'
_pd_proc_ls_background_function
;   GSAS Background function number 1 with 30 terms.
 Shifted Chebyshev function of 1st kind
      1:    481.400     2:   -414.028     3:    218.799     4:   -95.9126    
      5:    67.9830     6:   -68.8595     7:    86.1203     8:   -62.6770    
      9:    21.5987    10:    9.49521    11:   -9.72301    12:  -0.891599    
     13:    16.3551    14:   -21.7842    15:    17.3558    16:   -7.71445    
     17:    6.15314    18:   -7.29438    19:    11.9941    20:   -10.8805    
     21:    11.4785    22:   -6.96770    23:    6.64249    24:   -1.91310    
     25:  -0.610790    26:    3.10627    27:   -1.02002    28:   0.585655    
     29:   -3.19962    30:    4.96648    
;
_pd_proc_ls_peak_cutoff          0.00100
_pd_proc_ls_profile_function
;
 CW Profile function number 3 with  19 terms
 Pseudovoigt profile coefficients as parameterized in
 P. Thompson, D.E. Cox & J.B. Hastings (1987). J. Appl. Cryst.,20,79-83.
 Asymmetry correction of L.W. Finger, D.E. Cox & A. P. Jephcoat (1994).
 J. Appl. Cryst.,27,892-900.
 Peak tails are ignored  where the intensity is below 0.0010 times the peak
   Aniso. broadening axis   0.0   1.0   0.0
;
_pd_proc_ls_prof_R_factor        0.0462
_pd_proc_ls_prof_wR_expected     0.0427
_pd_proc_ls_prof_wR_factor       0.0608
_pd_proc_number_of_points        3728
_pd_spec_mounting                ' ?'
_refine_ls_goodness_of_fit_all   1.43
_refine_ls_matrix_type           full
_refine_ls_number_parameters     63
_refine_ls_number_restraints     27
_refine_ls_R_Fsqd_factor         0.06410
_refine_ls_shift/su_max          0.08
_refine_ls_shift/su_mean         0.00
_reflns_d_resolution_high        1.090
_reflns_d_resolution_low         8.240
_reflns_limit_h_max              7
_reflns_limit_h_min              0
_reflns_limit_k_max              5
_reflns_limit_k_min              0
_reflns_limit_l_max              4
_reflns_limit_l_min              -4
_reflns_number_total             410
_cod_data_source_file            jp2010138_si_010.cif
_cod_data_source_block           75_OPT_publ
_cod_depositor_comments
;
The following automatic conversions were performed:

'_geom_bond_publ_flag' value 'N' changed to 'n' according to
/home/saulius/struct/CIF-dictionaries/cif_core.dic dictionary named
'cif_core.dic' version 2.4.1 from 2010-06-29 (47
times).

'_geom_angle_publ_flag' value 'N' changed to 'n' according
to /home/saulius/struct/CIF-dictionaries/cif_core.dic dictionary
named 'cif_core.dic' version 2.4.1 from 2010-06-29 (23 times).

Automatic conversion script
Id: cif_fix_values 1715 2011-07-08 13:25:40Z adriana 
;
_cod_original_sg_symbol_H-M      'p 21/m'
_cod_database_code               1501694
#BEGIN Tags that were not found in dictionaries:
_gsas_exptl_extinct_corr_t_min   1.00000
_gsas_exptl_extinct_corr_t_max   1.00000
#END Tags that were not found in dictionaries
loop_
_symmetry_equiv_pos_site_id
_symmetry_equiv_pos_as_xyz
1 +x,+y,+z
2 -x,+y+1/2,-z
-1 -x,-y,-z
-2 +x,-y+1/2,+z
loop_
_atom_site_type_symbol
_atom_site_label
_atom_site_fract_x
_atom_site_fract_y
_atom_site_fract_z
_atom_site_occupancy
_atom_site_thermal_displace_type
_atom_site_U_iso_or_equiv
_atom_site_symmetry_multiplicity
Cl Cl 0.15383(20) 0.75 0.3870(4) 1.0 Uiso 0.0338(4) 2
N N 0.12510(33) 0.25 0.1441(6) 1.0 Uiso 0.0421(12) 2
C C1 0.26616(31) 0.25 -0.0322(6) 1.0 Uiso 0.0421(12) 2
C C2 0.4215(4) 0.25 0.1737(7) 1.0 Uiso 0.0421(12) 2
H H1 0.0247(5) 0.25 0.0156(13) 1.0 Uiso 0.0632(18) 2
H H2 0.5157(5) 0.25 0.0555(12) 1.0 Uiso 0.0632(18) 2
H H3 0.1277(9) 0.1169(5) 0.2690(9) 1.0 Uiso 0.0632(18) 4
H H4 0.2655(8) 0.1159(5) -0.1546(9) 1.0 Uiso 0.0632(18) 4
H H5 0.4229(9) 0.1159(5) 0.2967(9) 1.0 Uiso 0.0632(18) 4
loop_
_atom_type_symbol
_atom_type_number_in_cell
_atom_type_scat_dispersion_real
_atom_type_scat_dispersion_imag
_atom_type_scat_Cromer_Mann_a1
_atom_type_scat_Cromer_Mann_a2
_atom_type_scat_Cromer_Mann_a3
_atom_type_scat_Cromer_Mann_a4
_atom_type_scat_Cromer_Mann_b1
_atom_type_scat_Cromer_Mann_b2
_atom_type_scat_Cromer_Mann_b3
_atom_type_scat_Cromer_Mann_b4
_atom_type_scat_Cromer_Mann_c
_atom_type_scat_source
Cl 2.0 0.000 0.000 11.4604 0.01040 7.19640 1.16620 6.25560 18.5194 1.64550
47.7784 -9.5574 International_Tables_Vol_C
N 2.0 0.000 0.000 12.2126 0.00570 3.13220 9.89330 2.01250 28.9975 1.16630
0.58260 -11.529 International_Tables_Vol_C
C 4.0 0.000 0.000 2.31000 20.8439 1.02000 10.2075 1.58860 0.56870 0.86500
51.6512 0.21560 International_Tables_Vol_C
H 16.0 0.000 0.000 0.49300 10.5109 0.32291 26.1257 0.14019 3.14236 0.04081
57.7997 0.00304 International_Tables_Vol_C
loop_
_diffrn_radiation_wavelength
_diffrn_radiation_wavelength_wt
_diffrn_radiation_type
_diffrn_radiation_wavelength_id
1.540598 1.000 K\a~1~ 1
1.544390 0.380 K\a~2~ 2
loop_
_geom_angle_atom_site_label_1
_geom_angle_atom_site_label_2
_geom_angle_atom_site_label_3
_geom_angle
_geom_angle_site_symmetry_1
_geom_angle_site_symmetry_3
_geom_angle_publ_flag
H1 Cl H3 76.32(14) 2_555 1_565 n
H1 Cl H3 76.32(14) 2_555 -2_565 n
H3 Cl H3 151.20(24) 1_565 -2_565 n
C1 N H1 110.1(4) 1_555 1_555 n
C1 N H3 109.6(4) 1_555 1_555 n
C1 N H3 109.6(4) 1_555 -2_565 n
H1 N H3 109.2(5) 1_555 1_555 n
H1 N H3 109.2(5) 1_555 -2_565 n
H3 N H3 109.1(5) 1_555 -2_565 n
N C1 C2 109.07(24) 1_555 1_555 n
N C1 H4 110.0(4) 1_555 1_555 n
N C1 H4 110.0(4) 1_555 -2_565 n
C2 C1 H4 108.6(4) 1_555 1_555 n
C2 C1 H4 108.6(4) 1_555 -2_565 n
H4 C1 H4 110.5(5) 1_555 -2_565 n
C1 C2 H2 109.0(4) 1_555 1_555 n
C1 C2 H5 109.0(4) 1_555 1_555 n
C1 C2 H5 109.0(4) 1_555 -2_565 n
H2 C2 H5 109.8(5) 1_555 1_555 n
H2 C2 H5 109.8(5) 1_555 -2_565 n
H5 C2 H5 110.3(5) 1_555 -2_565 n
Cl H1 N 162.8(5) 2_545 1_555 n
Cl H3 N 157.5(4) 1_545 1_555 n
loop_
_geom_bond_atom_site_label_1
_geom_bond_atom_site_label_2
_geom_bond_distance
_geom_bond_site_symmetry_2
_geom_bond_publ_flag
Cl H1 2.271(6) 2_555 n
Cl H3 2.2736(30) 1_565 n
Cl H3 2.2736(30) -2_555 n
N C1 1.465(4) 1_555 n
N H1 0.980(6) 1_555 n
N H3 0.981(4) 1_555 n
N H3 0.981(4) -2_555 n
N H4 2.022(6) 1_555 n
N H4 2.022(6) -2_555 n
C1 N 1.465(4) 1_555 n
C1 C2 1.534(4) 1_555 n
C1 H1 2.023(5) 1_555 n
C1 H2 2.072(5) 1_555 n
C1 H3 2.018(6) 1_555 n
C1 H3 2.018(6) -2_555 n
C1 H4 0.979(4) 1_555 n
C1 H4 0.979(4) -2_555 n
C1 H5 2.072(6) 1_555 n
C1 H5 2.072(6) -2_555 n
C2 C1 1.534(4) 1_555 n
C2 H2 0.980(6) 1_555 n
C2 H4 2.067(6) 1_555 n
C2 H4 2.067(6) -2_555 n
C2 H5 0.981(4) 1_555 n
C2 H5 0.981(4) -2_555 n
H1 Cl 2.271(6) 2_545 n
H1 N 0.980(6) 1_555 n
H1 C1 2.023(5) 1_555 n
H1 H3 1.599(7) 1_555 n
H1 H3 1.599(7) -2_555 n
H2 C1 2.072(5) 1_555 n
H2 C2 0.980(6) 1_555 n
H2 H5 1.604(7) 1_555 n
H2 H5 1.604(7) -2_555 n
H3 Cl 2.2736(30) 1_545 n
H3 N 0.981(4) 1_555 n
H3 C1 2.018(6) 1_555 n
H3 H1 1.599(7) 1_555 n
H3 H3 1.598(6) -2_555 n
H4 N 2.022(6) 1_555 n
H4 C1 0.979(4) 1_555 n
H4 C2 2.067(6) 1_555 n
H4 H4 1.609(6) -2_555 n
H5 C1 2.072(6) 1_555 n
H5 C2 0.981(4) 1_555 n
H5 H2 1.604(7) 1_555 n
H5 H5 1.610(6) -2_555 n
loop_
_pd_meas_counts_total
_pd_proc_ls_weight
_pd_proc_intensity_bkg_calc
_pd_calc_intensity_total
1614.0 0.000620 1612.09607 1612.09778
1536.0 0.000651 1593.29639 1593.29736
1592.0 0.000628 1574.85620 1574.85730
1556.0 0.000643 1556.79541 1556.79639
1476.0 0.000678 1539.12695 1539.12769
1431.0 0.000699 1521.86426 1521.86548
1516.0 0.000660 1505.01733 1505.01807
1474.0 0.000678 1488.59692 1488.59741
1477.0 0.000677 1472.61011 1472.61072
1515.0 0.000660 1457.06262 1457.06311
1460.0 0.000685 1441.95703 1441.95752
1491.0 0.000671 1427.29919 1427.29993
1389.0 0.000720 1413.08972 1413.09021
1483.0 0.000674 1399.32910 1399.32910
1353.0 0.000739 1386.01599 1386.01648
1422.0 0.000703 1373.15039 1373.15039
1361.0 0.000735 1360.72827 1360.72876
1395.0 0.000717 1348.74585 1348.74658
1347.0 0.000742 1337.20056 1337.20105
1365.0 0.000733 1326.08691 1326.08716
1321.0 0.000757 1315.39722 1315.39783
1280.0 0.000781 1305.12769 1305.12732
1228.0 0.000814 1295.26917 1295.26978
1334.0 0.000750 1285.81543 1285.81555
1266.0 0.000790 1276.75867 1276.75879
1331.0 0.000751 1268.08813 1268.08838
1237.0 0.000808 1259.79834 1259.79895
1238.0 0.000808 1251.87817 1251.87817
1290.0 0.000775 1244.31824 1244.31836
1284.0 0.000779 1237.10999 1237.10950
1282.0 0.000780 1230.24219 1230.24243
1157.0 0.000864 1223.70483 1223.70532
1229.0 0.000814 1217.48877 1217.48901
1256.0 0.000796 1211.58337 1211.58350
1219.0 0.000820 1205.97839 1205.97827
1172.0 0.000853 1200.66150 1200.66174
1219.0 0.000820 1195.62439 1195.62451
1151.0 0.000869 1190.85510 1190.85522
1214.0 0.000824 1186.34338 1186.34375
1136.0 0.000880 1182.08020 1182.08032
1200.0 0.000833 1178.05249 1178.05249
1190.0 0.000840 1174.25171 1174.25195
1154.0 0.000867 1170.66724 1170.66736
1181.0 0.000847 1167.28870 1167.28857
1171.0 0.000854 1164.10583 1164.10571
1180.0 0.000847 1161.10913 1161.10901
1179.0 0.000848 1158.28809 1158.28845
1109.0 0.000902 1155.63391 1155.63391
1142.0 0.000876 1153.13684 1153.13672
1209.0 0.000827 1150.78760 1150.78772
1148.0 0.000871 1148.57654 1148.57654
1125.0 0.000889 1146.49487 1146.49548
1136.0 0.000880 1144.53467 1144.53491
1150.0 0.000870 1142.68701 1142.68713
1147.0 0.000872 1140.94312 1140.94324
1081.0 0.000925 1139.29529 1139.29529
1100.0 0.000909 1137.73547 1137.73547
1122.0 0.000891 1136.25610 1136.25647
1130.0 0.000885 1134.85010 1134.85071
1064.0 0.000940 1133.51001 1133.51025
1110.0 0.000901 1132.22839 1132.22876
1055.0 0.000948 1130.99915 1130.99939
1103.0 0.000907 1129.81519 1129.81543
1079.0 0.000927 1128.67078 1128.67102
1055.0 0.000948 1127.55969 1127.56030
1068.0 0.000936 1126.47607 1126.47632
1132.0 0.000883 1125.41455 1125.41455
1083.0 0.000923 1124.36938 1124.36951
1074.0 0.000931 1123.33557 1123.33582
1141.0 0.000876 1122.30835 1122.30798
1086.0 0.000921 1121.28271 1121.28296
1149.0 0.000870 1120.25439 1120.25439
1122.0 0.000891 1119.21924 1119.21960
1127.0 0.000887 1118.17334 1118.17383
1062.0 0.000942 1117.11267 1117.11292
1157.0 0.000864 1116.03394 1116.03430
1154.0 0.000867 1114.93274 1114.93286
1146.0 0.000873 1113.80713 1113.80774
1186.0 0.000843 1112.65369 1112.65393
1096.0 0.000912 1111.46924 1111.46936
1089.0 0.000918 1110.25146 1110.25171
1111.0 0.000900 1108.99792 1108.99792
1122.0 0.000891 1107.70618 1107.70618
1043.0 0.000959 1106.37439 1106.37451
1059.0 0.000944 1105.00073 1105.00061
1082.0 0.000924 1103.58325 1103.58337
1111.0 0.000900 1102.12024 1102.12061
1177.0 0.000850 1100.61047 1100.61072
1191.0 0.000840 1099.05273 1099.05347
1131.0 0.000884 1097.44617 1097.44653
1130.0 0.000885 1095.78943 1095.78992
1015.0 0.000985 1094.08179 1094.08228
1091.0 0.000917 1092.32251 1094.85791
1105.0 0.000905 1090.51123 1094.16492
1062.0 0.000942 1088.64746 1092.55164
1053.0 0.000950 1086.73035 1090.91284
1057.0 0.000946 1084.76086 1089.25220
1106.0 0.000904 1082.73828 1087.57361
1064.0 0.000940 1080.66187 1085.88354
1057.0 0.000946 1078.53369 1084.19019
1138.0 0.000879 1076.35229 1082.50073
1101.0 0.000908 1074.11829 1080.82739
1125.0 0.000889 1071.83240 1079.18311
1147.0 0.000872 1069.49524 1077.58618
1115.0 0.000897 1067.10730 1076.05847
1113.0 0.000898 1064.66992 1074.62878
1118.0 0.000894 1062.18237 1073.33459
1149.0 0.000870 1059.64673 1072.22852
1147.0 0.000872 1057.06299 1071.38501
1204.0 0.000831 1054.43262 1070.94568
1176.0 0.000850 1051.75696 1071.28320
1142.0 0.000876 1049.03650 1073.55212
1167.0 0.000857 1046.27246 1080.96082
1157.0 0.000864 1043.46631 1100.59351
1236.0 0.000809 1040.61890 1144.27649
1345.0 0.000743 1037.73157 1226.48425
1425.0 0.000702 1034.80579 1359.70081
1559.0 0.000641 1031.84277 1552.01807
1776.0 0.000563 1028.84375 1811.18335
2164.0 0.000462 1025.81006 2154.61792
2582.0 0.000387 1022.74353 2623.08569
3386.0 0.0002953 1019.64557 3289.35571
4224.0 0.0002367 1016.51691 4227.15381
4940.0 0.0002024 1013.35980 5389.79297
5809.0 0.0001721 1010.17523 6450.08545
6537.0 0.0001530 1006.96515 6840.82129
6908.0 0.0001448 1003.73071 6174.65234
5679.0 0.0001761 1000.47333 4708.63672
3515.0 0.0002845 997.19482 3141.87036
2012.0 0.000497 993.89691 2007.64490
1367.0 0.000732 990.58063 1400.91113
1081.0 0.000925 987.24780 1148.89209
1013.0 0.000987 983.89935 1061.04395
1024.0 0.000977 980.53748 1029.87976
1025.0 0.000976 977.16351 1014.77124
1055.0 0.000948 973.77887 1004.33826
960.0 0.001042 970.38513 995.86047
930.0 0.001075 966.98383 988.56372
970.0 0.001031 963.57581 982.09283
893.0 0.001120 960.16333 976.22736
971.0 0.001030 956.74750 970.81677
981.0 0.001019 953.32977 965.75452
942.0 0.001062 949.91089 960.96466
920.0 0.001087 946.49323 956.39105
913.0 0.001095 943.07776 951.99255
880.0 0.001136 939.66547 947.73730
947.0 0.001056 936.25806 943.60101
931.0 0.001074 932.85663 939.56555
974.0 0.001027 929.46216 935.61578
895.0 0.001117 926.07623 927.74762
941.0 0.001063 922.70020 922.70062
896.0 0.001116 919.33490 919.33533
890.0 0.001124 915.98157 915.98187
838.0 0.001193 912.64117 912.64142
854.0 0.001171 909.31519 909.31555
837.0 0.001195 906.00421 906.00458
856.0 0.001168 902.70978 902.71008
880.0 0.001136 899.43195 899.43213
862.0 0.001160 896.17242 896.17267
810.0 0.001235 892.93225 892.93268
870.0 0.001149 889.71155 889.71228
900.0 0.001111 886.51245 886.51282
888.0 0.001126 883.33447 883.33472
890.0 0.001124 880.17902 880.17920
853.0 0.001172 877.04700 877.04761
830.0 0.001205 873.93915 873.93945
891.0 0.001122 870.85541 870.85590
832.0 0.001202 867.79755 867.79797
861.0 0.001161 864.76520 864.76569
893.0 0.001120 861.76001 861.76025
830.0 0.001205 858.78162 858.78217
818.0 0.001222 855.83118 855.83167
870.0 0.001149 852.90857 852.90918
825.0 0.001212 850.01483 850.01538
821.0 0.001218 847.15070 847.15118
805.0 0.001242 844.31580 844.31622
836.0 0.001196 841.51111 841.51166
851.0 0.001175 838.73657 838.73694
797.0 0.001255 835.99274 835.99292
815.0 0.001227 833.28009 833.28046
821.0 0.001218 830.59869 830.59900
805.0 0.001242 827.94879 827.94922
804.0 0.001244 825.33032 825.33093
774.0 0.001292 822.74414 822.74426
866.0 0.001155 820.19025 820.19055
836.0 0.001196 817.66827 817.66888
831.0 0.001203 815.17871 815.17944
839.0 0.001192 812.72156 812.72211
874.0 0.001144 810.29700 810.29761
792.0 0.001263 807.90497 807.90533
796.0 0.001256 805.54596 805.54626
804.0 0.001244 803.21912 803.21960
811.0 0.001233 800.92480 800.92529
777.0 0.001287 798.66284 798.66351
788.0 0.001269 796.43365 796.43445
781.0 0.001280 794.23682 794.23743
805.0 0.001242 792.07220 792.07275
793.0 0.001261 789.93939 789.93964
814.0 0.001229 787.83850 787.83905
798.0 0.001253 785.76984 785.77039
806.0 0.001241 783.73242 783.73303
799.0 0.001252 781.72632 781.72705
803.0 0.001245 779.75153 779.75189
777.0 0.001287 777.80756 777.80804
801.0 0.001248 775.89453 775.89496
768.0 0.001302 774.01141 774.01215
775.0 0.001290 772.15869 772.15930
759.0 0.001318 770.33582 770.33624
764.0 0.001309 768.54218 768.54272
735.0 0.001361 766.77783 766.77850
808.0 0.001238 765.04242 765.04297
773.0 0.001294 763.33545 763.33594
801.0 0.001248 761.65668 761.65698
810.0 0.001235 760.00531 760.00598
767.0 0.001304 758.38159 758.38220
718.0 0.001393 756.78479 756.78546
743.0 0.001346 755.21472 755.21521
755.0 0.001325 753.67078 753.67133
770.0 0.001299 752.15240 752.15302
755.0 0.001325 750.65961 750.66010
757.0 0.001321 749.19159 749.19226
766.0 0.001305 747.74829 747.74872
744.0 0.001344 746.32874 746.32928
753.0 0.001328 744.93280 744.93353
753.0 0.001328 743.56012 743.56073
746.0 0.001340 742.21051 742.21112
746.0 0.001340 740.88287 740.88336
770.0 0.001299 739.57672 739.57733
770.0 0.001299 738.29218 738.29260
729.0 0.001372 737.02850 737.02893
738.0 0.001355 735.78528 735.78564
771.0 0.001297 734.56165 734.56244
740.0 0.001351 733.35791 733.35834
769.0 0.001300 732.17267 732.17334
788.0 0.001269 731.00653 731.00690
733.0 0.001364 729.85809 729.85858
733.0 0.001364 728.72729 728.72766
771.0 0.001297 727.61346 727.61407
753.0 0.001328 726.51642 726.51703
752.0 0.001330 725.43542 725.43610
707.0 0.001414 724.37054 724.37115
677.0 0.001477 723.32080 723.32117
708.0 0.001412 722.28552 722.28613
760.0 0.001316 721.26483 721.26532
734.0 0.001362 720.25793 720.25854
738.0 0.001355 719.26434 719.26508
724.0 0.001381 718.28430 718.28467
702.0 0.001425 717.31635 717.31689
737.0 0.001357 716.36066 716.36121
685.0 0.001460 715.41675 715.41711
744.0 0.001344 714.48401 714.48456
729.0 0.001372 713.56219 713.56256
712.0 0.001404 712.65063 712.65131
754.0 0.001326 711.74908 711.74963
715.0 0.001399 710.85730 710.85791
736.0 0.001359 709.97473 709.97534
740.0 0.001351 709.10101 709.10144
726.0 0.001377 708.23572 708.23621
707.0 0.001414 707.37860 707.37885
696.0 0.001437 706.52869 706.52911
711.0 0.001406 705.68652 705.68701
735.0 0.001361 704.85114 704.85187
730.0 0.001370 704.02271 704.02319
730.0 0.001370 703.20026 703.20074
710.0 0.001408 702.38385 702.38434
620.0 0.001613 701.57312 701.57367
704.0 0.001420 700.76758 700.76794
708.0 0.001412 699.96692 699.96747
726.0 0.001377 699.17096 699.17157
690.0 0.001449 698.37946 698.37970
702.0 0.001425 697.59174 697.59229
671.0 0.001490 696.80817 696.80872
723.0 0.001383 696.02789 696.02850
680.0 0.001471 695.25110 695.25140
710.0 0.001408 694.47693 694.47742
675.0 0.001481 693.70593 693.70642
690.0 0.001449 692.93707 692.93750
686.0 0.001458 692.17065 692.17108
677.0 0.001477 691.40619 691.40656
696.0 0.001437 690.64355 690.64410
703.0 0.001422 689.88232 689.88293
684.0 0.001462 689.12292 689.12335
707.0 0.001414 688.36426 688.36469
669.0 0.001495 687.60706 687.60748
658.0 0.001520 686.85052 686.85101
652.0 0.001534 686.09460 686.09485
699.0 0.001431 685.33893 685.33948
660.0 0.001515 684.58405 684.58429
651.0 0.001536 683.82898 683.82959
672.0 0.001488 683.07440 683.07471
710.0 0.001408 682.31921 682.32001
671.0 0.001490 681.56445 681.56488
670.0 0.001493 680.80896 680.80951
678.0 0.001475 680.05304 680.05365
678.0 0.001475 679.29681 679.29736
674.0 0.001484 678.54004 678.54041
709.0 0.001410 677.78229 677.78284
660.0 0.001515 677.02393 677.02460
697.0 0.001435 676.26483 676.26520
687.0 0.001456 675.50482 675.50500
684.0 0.001462 674.74347 674.74371
670.0 0.001493 673.98132 673.98163
653.0 0.001531 673.21820 673.21851
638.0 0.001567 672.45380 672.45416
705.0 0.001418 671.68817 671.68854
642.0 0.001558 670.92169 670.92200
648.0 0.001543 670.15381 670.15454
648.0 0.001543 669.38483 669.38519
660.0 0.001515 668.61469 668.61499
707.0 0.001414 667.84332 667.84357
654.0 0.001529 667.07068 667.07104
650.0 0.001538 666.29706 666.29730
697.0 0.001435 665.52197 665.52252
652.0 0.001534 664.74579 664.74615
637.0 0.001570 663.96863 663.96906
669.0 0.001495 663.19025 663.19055
613.0 0.001631 662.41113 662.41156
636.0 0.001572 661.63062 661.63104
659.0 0.001517 660.84937 660.84979
681.0 0.001468 660.06726 660.06757
675.0 0.001481 659.28418 659.28455
671.0 0.001490 658.50031 658.50073
636.0 0.001572 657.71576 657.71613
619.0 0.001616 656.93048 656.93073
684.0 0.001462 656.14478 656.14502
643.0 0.001555 655.35864 655.35883
668.0 0.001497 654.57172 654.57227
632.0 0.001582 653.78461 653.78510
646.0 0.001548 652.99738 652.99786
611.0 0.001637 652.20984 652.21033
653.0 0.001531 651.42249 651.42279
684.0 0.001462 650.63495 650.63519
647.0 0.001546 649.84760 649.84790
646.0 0.001548 649.06030 649.06073
661.0 0.001513 648.27356 648.27380
632.0 0.001582 647.48737 647.48773
630.0 0.001587 646.70166 646.70209
601.0 0.001664 645.91650 645.91699
673.0 0.001486 645.13226 645.13269
650.0 0.001538 644.34882 644.34924
636.0 0.001572 643.56653 643.56702
652.0 0.001534 642.78558 642.78589
620.0 0.001613 642.00543 642.00592
659.0 0.001517 641.22711 641.22723
564.0 0.001773 640.44989 640.45038
646.0 0.001548 639.67462 639.67517
650.0 0.001538 638.90118 638.90155
629.0 0.001590 638.12958 638.13007
669.0 0.001495 637.35992 637.36047
681.0 0.001468 636.59253 636.59308
576.0 0.001736 635.82733 635.82788
643.0 0.001555 635.06470 635.06506
678.0 0.001475 634.30475 634.30493
671.0 0.001490 633.54718 633.54767
620.0 0.001613 632.79266 632.79309
595.0 0.001681 632.04102 632.04144
655.0 0.001527 631.29266 631.29309
618.0 0.001618 630.54742 630.54761
607.0 0.001647 629.80530 629.80566
658.0 0.001520 629.06702 629.06744
644.0 0.001553 628.33246 628.33276
601.0 0.001664 627.60138 627.60168
592.0 0.001689 626.87421 626.87476
588.0 0.001701 626.15118 626.15161
614.0 0.001629 625.43250 625.43262
611.0 0.001637 624.71790 624.71814
604.0 0.001656 624.00763 624.00824
631.0 0.001585 623.30219 623.30267
617.0 0.001621 622.60126 622.60162
583.0 0.001715 621.90527 621.90576
573.0 0.001745 621.21399 621.21466
641.0 0.001560 620.52808 620.52863
593.0 0.001686 619.84729 619.84760
604.0 0.001656 619.17175 619.17212
633.0 0.001580 618.50146 618.50201
627.0 0.001595 617.83710 617.83734
641.0 0.001560 617.17828 617.17871
588.0 0.001701 616.52496 616.52527
643.0 0.001555 615.87775 615.87823
636.0 0.001572 615.23669 615.23688
630.0 0.001587 614.60156 614.60205
629.0 0.001590 613.97272 613.97308
614.0 0.001629 613.35022 613.35065
626.0 0.001597 612.73413 612.73474
629.0 0.001590 612.12469 612.12531
597.0 0.001675 611.52197 611.52228
663.0 0.001508 610.92609 610.92639
629.0 0.001590 610.33649 610.33691
628.0 0.001592 609.75427 609.75470
625.0 0.001600 609.17908 609.17957
639.0 0.001565 608.61108 608.61163
636.0 0.001572 608.05029 608.05048
609.0 0.001642 607.49658 607.49701
652.0 0.001534 606.95038 606.95074
623.0 0.001605 606.41168 606.41211
608.0 0.001645 605.88062 605.88104
625.0 0.001600 605.35693 605.35760
617.0 0.001621 604.84131 604.84174
631.0 0.001585 604.33331 604.33350
562.0 0.001779 603.83337 603.83374
538.0 0.001859 603.34100 603.34155
560.0 0.001786 602.85687 602.85742
609.0 0.001642 602.38080 602.38116
657.0 0.001522 601.91272 601.91309
560.0 0.001786 601.45319 601.45349
626.0 0.001597 601.00146 601.00195
570.0 0.001754 600.55823 600.55859
589.0 0.001698 600.12305 600.12354
613.0 0.001631 599.69659 599.69702
605.0 0.001653 599.27863 599.27893
606.0 0.001650 598.86896 598.86926
595.0 0.001681 598.46790 598.46838
625.0 0.001600 598.07550 598.07593
584.0 0.001712 597.69153 597.69214
597.0 0.001675 597.31628 597.31683
618.0 0.001618 596.94971 596.95032
624.0 0.001603 596.59192 596.59229
589.0 0.001698 596.24280 596.24347
607.0 0.001647 595.90271 595.90302
597.0 0.001675 595.57117 595.57159
547.0 0.001828 595.24860 595.24890
623.0 0.001605 594.93475 594.93500
646.0 0.001548 594.62946 594.63000
622.0 0.001608 594.33337 594.33386
597.0 0.001675 594.04608 594.04675
572.0 0.001748 593.76801 593.76831
588.0 0.001701 593.49847 593.49878
621.0 0.001610 593.23792 593.23828
585.0 0.001709 592.98639 592.98682
656.0 0.001524 592.74359 592.74402
582.0 0.001718 592.50958 592.50995
559.0 0.001789 592.28455 592.28528
615.0 0.001626 592.06866 592.06921
597.0 0.001675 591.86157 591.86194
602.0 0.001661 591.66321 591.66351
615.0 0.001626 591.47406 591.58606
622.0 0.001608 591.29346 591.41260
663.0 0.001508 591.12195 591.29126
594.0 0.001684 590.95929 591.13989
598.0 0.001672 590.80536 590.99866
597.0 0.001675 590.66010 590.86755
619.0 0.001616 590.52380 590.74701
620.0 0.001613 590.39606 590.63684
598.0 0.001672 590.27710 590.53772
592.0 0.001689 590.16705 590.44977
577.0 0.001733 590.06543 590.37347
614.0 0.001629 589.97266 590.30927
587.0 0.001704 589.88843 590.25806
615.0 0.001626 589.81293 590.22070
608.0 0.001645 589.74548 590.19775
636.0 0.001572 589.68707 590.19116
647.0 0.001546 589.63702 590.20264
620.0 0.001613 589.59534 590.23492
614.0 0.001629 589.56219 590.29065
603.0 0.001658 589.53705 590.37506
585.0 0.001709 589.52039 590.49512
585.0 0.001709 589.51190 590.66376
608.0 0.001645 589.51172 590.91144
581.0 0.001721 589.51978 591.32068
588.0 0.001701 589.53595 592.11005
591.0 0.001692 589.56018 593.77930
604.0 0.001656 589.59235 597.29645
647.0 0.001546 589.63263 604.26611
630.0 0.001587 589.68060 616.96033
594.0 0.001684 589.73651 637.87830
645.0 0.001550 589.80048 668.14337
649.0 0.001541 589.87195 704.47192
647.0 0.001546 589.95135 736.94824
674.0 0.001484 590.03802 751.74231
721.0 0.001387 590.13263 740.60852
653.0 0.001531 590.23468 709.20636
616.0 0.001623 590.34399 670.86151
625.0 0.001600 590.46094 637.45343
617.0 0.001621 590.58502 614.74744
622.0 0.001608 590.71655 602.18958
619.0 0.001616 590.85529 596.40015
621.0 0.001610 591.00110 594.10413
617.0 0.001621 591.15411 593.26178
513.0 0.001949 591.31396 592.94208
615.0 0.001626 591.48108 592.81268
602.0 0.001661 591.65491 592.77246
552.0 0.001812 591.83545 592.78790
645.0 0.001550 592.02295 592.84436
618.0 0.001618 592.21710 592.93268
557.0 0.001795 592.41779 593.04706
595.0 0.001681 592.62512 593.18250
574.0 0.001742 592.83893 593.33630
585.0 0.001709 593.05902 593.50574
603.0 0.001658 593.28589 593.68878
619.0 0.001616 593.51862 593.88416
597.0 0.001675 593.75769 594.11847
600.0 0.001667 594.00293 594.33734
628.0 0.001592 594.25446 594.57611
598.0 0.001672 594.51196 594.81451
555.0 0.001802 594.77521 595.06146
608.0 0.001645 595.04425 595.31696
605.0 0.001653 595.31934 595.58026
589.0 0.001698 595.60010 595.85144
571.0 0.001751 595.88641 596.13019
601.0 0.001664 596.17828 596.41644
626.0 0.001597 596.47595 596.59998
608.0 0.001645 596.77893 596.90710
620.0 0.001613 597.08728 597.17908
570.0 0.001754 597.40100 597.50238
582.0 0.001718 597.71997 597.83240
580.0 0.001724 598.04395 598.16931
564.0 0.001773 598.37329 598.51379
588.0 0.001701 598.70782 598.86639
606.0 0.001650 599.04724 599.22803
592.0 0.001689 599.39099 599.59924
585.0 0.001709 599.74030 599.98236
615.0 0.001626 600.09387 600.37970
588.0 0.001701 600.45282 600.79865
544.0 0.001838 600.81586 601.25769
544.0 0.001838 601.18365 601.80615
626.0 0.001597 601.55566 602.56012
590.0 0.001695 601.93262 603.75635
594.0 0.001684 602.31354 605.80164
581.0 0.001721 602.69891 609.27478
624.0 0.001603 603.08844 614.76855
629.0 0.001590 603.48230 622.42554
634.0 0.001577 603.88037 631.23193
598.0 0.001672 604.28229 638.68896
657.0 0.001522 604.68805 641.71198
661.0 0.001513 605.09778 638.91748
635.0 0.001575 605.51147 631.99451
601.0 0.001664 605.92932 623.85181
627.0 0.001595 606.35059 616.90845
648.0 0.001543 606.77527 612.30145
607.0 0.001647 607.20410 609.89020
607.0 0.001647 607.63617 608.96423
631.0 0.001585 608.07153 608.82452
610.0 0.001639 608.51068 609.02338
613.0 0.001631 608.95294 609.34906
640.0 0.001563 609.39862 609.72284
592.0 0.001689 609.84772 610.12018
591.0 0.001692 610.29974 610.53217
624.0 0.001603 610.75500 610.95557
615.0 0.001626 611.21320 611.38818
601.0 0.001664 611.67468 611.82886
626.0 0.001597 612.13904 612.27551
595.0 0.001681 612.60602 612.72797
671.0 0.001490 613.07611 613.18573
583.0 0.001715 613.54919 613.64807
616.0 0.001623 614.02478 614.11444
556.0 0.001799 614.50311 614.58472
575.0 0.001739 614.98376 615.05878
603.0 0.001658 615.46747 615.53644
589.0 0.001698 615.95355 616.01715
587.0 0.001704 616.44183 616.50092
607.0 0.001647 616.93286 616.98737
558.0 0.001792 617.42609 617.47711
568.0 0.001761 617.92181 617.96912
607.0 0.001647 618.41974 618.46405
599.0 0.001669 618.91974 618.96143
624.0 0.001603 619.42206 619.43433
597.0 0.001675 619.92639 619.93781
598.0 0.001672 620.43292 620.43329
633.0 0.001580 620.94135 620.94189
592.0 0.001689 621.45178 621.45215
619.0 0.001616 621.96411 621.96454
600.0 0.001667 622.47839 622.47870
645.0 0.001550 622.99414 622.99487
639.0 0.001565 623.51239 623.51270
595.0 0.001681 624.03186 624.03217
590.0 0.001695 624.55316 624.55359
591.0 0.001692 625.07599 625.07648
630.0 0.001587 625.60052 625.60101
609.0 0.001642 626.12665 626.12701
614.0 0.001629 626.65424 626.65442
625.0 0.001600 627.18341 627.18372
616.0 0.001623 627.71356 627.71411
600.0 0.001667 628.24542 628.24603
599.0 0.001669 628.77869 628.77899
672.0 0.001488 629.31311 629.31360
623.0 0.001605 629.84888 630.27258
644.0 0.001553 630.38580 631.26392
654.0 0.001529 630.92371 631.84644
683.0 0.001464 631.46307 632.59827
651.0 0.001536 632.00311 633.36700
642.0 0.001558 632.54456 633.98163
661.0 0.001513 633.08685 634.60327
655.0 0.001527 633.63019 635.23260
694.0 0.001441 634.17419 635.87036
689.0 0.001451 634.71930 636.51782
655.0 0.001527 635.26526 637.17542
682.0 0.001466 635.81177 637.84467
649.0 0.001541 636.35913 638.52661
698.0 0.001433 636.90729 639.22308
705.0 0.001418 637.45599 639.93646
701.0 0.001427 638.00531 640.66791
732.0 0.001366 638.55560 641.42151
671.0 0.001490 639.10608 642.19940
712.0 0.001404 639.65717 643.00635
672.0 0.001488 640.20856 643.84692
654.0 0.001529 640.76056 644.72687
704.0 0.001420 641.31281 645.65375
649.0 0.001541 641.86554 646.63678
654.0 0.001529 642.41858 647.68756
705.0 0.001418 642.97198 648.82074
677.0 0.001477 643.52545 650.05566
680.0 0.001471 644.07928 651.41724
649.0 0.001541 644.63300 652.93890
665.0 0.001504 645.18726 654.66650
646.0 0.001548 645.74127 656.66284
669.0 0.001495 646.29553 659.02417
637.0 0.001570 646.84937 661.92377
659.0 0.001517 647.40344 665.75439
671.0 0.001490 647.95752 671.55890
692.0 0.001445 648.51166 682.06708
715.0 0.001399 649.06519 703.68768
757.0 0.001321 649.61871 749.42212
856.0 0.001168 650.17212 841.18066
1047.0 0.000955 650.72510 1007.58167
1218.0 0.000821 651.27789 1270.41125
1648.0 0.000607 651.83032 1618.39429
1950.0 0.000513 652.38226 1982.84924
2223.0 0.000450 652.93359 2243.58545
2368.0 0.000422 653.48480 2290.69751
2224.0 0.000450 654.03558 2109.38574
1933.0 0.000517 654.58563 1785.35095
1477.0 0.000677 655.13519 1429.37219
1131.0 0.000884 655.68372 1125.87244
898.0 0.001114 656.23224 913.56842
779.0 0.001284 656.77954 788.41583
755.0 0.001325 657.32623 725.03955
660.0 0.001515 657.87207 696.62988
643.0 0.001555 658.41711 684.51202
691.0 0.001447 658.96149 678.89886
617.0 0.001621 659.50464 675.76172
615.0 0.001626 660.04706 673.70264
662.0 0.001511 660.58844 672.24854
690.0 0.001449 661.12872 671.20557
690.0 0.001449 661.66797 670.46344
679.0 0.001473 662.20599 669.95007
678.0 0.001475 662.74286 669.61377
626.0 0.001597 663.27869 669.41583
658.0 0.001520 663.81305 669.32825
700.0 0.001429 664.34613 669.32935
719.0 0.001391 664.87805 669.40289
682.0 0.001466 665.40851 672.95459
680.0 0.001471 665.93744 673.30603
685.0 0.001460 666.46497 673.71051
657.0 0.001522 666.99127 675.48438
674.0 0.001484 667.51563 676.04834
669.0 0.001495 668.03876 676.65930
721.0 0.001387 668.55994 677.31616
639.0 0.001565 669.07922 678.01855
675.0 0.001481 669.59729 678.76788
677.0 0.001477 670.11334 679.56519
659.0 0.001517 670.62756 680.41321
699.0 0.001431 671.13995 681.31573
722.0 0.001385 671.65039 682.27649
707.0 0.001414 672.15869 683.30280
670.0 0.001493 672.66547 684.40082
683.0 0.001464 673.16980 685.57959
710.0 0.001408 673.67224 686.85077
738.0 0.001355 674.17224 688.22668
717.0 0.001395 674.67029 689.29919
723.0 0.001383 675.16602 690.52441
715.0 0.001399 675.65948 692.36963
749.0 0.001335 676.15063 694.25372
752.0 0.001330 676.63916 696.37573
733.0 0.001364 677.12561 698.95050
710.0 0.001408 677.60931 701.87170
703.0 0.001422 678.09058 705.22260
703.0 0.001422 678.56934 709.11255
772.0 0.001295 679.04517 713.68451
690.0 0.001449 679.51880 719.13794
723.0 0.001383 679.98944 725.74896
714.0 0.001401 680.45740 733.93738
807.0 0.001239 680.92267 744.46967
812.0 0.001232 681.38452 759.10468
813.0 0.001230 681.84399 782.59631
894.0 0.001119 682.30035 827.55206
1032.0 0.000969 682.75360 923.83331
1133.0 0.000883 683.20392 1131.71558
1643.0 0.000609 683.65094 1549.52112
2309.0 0.000433 684.09497 2293.86938
3313.0 0.0003018 684.53564 3423.58569
4522.0 0.0002211 684.97308 4822.93311
5857.0 0.0001707 685.40747 6136.25781
6903.0 0.0001449 685.83801 6865.08057
6944.0 0.0001440 686.26532 6686.56787
6099.0 0.0001640 686.68933 5751.53711
4610.0 0.0002169 687.10986 4467.97021
3157.0 0.0003168 687.52643 3191.78613
2201.0 0.000454 687.93964 2170.29126
1425.0 0.000702 688.34906 1488.15369
947.0 0.001056 688.75507 1099.74634
766.0 0.001305 689.15692 908.07776
757.0 0.001321 689.55499 822.54218
747.0 0.001339 689.94922 784.34058
715.0 0.001399 690.33966 764.59692
723.0 0.001383 690.72607 752.08356
711.0 0.001406 691.10864 743.00238
716.0 0.001397 691.48682 736.00714
651.0 0.001536 691.86090 730.48279
651.0 0.001536 692.23077 726.05261
661.0 0.001513 692.59668 722.46051
695.0 0.001439 692.95813 719.52081
604.0 0.001656 693.31561 717.09454
662.0 0.001511 693.66803 715.08008
623.0 0.001605 694.01636 713.39740
688.0 0.001453 694.36035 711.98627
618.0 0.001618 694.69958 710.79877
632.0 0.001582 695.03448 709.79688
675.0 0.001481 695.36444 708.95007
670.0 0.001493 695.69006 708.23407
730.0 0.001370 696.01068 707.62854
758.0 0.001319 696.32672 707.12689
754.0 0.001326 696.63812 706.69666
775.0 0.001290 696.94415 706.33533
768.0 0.001302 697.24554 706.03754
781.0 0.001280 697.54175 705.78754
747.0 0.001339 697.83350 705.58252
735.0 0.001361 698.11969 705.41608
755.0 0.001325 698.40100 705.28333
746.0 0.001340 698.67706 705.18036
792.0 0.001263 698.94788 705.10272
806.0 0.001241 699.21356 705.04755
798.0 0.001253 699.47388 705.01184
785.0 0.001274 699.72882 704.99329
802.0 0.001247 699.97852 701.50824
808.0 0.001238 700.22260 701.67993
813.0 0.001230 700.46143 701.85156
814.0 0.001229 700.69458 700.72821
788.0 0.001269 700.92230 700.95856
781.0 0.001280 701.14417 701.18341
693.0 0.001443 701.36060 701.40326
633.0 0.001580 701.57159 701.61792
641.0 0.001560 701.77631 701.82733
688.0 0.001453 701.97552 702.03156
664.0 0.001506 702.16907 702.23102
642.0 0.001558 702.35651 702.42517
600.0 0.001667 702.53815 702.61511
594.0 0.001684 702.71381 702.80035
647.0 0.001546 702.88348 702.98187
610.0 0.001639 703.04730 703.15955
622.0 0.001608 703.20508 703.33472
666.0 0.001502 703.35663 703.50812
624.0 0.001603 703.50226 703.68219
602.0 0.001661 703.64148 703.86157
645.0 0.001550 703.77478 704.05975
632.0 0.001582 703.90155 704.31250
643.0 0.001555 704.02203 704.70410
646.0 0.001548 704.13647 705.40460
670.0 0.001493 704.24445 706.68347
642.0 0.001558 704.34595 708.83826
638.0 0.001567 704.44116 711.97009
686.0 0.001458 704.53021 715.68671
691.0 0.001447 704.61230 718.99780
677.0 0.001477 704.68817 720.65637
703.0 0.001422 704.75732 720.02069
656.0 0.001524 704.82025 717.63855
628.0 0.001592 704.87640 714.50604
639.0 0.001565 704.92603 711.40771
638.0 0.001567 704.96881 708.89618
660.0 0.001515 705.00494 707.18292
708.0 0.001412 705.03467 706.18243
661.0 0.001513 705.05750 705.67761
667.0 0.001499 705.07361 705.45001
645.0 0.001550 705.08289 705.34796
658.0 0.001520 705.08533 705.29291
683.0 0.001464 705.08136 705.25238
670.0 0.001493 705.06989 705.21478
627.0 0.001595 705.05206 705.17639
660.0 0.001515 705.02710 705.13507
693.0 0.001443 704.99554 705.09009
639.0 0.001565 704.95685 705.04034
704.0 0.001420 704.91119 704.98547
695.0 0.001439 704.85864 704.92529
691.0 0.001447 704.79919 704.85938
718.0 0.001393 704.73267 704.78699
730.0 0.001370 704.65924 704.70905
725.0 0.001379 704.57880 704.62415
677.0 0.001477 704.49121 704.53290
763.0 0.001311 704.39655 704.43506
691.0 0.001447 704.29504 704.33051
764.0 0.001309 704.18652 704.21936
715.0 0.001399 704.07074 704.10120
711.0 0.001406 703.94806 703.97650
728.0 0.001374 703.81805 703.84467
684.0 0.001462 703.68103 703.70624
693.0 0.001443 703.53705 703.56055
748.0 0.001337 703.38599 703.40778
713.0 0.001403 703.22760 703.24829
741.0 0.001350 703.06232 705.60303
747.0 0.001339 702.88965 714.18652
802.0 0.001247 702.71008 714.57117
858.0 0.001166 702.52332 715.94800
786.0 0.001272 702.32953 719.73029
775.0 0.001290 702.12848 720.45270
758.0 0.001319 701.92029 721.23438
747.0 0.001339 701.70502 722.10333
778.0 0.001285 701.48267 723.05914
761.0 0.001314 701.25317 724.10925
795.0 0.001258 701.01672 725.27423
791.0 0.001264 700.77301 726.56543
794.0 0.001259 700.52222 727.99945
797.0 0.001255 700.26434 729.59723
821.0 0.001218 699.99933 731.38269
857.0 0.001167 699.72729 733.38330
854.0 0.001171 699.44836 735.63348
817.0 0.001224 699.16193 738.17303
814.0 0.001229 698.86877 741.04889
844.0 0.001185 698.56873 744.32129
850.0 0.001176 698.26160 748.05914
805.0 0.001242 697.94708 752.35236
895.0 0.001117 697.62592 757.30872
866.0 0.001155 697.29767 763.06335
896.0 0.001116 696.96252 769.79199
898.0 0.001114 696.62042 777.71295
853.0 0.001172 696.27148 787.11847
883.0 0.001133 695.91547 798.38715
860.0 0.001163 695.55261 812.02502
910.0 0.001099 695.18298 828.73706
960.0 0.001042 694.80646 849.51807
939.0 0.001065 694.42310 875.97119
1028.0 0.000973 694.03296 911.20056
1093.0 0.000915 693.63611 962.76343
1202.0 0.000832 693.23224 1051.01392
1462.0 0.000684 692.82208 1227.97656
1891.0 0.000529 692.40503 1610.27136
2667.0 0.000375 691.98108 2412.70142
4125.0 0.0002424 691.55054 3936.24292
6474.0 0.0001545 691.11359 6438.68066
9772.0 0.0001023 690.67010 9862.27246
13366.0 0.0000748 690.21979 13584.98535
16108.0 0.0000621 689.76337 16464.18164
17355.0 0.0000576 689.30011 17383.58008
16323.0 0.0000613 688.83038 16106.13867
13722.0 0.0000729 688.35431 13406.62695
10109.0 0.0000989 687.87177 10197.21973
6889.0 0.0001452 687.38306 7129.03564
4666.0 0.0002143 686.88794 4651.66699
2827.0 0.000354 686.38641 2935.98877
1608.0 0.000622 685.87860 1904.83765
1147.0 0.000872 685.36487 1361.07678
1019.0 0.000981 684.84473 1101.26257
956.0 0.001046 684.31848 978.94873
912.0 0.001096 683.78613 914.56372
830.0 0.001205 683.24786 875.86823
795.0 0.001258 682.70313 846.31116
840.0 0.001190 682.15302 823.24854
749.0 0.001335 681.59668 805.43811
751.0 0.001332 681.03442 790.24811
741.0 0.001350 680.46655 777.63013
733.0 0.001364 679.89264 767.02075
707.0 0.001414 679.31293 758.01031
764.0 0.001309 678.72772 750.29016
697.0 0.001435 678.13666 743.61896
712.0 0.001404 677.54016 737.81750
711.0 0.001406 676.93787 732.73993
728.0 0.001374 676.33020 728.27606
724.0 0.001381 675.71710 724.33704
745.0 0.001342 675.09808 720.85138
744.0 0.001344 674.47418 717.76489
736.0 0.001359 673.84503 715.03265
772.0 0.001295 673.21008 712.62152
655.0 0.001527 672.57031 710.50775
683.0 0.001464 671.92529 708.67273
706.0 0.001416 671.27527 707.10815
732.0 0.001366 670.62000 705.81061
720.0 0.001389 669.95953 704.78668
710.0 0.001408 669.29425 704.05090
805.0 0.001242 668.62427 703.62836
702.0 0.001425 667.94922 703.55725
711.0 0.001406 667.26929 703.89319
849.0 0.001178 666.58447 704.71539
743.0 0.001346 665.89539 703.57202
749.0 0.001335 665.20142 697.25403
736.0 0.001359 664.50275 700.96539
708.0 0.001412 663.79962 706.01300
733.0 0.001364 663.09210 710.65820
659.0 0.001517 662.38000 724.49908
740.0 0.001351 661.66376 752.66327
829.0 0.001206 660.94312 813.44623
984.0 0.001016 660.21814 942.95435
1161.0 0.000861 659.48901 1192.68042
1532.0 0.000653 658.75562 1608.26318
2115.0 0.000473 658.01831 2183.73145
2861.0 0.0003495 657.27722 2816.23022
3336.0 0.0002998 656.53168 3312.81079
3534.0 0.0002830 655.78241 3479.25635
3736.0 0.0002677 655.02942 3275.10913
3164.0 0.0003161 654.27246 2837.55566
2448.0 0.000408 653.51184 2315.29980
1878.0 0.000532 652.74774 1805.22534
1463.0 0.000684 651.97980 1380.33337
1072.0 0.000933 651.20844 1075.86023
781.0 0.001280 650.43341 885.94073
725.0 0.001379 649.65540 782.20673
664.0 0.001506 648.87335 731.20343
683.0 0.001464 648.08838 706.92352
653.0 0.001531 647.30017 694.31006
668.0 0.001497 646.50885 686.53223
636.0 0.001572 645.71454 681.00818
653.0 0.001531 644.91687 676.81628
652.0 0.001534 644.11609 673.59149
634.0 0.001577 643.31256 671.15613
621.0 0.001610 642.50598 669.41937
637.0 0.001570 641.69690 668.35663
647.0 0.001546 640.88483 668.01569
610.0 0.001639 640.07013 668.58960
654.0 0.001529 639.25281 670.65515
652.0 0.001534 638.43298 675.85931
654.0 0.001529 637.61066 688.43555
685.0 0.001460 636.78534 717.66351
771.0 0.001297 635.95825 779.85382
897.0 0.001115 635.12872 895.92065
1141.0 0.000876 634.29669 1079.83948
1340.0 0.000746 633.46277 1318.81982
1619.0 0.000618 632.62634 1560.25403
1795.0 0.000557 631.78772 1722.85754
1785.0 0.000560 630.94769 1742.68835
1617.0 0.000618 630.10510 1629.28577
1516.0 0.000660 629.26074 1444.85815
1212.0 0.000825 628.41455 1239.70630
988.0 0.001012 627.56671 1046.28760
890.0 0.001124 626.71704 889.41608
750.0 0.001333 625.86536 779.04449
698.0 0.001433 625.01263 711.11633
615.0 0.001626 624.15790 674.11926
588.0 0.001701 623.30157 655.56866
596.0 0.001678 622.44434 644.18164
565.0 0.001770 621.58521 638.81335
602.0 0.001661 620.72498 635.08881
567.0 0.001764 619.86322 631.38397
576.0 0.001736 619.00055 628.92505
616.0 0.001623 618.13660 626.77966
593.0 0.001686 617.27142 624.86621
603.0 0.001658 616.40521 623.13214
604.0 0.001656 615.53809 621.53778
574.0 0.001742 614.66998 620.05396
591.0 0.001692 613.80103 618.66016
579.0 0.001727 612.93109 617.33807
583.0 0.001715 612.06042 616.07611
591.0 0.001692 611.18890 614.86273
624.0 0.001603 610.31702 613.69092
590.0 0.001695 609.44427 612.55396
581.0 0.001721 608.57092 611.44592
652.0 0.001534 607.69733 610.36322
619.0 0.001616 606.82294 609.30212
619.0 0.001616 605.94806 608.25922
608.0 0.001645 605.07306 607.23260
593.0 0.001686 604.19757 606.22046
610.0 0.001639 603.32178 605.22021
612.0 0.001634 602.44568 609.24976
609.0 0.001642 601.56970 608.52136
610.0 0.001639 600.69342 607.82111
588.0 0.001701 599.81702 609.01453
598.0 0.001672 598.94067 608.46613
626.0 0.001597 598.06427 607.95709
560.0 0.001786 597.18787 607.49072
593.0 0.001686 596.31165 607.07074
625.0 0.001600 595.43561 605.90082
657.0 0.001522 594.55975 605.62482
620.0 0.001613 593.68408 605.40851
599.0 0.001669 592.80841 604.95282
616.0 0.001623 591.93347 604.89423
606.0 0.001650 591.05853 604.92102
592.0 0.001689 590.18439 605.04565
660.0 0.001515 589.31042 605.28265
636.0 0.001572 588.43683 605.64972
624.0 0.001603 587.56403 606.16724
626.0 0.001597 586.69135 606.86090
615.0 0.001626 585.82001 607.76141
592.0 0.001689 584.94849 608.90680
573.0 0.001745 584.07819 610.34412
622.0 0.001608 583.20844 612.13159
637.0 0.001570 582.33929 614.34448
650.0 0.001538 581.47107 617.56061
646.0 0.001548 580.60364 620.96063
654.0 0.001529 579.73694 625.16821
707.0 0.001414 578.87128 630.39813
646.0 0.001548 578.00647 637.13605
649.0 0.001541 577.14270 645.43176
736.0 0.001359 576.27966 656.12177
768.0 0.001302 575.41785 670.44275
734.0 0.001362 574.55719 691.33765
842.0 0.001188 573.69727 726.69958
850.0 0.001176 572.83881 796.80017
990.0 0.001010 571.98102 947.13770
1337.0 0.000748 571.12469 1260.65088
1739.0 0.000575 570.26941 1850.27539
2779.0 0.000360 569.41565 2806.08691
4053.0 0.0002467 568.56299 4093.07300
5430.0 0.0001842 567.71124 5467.05273
6361.0 0.0001572 566.86084 6502.41504
6815.0 0.0001467 566.01227 6805.03516
6634.0 0.0001507 565.16473 6339.86475
5429.0 0.0001842 564.31848 5425.01709
4072.0 0.0002456 563.47351 4355.17041
3214.0 0.0003111 562.63013 3292.17358
2278.0 0.000439 561.78845 2364.74878
1608.0 0.000622 560.94788 1659.96521
1036.0 0.000965 560.10876 1191.31287
737.0 0.001357 559.27106 917.69983
699.0 0.001431 558.43518 775.42181
632.0 0.001582 557.60071 706.04895
645.0 0.001550 556.76746 671.04718
617.0 0.001621 555.93610 650.87445
611.0 0.001637 555.10626 637.43396
582.0 0.001718 554.27783 627.86090
575.0 0.001739 553.45142 621.44006
611.0 0.001637 552.62610 618.88531
682.0 0.001466 551.80273 622.97925
638.0 0.001567 550.98083 639.78247
719.0 0.001391 550.16052 678.97693
769.0 0.001300 549.34259 750.84137
902.0 0.001109 548.52545 858.33008
1023.0 0.000978 547.71051 987.07330
1161.0 0.000861 546.89685 1102.62537
1197.0 0.000835 546.08521 1162.44922
1265.0 0.000791 545.27551 1145.42310
1127.0 0.000887 544.46722 1071.14917
1021.0 0.000979 543.66071 972.38348
844.0 0.001185 542.85583 868.48669
836.0 0.001196 542.05298 771.38000
657.0 0.001522 541.25177 691.66510
640.0 0.001563 540.45221 634.16687
589.0 0.001698 539.65460 597.51703
577.0 0.001733 538.85864 576.57886
534.0 0.001873 538.06439 565.36407
578.0 0.001730 537.27216 559.17633
558.0 0.001792 536.48151 555.26282
577.0 0.001733 535.69257 552.78094
502.0 0.001992 534.90582 550.37421
546.0 0.001832 534.12024 548.26703
554.0 0.001805 533.33704 546.53369
539.0 0.001855 532.55524 539.87878
536.0 0.001866 531.77563 538.51617
559.0 0.001789 530.99744 537.24524
563.0 0.001776 530.22113 534.23834
546.0 0.001832 529.44672 533.19788
583.0 0.001715 528.67389 532.20374
550.0 0.001818 527.90308 531.24945
568.0 0.001761 527.13403 530.36475
539.0 0.001855 526.36621 529.47485
500.0 0.002000 525.60095 528.61145
565.0 0.001770 524.83691 527.77112
491.0 0.002037 524.07507 526.95233
558.0 0.001792 523.31476 526.15363
531.0 0.001883 522.55603 525.37360
519.0 0.001927 521.79944 524.61163
522.0 0.001916 521.04443 523.86713
451.0 0.002217 520.29095 523.14026
512.0 0.001953 519.53925 522.43085
531.0 0.001883 518.78931 521.73969
503.0 0.001988 518.04102 521.06757
502.0 0.001992 517.29474 520.41547
507.0 0.001972 516.55005 519.78516
451.0 0.002217 515.80682 519.17798
506.0 0.001976 515.06537 518.59698
514.0 0.001946 514.32562 517.54919
464.0 0.002155 513.58734 517.05371
485.0 0.002062 512.85101 516.59473
502.0 0.001992 512.11621 516.17828
481.0 0.002079 511.38290 515.62927
513.0 0.001949 510.65146 515.33215
522.0 0.001916 509.92123 515.10754
518.0 0.001931 509.19312 514.97144
520.0 0.001923 508.46613 514.94562
533.0 0.001876 507.74075 515.05804
544.0 0.001838 507.01703 515.34668
486.0 0.002058 506.29495 516.77679
565.0 0.001770 505.57419 517.64526
495.0 0.002020 504.85513 518.98163
496.0 0.002016 504.13733 521.13879
565.0 0.001770 503.42111 525.39124
543.0 0.001842 502.70636 533.42426
564.0 0.001773 501.99332 550.85950
587.0 0.001704 501.28140 587.36432
712.0 0.001404 500.57098 656.19208
828.0 0.001208 499.86209 768.20020
995.0 0.001005 499.15433 920.55713
1133.0 0.000883 498.44818 1086.29333
1304.0 0.000767 497.74335 1216.75830
1379.0 0.000725 497.03973 1264.70374
1292.0 0.000774 496.33765 1224.02783
1324.0 0.000755 495.63681 1134.06604
1120.0 0.000893 494.93729 1033.86548
964.0 0.001037 494.23907 941.16608
875.0 0.001143 493.54202 863.99213
864.0 0.001157 492.84631 804.78357
801.0 0.001248 492.15189 757.08051
760.0 0.001316 491.45856 712.89160
713.0 0.001403 490.76648 671.09705
642.0 0.001558 490.07541 633.80023
580.0 0.001724 489.38580 600.78076
576.0 0.001736 488.69730 571.36224
568.0 0.001761 488.00989 546.70758
509.0 0.001965 487.32349 528.04065
517.0 0.001934 486.63821 515.36584
495.0 0.002020 485.95432 507.60828
484.0 0.002066 485.27124 503.20242
487.0 0.002053 484.58945 500.74451
484.0 0.002066 483.90829 499.31009
462.0 0.002165 483.22852 498.43121
505.0 0.001980 482.54965 497.91699
503.0 0.001988 481.87173 497.70898
490.0 0.002041 481.19479 497.80563
476.0 0.002101 480.51877 498.23608
453.0 0.002208 479.84381 499.05435
445.0 0.002247 479.16962 500.34543
464.0 0.002155 478.49649 502.24561
512.0 0.001953 477.82425 504.99673
518.0 0.001931 477.15283 509.13699
527.0 0.001898 476.48215 516.05383
531.0 0.001883 475.81259 529.36682
564.0 0.001773 475.14362 557.56940
674.0 0.001484 474.47565 617.20905
856.0 0.001168 473.80829 733.39911
1059.0 0.000944 473.14175 931.55658
1405.0 0.000712 472.47629 1217.44824
1561.0 0.000641 471.81113 1553.94116
1815.0 0.000551 471.14709 1853.98767
1919.0 0.000521 470.48349 2011.81006
1880.0 0.000532 469.82053 1976.77039
1732.0 0.000577 469.15869 1801.33887
1441.0 0.000694 468.49725 1569.14465
1174.0 0.000852 467.83658 1324.89368
970.0 0.001031 467.17633 1088.42700
832.0 0.001202 466.51694 884.81494
715.0 0.001399 465.85825 726.99982
579.0 0.001727 465.19995 620.17572
526.0 0.001901 464.54260 556.32330
519.0 0.001927 463.88550 522.78723
470.0 0.002128 463.22910 505.22205
502.0 0.001992 462.57324 495.38010
502.0 0.001992 461.91797 489.60266
460.0 0.002174 461.26343 485.47812
451.0 0.002217 460.60898 482.23782
495.0 0.002020 459.95535 479.41098
500.0 0.002000 459.30219 477.17239
496.0 0.002016 458.64957 475.25937
481.0 0.002079 457.99744 473.60660
453.0 0.002208 457.34570 472.07291
493.0 0.002028 456.69440 470.81274
512.0 0.001953 456.04379 469.70340
461.0 0.002169 455.39343 468.68884
522.0 0.001916 454.74362 467.82852
496.0 0.002016 454.09415 467.07446
493.0 0.002028 453.44519 466.41949
471.0 0.002123 452.79678 465.86005
509.0 0.001965 452.14841 465.39359
490.0 0.002041 451.50082 465.02164
499.0 0.002004 450.85333 464.74631
514.0 0.001946 450.20627 464.57324
463.0 0.002160 449.55988 464.50992
451.0 0.002217 448.91354 464.56689
441.0 0.002268 448.26797 464.75787
461.0 0.002169 447.62228 465.10065
487.0 0.002053 446.97714 465.61761
501.0 0.001996 446.33267 466.33728
493.0 0.002028 445.68814 467.29599
501.0 0.001996 445.04434 468.53976
504.0 0.001984 444.40048 470.12857
521.0 0.001919 443.75720 472.13962
474.0 0.002110 443.11435 474.67349
552.0 0.001812 442.47150 477.86691
545.0 0.001835 441.82947 481.90265
534.0 0.001873 441.18741 487.04425
519.0 0.001927 440.54584 493.70071
511.0 0.001957 439.90460 502.64780
511.0 0.001957 439.26367 515.72357
587.0 0.001704 438.62311 537.69708
624.0 0.001603 437.98285 580.46173
739.0 0.001353 437.34283 669.66113
838.0 0.001193 436.70331 849.26923
1212.0 0.000825 436.06412 1179.76807
1757.0 0.000569 435.42517 1703.84827
2515.0 0.000398 434.78671 2400.81812
3260.0 0.0003067 434.14832 3144.68701
3549.0 0.0002818 433.51056 3715.57202
3713.0 0.0002693 432.87296 3905.65332
3592.0 0.0002784 432.23608 3692.59619
3345.0 0.0002990 431.59912 3248.44702
2683.0 0.000373 430.96265 2734.37378
1915.0 0.000522 430.32681 2212.63184
1536.0 0.000651 429.69098 1714.43030
1199.0 0.000834 429.05597 1286.58228
899.0 0.001112 428.42087 961.64252
674.0 0.001484 427.78619 743.73077
545.0 0.001835 427.15213 614.39557
497.0 0.002012 426.51849 544.92358
471.0 0.002123 425.88538 509.17554
478.0 0.002092 425.25241 489.77585
479.0 0.002088 424.61990 477.70676
503.0 0.001988 423.98804 469.05475
448.0 0.002232 423.35629 462.26831
478.0 0.002092 422.72546 456.70468
474.0 0.002110 422.09473 452.03137
437.0 0.002288 421.46460 448.04214
450.0 0.002222 420.83493 444.59055
461.0 0.002169 420.20590 441.56659
470.0 0.002128 419.57727 438.88907
468.0 0.002137 418.94913 436.49347
450.0 0.002222 418.32162 434.33087
429.0 0.002331 417.69452 432.36243
432.0 0.002315 417.06815 430.55658
472.0 0.002119 416.44214 428.88812
433.0 0.002309 415.81686 427.33688
421.0 0.002375 415.19205 425.88583
417.0 0.002398 414.56821 424.52167
450.0 0.002222 413.94452 423.23209
417.0 0.002398 413.32178 422.00821
443.0 0.002257 412.69968 420.84146
397.0 0.002519 412.07803 419.72491
401.0 0.002494 411.45743 418.65320
374.0 0.002674 410.83719 417.62073
375.0 0.002667 410.21793 416.62378
439.0 0.002278 409.59915 415.66241
390.0 0.002564 408.98111 414.72504
421.0 0.002375 408.36420 413.81342
442.0 0.002262 407.74774 412.92447
410.0 0.002439 407.13229 412.05820
422.0 0.002370 406.51740 411.20895
403.0 0.002481 405.90347 410.38318
407.0 0.002457 405.29065 409.56757
408.0 0.002451 404.67838 408.76630
351.0 0.002849 404.06720 407.97849
402.0 0.002488 403.45679 407.20496
396.0 0.002525 402.84744 406.44073
422.0 0.002370 402.23895 405.68719
389.0 0.002571 401.63162 404.94339
397.0 0.002519 401.02505 402.01868
405.0 0.002469 400.41953 401.37497
400.0 0.002500 399.81509 400.73465
387.0 0.002584 399.21173 400.09784
378.0 0.002646 398.60944 398.63742
369.0 0.002710 398.00818 398.03763
378.0 0.002646 397.40820 397.43924
367.0 0.002725 396.80914 396.84201
376.0 0.002660 396.21155 396.24637
387.0 0.002584 395.61487 395.65167
388.0 0.002577 395.01950 395.05878
346.0 0.002890 394.42529 394.46725
357.0 0.002801 393.83240 393.87714
384.0 0.002604 393.24100 393.28882
388.0 0.002577 392.65045 392.70184
393.0 0.002545 392.06158 392.11682
395.0 0.002532 391.47382 391.53363
402.0 0.002488 390.88736 390.95227
406.0 0.002463 390.30270 390.37314
373.0 0.002681 389.71899 389.79602
381.0 0.002625 389.13715 389.22150
379.0 0.002639 388.55646 388.64941
441.0 0.002268 387.97723 388.08026
412.0 0.002427 387.39969 387.51440
397.0 0.002519 386.82358 386.95221
395.0 0.002532 386.24930 386.39456
394.0 0.002538 385.67621 385.84201
384.0 0.002604 385.10489 385.29617
391.0 0.002558 384.53528 384.76019
375.0 0.002667 383.96719 384.24149
366.0 0.002732 383.40094 383.75803
372.0 0.002688 382.83618 383.34964
400.0 0.002500 382.27328 383.09006
368.0 0.002717 381.71207 383.08499
391.0 0.002558 381.15265 383.43759
352.0 0.002841 380.59521 384.17352
431.0 0.002320 380.03940 385.16745
350.0 0.002857 379.48544 387.13620
394.0 0.002538 378.93356 387.80612
374.0 0.002674 378.38333 388.08072
378.0 0.002646 377.83521 388.26535
384.0 0.002604 377.28891 388.99619
407.0 0.002457 376.74454 389.66931
392.0 0.002551 376.20251 389.53104
449.0 0.002227 375.66205 388.48209
366.0 0.002732 375.12390 386.66650
416.0 0.002404 374.58768 384.65326
341.0 0.002933 374.05362 382.73447
387.0 0.002584 373.52176 380.92126
371.0 0.002695 372.99194 379.24933
367.0 0.002725 372.46442 377.77301
357.0 0.002801 371.93900 376.55283
399.0 0.002506 371.41568 375.60382
358.0 0.002793 370.89478 374.89209
390.0 0.002564 370.37604 374.35535
342.0 0.002924 369.85977 373.93222
365.0 0.002740 369.34555 373.57797
367.0 0.002725 368.83395 373.26999
353.0 0.002833 368.32449 372.99823
362.0 0.002762 367.81738 372.76096
404.0 0.002475 367.31284 372.55936
375.0 0.002667 366.81061 372.39624
398.0 0.002513 366.31076 372.27646
381.0 0.002625 365.81360 372.20444
399.0 0.002506 365.31879 372.18735
365.0 0.002740 364.82648 372.23270
397.0 0.002519 364.33682 372.35046
384.0 0.002604 363.84961 372.55237
371.0 0.002695 363.36499 372.85352
402.0 0.002488 362.88300 373.27249
405.0 0.002469 362.40372 373.83191
352.0 0.002841 361.92700 374.56207
381.0 0.002625 361.45276 375.50012
388.0 0.002577 360.98154 376.69553
381.0 0.002625 360.51276 378.21359
420.0 0.002381 360.04681 380.14151
389.0 0.002571 359.58359 382.60565
392.0 0.002551 359.12296 385.80402
437.0 0.002288 358.66544 390.11911
419.0 0.002387 358.21039 396.45071
403.0 0.002481 357.75845 407.05249
430.0 0.002326 357.30917 427.26263
493.0 0.002028 356.86258 469.39734
527.0 0.001898 356.41922 548.54401
731.0 0.001368 355.97849 687.97742
915.0 0.001093 355.54089 902.16559
1204.0 0.000831 355.10599 1181.18213
1463.0 0.000684 354.67416 1478.02136
1617.0 0.000618 354.24524 1712.81165
1629.0 0.000614 353.81915 1816.18591
1737.0 0.000576 353.39636 1789.99316
1779.0 0.000562 352.97617 1702.80591
1637.0 0.000611 352.55930 1605.82800
1461.0 0.000684 352.14536 1496.06995
1317.0 0.000759 351.73453 1349.33142
1173.0 0.000853 351.32669 1168.28113
1063.0 0.000941 350.92184 984.38446
832.0 0.001202 350.52023 826.94348
673.0 0.001486 350.12158 704.55005
647.0 0.001546 349.72614 610.35468
571.0 0.001751 349.33374 536.65033
487.0 0.002053 348.94446 480.06287
439.0 0.002278 348.55826 438.94876
382.0 0.002618 348.17535 411.27106
394.0 0.002538 347.79553 394.04785
379.0 0.002639 347.41891 383.89252
404.0 0.002475 347.04538 377.89209
358.0 0.002793 346.67505 374.11304
347.0 0.002882 346.30807 371.50662
352.0 0.002841 345.94403 369.58127
406.0 0.002463 345.58350 368.12286
368.0 0.002717 345.22604 367.03256
375.0 0.002667 344.87170 366.26062
378.0 0.002646 344.52081 365.78076
363.0 0.002755 344.17288 365.58127
382.0 0.002618 343.82858 365.66470
379.0 0.002639 343.48718 366.04520
388.0 0.002577 343.14908 366.75119
381.0 0.002625 342.81448 367.82690
366.0 0.002732 342.48288 369.33716
399.0 0.002506 342.15485 371.37375
357.0 0.002801 341.82980 374.06949
398.0 0.002513 341.50815 377.62875
397.0 0.002519 341.18961 382.41574
367.0 0.002725 340.87451 389.23737
443.0 0.002257 340.56265 400.09296
415.0 0.002410 340.25403 419.91843
466.0 0.002146 339.94870 459.54202
493.0 0.002028 339.64679 538.79016
649.0 0.001541 339.34808 686.03949
923.0 0.001083 339.05249 928.36584
1231.0 0.000812 338.76044 1271.17236
1639.0 0.000610 338.47128 1674.35266
1976.0 0.000506 338.18570 2043.42932
2191.0 0.000456 337.90329 2256.89526
2292.0 0.000436 337.62408 2245.61743
2203.0 0.000454 337.34821 2061.93823
1942.0 0.000515 337.07553 1812.93176
1483.0 0.000674 336.80627 1560.36462
1178.0 0.000849 336.54001 1311.41809
1000.0 0.001000 336.27716 1065.89844
859.0 0.001164 336.01736 845.08868
622.0 0.001608 335.76096 667.72803
476.0 0.002101 335.50784 541.36993
448.0 0.002232 335.25778 460.98172
410.0 0.002439 335.01102 415.14499
385.0 0.002597 334.76736 390.44003
395.0 0.002532 334.52686 377.04572
350.0 0.002857 334.28967 368.98331
361.0 0.002770 334.05548 363.43683
341.0 0.002933 333.82465 359.09564
374.0 0.002674 333.59674 355.69058
360.0 0.002778 333.37219 352.86487
344.0 0.002907 333.15057 350.47989
369.0 0.002710 332.93219 348.44037
378.0 0.002646 332.71689 346.68777
403.0 0.002481 332.50467 345.15125
370.0 0.002703 332.29550 343.79745
371.0 0.002695 332.08929 342.59622
349.0 0.002865 331.88626 341.52594
344.0 0.002907 331.68625 340.55984
328.0 0.003049 331.48923 339.68564
340.0 0.002941 331.29510 338.88904
322.0 0.003106 331.10413 338.16025
311.0 0.003215 330.91602 337.49008
334.0 0.002994 330.73080 336.87106
326.0 0.003067 330.54865 336.29697
343.0 0.002915 330.36929 335.76257
354.0 0.002825 330.19302 335.26373
316.0 0.003165 330.01941 334.79605
326.0 0.003067 329.84891 334.35681
348.0 0.002874 329.68094 333.94284
353.0 0.002833 329.51593 333.55185
335.0 0.002985 329.35382 333.18173
288.0 0.003472 329.19424 332.83072
301.0 0.003322 329.03766 332.51923
302.0 0.003311 328.88354 332.20239
336.0 0.002976 328.73230 331.90051
307.0 0.003257 328.58389 331.61243
321.0 0.003115 328.43793 331.34515
311.0 0.003215 328.29474 331.08215
323.0 0.003096 328.15396 330.83035
324.0 0.003086 328.01596 330.58926
345.0 0.002899 327.88058 330.35815
306.0 0.003268 327.74777 330.13660
343.0 0.002915 327.61737 329.92435
321.0 0.003115 327.48950 328.27698
304.0 0.003289 327.36407 328.13611
317.0 0.003155 327.24109 328.00067
306.0 0.003268 327.12051 327.97095
334.0 0.002994 327.00238 327.29559
331.0 0.003021 326.88657 327.20349
335.0 0.002985 326.77310 327.11743
333.0 0.003003 326.66211 327.03821
326.0 0.003067 326.55316 327.00583
304.0 0.003289 326.44656 326.94742
296.0 0.003378 326.34225 326.90454
343.0 0.002915 326.24002 326.88855
334.0 0.002994 326.14014 326.92761
333.0 0.003003 326.04221 327.08261
326.0 0.003067 325.94647 327.46896
329.0 0.003040 325.85287 328.25964
329.0 0.003040 325.76117 329.64194
347.0 0.002882 325.67163 331.70551
345.0 0.002899 325.58401 334.29703
341.0 0.002933 325.49841 336.91806
357.0 0.002801 325.41470 338.81186
343.0 0.002915 325.33279 339.35291
348.0 0.002874 325.25290 338.57281
379.0 0.002639 325.17477 337.05994
324.0 0.003086 325.09848 335.35394
329.0 0.003040 325.02390 333.66159
342.0 0.002924 324.95114 331.98572
332.0 0.003012 324.88007 330.38474
325.0 0.003077 324.81052 328.98880
323.0 0.003096 324.74274 327.90704
320.0 0.003125 324.67651 327.18143
321.0 0.003115 324.61194 326.79623
370.0 0.002703 324.54889 326.72733
319.0 0.003135 324.48724 327.01273
329.0 0.003040 324.42719 327.81757
356.0 0.002809 324.36847 329.45032
341.0 0.002933 324.31119 332.27341
329.0 0.003040 324.25525 336.47653
316.0 0.003165 324.20059 341.77451
321.0 0.003115 324.14737 347.18671
326.0 0.003067 324.09534 351.17593
297.0 0.003367 324.04449 352.40311
324.0 0.003086 323.99487 350.89532
357.0 0.002801 323.94644 348.01151
327.0 0.003058 323.89914 344.99661
357.0 0.002801 323.85278 342.27884
294.0 0.003401 323.80774 339.87521
320.0 0.003125 323.76355 338.16006
362.0 0.002762 323.72025 338.14041
377.0 0.002653 323.67804 341.31253
348.0 0.002874 323.63672 349.45306
364.0 0.002747 323.59616 363.99435
382.0 0.002618 323.55661 384.87735
409.0 0.002445 323.51767 409.91052
458.0 0.002183 323.47968 432.14822
445.0 0.002247 323.44235 444.83829
439.0 0.002278 323.40582 443.91861
466.0 0.002146 323.36981 432.59927
425.0 0.002353 323.33435 417.75006
416.0 0.002404 323.29959 402.95239
397.0 0.002519 323.26532 388.75366
396.0 0.002525 323.23154 374.49619
382.0 0.002618 323.19836 360.86612
358.0 0.002793 323.16571 349.20599
359.0 0.002786 323.13339 340.34805
351.0 0.002849 323.10138 334.36636
347.0 0.002882 323.06979 330.75201
356.0 0.002809 323.03839 328.74756
374.0 0.002674 323.00732 327.67389
338.0 0.002959 322.97653 327.07809
310.0 0.003226 322.94571 326.71576
333.0 0.003003 322.91534 326.47443
344.0 0.002907 322.88489 326.29715
321.0 0.003115 322.85477 326.18271
331.0 0.003021 322.82449 326.10947
328.0 0.003049 322.79431 326.07452
346.0 0.002890 322.76407 326.07269
354.0 0.002825 322.73392 326.34546
303.0 0.003300 322.70361 326.41418
324.0 0.003086 322.67325 326.51468
326.0 0.003067 322.64264 326.64740
317.0 0.003155 322.61179 326.81494
293.0 0.003413 322.58090 327.11395
320.0 0.003125 322.54965 327.36533
327.0 0.003058 322.51828 327.66522
315.0 0.003175 322.48633 328.02158
363.0 0.002755 322.45428 328.44409
289.0 0.003460 322.42166 328.94589
326.0 0.003067 322.38873 329.65952
307.0 0.003257 322.35538 330.37787
351.0 0.002849 322.32166 332.16324
336.0 0.002976 322.28723 333.24301
329.0 0.003040 322.25238 334.54272
335.0 0.002985 322.21689 336.23965
323.0 0.003096 322.18082 338.39301
351.0 0.002849 322.14426 341.78140
352.0 0.002841 322.10684 346.65652
373.0 0.002681 322.06879 355.49194
381.0 0.002625 322.03006 372.58264
422.0 0.002370 321.99057 404.93845
474.0 0.002110 321.95026 461.35117
566.0 0.001767 321.90924 548.54364
686.0 0.001458 321.86728 664.74866
797.0 0.001255 321.82458 793.75848
880.0 0.001136 321.78088 903.90131
958.0 0.001044 321.73627 958.91510
941.0 0.001063 321.69077 943.69165
1015.0 0.000985 321.64432 880.12262
959.0 0.001043 321.59680 802.52563
713.0 0.001403 321.54831 728.67401
625.0 0.001600 321.49875 658.23224
580.0 0.001724 321.44803 586.84570
587.0 0.001704 321.39633 517.94513
468.0 0.002137 321.34323 458.49353
434.0 0.002304 321.28934 413.12781
385.0 0.002597 321.23410 382.25427
374.0 0.002674 321.17776 363.64386
375.0 0.002667 321.12006 353.58536
341.0 0.002933 321.06100 348.68512
330.0 0.003030 321.00089 346.78180
341.0 0.002933 320.93958 346.84421
359.0 0.002786 320.87674 349.39813
366.0 0.002732 320.81265 355.53271
351.0 0.002849 320.74716 368.29150
364.0 0.002747 320.68033 391.41000
425.0 0.002353 320.61206 427.96011
517.0 0.001934 320.54236 477.75058
582.0 0.001718 320.47131 534.30359
553.0 0.001808 320.39871 584.54803
602.0 0.001661 320.32462 612.37000
624.0 0.001603 320.24905 609.44336
585.0 0.001709 320.17206 583.72223
627.0 0.001595 320.09344 550.44733
512.0 0.001953 320.01337 518.73309
468.0 0.002137 319.93164 489.22241
468.0 0.002137 319.84833 459.60248
450.0 0.002222 319.76364 430.61206
437.0 0.002288 319.67709 405.35980
386.0 0.002591 319.58896 386.24039
377.0 0.002653 319.49921 374.04922
378.0 0.002646 319.40775 368.18610
406.0 0.002463 319.31470 367.41339
382.0 0.002618 319.21991 370.82864
380.0 0.002632 319.12347 378.83069
398.0 0.002513 319.02530 394.28265
402.0 0.002488 318.92538 424.19653
429.0 0.002331 318.82382 481.56122
584.0 0.001712 318.72052 585.41949
774.0 0.001292 318.61530 756.22412
1070.0 0.000935 318.50845 1004.39722
1349.0 0.000741 318.39993 1315.04724
1657.0 0.000604 318.28961 1636.89368
1723.0 0.000580 318.17734 1887.50488
1907.0 0.000524 318.06332 1987.56543
1936.0 0.000517 317.94754 1918.38354
1869.0 0.000535 317.83011 1743.17737
1601.0 0.000625 317.71063 1542.09094
1307.0 0.000765 317.58932 1352.78223
1096.0 0.000912 317.46628 1173.09326
962.0 0.001040 317.34146 992.09100
805.0 0.001242 317.21475 816.92877
629.0 0.001590 317.08618 664.65662
514.0 0.001946 316.95572 547.04395
422.0 0.002370 316.82346 465.90781
384.0 0.002604 316.68948 415.56607
370.0 0.002703 316.55350 387.04129
353.0 0.002833 316.41571 371.60342
379.0 0.002639 316.27600 363.35550
364.0 0.002747 316.13443 359.09369
389.0 0.002571 315.99112 357.73434
348.0 0.002874 315.84589 359.76007
382.0 0.002618 315.69888 366.96524
405.0 0.002469 315.54999 382.09647
404.0 0.002475 315.39911 407.83194
497.0 0.002012 315.24661 444.92334
551.0 0.001815 315.09204 490.22739
532.0 0.001880 314.93579 535.85510
559.0 0.001789 314.77744 571.25391
607.0 0.001647 314.61752 590.53052
629.0 0.001590 314.45584 600.75433
653.0 0.001531 314.29224 617.23370
663.0 0.001508 314.12677 648.82489
675.0 0.001481 313.95938 691.23462
663.0 0.001508 313.79025 727.13708
689.0 0.001451 313.61929 736.68591
700.0 0.001429 313.44675 711.20288
673.0 0.001486 313.27228 661.29016
663.0 0.001508 313.09595 606.42725
496.0 0.002016 312.91791 558.18683
476.0 0.002101 312.73816 517.00336
493.0 0.002028 312.55661 478.18951
452.0 0.002212 312.37335 440.36264
406.0 0.002463 312.18839 405.90549
399.0 0.002506 312.00159 378.32050
369.0 0.002710 311.81314 357.69183
330.0 0.003030 311.62308 344.07129
356.0 0.002809 311.43134 335.87317
326.0 0.003067 311.23770 331.12357
340.0 0.002941 311.04269 328.57574
370.0 0.002703 310.84595 326.86166
335.0 0.002985 310.64752 325.69995
369.0 0.002710 310.44742 324.86713
303.0 0.003300 310.24573 324.26862
345.0 0.002899 310.04254 323.86472
325.0 0.003077 309.83783 323.64023
326.0 0.003067 309.63141 323.59271
331.0 0.003021 309.42355 323.73148
330.0 0.003030 309.21417 324.07727
277.0 0.00361 309.00308 324.66724
318.0 0.003145 308.79083 325.57083
324.0 0.003086 308.57684 326.93204
343.0 0.002915 308.36157 329.07855
310.0 0.003226 308.14484 332.75598
331.0 0.003021 307.92664 339.53671
376.0 0.002660 307.70703 352.20001
409.0 0.002445 307.48615 375.47275
403.0 0.002481 307.26385 413.81470
513.0 0.001949 307.04013 473.56384
575.0 0.001739 306.81522 553.97662
612.0 0.001634 306.58896 647.28412
688.0 0.001453 306.36157 736.58813
799.0 0.001252 306.13260 800.22247
850.0 0.001176 305.90274 824.31531
816.0 0.001225 305.67157 807.02777
768.0 0.001302 305.43921 759.92261
709.0 0.001410 305.20566 700.92572
652.0 0.001534 304.97083 641.69257
554.0 0.001805 304.73508 585.21704
531.0 0.001883 304.49829 530.70892
463.0 0.002160 304.26031 478.28482
418.0 0.002392 304.02133 431.16199
401.0 0.002494 303.78134 392.87454
307.0 0.003257 303.54031 364.81195
325.0 0.003077 303.29825 346.19141
308.0 0.003247 303.05554 334.92325
333.0 0.003003 302.81171 328.59650
325.0 0.003077 302.56702 325.22021
290.0 0.003448 302.32135 323.48679
337.0 0.002967 302.07495 322.68344
319.0 0.003135 301.82776 322.48328
309.0 0.003236 301.57977 322.62384
333.0 0.003003 301.33112 323.37808
322.0 0.003106 301.08154 324.64609
358.0 0.002793 300.83133 326.54581
289.0 0.003460 300.58051 329.33514
341.0 0.002933 300.32907 333.55521
328.0 0.003049 300.07700 340.69614
336.0 0.002976 299.82419 353.47363
369.0 0.002710 299.57092 378.02966
425.0 0.002353 299.31717 423.34927
513.0 0.001949 299.06284 501.22543
676.0 0.001479 298.80807 621.91864
881.0 0.001135 298.55289 786.53955
1064.0 0.000940 298.29733 979.22845
1173.0 0.000853 298.04120 1162.90369
1200.0 0.000833 297.78485 1287.63513
1365.0 0.000733 297.52805 1315.35815
1399.0 0.000715 297.27109 1250.47156
1333.0 0.000750 297.01389 1137.48022
1044.0 0.000958 296.75641 1019.57715
859.0 0.001164 296.49881 912.96796
729.0 0.001372 296.24078 812.04181
705.0 0.001418 295.98273 708.69653
675.0 0.001481 295.72455 606.36969
551.0 0.001815 295.46640 515.20032
442.0 0.002262 295.20804 442.62045
351.0 0.002849 294.94974 390.78253
347.0 0.002882 294.69144 357.30252
320.0 0.003125 294.43307 337.31784
334.0 0.002994 294.17490 325.81787
297.0 0.003367 293.91678 319.01910
283.0 0.00353 293.65881 314.62790
298.0 0.003356 293.40091 311.46320
329.0 0.003040 293.14319 308.97626
306.0 0.003268 292.88580 306.91913
300.0 0.003333 292.62866 305.16849
279.0 0.00358 292.37177 303.65247
301.0 0.003322 292.11508 302.32275
301.0 0.003322 291.85880 301.24100
293.0 0.003413 291.60284 300.18921
279.0 0.00358 291.34756 299.24094
278.0 0.00360 291.09241 298.37695
313.0 0.003195 290.83774 297.58521
289.0 0.003460 290.58368 296.92847
292.0 0.003425 290.33020 296.09677
296.0 0.003378 290.07712 295.47211
315.0 0.003175 289.82471 294.69516
317.0 0.003155 289.57281 294.14914
292.0 0.003425 289.32162 293.64691
303.0 0.003300 289.07104 293.09778
283.0 0.00353 288.82135 292.63348
288.0 0.003472 288.57220 292.11707
284.0 0.00352 288.32394 291.69431
335.0 0.002985 288.07639 291.28821
287.0 0.003484 287.82959 290.89731
309.0 0.003236 287.58368 290.52032
290.0 0.003448 287.33875 290.18527
338.0 0.002959 287.09470 289.83362
276.0 0.00362 286.85150 289.49353
290.0 0.003448 286.60938 289.16269
297.0 0.003367 286.36816 288.84149
294.0 0.003401 286.12805 288.54013
293.0 0.003413 285.88885 288.23660
263.0 0.00380 285.65076 287.94138
262.0 0.00382 285.41385 287.65454
311.0 0.003215 285.17807 287.37506
292.0 0.003425 284.94342 287.10315
280.0 0.00357 284.70987 286.83865
291.0 0.003436 284.47760 286.58163
288.0 0.003472 284.24652 286.33246
265.0 0.00377 284.01688 286.09076
283.0 0.00353 283.78836 285.85706
273.0 0.00366 283.56116 285.63135
292.0 0.003425 283.33539 285.41440
261.0 0.00383 283.11096 285.20663
280.0 0.00357 282.88788 285.00848
258.0 0.00388 282.66629 284.82098
277.0 0.00361 282.44601 284.52011
294.0 0.003401 282.22723 284.36087
263.0 0.00380 282.00983 283.65341
304.0 0.003289 281.79437 283.54156
285.0 0.00351 281.58008 283.44720
277.0 0.00361 281.36749 283.37329
265.0 0.00377 281.15634 283.27750
282.0 0.00355 280.94696 283.04346
286.0 0.003497 280.73914 283.06598
308.0 0.003247 280.53296 283.13092
287.0 0.003484 280.32843 283.24945
284.0 0.00352 280.12555 283.43671
291.0 0.003436 279.92459 283.71811
275.0 0.00364 279.72519 284.14319
271.0 0.00369 279.52762 284.82251
285.0 0.00351 279.33173 286.00742
300.0 0.003333 279.13773 288.22882
294.0 0.003401 278.94556 292.45859
297.0 0.003367 278.75510 300.16721
304.0 0.003289 278.56659 313.05032
314.0 0.003185 278.37985 332.26340
353.0 0.002833 278.19504 357.36203
359.0 0.002786 278.01218 385.41199
397.0 0.002519 277.83133 410.77267
446.0 0.002242 277.65234 426.63382
409.0 0.002445 277.47510 430.25110
447.0 0.002237 277.30008 426.06052
474.0 0.002110 277.12692 420.10559
411.0 0.002433 276.95596 414.44052
393.0 0.002545 276.78683 406.54193
368.0 0.002717 276.61978 393.11600
367.0 0.002725 276.45474 375.45023
375.0 0.002667 276.29187 356.42905
370.0 0.002703 276.13107 339.82776
340.0 0.002941 275.97220 326.91479
318.0 0.003145 275.81555 317.46548
308.0 0.003247 275.66098 311.35062
333.0 0.003003 275.50858 308.38208
309.0 0.003236 275.35818 308.84314
316.0 0.003165 275.21005 312.18463
342.0 0.002924 275.06415 316.93210
296.0 0.003378 274.92010 320.73401
312.0 0.003205 274.77859 321.30695
299.0 0.003344 274.63922 318.29105
311.0 0.003215 274.50189 313.34317
279.0 0.00358 274.36682 308.25388
287.0 0.003484 274.23389 303.84528
281.0 0.00356 274.10321 299.90234
308.0 0.003247 273.97491 295.84329
287.0 0.003484 273.84879 291.59644
256.0 0.00391 273.72467 287.54141
254.0 0.00394 273.60312 284.05597
269.0 0.00372 273.48364 281.35278
318.0 0.003145 273.36652 279.44760
261.0 0.00383 273.25156 278.20624
294.0 0.003401 273.13892 277.43475
279.0 0.00358 273.02850 276.95731
272.0 0.00368 272.92044 276.64984
275.0 0.00364 272.81467 276.43958
290.0 0.003448 272.71109 276.28848
291.0 0.003436 272.60977 276.17911
254.0 0.00394 272.51080 276.10321
321.0 0.003115 272.41409 276.05728
297.0 0.003367 272.31970 276.03943
298.0 0.003356 272.22754 276.04935
283.0 0.00353 272.13770 276.08777
260.0 0.00385 272.05008 276.15561
278.0 0.00360 271.96490 276.25488
268.0 0.00373 271.88187 276.38785
267.0 0.00375 271.80121 276.55820
250.0 0.00400 271.72272 276.77017
313.0 0.003195 271.64648 277.02930
234.0 0.00427 271.57266 277.34247
278.0 0.00360 271.50113 277.71817
279.0 0.00358 271.43170 278.16711
305.0 0.003279 271.36472 278.70300
313.0 0.003195 271.29977 279.34296
270.0 0.00370 271.23718 280.10895
281.0 0.00356 271.17682 281.02936
293.0 0.003413 271.11887 282.14279
275.0 0.00364 271.06302 283.50125
287.0 0.003484 271.00931 285.18378
292.0 0.003425 270.95789 287.32840
319.0 0.003135 270.90878 290.22263
314.0 0.003185 270.86172 294.51959
287.0 0.003484 270.81686 301.67273
289.0 0.003460 270.77429 314.62326
322.0 0.003106 270.73389 338.38187
330.0 0.003030 270.69559 380.39136
426.0 0.002347 270.65955 448.15414
543.0 0.001842 270.62549 545.57568
720.0 0.001389 270.59378 667.73608
786.0 0.001272 270.56403 796.86450
805.0 0.001242 270.53638 902.00824
825.0 0.001212 270.51102 948.37000
872.0 0.001147 270.48758 924.42511
952.0 0.001050 270.46631 855.49469
942.0 0.001062 270.44699 776.62640
764.0 0.001309 270.42981 708.30157
554.0 0.001805 270.41461 651.54669
504.0 0.001984 270.40155 595.60846
531.0 0.001883 270.39041 534.01099
556.0 0.001799 270.38126 471.00381
439.0 0.002278 270.37411 413.92010
383.0 0.002611 270.36890 367.88351
354.0 0.002825 270.36560 334.61594
292.0 0.003425 270.36429 312.87857
304.0 0.003289 270.36493 299.75516
343.0 0.002915 270.36737 292.14865
272.0 0.00368 270.37170 287.66901
321.0 0.003115 270.37787 284.81927
246.0 0.00407 270.38605 283.08212
292.0 0.003425 270.39594 281.57690
279.0 0.00358 270.40759 280.37097
292.0 0.003425 270.42111 279.37833
259.0 0.00386 270.43634 278.54947
298.0 0.003356 270.45325 277.85098
295.0 0.003390 270.47192 277.35089
291.0 0.003436 270.49243 276.84976
270.0 0.00370 270.51456 276.42203
280.0 0.00357 270.53842 276.06921
311.0 0.003215 270.56378 275.75717
291.0 0.003436 270.59088 275.49103
288.0 0.003472 270.61957 275.26453
245.0 0.00408 270.64981 275.07306
312.0 0.003205 270.68158 274.91269
274.0 0.00365 270.71494 274.78513
298.0 0.003356 270.74976 274.67996
259.0 0.00386 270.78613 274.59622
269.0 0.00372 270.82391 274.54987
286.0 0.003497 270.86319 274.50833
275.0 0.00364 270.90378 274.48590
245.0 0.00408 270.94598 274.48221
274.0 0.00365 270.98938 274.49747
312.0 0.003205 271.03427 274.53021
272.0 0.00368 271.08032 274.58734
302.0 0.003311 271.12772 274.65768
258.0 0.00388 271.17648 274.74808
249.0 0.00402 271.22647 274.85953
301.0 0.003322 271.27750 274.99414
280.0 0.00357 271.32996 275.15479
302.0 0.003311 271.38358 275.34424
264.0 0.00379 271.43820 275.56702
308.0 0.003247 271.49405 275.82904
261.0 0.00383 271.55087 276.13840
258.0 0.00388 271.60898 276.50781
274.0 0.00365 271.66800 276.95923
284.0 0.00352 271.72806 277.53601
280.0 0.00357 271.78909 279.09314
293.0 0.003413 271.85110 280.30811
274.0 0.00365 271.91412 282.25986
282.0 0.00355 271.97797 285.50510
292.0 0.003425 272.04276 290.82788
295.0 0.003390 272.10831 299.11957
315.0 0.003175 272.17477 311.34668
310.0 0.003226 272.24213 326.87366
342.0 0.002924 272.31009 344.67615
356.0 0.002809 272.37878 361.36612
340.0 0.002941 272.44833 374.56808
355.0 0.002817 272.51855 380.50504
349.0 0.002865 272.58926 378.15323
365.0 0.002740 272.66089 370.49796
363.0 0.002755 272.73288 362.13171
357.0 0.002801 272.80563 355.87921
343.0 0.002915 272.87891 353.10278
319.0 0.003135 272.95267 353.08612
379.0 0.002639 273.02689 355.38367
386.0 0.002591 273.10150 361.14099
337.0 0.002967 273.17673 372.92490
385.0 0.002597 273.25238 394.13055
433.0 0.002309 273.32828 427.71793
500.0 0.002000 273.40472 473.28601
522.0 0.001916 273.48132 524.57831
534.0 0.001873 273.55823 569.01123
546.0 0.001832 273.63547 590.97321
631.0 0.001585 273.71298 582.78516
616.0 0.001623 273.79074 552.94855
604.0 0.001656 273.86856 517.03333
517.0 0.001934 273.94659 485.87662
447.0 0.002237 274.02478 462.09525
437.0 0.002288 274.10309 441.82068
430.0 0.002326 274.18152 419.95395
441.0 0.002268 274.25986 396.00729
456.0 0.002193 274.33832 372.20126
394.0 0.002538 274.41678 350.86227
322.0 0.003106 274.49518 333.89233
335.0 0.002985 274.57349 322.41302
314.0 0.003185 274.65179 316.23010
336.0 0.002976 274.72995 314.30923
332.0 0.003012 274.80804 315.01987
367.0 0.002725 274.88599 316.59442
351.0 0.002849 274.96356 317.53333
331.0 0.003021 275.04108 316.93182
357.0 0.002801 275.11816 314.88898
326.0 0.003067 275.19516 312.37277
355.0 0.002817 275.27182 310.36105
302.0 0.003311 275.34814 309.31198
337.0 0.002967 275.42404 309.16110
345.0 0.002899 275.49960 309.61066
316.0 0.003165 275.57480 310.59885
305.0 0.003279 275.64969 312.57516
307.0 0.003257 275.72397 316.55008
343.0 0.002915 275.79779 324.42352
302.0 0.003311 275.87125 339.72665
335.0 0.002985 275.94388 368.44339
430.0 0.002326 276.01617 419.12051
471.0 0.002123 276.08789 501.17963
689.0 0.001451 276.15906 620.67218
850.0 0.001176 276.22955 774.48914
926.0 0.001080 276.29935 945.17950
1051.0 0.000951 276.36856 1098.73499
1149.0 0.000870 276.43695 1190.92236
1253.0 0.000798 276.50485 1193.60156
1386.0 0.000722 276.57184 1123.38281
1376.0 0.000727 276.63806 1025.36121
1098.0 0.000911 276.70361 936.45355
920.0 0.001087 276.76825 869.68945
777.0 0.001287 276.83209 815.68054
751.0 0.001332 276.89511 756.48602
758.0 0.001319 276.95737 683.66260
691.0 0.001447 277.01859 602.82544
592.0 0.001689 277.07895 524.97412
498.0 0.002008 277.13840 459.36237
386.0 0.002591 277.19687 410.50058
373.0 0.002681 277.25436 377.46109
353.0 0.002833 277.31091 355.83725
336.0 0.002976 277.36646 340.76630
293.0 0.003413 277.42090 329.09274
334.0 0.002994 277.47440 319.56519
332.0 0.003012 277.52679 311.89682
311.0 0.003215 277.57809 306.15765
279.0 0.00358 277.62836 301.99231
300.0 0.003333 277.67746 299.39905
302.0 0.003311 277.72543 298.21707
296.0 0.003378 277.77219 298.53915
283.0 0.00353 277.81790 300.87347
270.0 0.00370 277.86246 306.26282
281.0 0.00356 277.90570 315.67776
309.0 0.003236 277.94778 330.79626
382.0 0.002618 277.98862 351.46866
407.0 0.002457 278.02820 375.93658
400.0 0.002500 278.06653 400.06262
417.0 0.002398 278.10370 417.55396
430.0 0.002326 278.13943 422.45450
409.0 0.002445 278.17395 414.58710
437.0 0.002288 278.20721 399.57004
448.0 0.002232 278.23898 383.79636
382.0 0.002618 278.26953 370.76068
376.0 0.002660 278.29877 360.44147
379.0 0.002639 278.32657 350.58002
322.0 0.003106 278.35309 339.41766
328.0 0.003049 278.37823 327.35651
329.0 0.003040 278.40186 315.83142
316.0 0.003165 278.42416 306.03745
308.0 0.003247 278.44510 298.55820
276.0 0.00362 278.46454 293.37216
298.0 0.003356 278.48267 290.09424
256.0 0.00391 278.49924 288.14441
263.0 0.00380 278.51453 287.01837
283.0 0.00353 278.52811 286.36224
280.0 0.00357 278.54034 285.97086
322.0 0.003106 278.55109 285.73154
263.0 0.00380 278.56055 285.60776
298.0 0.003356 278.56839 285.57306
252.0 0.00397 278.57477 285.62021
283.0 0.00353 278.57962 285.74960
267.0 0.00375 278.58301 285.96689
259.0 0.00386 278.58487 286.28293
262.0 0.00382 278.58524 286.71786
302.0 0.003311 278.58411 287.30969
298.0 0.003356 278.58151 288.13617
255.0 0.00392 278.57736 289.36697
279.0 0.00358 278.57162 291.35754
309.0 0.003236 278.56445 294.79306
308.0 0.003247 278.55588 300.05222
290.0 0.003448 278.54553 310.33664
333.0 0.003003 278.53378 326.64124
336.0 0.002976 278.52042 350.20859
371.0 0.002695 278.50562 380.75742
419.0 0.002387 278.48932 415.56403
393.0 0.002545 278.47147 448.83063
439.0 0.002278 278.45203 472.61807
450.0 0.002222 278.43115 481.54788
487.0 0.002053 278.40878 477.10553
461.0 0.002169 278.38474 464.89658
417.0 0.002398 278.35928 450.65469
412.0 0.002427 278.33228 438.09091
419.0 0.002387 278.30380 429.69595
392.0 0.002551 278.27380 425.89197
397.0 0.002519 278.24225 427.04343
427.0 0.002342 278.20923 433.39078
434.0 0.002304 278.17477 443.00366
453.0 0.002208 278.13870 451.60117
449.0 0.002227 278.10114 453.15186
427.0 0.002342 278.06226 443.66623
414.0 0.002415 278.02182 425.35239
433.0 0.002309 277.97995 404.45969
380.0 0.002632 277.93658 386.10986
370.0 0.002703 277.89182 372.12241
355.0 0.002817 277.84540 361.17932
366.0 0.002732 277.79761 350.43784
316.0 0.003165 277.74857 338.38104
306.0 0.003268 277.69794 325.70367
326.0 0.003067 277.64600 313.84564
280.0 0.00357 277.59253 303.89645
318.0 0.003145 277.53784 296.34061
283.0 0.00353 277.48160 290.97479
264.0 0.00379 277.42401 287.58044
285.0 0.00351 277.36511 285.46561
304.0 0.003289 277.30496 284.13739
276.0 0.00362 277.24329 283.25528
286.0 0.003497 277.18036 282.61835
296.0 0.003378 277.11609 282.07693
241.0 0.00415 277.05057 281.66956
279.0 0.00358 276.98376 281.32431
265.0 0.00377 276.91556 281.02725
301.0 0.003322 276.84610 280.76901
278.0 0.00360 276.77548 280.54355
271.0 0.00369 276.70346 280.34616
275.0 0.00364 276.63046 280.17291
267.0 0.00375 276.55609 280.02130
292.0 0.003425 276.48050 279.88889
245.0 0.00408 276.40384 279.77435
249.0 0.00402 276.32584 279.67648
291.0 0.003436 276.24680 279.59442
266.0 0.00376 276.16672 279.52753
279.0 0.00358 276.08530 279.47589
294.0 0.003401 276.00299 279.43954
269.0 0.00372 275.91943 279.41879
253.0 0.00395 275.83484 279.41443
267.0 0.00375 275.74921 279.42740
257.0 0.00389 275.66248 279.45911
276.0 0.00362 275.57480 279.51093
283.0 0.00353 275.48615 279.58533
293.0 0.003413 275.39636 279.68484
261.0 0.00383 275.30582 279.81244
256.0 0.00391 275.21423 279.97241
317.0 0.003155 275.12164 280.16907
271.0 0.00369 275.02823 280.40891
251.0 0.00398 274.93390 280.69882
290.0 0.003448 274.83875 281.04803
267.0 0.00375 274.74255 281.46811
278.0 0.00360 274.64572 281.97308
261.0 0.00383 274.54810 282.58133
268.0 0.00373 274.44962 283.16962
268.0 0.00373 274.35043 284.07098
265.0 0.00377 274.25043 285.18311
335.0 0.002985 274.14960 286.54730
325.0 0.003077 274.04819 288.41772
285.0 0.00351 273.94601 291.09265
281.0 0.00356 273.84317 295.27118
289.0 0.003460 273.73984 302.22211
320.0 0.003125 273.63565 314.48074
298.0 0.003356 273.53110 334.84552
323.0 0.003096 273.42581 367.32611
403.0 0.002481 273.31998 415.18384
509.0 0.001965 273.21362 478.99213
563.0 0.001776 273.10675 555.03247
651.0 0.001536 272.99936 632.93298
657.0 0.001522 272.89157 697.06042
653.0 0.001531 272.78320 732.00098
672.0 0.001488 272.67456 731.22052
675.0 0.001481 272.56546 701.10718
695.0 0.001439 272.45587 658.01025
648.0 0.001543 272.34607 617.53815
637.0 0.001570 272.23593 586.34467
526.0 0.001901 272.12534 562.16748
490.0 0.002041 272.01456 538.26227
505.0 0.001980 271.90356 508.56607
471.0 0.002123 271.79227 471.80545
452.0 0.002212 271.68069 432.05789
429.0 0.002331 271.56900 395.04993
369.0 0.002710 271.45712 364.78018
333.0 0.003003 271.34509 342.51160
298.0 0.003356 271.23285 327.18274
317.0 0.003155 271.12067 316.44135
353.0 0.002833 271.00818 308.07404
337.0 0.002967 270.89584 300.96140
294.0 0.003401 270.78342 294.83688
281.0 0.00356 270.67102 289.72925
276.0 0.00362 270.55850 285.68100
287.0 0.003484 270.44608 282.63840
297.0 0.003367 270.33380 280.44229
259.0 0.00386 270.22147 278.87933
279.0 0.00358 270.10938 277.74582
316.0 0.003165 269.99734 276.88611
311.0 0.003215 269.88547 276.19818
231.0 0.00433 269.77374 275.62222
267.0 0.00375 269.66232 275.12512
299.0 0.003344 269.55106 274.68826
259.0 0.00386 269.44000 274.30054
252.0 0.00397 269.32916 273.95432
287.0 0.003484 269.21860 273.64450
281.0 0.00356 269.10852 273.36661
289.0 0.003460 268.99869 273.11746
301.0 0.003322 268.88922 272.89474
278.0 0.00360 268.78015 272.69623
309.0 0.003236 268.67151 272.91232
275.0 0.00364 268.56323 272.76974
284.0 0.00352 268.45532 272.64929
270.0 0.00370 268.34799 272.55096
274.0 0.00365 268.24112 272.47528
257.0 0.00389 268.13480 272.42307
259.0 0.00386 268.02911 272.39581
263.0 0.00380 267.92383 272.57800
290.0 0.003448 267.81903 272.61130
267.0 0.00375 267.71497 272.67764
285.0 0.00351 267.61160 272.78049
284.0 0.00352 267.50879 272.92542
286.0 0.003497 267.40652 273.11945
266.0 0.00376 267.30515 273.38406
260.0 0.00385 267.20435 273.70544
276.0 0.00362 267.10428 274.11057
280.0 0.00357 267.00488 274.62024
303.0 0.003300 266.90643 275.26505
278.0 0.00360 266.80862 276.09702
277.0 0.00361 266.71164 277.21780
307.0 0.003257 266.61551 278.83929
300.0 0.003333 266.52011 281.40182
266.0 0.00376 266.42569 285.75201
268.0 0.00373 266.33209 293.33893
328.0 0.003049 266.23935 306.28217
339.0 0.002950 266.14761 327.07861
353.0 0.002833 266.05676 357.78281
459.0 0.002179 265.96689 398.70795
510.0 0.001961 265.87799 447.04446
506.0 0.001976 265.78992 495.95740
501.0 0.001996 265.70297 534.60590
517.0 0.001934 265.61700 551.39648
512.0 0.001953 265.53204 542.34943
568.0 0.001761 265.44815 515.50970
602.0 0.001661 265.36542 483.50842
434.0 0.002304 265.28357 455.42154
441.0 0.002268 265.20288 434.29858
400.0 0.002500 265.12350 417.71338
420.0 0.002381 265.04495 400.50528
367.0 0.002725 264.96759 379.90234
408.0 0.002451 264.89157 357.35892
360.0 0.002778 264.81665 335.49350
314.0 0.003185 264.74271 316.57446
315.0 0.003175 264.67017 301.78506
302.0 0.003311 264.59875 291.19357
304.0 0.003289 264.52859 284.26291
288.0 0.003472 264.45969 279.90997
314.0 0.003185 264.39197 277.31808
281.0 0.00356 264.32553 275.79181
286.0 0.003497 264.26025 274.85422
309.0 0.003236 264.19644 274.25793
291.0 0.003436 264.13376 273.87662
260.0 0.00385 264.07236 273.65237
288.0 0.003472 264.01236 273.55936
272.0 0.00368 263.95370 273.58093
291.0 0.003436 263.89627 273.73666
271.0 0.00369 263.84018 274.01865
253.0 0.00395 263.78558 274.43573
281.0 0.00356 263.73212 275.00143
275.0 0.00364 263.68008 275.73593
290.0 0.003448 263.62936 276.66922
270.0 0.00370 263.58023 277.84610
279.0 0.00358 263.53241 279.34167
332.0 0.003012 263.48587 281.29288
294.0 0.003401 263.44077 283.97989
297.0 0.003367 263.39703 287.98499
304.0 0.003289 263.35464 294.46844
324.0 0.003086 263.31384 305.53052
344.0 0.002907 263.27438 324.49277
353.0 0.002833 263.23633 355.76764
374.0 0.002674 263.19968 404.03970
489.0 0.002045 263.16443 471.70090
579.0 0.001727 263.13068 557.29028
668.0 0.001497 263.09836 652.68323
693.0 0.001443 263.06744 741.95953
798.0 0.001253 263.03796 803.27124
746.0 0.001340 263.00998 818.83344
798.0 0.001253 262.98340 790.61548
785.0 0.001274 262.95825 739.25549
785.0 0.001274 262.93460 686.94482
648.0 0.001543 262.91238 646.03265
563.0 0.001776 262.89151 616.94745
531.0 0.001883 262.87219 590.82983
505.0 0.001980 262.85431 557.17816
494.0 0.002024 262.83786 513.44159
548.0 0.001825 262.82281 465.18393
445.0 0.002247 262.80927 419.41824
372.0 0.002688 262.79712 380.84561
333.0 0.003003 262.78641 351.18304
326.0 0.003067 262.77713 329.60745
319.0 0.003135 262.76929 314.08392
304.0 0.003289 262.76288 302.72974
292.0 0.003425 262.75787 294.26770
313.0 0.003195 262.75436 287.89050
280.0 0.00357 262.75214 283.09381
257.0 0.00389 262.75146 279.53574
282.0 0.00355 262.75211 276.92990
274.0 0.00365 262.75415 275.01959
288.0 0.003472 262.75766 273.59467
280.0 0.00357 262.76245 272.50302
266.0 0.00376 262.76874 271.64163
267.0 0.00375 262.77625 270.94412
251.0 0.00398 262.78522 270.36588
273.0 0.00366 262.79556 269.87503
274.0 0.00365 262.80719 269.44937
276.0 0.00362 262.82028 269.07700
263.0 0.00380 262.83456 268.55444
262.0 0.00382 262.85025 268.28058
268.0 0.00373 262.86719 268.04913
287.0 0.003484 262.88550 267.85693
262.0 0.00382 262.90503 267.70093
293.0 0.003413 262.92584 267.57715
277.0 0.00361 262.94800 267.48212
285.0 0.00351 262.97134 267.33914
251.0 0.00398 262.99603 267.29703
298.0 0.003356 263.02188 267.27792
269.0 0.00372 263.04898 267.28137
264.0 0.00379 263.07730 267.30728
281.0 0.00356 263.10675 267.35577
283.0 0.00353 263.13754 267.42749
273.0 0.00366 263.16928 267.52377
269.0 0.00372 263.20239 267.64621
300.0 0.003333 263.23648 267.79678
259.0 0.00386 263.27188 267.97827
264.0 0.00379 263.30832 268.37967
251.0 0.00398 263.34576 268.63965
298.0 0.003356 263.38443 268.94443
322.0 0.003106 263.42416 269.30133
287.0 0.003484 263.46494 269.71930
249.0 0.00402 263.50659 270.20984
263.0 0.00380 263.54947 270.78851
289.0 0.003460 263.59317 271.54617
251.0 0.00398 263.63800 272.38303
276.0 0.00362 263.68390 273.41156
292.0 0.003425 263.73062 274.74231
251.0 0.00398 263.77817 276.58612
311.0 0.003215 263.82681 279.35831
300.0 0.003333 263.87625 283.81711
258.0 0.00388 263.92676 291.20016
307.0 0.003257 263.97794 303.26343
309.0 0.003236 264.02997 322.05469
364.0 0.002747 264.08292 349.37079
386.0 0.002591 264.13669 385.88577
372.0 0.002688 264.19119 430.17142
393.0 0.002545 264.24643 477.88043
459.0 0.002179 264.30249 521.41473
533.0 0.001876 264.35928 551.90155
550.0 0.001818 264.41675 564.56940
568.0 0.001761 264.47495 561.40619
540.0 0.001852 264.53381 547.04230
505.0 0.001980 264.59332 525.78595
453.0 0.002208 264.65326 501.35947
463.0 0.002160 264.71399 477.45654
444.0 0.002252 264.77539 454.16589
436.0 0.002294 264.83713 430.83893
391.0 0.002558 264.89960 407.60852
368.0 0.002717 264.96249 384.89127
344.0 0.002907 265.02591 362.90933
376.0 0.002660 265.08981 342.10553
304.0 0.003289 265.15421 323.87204
311.0 0.003215 265.21893 308.83923
315.0 0.003175 265.28406 297.23495
296.0 0.003378 265.34961 288.79611
299.0 0.003344 265.41559 282.97433
265.0 0.00377 265.48187 279.12253
257.0 0.00389 265.54840 276.62439
252.0 0.00397 265.61530 275.02155
265.0 0.00377 265.68246 273.96115
281.0 0.00356 265.74982 273.22937
235.0 0.00426 265.81744 272.70111
267.0 0.00375 265.88525 272.30899
265.0 0.00377 265.95325 272.01578
260.0 0.00385 266.02139 271.80103
274.0 0.00365 266.08966 271.68433
290.0 0.003448 266.15793 271.82458
273.0 0.00366 266.22647 271.79544
273.0 0.00366 266.29498 271.81683
275.0 0.00364 266.36349 271.88760
258.0 0.00388 266.43204 272.00851
299.0 0.003344 266.50064 272.18094
287.0 0.003484 266.56903 272.40878
251.0 0.00398 266.63760 272.71008
300.0 0.003333 266.70587 273.15714
263.0 0.00380 266.77411 273.59970
294.0 0.003401 266.84219 274.14102
322.0 0.003106 266.91013 274.80817
280.0 0.00357 266.97794 275.65067
289.0 0.003460 267.04547 276.76544
297.0 0.003367 267.11279 278.34927
291.0 0.003436 267.17996 280.78973
307.0 0.003257 267.24664 284.79025
297.0 0.003367 267.31314 291.49225
318.0 0.003145 267.37936 302.48636
325.0 0.003077 267.44519 319.56812
315.0 0.003175 267.51056 344.15372
380.0 0.002632 267.57556 376.40176
392.0 0.002551 267.64023 414.34399
464.0 0.002155 267.70444 453.24405
449.0 0.002227 267.76807 485.47672
466.0 0.002146 267.83136 502.30746
491.0 0.002037 267.89410 499.30435
513.0 0.001949 267.95627 480.74011
453.0 0.002208 268.01788 455.89975
416.0 0.002404 268.07886 432.76733
382.0 0.002618 268.13931 415.32272
364.0 0.002747 268.19907 403.34317
391.0 0.002558 268.25824 393.36191
359.0 0.002786 268.31665 381.27948
386.0 0.002591 268.37457 365.57898
340.0 0.002941 268.43152 347.76410
343.0 0.002915 268.48785 330.27484
343.0 0.002915 268.54340 315.01263
324.0 0.003086 268.59824 302.96951
331.0 0.003021 268.65204 294.26889
288.0 0.003472 268.70529 288.40182
296.0 0.003378 268.75760 284.54276
264.0 0.00379 268.80893 281.96307
286.0 0.003497 268.85950 280.20697
306.0 0.003268 268.90912 278.92413
303.0 0.003300 268.95786 278.02179
256.0 0.00391 269.00558 277.45642
272.0 0.00368 269.05231 277.06628
250.0 0.00400 269.09818 277.21054
272.0 0.00368 269.14285 277.73428
308.0 0.003247 269.18665 278.57645
290.0 0.003448 269.22919 279.81641
273.0 0.00366 269.27081 281.19131
269.0 0.00372 269.31137 282.54193
263.0 0.00380 269.35086 283.52997
283.0 0.00353 269.38907 283.85132
262.0 0.00382 269.42630 283.65234
289.0 0.003460 269.46222 283.13193
259.0 0.00386 269.49701 282.66339
269.0 0.00372 269.53076 282.42957
300.0 0.003333 269.56311 282.53262
265.0 0.00377 269.59415 282.92038
315.0 0.003175 269.62424 283.50250
307.0 0.003257 269.65283 284.32837
291.0 0.003436 269.68018 285.70935
316.0 0.003165 269.70642 287.65958
291.0 0.003436 269.73120 291.15012
265.0 0.00377 269.75464 297.37015
289.0 0.003460 269.77667 308.06607
292.0 0.003425 269.79742 325.58533
342.0 0.002924 269.81689 351.91779
416.0 0.002404 269.83502 388.61075
434.0 0.002304 269.85147 434.89755
488.0 0.002049 269.86667 487.19656
548.0 0.001825 269.88049 538.11749
538.0 0.001859 269.89291 577.04102
589.0 0.001698 269.90381 593.50891
602.0 0.001661 269.91330 583.94885
618.0 0.001618 269.92123 555.58624
596.0 0.001678 269.92770 520.59314
510.0 0.001961 269.93280 488.71246
488.0 0.002049 269.93631 464.44250
429.0 0.002331 269.93823 447.05914
428.0 0.002336 269.93869 432.14664
395.0 0.002532 269.93765 414.87421
405.0 0.002469 269.93506 393.58798
389.0 0.002571 269.93097 370.13058
365.0 0.002740 269.92511 347.35834
328.0 0.003049 269.91785 327.50699
283.0 0.00353 269.90900 311.67175
286.0 0.003497 269.89853 300.05997
312.0 0.003205 269.88657 292.13446
285.0 0.00351 269.87283 287.01166
293.0 0.003413 269.85760 283.79547
274.0 0.00365 269.84070 281.76913
281.0 0.00356 269.82224 280.44446
268.0 0.00373 269.80212 279.54248
279.0 0.00358 269.78040 278.88062
299.0 0.003344 269.75705 278.39398
280.0 0.00357 269.73199 278.05173
272.0 0.00368 269.70538 277.84955
273.0 0.00366 269.67700 277.62070
291.0 0.003436 269.64706 277.75928
282.0 0.00355 269.61545 278.11008
291.0 0.003436 269.58218 278.69531
257.0 0.00389 269.54730 279.51758
266.0 0.00376 269.51083 280.55389
274.0 0.00365 269.47266 281.76270
286.0 0.003497 269.43274 283.03830
295.0 0.003390 269.39102 284.56046
273.0 0.00366 269.34793 286.50806
267.0 0.00375 269.30304 289.30307
299.0 0.003344 269.25644 293.39236
276.0 0.00362 269.20825 299.04874
306.0 0.003268 269.15845 306.19644
291.0 0.003436 269.10690 314.28180
314.0 0.003185 269.05371 322.31577
280.0 0.00357 268.99893 329.18082
336.0 0.002976 268.94235 333.77051
295.0 0.003390 268.88425 335.06375
316.0 0.003165 268.82446 332.85431
308.0 0.003247 268.76309 328.21146
334.0 0.002994 268.70010 322.89432
330.0 0.003030 268.63525 318.19489
317.0 0.003155 268.56903 314.69241
308.0 0.003247 268.50095 312.36731
308.0 0.003247 268.43152 310.83212
326.0 0.003067 268.36032 309.62079
306.0 0.003268 268.28751 308.83197
288.0 0.003472 268.21323 309.36118
304.0 0.003289 268.13718 312.87683
323.0 0.003096 268.05966 321.30569
351.0 0.002849 267.98053 337.17517
367.0 0.002725 267.89984 362.93707
401.0 0.002494 267.81750 400.31836
439.0 0.002278 267.73380 449.33572
519.0 0.001927 267.64835 507.32602
509.0 0.001965 267.56143 568.32928
592.0 0.001689 267.47308 623.04517
644.0 0.001553 267.38312 661.24554
731.0 0.001368 267.29172 677.52972
769.0 0.001300 267.19882 675.61530
733.0 0.001364 267.10437 664.59473
645.0 0.001550 267.00861 650.95837
623.0 0.001605 266.91122 635.54437
631.0 0.001585 266.81244 615.69666
670.0 0.001493 266.71222 589.43237
644.0 0.001553 266.61053 556.90521
558.0 0.001792 266.50751 520.17297
510.0 0.001961 266.40305 483.04163
483.0 0.002070 266.29730 449.08862
425.0 0.002353 266.19012 419.73776
415.0 0.002410 266.08154 393.95691
349.0 0.002865 265.97162 371.02390
389.0 0.002571 265.86047 350.60229
366.0 0.002732 265.74783 333.36411
320.0 0.003125 265.63422 319.94949
311.0 0.003215 265.51901 310.64218
316.0 0.003165 265.40262 305.42252
291.0 0.003436 265.28513 303.83444
286.0 0.003497 265.16623 305.24130
281.0 0.00356 265.04630 308.35760
290.0 0.003448 264.92499 311.64798
321.0 0.003115 264.80267 313.43689
299.0 0.003344 264.67908 312.56039
311.0 0.003215 264.55426 309.12927
305.0 0.003279 264.42847 304.34445
327.0 0.003058 264.30151 299.51788
286.0 0.003497 264.17346 295.49438
302.0 0.003311 264.04440 292.52954
340.0 0.002941 263.91422 290.33859
283.0 0.00353 263.78302 288.30319
304.0 0.003289 263.65082 285.89307
307.0 0.003257 263.51761 283.02740
278.0 0.00360 263.38336 279.98080
276.0 0.00362 263.24826 277.08197
285.0 0.00351 263.11218 274.56766
277.0 0.00361 262.97528 272.55466
266.0 0.00376 262.83734 271.05338
261.0 0.00383 262.69858 270.00006
250.0 0.00400 262.55896 269.29623
252.0 0.00397 262.41846 268.84567
286.0 0.003497 262.27731 268.57535
255.0 0.00392 262.13522 268.44394
254.0 0.00394 261.99243 268.44113
268.0 0.00373 261.84885 268.60568
266.0 0.00376 261.70453 269.01135
280.0 0.00357 261.55960 269.79337
265.0 0.00377 261.41394 271.15005
269.0 0.00372 261.26752 273.32248
275.0 0.00364 261.12061 276.54474
273.0 0.00366 260.97299 280.94403
291.0 0.003436 260.82480 286.49353
308.0 0.003247 260.67621 292.85971
284.0 0.00352 260.52676 299.39133
308.0 0.003247 260.37692 305.13562
313.0 0.003195 260.22659 309.39871
310.0 0.003226 260.07581 312.25085
328.0 0.003049 259.92453 314.86911
300.0 0.003333 259.77286 318.65897
327.0 0.003058 259.62067 324.74118
337.0 0.002967 259.46820 333.61111
331.0 0.003021 259.31546 345.03851
331.0 0.003021 259.16208 357.92831
347.0 0.002882 259.00858 370.19617
366.0 0.002732 258.85471 379.16968
359.0 0.002786 258.70068 382.62216
385.0 0.002597 258.54633 380.30878
368.0 0.002717 258.39172 374.85416
348.0 0.002874 258.23694 369.51459
373.0 0.002681 258.08191 366.68045
319.0 0.003135 257.92682 366.94318
373.0 0.002681 257.77158 369.13031
369.0 0.002710 257.61618 370.94131
391.0 0.002558 257.46069 370.41980
357.0 0.002801 257.30524 367.11597
388.0 0.002577 257.14960 362.30978
359.0 0.002786 256.99405 356.32620
359.0 0.002786 256.83847 349.10696
342.0 0.002924 256.68289 340.51016
361.0 0.002770 256.52744 330.84665
356.0 0.002809 256.37192 321.17374
307.0 0.003257 256.21655 312.20416
321.0 0.003115 256.06140 304.47925
291.0 0.003436 255.90627 298.47714
340.0 0.002941 255.75137 293.91245
294.0 0.003401 255.59657 290.28311
276.0 0.00362 255.44209 287.17194
303.0 0.003300 255.28778 284.45374
303.0 0.003300 255.13367 282.30731
301.0 0.003322 254.97981 280.61578
312.0 0.003205 254.82640 279.07318
279.0 0.00358 254.67325 277.26495
260.0 0.00385 254.52042 274.97559
270.0 0.00370 254.36784 272.37848
277.0 0.00361 254.21581 269.84369
252.0 0.00397 254.06404 267.67355
277.0 0.00361 253.91278 266.00089
273.0 0.00366 253.76193 264.84665
291.0 0.003436 253.61154 263.86942
288.0 0.003472 253.46162 262.94540
278.0 0.00360 253.31226 261.87231
287.0 0.003484 253.16338 260.65311
239.0 0.00418 253.01501 259.39410
268.0 0.00373 252.86720 258.20700
261.0 0.00383 252.72003 257.16794
248.0 0.00403 252.57346 256.33447
250.0 0.00400 252.42746 255.64685
235.0 0.00426 252.28220 255.12744
273.0 0.00366 252.13742 254.72682
265.0 0.00377 251.99339 254.40965
240.0 0.00417 251.85011 254.14790
252.0 0.00397 251.70757 253.92210
247.0 0.00405 251.56572 253.72029
260.0 0.00385 251.42448 253.53601
245.0 0.00408 251.28412 253.36540
256.0 0.00391 251.14455 253.20689
261.0 0.00383 251.00569 253.05956
278.0 0.00360 250.86772 252.93752
259.0 0.00386 250.73053 252.81165
277.0 0.00361 250.59421 252.69662
264.0 0.00379 250.45874 252.59253
256.0 0.00391 250.32425 252.49960
274.0 0.00365 250.19048 252.41786
239.0 0.00418 250.05765 252.34732
252.0 0.00397 249.92572 252.28786
256.0 0.00391 249.79483 252.24338
234.0 0.00427 249.66487 252.21021
249.0 0.00402 249.53577 252.19017
236.0 0.00424 249.40767 252.18852
240.0 0.00417 249.28058 252.20935
267.0 0.00375 249.15448 252.22665
237.0 0.00422 249.02942 252.30667
254.0 0.00394 248.90532 252.42641
226.0 0.00442 248.78229 252.65407
252.0 0.00397 248.66029 252.92361
262.0 0.00382 248.53937 253.29800
253.0 0.00395 248.41951 253.86800
297.0 0.003367 248.30067 254.76781
271.0 0.00369 248.18291 256.16138
258.0 0.00388 248.06633 258.29666
270.0 0.00370 247.95085 261.30685
241.0 0.00415 247.83649 265.54938
256.0 0.00391 247.72308 270.92227
260.0 0.00385 247.61093 277.23517
287.0 0.003484 247.49997 284.13531
282.0 0.00355 247.39009 290.83102
298.0 0.003356 247.28134 296.80807
284.0 0.00352 247.17378 302.09525
315.0 0.003175 247.06732 307.93109
319.0 0.003135 246.96219 316.14569
295.0 0.003390 246.85808 328.09393
311.0 0.003215 246.75522 344.01758
346.0 0.002890 246.65349 362.66431
373.0 0.002681 246.55304 380.99222
363.0 0.002755 246.45369 395.06131
415.0 0.002410 246.35555 401.21100
361.0 0.002770 246.25870 398.01627
371.0 0.002695 246.16293 386.85901
325.0 0.003077 246.06845 371.39481
332.0 0.003012 245.97523 355.65579
338.0 0.002959 245.88315 342.36017
322.0 0.003106 245.79225 332.36221
322.0 0.003106 245.70267 325.03726
299.0 0.003344 245.61418 318.73499
289.0 0.003460 245.52695 312.06924
346.0 0.002890 245.44095 304.36646
312.0 0.003205 245.35622 295.88657
291.0 0.003436 245.27264 287.51764
275.0 0.00364 245.19031 279.92200
298.0 0.003356 245.10912 273.51331
268.0 0.00373 245.02919 268.34836
263.0 0.00380 244.95055 264.34906
274.0 0.00365 244.87305 261.36404
260.0 0.00385 244.79666 259.31900
255.0 0.00392 244.72162 258.12610
278.0 0.00360 244.64771 257.78662
261.0 0.00383 244.57504 258.34210
272.0 0.00368 244.50348 259.99872
267.0 0.00375 244.43323 263.08118
249.0 0.00402 244.36397 268.02124
257.0 0.00389 244.29610 275.25223
298.0 0.003356 244.22925 284.93839
276.0 0.00362 244.16364 296.77490
307.0 0.003257 244.09914 309.73050
298.0 0.003356 244.03586 321.94992
302.0 0.003311 243.97359 330.86749
351.0 0.002849 243.91263 334.06818
321.0 0.003115 243.85271 330.93048
355.0 0.002817 243.79385 323.27579
379.0 0.002639 243.73621 313.96289
304.0 0.003289 243.67964 305.36121
284.0 0.00352 243.62425 298.75558
295.0 0.003390 243.56979 294.32086
295.0 0.003390 243.51649 291.28094
238.0 0.00420 243.46414 288.33417
253.0 0.00395 243.41299 284.46179
282.0 0.00355 243.36285 279.57324
304.0 0.003289 243.31378 274.30972
272.0 0.00368 243.26573 269.47168
281.0 0.00356 243.21854 265.70166
247.0 0.00405 243.17250 263.39944
276.0 0.00362 243.12738 262.69357
287.0 0.003484 243.08328 263.44473
271.0 0.00369 243.04019 265.27011
267.0 0.00375 242.99799 267.58298
271.0 0.00369 242.95667 269.64526
251.0 0.00398 242.91640 270.73163
290.0 0.003448 242.87689 270.48120
292.0 0.003425 242.83839 269.15710
285.0 0.00351 242.80078 267.41183
302.0 0.003311 242.76395 265.93289
241.0 0.00415 242.72809 265.24500
262.0 0.00382 242.69286 265.71649
282.0 0.00355 242.65863 267.61667
282.0 0.00355 242.62521 271.19586
297.0 0.003367 242.59250 276.79230
267.0 0.00375 242.56064 284.87994
266.0 0.00376 242.52948 295.85907
296.0 0.003378 242.49907 309.66965
324.0 0.003086 242.46938 325.44833
339.0 0.002950 242.44049 341.33878
348.0 0.002874 242.41223 354.57336
340.0 0.002941 242.38460 362.24854
359.0 0.002786 242.35767 363.03961
360.0 0.002778 242.33131 358.44437
391.0 0.002558 242.30563 352.02661
360.0 0.002778 242.28055 347.57718
323.0 0.003096 242.25607 347.77875
352.0 0.002841 242.23216 353.61841
353.0 0.002833 242.20876 364.19458
385.0 0.002597 242.18591 376.86508
424.0 0.002358 242.16354 387.89929
414.0 0.002415 242.14174 393.48538
415.0 0.002410 242.12032 390.96390
420.0 0.002381 242.09944 380.32074
457.0 0.002188 242.07893 364.44266
374.0 0.002674 242.05884 347.36954
371.0 0.002695 242.03914 332.25244
280.0 0.00357 242.01987 320.78577
294.0 0.003401 242.00099 313.19632
321.0 0.003115 241.98236 308.51508
301.0 0.003322 241.96408 305.11087
288.0 0.003472 241.94603 301.64685
311.0 0.003215 241.92830 297.93146
320.0 0.003125 241.91087 294.99448
343.0 0.002915 241.89363 294.03909
272.0 0.00368 241.87668 296.19788
328.0 0.003049 241.85979 301.89902
315.0 0.003175 241.84314 310.91852
321.0 0.003115 241.82671 322.21878
297.0 0.003367 241.81032 333.93454
320.0 0.003125 241.79408 343.70901
347.0 0.002882 241.77800 349.84488
409.0 0.002445 241.76193 352.03983
349.0 0.002865 241.74591 351.30615
367.0 0.002725 241.72993 348.43393
345.0 0.002899 241.71393 343.71164
302.0 0.003311 241.69794 337.39465
300.0 0.003333 241.68204 330.12381
313.0 0.003195 241.66591 322.58524
322.0 0.003106 241.64983 315.13043
327.0 0.003058 241.63362 307.95566
332.0 0.003012 241.61729 301.44901
290.0 0.003448 241.60091 295.87497
259.0 0.00386 241.58426 291.14801
291.0 0.003436 241.56741 286.92053
271.0 0.00369 241.55057 282.95947
264.0 0.00379 241.53342 279.21802
281.0 0.00356 241.51591 275.48132
305.0 0.003279 241.49835 271.61078
268.0 0.00373 241.48039 267.58975
262.0 0.00382 241.46223 263.67767
274.0 0.00365 241.44376 260.20688
264.0 0.00379 241.42494 257.41132
246.0 0.00407 241.40573 255.34302
250.0 0.00400 241.38625 253.85612
221.0 0.00452 241.36626 252.88290
231.0 0.00433 241.34593 252.05154
251.0 0.00398 241.32520 251.15190
249.0 0.00402 241.30397 250.14139
245.0 0.00408 241.28238 249.00639
261.0 0.00383 241.26033 247.88640
268.0 0.00373 241.23767 246.86996
234.0 0.00427 241.21460 245.99042
242.0 0.00413 241.19095 245.31772
251.0 0.00398 241.16679 244.82671
274.0 0.00365 241.14203 244.50287
233.0 0.00429 241.11674 244.33357
229.0 0.00437 241.09081 244.33069
247.0 0.00405 241.06427 244.52718
233.0 0.00429 241.03709 244.86082
268.0 0.00373 241.00934 245.39819
258.0 0.00388 240.98087 246.13774
232.0 0.00431 240.95172 247.03992
249.0 0.00402 240.92198 248.01440
263.0 0.00380 240.89145 248.90192
275.0 0.00364 240.86028 249.51945
245.0 0.00408 240.82825 249.69226
247.0 0.00405 240.79552 249.39680
256.0 0.00391 240.76208 248.73689
278.0 0.00360 240.72783 247.94460
236.0 0.00424 240.69278 247.19873
253.0 0.00395 240.65694 246.60286
243.0 0.00412 240.62033 246.27722
274.0 0.00365 240.58287 245.98160
259.0 0.00386 240.54456 245.72626
238.0 0.00420 240.50536 245.41277
255.0 0.00392 240.46533 245.00638
248.0 0.00403 240.42442 244.53593
244.0 0.00410 240.38266 244.05431
252.0 0.00397 240.34000 243.60756
235.0 0.00426 240.29643 243.17111
252.0 0.00397 240.25195 242.87837
240.0 0.00417 240.20656 242.65594
259.0 0.00386 240.16016 242.50244
218.0 0.00459 240.11287 242.40376
262.0 0.00382 240.06467 242.34628
222.0 0.00450 240.01547 242.31876
257.0 0.00389 239.96530 242.31375
256.0 0.00391 239.91420 242.30591
245.0 0.00408 239.86208 242.33566
250.0 0.00400 239.80894 242.37154
269.0 0.00372 239.75488 242.35629
220.0 0.00455 239.69977 242.44063
239.0 0.00418 239.64366 242.54765
270.0 0.00370 239.58661 242.68277
245.0 0.00408 239.52849 242.85474
237.0 0.00422 239.46931 243.07913
260.0 0.00385 239.40915 243.38408
264.0 0.00379 239.34795 243.82013
237.0 0.00422 239.28574 244.47429
242.0 0.00413 239.22247 245.45468
230.0 0.00435 239.15822 247.01880
236.0 0.00424 239.09279 249.38570
210.0 0.00476 239.02643 252.81853
286.0 0.003497 238.95901 257.52158
265.0 0.00377 238.89053 263.54541
289.0 0.003460 238.82100 270.68665
276.0 0.00362 238.75049 278.40030
290.0 0.003448 238.67880 285.75354
289.0 0.003460 238.60617 291.43228
326.0 0.003067 238.53253 294.38528
312.0 0.003205 238.45776 294.26218
317.0 0.003155 238.38205 291.90897
297.0 0.003367 238.30519 288.75980
300.0 0.003333 238.22739 286.04010
258.0 0.00388 238.14850 284.70447
279.0 0.00358 238.06856 285.21082
277.0 0.00361 237.98758 287.71262
266.0 0.00376 237.90565 292.01956
325.0 0.003077 237.82271 297.76288
276.0 0.00362 237.73869 304.47202
320.0 0.003125 237.65372 311.65408
342.0 0.002924 237.56772 318.59866
306.0 0.003268 237.48068 324.30615
347.0 0.002882 237.39262 327.66669
331.0 0.003021 237.30374 327.67511
325.0 0.003077 237.21379 324.23486
320.0 0.003125 237.12283 318.55841
314.0 0.003185 237.03094 312.51346
284.0 0.00352 236.93814 307.61523
299.0 0.003344 236.84433 304.78409
300.0 0.003333 236.74966 304.18295
270.0 0.00370 236.65388 305.68723
316.0 0.003165 236.55736 308.63943
343.0 0.002915 236.45992 311.99106
319.0 0.003135 236.36159 314.62991
317.0 0.003155 236.26231 315.61526
314.0 0.003185 236.16219 314.27560
305.0 0.003279 236.06116 310.58984
323.0 0.003096 235.95938 305.63513
296.0 0.003378 235.85667 301.09503
292.0 0.003425 235.75313 298.59460
293.0 0.003413 235.64879 299.11276
301.0 0.003322 235.54370 302.76120
312.0 0.003205 235.43777 308.80588
258.0 0.00388 235.33110 315.66602
310.0 0.003226 235.22362 321.15475
321.0 0.003115 235.11539 323.13565
344.0 0.002907 235.00644 320.61130
323.0 0.003096 234.89693 314.40845
336.0 0.002976 234.78658 306.63068
283.0 0.00353 234.67548 299.56332
274.0 0.00365 234.56383 295.01926
291.0 0.003436 234.45148 294.19528
304.0 0.003289 234.33850 297.61545
290.0 0.003448 234.22495 305.10239
317.0 0.003155 234.11070 315.84671
332.0 0.003012 233.99599 328.59711
324.0 0.003086 233.88055 341.90067
350.0 0.002857 233.76480 353.92239
289.0 0.003460 233.64838 362.20099
383.0 0.002611 233.53140 364.19110
338.0 0.002959 233.41396 358.87335
339.0 0.002950 233.29610 347.81641
358.0 0.002793 233.17773 334.17148
324.0 0.003086 233.05898 320.93109
300.0 0.003333 232.93976 310.03357
285.0 0.00351 232.82016 302.22357
239.0 0.00418 232.70026 297.13416
273.0 0.00366 232.57991 293.51273
279.0 0.00358 232.45924 289.72635
261.0 0.00383 232.33827 284.59625
262.0 0.00382 232.21692 277.98666
269.0 0.00372 232.09538 270.55225
294.0 0.003401 231.97368 263.12238
249.0 0.00402 231.85162 256.34567
263.0 0.00380 231.72935 250.61211
254.0 0.00394 231.60701 246.06822
229.0 0.00437 231.48441 242.66223
247.0 0.00405 231.36169 240.21774
223.0 0.00448 231.23882 238.50729
248.0 0.00403 231.11586 237.31412
248.0 0.00403 230.99287 236.46362
238.0 0.00420 230.86977 235.83153
232.0 0.00431 230.74666 235.33804
226.0 0.00442 230.62350 234.93579
232.0 0.00431 230.50038 234.59886
212.0 0.00472 230.37732 234.31476
233.0 0.00429 230.25418 234.07967
227.0 0.00441 230.13132 233.89771
234.0 0.00427 230.00850 233.78116
242.0 0.00413 229.88577 233.75240
218.0 0.00459 229.76320 233.84602
233.0 0.00429 229.64075 234.10704
249.0 0.00402 229.51852 234.58598
245.0 0.00408 229.39658 235.32796
225.0 0.00444 229.27480 236.35551
251.0 0.00398 229.15329 237.64864
235.0 0.00426 229.03201 239.12654
223.0 0.00448 228.91118 240.59515
235.0 0.00426 228.79065 241.90788
248.0 0.00403 228.67036 242.78543
263.0 0.00380 228.55049 243.17596
272.0 0.00368 228.43108 242.84007
233.0 0.00429 228.31200 242.06348
253.0 0.00395 228.19354 241.14789
239.0 0.00418 228.07536 240.38344
232.0 0.00431 227.95772 240.02182
220.0 0.00455 227.84056 240.19000
235.0 0.00426 227.72395 241.08153
193.0 0.00518 227.60797 242.84389
255.0 0.00392 227.49245 245.72076
237.0 0.00422 227.37766 249.92148
236.0 0.00424 227.26335 255.69087
229.0 0.00437 227.14969 263.07474
285.0 0.00351 227.03683 271.92783
291.0 0.003436 226.92451 281.50266
285.0 0.00351 226.81294 290.54327
325.0 0.003077 226.70209 297.34824
296.0 0.003378 226.59198 300.23395
343.0 0.002915 226.48271 298.56689
357.0 0.002801 226.37416 293.32419
332.0 0.003012 226.26645 286.42633
305.0 0.003279 226.15942 279.72034
301.0 0.003322 226.05334 274.51196
267.0 0.00375 225.94818 271.34164
287.0 0.003484 225.84387 270.04398
274.0 0.00365 225.74045 269.96771
258.0 0.00388 225.63797 269.98019
267.0 0.00375 225.53635 269.08685
283.0 0.00353 225.43575 266.78949
291.0 0.003436 225.33609 263.11133
262.0 0.00382 225.23743 258.42148
287.0 0.003484 225.13979 253.31026
240.0 0.00417 225.04315 248.40692
247.0 0.00405 224.94762 244.16359
249.0 0.00402 224.85309 240.78780
221.0 0.00452 224.75967 238.37614
251.0 0.00398 224.66727 236.72092
230.0 0.00435 224.57602 235.56383
236.0 0.00424 224.48586 234.61736
240.0 0.00417 224.39687 233.65814
247.0 0.00405 224.30905 232.60086
208.0 0.00481 224.22235 231.48177
214.0 0.00467 224.13686 230.38217
219.0 0.00457 224.05249 229.35417
253.0 0.00395 223.96936 228.47961
230.0 0.00435 223.88745 227.75555
220.0 0.00455 223.80675 227.23253
208.0 0.00481 223.72733 226.77983
262.0 0.00382 223.64915 226.34602
270.0 0.00370 223.57217 226.06274
257.0 0.00389 223.49651 225.85002
213.0 0.00469 223.42206 225.68015
223.0 0.00448 223.34898 225.54239
241.0 0.00415 223.27719 225.42946
223.0 0.00448 223.20667 225.33691
235.0 0.00426 223.13753 225.28282
212.0 0.00472 223.06961 225.22336
226.0 0.00442 223.00314 225.14670
222.0 0.00450 222.93800 225.11086
201.0 0.00498 222.87411 225.09303
229.0 0.00437 222.81160 225.08881
212.0 0.00472 222.75041 225.15445
219.0 0.00457 222.69070 225.18045
221.0 0.00452 222.63226 225.22260
237.0 0.00422 222.57521 225.28238
244.0 0.00410 222.51958 225.36163
231.0 0.00433 222.46530 225.46275
211.0 0.00474 222.41235 225.58876
236.0 0.00424 222.36084 225.74307
213.0 0.00469 222.31068 225.93054
228.0 0.00439 222.26192 226.15671
233.0 0.00429 222.21461 226.45091
219.0 0.00457 222.16856 226.78229
256.0 0.00391 222.12402 227.18951
226.0 0.00442 222.08083 227.70265
244.0 0.00410 222.03902 228.37489
261.0 0.00383 221.99860 229.30472
234.0 0.00427 221.95956 230.64314
220.0 0.00455 221.92194 232.65364
246.0 0.00407 221.88559 235.72145
244.0 0.00410 221.85074 240.36122
255.0 0.00392 221.81726 247.17844
254.0 0.00394 221.78505 256.76062
267.0 0.00375 221.75423 269.51041
296.0 0.003378 221.72485 285.43384
293.0 0.003413 221.69667 303.92584
316.0 0.003165 221.67000 323.59940
310.0 0.003226 221.64458 342.20596
347.0 0.002882 221.62057 356.68744
386.0 0.002591 221.59778 364.25092
374.0 0.002674 221.57634 363.92365
373.0 0.002681 221.55627 357.40347
371.0 0.002695 221.53745 347.82861
346.0 0.002890 221.51993 337.73889
346.0 0.002890 221.50369 328.96463
335.0 0.002985 221.48871 322.21198
296.0 0.003378 221.47501 317.51886
296.0 0.003378 221.46251 314.04944
303.0 0.003300 221.45128 310.30740
311.0 0.003215 221.44130 304.93304
291.0 0.003436 221.43256 297.34155
303.0 0.003300 221.42491 288.23804
308.0 0.003247 221.41849 278.65857
277.0 0.00361 221.41327 269.44745
243.0 0.00412 221.40921 261.14722
224.0 0.00446 221.40623 254.06172
244.0 0.00410 221.40439 248.25656
253.0 0.00395 221.40372 243.76366
227.0 0.00441 221.40411 240.26453
264.0 0.00379 221.40556 237.46510
276.0 0.00362 221.40813 235.14801
232.0 0.00431 221.41171 233.20375
226.0 0.00442 221.41631 231.58717
242.0 0.00413 221.42189 230.27159
221.0 0.00452 221.42851 229.23302
239.0 0.00418 221.43607 228.42253
217.0 0.00461 221.44464 227.85773
253.0 0.00395 221.45410 227.48274
211.0 0.00474 221.46445 227.25452
205.0 0.00488 221.47565 227.17432
239.0 0.00418 221.48782 227.21889
243.0 0.00412 221.50075 227.40430
235.0 0.00426 221.51465 227.74666
246.0 0.00407 221.52919 228.32550
237.0 0.00422 221.54465 229.26199
255.0 0.00392 221.56081 230.73415
217.0 0.00461 221.57773 232.97760
215.0 0.00465 221.59532 236.25681
233.0 0.00429 221.61365 240.81017
243.0 0.00412 221.63263 246.79253
219.0 0.00457 221.65230 254.12305
266.0 0.00376 221.67256 262.46106
270.0 0.00370 221.69342 271.08896
247.0 0.00405 221.71487 278.91016
296.0 0.003378 221.73694 284.53003
330.0 0.003030 221.75940 286.72034
299.0 0.003344 221.78239 285.19153
329.0 0.003040 221.80594 280.88358
305.0 0.003279 221.82980 275.39001
251.0 0.00398 221.85423 270.24768
239.0 0.00418 221.87898 266.43079
237.0 0.00422 221.90414 264.61737
253.0 0.00395 221.92964 264.98376
265.0 0.00377 221.95549 267.30353
270.0 0.00370 221.98157 271.04755
300.0 0.003333 222.00795 275.60806
269.0 0.00372 222.03458 280.55243
307.0 0.003257 222.06143 285.59369
284.0 0.00352 222.08846 290.28967
287.0 0.003484 222.11565 293.81235
284.0 0.00352 222.14297 294.99551
317.0 0.003155 222.17038 293.05270
301.0 0.003322 222.19789 288.18179
301.0 0.003322 222.22548 281.55136
275.0 0.00364 222.25304 274.59818
293.0 0.003413 222.28065 268.46451
251.0 0.00398 222.30821 263.81271
260.0 0.00385 222.33577 260.82889
236.0 0.00424 222.36313 259.26184
261.0 0.00383 222.39047 258.50940
245.0 0.00408 222.41762 257.80402
258.0 0.00388 222.44466 256.54016
283.0 0.00353 222.47150 254.54303
262.0 0.00382 222.49814 251.99821
244.0 0.00410 222.52444 249.19270
264.0 0.00379 222.55057 246.37355
223.0 0.00448 222.57635 243.76022
251.0 0.00398 222.60184 241.57634
241.0 0.00415 222.62697 240.03052
241.0 0.00415 222.65169 239.30099
226.0 0.00442 222.67607 239.56068
251.0 0.00398 222.69994 241.01633
233.0 0.00429 222.72346 243.93465
238.0 0.00420 222.74641 248.63382
263.0 0.00380 222.76889 255.43343
230.0 0.00435 222.79085 264.56723
269.0 0.00372 222.81219 276.08313
304.0 0.003289 222.83302 289.71878
339.0 0.002950 222.85323 304.66589
321.0 0.003115 222.87282 319.95245
342.0 0.002924 222.89174 333.68216
358.0 0.002793 222.91002 344.06454
350.0 0.002857 222.92754 350.20883
409.0 0.002445 222.94440 352.79385
376.0 0.002660 222.96046 353.55493
355.0 0.002817 222.97580 353.99597
319.0 0.003135 222.99031 354.68967
357.0 0.002801 223.00400 355.09903
370.0 0.002703 223.01686 353.96249
351.0 0.002849 223.02890 350.44824
391.0 0.002558 223.04002 344.42841
374.0 0.002674 223.05026 336.54388
330.0 0.003030 223.05960 327.75156
310.0 0.003226 223.06799 319.14633
309.0 0.003236 223.07545 311.68912
273.0 0.00366 223.08192 305.78873
275.0 0.00364 223.08736 301.14105
303.0 0.003300 223.09184 296.82629
299.0 0.003344 223.09523 291.75092
292.0 0.003425 223.09769 285.40479
290.0 0.003448 223.09903 277.95053
250.0 0.00400 223.09924 270.22717
246.0 0.00407 223.09836 263.02536
238.0 0.00420 223.09644 256.89758
220.0 0.00455 223.09331 252.12115
220.0 0.00455 223.08911 248.71460
228.0 0.00439 223.08376 246.46608
244.0 0.00410 223.07721 244.99986
227.0 0.00441 223.06946 243.89175
239.0 0.00418 223.06058 242.83084
288.0 0.003472 223.05051 241.60367
265.0 0.00377 223.03918 240.19086
242.0 0.00413 223.02660 238.64961
255.0 0.00392 223.01285 237.11473
234.0 0.00427 222.99783 235.75800
239.0 0.00418 222.98154 234.73827
202.0 0.00495 222.96404 234.16995
233.0 0.00429 222.94525 234.11586
230.0 0.00435 222.92516 234.58505
236.0 0.00424 222.90381 235.53133
254.0 0.00394 222.88118 236.85193
259.0 0.00386 222.85724 238.39516
253.0 0.00395 222.83199 239.97374
249.0 0.00402 222.80550 241.37685
241.0 0.00415 222.77768 242.33600
250.0 0.00400 222.74854 242.83650
252.0 0.00397 222.71806 242.89032
245.0 0.00408 222.68634 242.75966
239.0 0.00418 222.65323 242.76579
232.0 0.00431 222.61893 243.17184
244.0 0.00410 222.58316 244.14583
229.0 0.00437 222.54616 245.75717
263.0 0.00380 222.50786 248.01173
256.0 0.00391 222.46820 250.90427
260.0 0.00385 222.42729 254.50787
247.0 0.00405 222.38504 259.14557
276.0 0.00362 222.34149 265.20535
258.0 0.00388 222.29669 273.01300
280.0 0.00357 222.25061 282.57480
273.0 0.00366 222.20320 293.40305
283.0 0.00353 222.15450 304.35782
295.0 0.003390 222.10457 313.88406
311.0 0.003215 222.05339 319.93463
332.0 0.003012 222.00092 320.98468
308.0 0.003247 221.94720 316.85483
311.0 0.003215 221.89232 308.89447
300.0 0.003333 221.83617 299.25943
314.0 0.003185 221.77884 289.86755
295.0 0.003390 221.72026 281.99857
242.0 0.00413 221.66057 276.20789
217.0 0.00461 221.59964 272.45804
252.0 0.00397 221.53758 270.08279
272.0 0.00368 221.47433 268.07770
291.0 0.003436 221.41002 265.45892
270.0 0.00370 221.34457 261.67560
261.0 0.00383 221.27798 256.86600
236.0 0.00424 221.21034 251.52119
232.0 0.00431 221.14165 246.16399
249.0 0.00402 221.07191 241.23734
239.0 0.00418 221.00113 237.00270
250.0 0.00400 220.92935 233.57211
241.0 0.00415 220.85657 230.93329
235.0 0.00426 220.78284 229.00301
247.0 0.00405 220.70818 227.61195
234.0 0.00427 220.63251 226.62740
219.0 0.00457 220.55600 225.93047
209.0 0.00478 220.47858 225.43498
235.0 0.00426 220.40030 225.06691
214.0 0.00467 220.32123 224.79939
239.0 0.00418 220.24127 224.61836
233.0 0.00429 220.16054 224.52682
208.0 0.00481 220.07909 224.54391
238.0 0.00420 219.99686 224.70631
212.0 0.00472 219.91394 225.07507
214.0 0.00467 219.83032 225.71228
226.0 0.00442 219.74603 226.70485
245.0 0.00408 219.66116 228.12801
218.0 0.00459 219.57565 230.02513
230.0 0.00435 219.48955 232.38295
233.0 0.00429 219.40289 235.10387
247.0 0.00405 219.31570 237.98320
233.0 0.00429 219.22812 240.69688
227.0 0.00441 219.13997 242.81418
242.0 0.00413 219.05142 243.90370
249.0 0.00402 218.96251 243.74936
260.0 0.00385 218.87314 242.51521
240.0 0.00417 218.78352 240.65182
279.0 0.00358 218.69359 238.66269
237.0 0.00422 218.60335 236.95052
222.0 0.00450 218.51280 235.78201
229.0 0.00437 218.42210 235.30013
224.0 0.00446 218.33125 235.54945
252.0 0.00397 218.24025 236.51308
234.0 0.00427 218.14906 238.17012
223.0 0.00448 218.05792 240.57982
252.0 0.00397 217.96660 243.91353
234.0 0.00427 217.87529 248.49663
230.0 0.00435 217.78400 254.43697
265.0 0.00377 217.69276 261.80420
260.0 0.00385 217.60159 270.14682
257.0 0.00389 217.51060 278.65982
259.0 0.00386 217.41975 286.11661
263.0 0.00380 217.32907 290.94724
319.0 0.003135 217.23860 292.09402
290.0 0.003448 217.14845 289.27505
278.0 0.00360 217.05849 283.48511
312.0 0.003205 216.96886 276.30060
259.0 0.00386 216.87968 269.17368
262.0 0.00382 216.79080 263.10614
258.0 0.00388 216.70235 258.59680
253.0 0.00395 216.61440 255.66942
267.0 0.00375 216.52695 253.92419
263.0 0.00380 216.44003 252.64325
251.0 0.00398 216.35368 251.04141
256.0 0.00391 216.26787 248.57466
243.0 0.00412 216.18268 245.19601
260.0 0.00385 216.09819 241.23622
233.0 0.00429 216.01442 237.12570
224.0 0.00446 215.93140 233.23775
247.0 0.00405 215.84903 229.79199
234.0 0.00427 215.76761 226.93089
194.0 0.00515 215.68690 224.68564
239.0 0.00418 215.60707 223.01390
235.0 0.00426 215.52815 221.83060
222.0 0.00450 215.45012 221.03656
230.0 0.00435 215.37309 220.54248
217.0 0.00461 215.29700 220.27837
233.0 0.00429 215.22200 220.19391
210.0 0.00476 215.14801 220.25670
217.0 0.00461 215.07509 220.44099
229.0 0.00437 215.00323 220.73718
192.0 0.00521 214.93256 221.12230
237.0 0.00422 214.86302 221.57550
214.0 0.00467 214.79474 222.07869
215.0 0.00465 214.72762 222.63347
214.0 0.00467 214.66168 223.27777
234.0 0.00427 214.59714 224.13971
226.0 0.00442 214.53384 225.43915
241.0 0.00415 214.47191 227.42105
210.0 0.00476 214.41130 230.40309
240.0 0.00417 214.35202 234.60664
256.0 0.00391 214.29419 240.22169
248.0 0.00403 214.23779 247.27995
239.0 0.00418 214.18285 255.51805
275.0 0.00364 214.12935 264.42178
275.0 0.00364 214.07739 273.14328
291.0 0.003436 214.02686 280.52487
277.0 0.00361 213.97786 285.33112
338.0 0.002959 213.93045 286.82367
322.0 0.003106 213.88464 284.95367
292.0 0.003425 213.84038 280.67548
274.0 0.00365 213.79765 275.42325
290.0 0.003448 213.75671 270.60751
276.0 0.00362 213.71730 267.24661
251.0 0.00398 213.67955 265.83838
239.0 0.00418 213.64351 266.39429
261.0 0.00383 213.60912 268.44974
289.0 0.003460 213.57643 271.14374
285.0 0.00351 213.54546 273.48431
280.0 0.00357 213.51624 274.50787
306.0 0.003268 213.48866 273.72644
261.0 0.00383 213.46289 271.30127
262.0 0.00382 213.43890 267.86426
265.0 0.00377 213.41655 264.11761
257.0 0.00389 213.39609 260.52432
268.0 0.00373 213.37733 257.22147
284.0 0.00352 213.36038 254.13954
265.0 0.00377 213.34514 251.10167
257.0 0.00389 213.33174 248.10242
222.0 0.00450 213.32011 245.16335
235.0 0.00426 213.31029 242.28465
223.0 0.00448 213.30226 239.46390
264.0 0.00379 213.29601 236.77129
232.0 0.00431 213.29149 234.31776
239.0 0.00418 213.28883 232.19684
214.0 0.00467 213.28801 230.33943
232.0 0.00431 213.28883 228.66281
236.0 0.00424 213.29150 227.04521
211.0 0.00474 213.29601 225.43462
224.0 0.00446 213.30215 223.83208
197.0 0.00508 213.31013 222.30956
248.0 0.00403 213.31981 220.92555
228.0 0.00439 213.33124 219.71968
221.0 0.00452 213.34445 218.71007
237.0 0.00422 213.35934 217.89664
245.0 0.00408 213.37598 217.27376
219.0 0.00457 213.39424 216.79907
211.0 0.00474 213.41415 216.43541
230.0 0.00435 213.43584 216.18680
200.0 0.00500 213.45914 216.01091
237.0 0.00422 213.48404 215.88756
210.0 0.00476 213.51057 215.80179
215.0 0.00465 213.53871 215.74336
223.0 0.00448 213.56841 215.70547
213.0 0.00469 213.59973 215.68394
225.0 0.00444 213.63249 215.67615
209.0 0.00478 213.66676 215.68056
225.0 0.00444 213.70256 215.68973
243.0 0.00412 213.73978 215.71590
220.0 0.00455 213.77853 215.75238
203.0 0.00493 213.81860 215.79897
217.0 0.00461 213.86014 215.85580
224.0 0.00446 213.90303 215.92348
217.0 0.00461 213.94720 216.00249
221.0 0.00452 213.99263 216.09435
236.0 0.00424 214.03943 216.20117
212.0 0.00472 214.08745 216.32658
208.0 0.00481 214.13666 216.42239
210.0 0.00476 214.18707 216.60976
231.0 0.00433 214.23862 216.84998
211.0 0.00474 214.29126 217.16826
224.0 0.00446 214.34497 217.60587
237.0 0.00422 214.39970 218.19572
232.0 0.00431 214.45551 218.99431
213.0 0.00469 214.51222 220.05017
229.0 0.00437 214.56990 221.39656
227.0 0.00441 214.62846 223.03772
203.0 0.00493 214.68790 224.91170
227.0 0.00441 214.74808 226.96326
250.0 0.00400 214.80907 229.00598
235.0 0.00426 214.87085 230.80521
221.0 0.00452 214.93324 232.08835
249.0 0.00402 214.99637 232.64496
223.0 0.00448 215.06004 232.44717
231.0 0.00433 215.12431 231.69185
241.0 0.00415 215.18912 230.68855
240.0 0.00417 215.25435 229.73691
224.0 0.00446 215.31999 229.07057
228.0 0.00439 215.38608 228.84875
249.0 0.00402 215.45258 229.16731
246.0 0.00407 215.51932 230.07112
249.0 0.00402 215.58626 231.57207
225.0 0.00444 215.65346 233.67619
246.0 0.00407 215.72083 236.42874
235.0 0.00426 215.78836 239.94943
252.0 0.00397 215.85590 244.40833
255.0 0.00392 215.92355 249.94521
267.0 0.00375 215.99104 256.58484
261.0 0.00383 216.05847 264.19568
250.0 0.00400 216.12593 272.46326
251.0 0.00398 216.19308 280.86633
335.0 0.002985 216.26015 288.72806
301.0 0.003322 216.32686 295.33304
294.0 0.003401 216.39326 300.24902
299.0 0.003344 216.45938 303.24896
308.0 0.003247 216.52502 304.43158
299.0 0.003344 216.59026 303.96683
287.0 0.003484 216.65497 302.03290
314.0 0.003185 216.71916 299.07089
253.0 0.00395 216.78281 295.58026
306.0 0.003268 216.84576 291.90500
295.0 0.003390 216.90800 288.09271
269.0 0.00372 216.96957 284.09103
252.0 0.00397 217.03032 279.94067
255.0 0.00392 217.09024 275.71439
271.0 0.00369 217.14940 271.54391
281.0 0.00356 217.20749 267.56418
225.0 0.00444 217.26468 263.84430
263.0 0.00380 217.32089 260.40369
254.0 0.00394 217.37604 257.34253
252.0 0.00397 217.43015 254.80241
240.0 0.00417 217.48305 252.82304
247.0 0.00405 217.53479 251.44374
261.0 0.00383 217.58531 250.63748
229.0 0.00437 217.63464 250.45990
221.0 0.00452 217.68262 251.03334
230.0 0.00435 217.72925 252.38756
290.0 0.003448 217.77452 254.44499
279.0 0.00358 217.81834 256.96094
279.0 0.00358 217.86072 259.53033
225.0 0.00444 217.90163 261.66626
271.0 0.00369 217.94101 263.09177
281.0 0.00356 217.97881 263.82205
251.0 0.00398 218.01503 264.08490
247.0 0.00405 218.04967 264.26062
259.0 0.00386 218.08249 264.53232
258.0 0.00388 218.11375 264.81287
267.0 0.00375 218.14323 264.79993
280.0 0.00357 218.17096 264.11041
259.0 0.00386 218.19693 262.51016
290.0 0.003448 218.22105 260.03479
259.0 0.00386 218.24335 256.89221
262.0 0.00382 218.26378 253.36557
267.0 0.00375 218.28230 249.77354
247.0 0.00405 218.29890 246.37665
244.0 0.00410 218.31366 243.42706
184.0 0.00543 218.32634 241.01404
252.0 0.00397 218.33710 239.06978
225.0 0.00444 218.34581 237.41325
237.0 0.00422 218.35260 235.81815
243.0 0.00412 218.35733 234.12729
253.0 0.00395 218.35995 232.32115
233.0 0.00429 218.36055 230.47485
227.0 0.00441 218.35912 228.69667
222.0 0.00450 218.35556 227.07077
232.0 0.00431 218.34991 225.65149
225.0 0.00444 218.34218 224.47508
216.0 0.00463 218.33237 223.52599
222.0 0.00450 218.32036 222.79503
197.0 0.00508 218.30634 222.25125
213.0 0.00469 218.29012 221.86041
229.0 0.00437 218.27182 221.59183
206.0 0.00485 218.25136 221.42136
208.0 0.00481 218.22888 221.33571
216.0 0.00463 218.20418 221.33218
234.0 0.00427 218.17746 221.41725
203.0 0.00493 218.14854 221.60425
202.0 0.00495 218.11761 221.90927
214.0 0.00467 218.08458 222.34702
203.0 0.00493 218.04950 222.91460
210.0 0.00476 218.01222 223.60147
239.0 0.00418 217.97295 224.37059
247.0 0.00405 217.93172 225.16048
223.0 0.00448 217.88841 225.87880
230.0 0.00435 217.84309 226.41080
211.0 0.00474 217.79584 226.64993
242.0 0.00413 217.74661 226.54807
208.0 0.00481 217.69540 226.15031
239.0 0.00418 217.64232 225.57057
254.0 0.00394 217.58736 224.93530
234.0 0.00427 217.53044 224.34705
209.0 0.00478 217.47180 223.87430
194.0 0.00515 217.41129 223.54765
237.0 0.00422 217.34903 223.36542
216.0 0.00463 217.28505 223.30046
232.0 0.00431 217.21928 223.29860
213.0 0.00469 217.15198 223.27742
223.0 0.00448 217.08287 223.23915
245.0 0.00408 217.01237 223.14949
210.0 0.00476 216.94019 223.02596
236.0 0.00424 216.86644 222.94760
245.0 0.00408 216.79129 222.94762
216.0 0.00463 216.71471 223.10545
231.0 0.00433 216.63676 223.49840
200.0 0.00500 216.55753 224.22105
231.0 0.00433 216.47684 225.39305
234.0 0.00427 216.39502 227.15669
212.0 0.00472 216.31190 229.67813
198.0 0.00505 216.22778 233.13879
234.0 0.00427 216.14255 237.67807
231.0 0.00433 216.05611 243.39688
268.0 0.00373 215.96886 250.26295
256.0 0.00391 215.88057 258.10913
267.0 0.00375 215.79144 266.59888
293.0 0.003413 215.70157 275.10440
270.0 0.00370 215.61082 282.87079
281.0 0.00356 215.51939 289.03250
295.0 0.003390 215.42729 292.78229
325.0 0.003077 215.33472 293.75946
347.0 0.002882 215.24156 292.03064
313.0 0.003195 215.14795 288.06665
301.0 0.003322 215.05392 282.71829
275.0 0.00364 214.95949 276.92471
280.0 0.00357 214.86490 271.56079
242.0 0.00413 214.77011 267.23157
261.0 0.00383 214.67503 264.20914
263.0 0.00380 214.57999 262.46829
272.0 0.00368 214.48482 261.73929
272.0 0.00368 214.38985 261.58975
259.0 0.00386 214.29485 261.61826
251.0 0.00398 214.20010 261.50055
252.0 0.00397 214.10562 261.03885
252.0 0.00397 214.01132 260.15787
246.0 0.00407 213.91756 258.86127
263.0 0.00380 213.82420 257.22729
259.0 0.00386 213.73128 255.45825
233.0 0.00429 213.63908 253.93748
238.0 0.00420 213.54738 253.19508
208.0 0.00481 213.45648 253.74573
249.0 0.00402 213.36633 255.93361
277.0 0.00361 213.27695 259.86792
245.0 0.00408 213.18861 265.35837
255.0 0.00392 213.10109 271.91760
287.0 0.003484 213.01477 278.70624
304.0 0.003289 212.92947 284.56671
342.0 0.002924 212.84528 288.27817
360.0 0.002778 212.76241 288.81534
383.0 0.002611 212.68076 285.98483
325.0 0.003077 212.60051 280.50873
315.0 0.003175 212.52164 273.60284
267.0 0.00375 212.44420 266.45483
247.0 0.00405 212.36841 259.98944
247.0 0.00405 212.29410 254.72093
236.0 0.00424 212.22145 250.91997
251.0 0.00398 212.15051 248.45647
268.0 0.00373 212.08134 246.95076
258.0 0.00388 212.01405 245.86900
284.0 0.00352 211.94847 244.60365
257.0 0.00389 211.88492 242.74197
263.0 0.00380 211.82330 240.20271
253.0 0.00395 211.76363 237.19576
259.0 0.00386 211.70605 234.05788
220.0 0.00455 211.65065 231.09364
224.0 0.00446 211.59737 228.53235
267.0 0.00375 211.54623 226.52026
238.0 0.00420 211.49730 225.10811
226.0 0.00442 211.45071 224.23671
243.0 0.00412 211.40645 223.80916
246.0 0.00407 211.36447 223.65157
221.0 0.00452 211.32494 223.56682
281.0 0.00356 211.28769 223.36308
230.0 0.00435 211.25304 222.91891
280.0 0.00357 211.22075 222.22566
221.0 0.00452 211.19098 221.37039
243.0 0.00412 211.16376 220.47321
204.0 0.00490 211.13914 219.64110
192.0 0.00521 211.11702 218.95259
215.0 0.00465 211.09752 218.44591
197.0 0.00508 211.08055 218.13356
231.0 0.00433 211.06624 217.98192
187.0 0.00535 211.05457 217.94087
228.0 0.00439 211.04550 217.94360
218.0 0.00459 211.03918 217.92609
242.0 0.00413 211.03537 217.85371
216.0 0.00463 211.03435 217.73283
223.0 0.00448 211.03595 217.59982
207.0 0.00483 211.04010 217.50365
230.0 0.00435 211.04703 217.49797
225.0 0.00444 211.05658 217.64883
194.0 0.00515 211.06874 218.03365
200.0 0.00500 211.08362 218.76816
236.0 0.00424 211.10107 219.96120
228.0 0.00439 211.12114 221.73315
219.0 0.00457 211.14377 224.18512
238.0 0.00420 211.16899 227.38692
252.0 0.00397 211.19681 231.34738
209.0 0.00478 211.22705 235.97058
256.0 0.00391 211.25987 241.05344
232.0 0.00431 211.29514 246.23380
222.0 0.00450 211.33290 251.04884
235.0 0.00426 211.37300 254.90019
260.0 0.00385 211.41557 257.29886
266.0 0.00376 211.46040 257.95660
232.0 0.00431 211.50754 256.89362
234.0 0.00427 211.55696 254.42766
271.0 0.00369 211.60870 251.07230
250.0 0.00400 211.66249 247.42068
204.0 0.00490 211.71851 243.98450
225.0 0.00444 211.77661 241.12161
212.0 0.00472 211.83665 238.98306
242.0 0.00413 211.89876 237.53528
224.0 0.00446 211.96277 236.59785
249.0 0.00402 212.02872 235.90221
216.0 0.00463 212.09637 235.15141
243.0 0.00412 212.16588 234.14494
221.0 0.00452 212.23711 232.79689
244.0 0.00410 212.30994 231.14522
223.0 0.00448 212.38441 229.32664
215.0 0.00465 212.46034 227.52527
235.0 0.00426 212.53770 225.91917
203.0 0.00493 212.61662 224.69908
221.0 0.00452 212.69672 223.96848
236.0 0.00424 212.77811 223.91995
258.0 0.00388 212.86075 224.62752
235.0 0.00426 212.94432 226.15230
206.0 0.00485 213.02924 228.60349
212.0 0.00472 213.11499 231.94925
246.0 0.00407 213.20169 236.11424
218.0 0.00459 213.28917 240.90175
238.0 0.00420 213.37741 246.00089
253.0 0.00395 213.46652 250.95012
241.0 0.00415 213.55615 255.12888
237.0 0.00422 213.64633 257.87085
264.0 0.00379 213.73703 258.68497
279.0 0.00358 213.82819 257.48352
256.0 0.00391 213.91969 254.67436
252.0 0.00397 214.01144 250.98344
223.0 0.00448 214.10352 247.09457
249.0 0.00402 214.19563 243.54170
237.0 0.00422 214.28780 240.70145
242.0 0.00413 214.38008 238.70941
211.0 0.00474 214.47226 237.54572
218.0 0.00459 214.56438 237.02805
205.0 0.00488 214.65631 236.85466
253.0 0.00395 214.74797 236.66335
258.0 0.00388 214.83945 236.14247
239.0 0.00418 214.93045 235.14783
253.0 0.00395 215.02118 233.72467
241.0 0.00415 215.11128 232.03175
220.0 0.00455 215.20096 230.21449
246.0 0.00407 215.29010 228.38091
207.0 0.00483 215.37860 226.68925
220.0 0.00455 215.46658 225.13994
242.0 0.00413 215.55367 223.77760
221.0 0.00452 215.64009 222.63252
188.0 0.00532 215.72583 221.72664
214.0 0.00467 215.81064 221.03918
224.0 0.00446 215.89471 220.56114
226.0 0.00442 215.97784 220.27722
225.0 0.00444 216.06009 220.15005
224.0 0.00446 216.14153 220.16211
224.0 0.00446 216.22192 220.26721
206.0 0.00485 216.30145 220.48950
211.0 0.00474 216.37994 220.78439
240.0 0.00417 216.45743 221.15503
198.0 0.00505 216.53407 221.56186
218.0 0.00459 216.60962 222.01260
233.0 0.00429 216.68423 222.49483
223.0 0.00448 216.75781 222.96953
270.0 0.00370 216.83047 223.39568
251.0 0.00398 216.90222 223.72847
248.0 0.00403 216.97292 223.93823
247.0 0.00405 217.04279 224.05400
244.0 0.00410 217.11174 224.18457
227.0 0.00441 217.17979 224.37924
226.0 0.00442 217.24701 224.79924
210.0 0.00476 217.31345 225.54094
214.0 0.00467 217.37915 226.69156
225.0 0.00444 217.44400 228.27962
248.0 0.00403 217.50822 230.30476
250.0 0.00400 217.57187 232.69907
211.0 0.00474 217.63481 235.31509
257.0 0.00389 217.69730 237.93852
243.0 0.00412 217.75929 240.28217
264.0 0.00379 217.82083 242.03882
242.0 0.00413 217.88214 242.94933
237.0 0.00422 217.94308 242.85039
233.0 0.00429 218.00388 241.82593
252.0 0.00397 218.06444 240.13052
224.0 0.00446 218.12495 238.10484
245.0 0.00408 218.18553 236.06767
246.0 0.00407 218.24615 234.26366
231.0 0.00433 218.30702 232.83673
256.0 0.00391 218.36813 231.84056
225.0 0.00444 218.42953 231.23906
235.0 0.00426 218.49139 230.92645
235.0 0.00426 218.55376 230.74765
242.0 0.00413 218.61682 230.53374
245.0 0.00408 218.68048 230.16440
243.0 0.00412 218.74493 229.56355
248.0 0.00403 218.81030 228.76067
209.0 0.00478 218.87660 227.84679
232.0 0.00431 218.94394 226.91719
220.0 0.00455 219.01247 226.05873
199.0 0.00503 219.08212 225.33733
220.0 0.00455 219.15326 224.80257
227.0 0.00441 219.22565 224.49516
225.0 0.00444 219.29958 224.45085
219.0 0.00457 219.37498 224.70863
209.0 0.00478 219.45206 225.31190
243.0 0.00412 219.53084 226.30663
247.0 0.00405 219.61140 227.73557
243.0 0.00412 219.69386 229.61491
215.0 0.00465 219.77802 231.92863
214.0 0.00467 219.86424 234.61777
235.0 0.00426 219.95248 237.55687
256.0 0.00391 220.04268 240.53496
233.0 0.00429 220.13501 243.25856
255.0 0.00392 220.22934 245.38086
246.0 0.00407 220.32578 246.55130
275.0 0.00364 220.42439 246.57861
282.0 0.00355 220.52519 245.53986
282.0 0.00355 220.62814 243.74364
243.0 0.00412 220.73305 241.59070
235.0 0.00426 220.84009 239.43671
228.0 0.00439 220.94930 237.54237
215.0 0.00465 221.06041 236.06812
241.0 0.00415 221.17358 235.07089
215.0 0.00465 221.28859 234.51285
211.0 0.00474 221.40538 234.28087
226.0 0.00442 221.52399 234.19891
228.0 0.00439 221.64409 234.06592
275.0 0.00364 221.76596 233.74228
228.0 0.00439 221.88896 233.10204
238.0 0.00420 222.01328 232.20746
214.0 0.00467 222.13876 231.12228
232.0 0.00431 222.26506 230.02695
244.0 0.00410 222.39227 228.97664
256.0 0.00391 222.51987 228.03537
222.0 0.00450 222.64790 227.25594
233.0 0.00429 222.77611 226.62454
213.0 0.00469 222.90404 226.15230
222.0 0.00450 223.03168 225.82365
228.0 0.00439 223.15878 225.61609
200.0 0.00500 223.28474 225.50453
245.0 0.00408 223.40971 225.47594
234.0 0.00427 223.53311 225.48964
231.0 0.00433 223.65463 225.54095
220.0 0.00455 223.77409 225.62407
213.0 0.00469 223.89087 225.71992
210.0 0.00476 224.00507 225.83025
241.0 0.00415 224.11578 225.95097
217.0 0.00461 224.22318 226.08685
190.0 0.00526 224.32648 226.19414
221.0 0.00452 224.42542 226.34242
217.0 0.00461 224.51974 226.50269
214.0 0.00467 224.60884 226.67371
238.0 0.00420 224.69252 226.86124
225.0 0.00444 224.77020 227.07074
224.0 0.00446 224.84158 227.31129
220.0 0.00455 224.90633 227.59557
232.0 0.00431 224.96404 227.94974
244.0 0.00410 225.01428 228.37810
236.0 0.00424 225.05669 228.91920
244.0 0.00410 225.09094 229.60468
243.0 0.00412 225.11679 230.46133
232.0 0.00431 225.13377 231.54987
229.0 0.00437 225.14175 232.88731
228.0 0.00439 225.14041 234.49069
247.0 0.00405 225.12952 236.36212
222.0 0.00450 225.10890 238.48262
252.0 0.00397 225.07851 240.80083
240.0 0.00417 225.03815 243.24422
244.0 0.00410 224.98784 245.68616
262.0 0.00382 224.92763 247.99181
248.0 0.00403 224.85748 250.04463
262.0 0.00382 224.77779 251.80574
260.0 0.00385 224.68861 253.31697
255.0 0.00392 224.59044 254.66583
269.0 0.00372 224.48363 255.96925
263.0 0.00380 224.36867 257.34116
237.0 0.00422 224.24631 258.84561
256.0 0.00391 224.11719 260.46390
243.0 0.00412 223.98259 262.09283
249.0 0.00402 223.84314 263.62897
275.0 0.00364 223.70021 265.05194
265.0 0.00377 223.55540 266.44028
277.0 0.00361 223.40988 267.90573
254.0 0.00394 223.26591 269.48920
248.0 0.00403 223.12511 271.11353
307.0 0.003257 222.98973 272.55508
248.0 0.00403 222.86232 273.45685
291.0 0.003436 222.74538 273.43314
268.0 0.00373 222.64215 272.22357
305.0 0.003279 222.55579 269.84433
291.0 0.003436 222.48982 266.56439
263.0 0.00380 222.44817 262.77322
237.0 0.00422 222.43509 258.84290
238.0 0.00420 222.45528 255.11243
265.0 0.00377 222.51369 251.84691
263.0 0.00380 222.61577 249.22253
256.0 0.00391 222.76741 247.30795
237.0 0.00422 222.97522 246.04898
237.0 0.00422 223.24562 245.29828
266.0 0.00376 223.58632 244.85277
293.0 0.003413 224.00546 244.49586
256.0 0.00391 224.51091 244.13631
240.0 0.00417 225.11279 243.79590
259.0 0.00386 225.82007 243.61143
252.0 0.00397 226.64320 243.76471
208.0 0.00481 227.59528 244.42339
241.0 0.00415 228.68541 245.70360
248.0 0.00403 229.92928 247.66368
247.0 0.00405 231.33839 250.28461
232.0 0.00431 232.92751 253.46846
242.0 0.00413 234.71477 257.04077
255.0 0.00392 236.71353 260.73932
258.0 0.00388 238.94434 264.25668
289.0 0.003460 241.42261 267.31378
281.0 0.00356 244.16875 269.76108
284.0 0.00352 247.20792 271.67392
263.0 0.00380 250.55725 273.29013
232.0 . . .
loop_
_refln_index_h
_refln_index_k
_refln_index_l
_pd_refln_wavelength_id
_refln_observed_status
_refln_F_squared_meas
_refln_F_squared_calc
_refln_phase_calc
_refln_d_spacing
_gsas_i100_meas
1 0 0 1 o 252.210 244.435 0.00 8.24048 40.75
1 0 0 2 o 256.551 244.435 0.00 8.24048 15.66
1 1 0 1 o 11.701 10.717 180.00 4.85150 1.21
1 1 0 2 o 11.707 10.717 180.00 4.85150 0.46
0 0 1 1 o 1.036 6.065 0.00 4.55364 0.00
0 0 1 2 o 1.036 6.065 0.00 4.55364 0.00
2 0 0 1 o 167.704 151.046 180.00 4.12024 6.43
1 0 -1 1 o 182.771 164.574 0.00 4.11620 6.58
2 0 0 2 o 167.553 151.046 180.00 4.12024 2.43
1 0 -1 2 o 179.821 164.574 0.00 4.11620 2.45
1 0 1 1 o 1213.865 1200.541 180.00 3.86670 44.85
1 0 1 2 o 1232.989 1200.541 180.00 3.86670 17.21
0 1 1 1 o -1.323 0.403 0.00 3.62772 0.00
0 1 1 2 o -1.323 0.403 0.00 3.62772 0.00
2 1 0 1 o 493.656 475.902 0.00 3.39686 29.76
1 1 -1 1 o 1761.650 1715.689 180.00 3.39459 100.00
2 1 0 2 o 480.907 475.902 0.00 3.39686 10.98
1 1 -1 2 o 1714.413 1715.689 180.00 3.39459 36.82
1 1 1 1 o 405.340 392.078 180.00 3.25053 22.29
1 1 1 2 o 407.170 392.078 180.00 3.25053 8.46
2 0 -1 1 o 387.135 410.478 0.00 3.17390 8.17
2 0 -1 2 o 349.889 410.478 0.00 3.17390 2.81
0 2 0 1 o 2496.803 2486.543 180.00 3.00097 49.87
0 2 0 2 o 2395.476 2486.543 180.00 3.00097 18.11
2 0 1 1 o 281.007 252.398 180.00 2.94892 5.33
2 0 1 2 o 270.809 252.398 180.00 2.94892 1.94
1 2 0 1 o 182.407 162.562 180.00 2.81980 6.94
1 2 0 2 o 180.993 162.562 180.00 2.81980 2.60
2 1 -1 1 o 39.270 35.393 180.00 2.80575 1.50
2 1 -1 2 o 35.658 35.393 180.00 2.80575 0.52
3 0 0 1 o 801.558 800.661 180.00 2.74683 12.94
3 0 0 2 o 715.987 800.661 180.00 2.74683 4.39
2 1 1 1 o 890.313 879.089 180.00 2.64671 29.99
2 1 1 2 o 823.799 879.089 180.00 2.64671 10.53
0 2 1 1 o -1.568 0.443 0.00 2.50576 0.00
0 2 1 2 o -1.349 0.443 0.00 2.50576 0.00
3 1 0 1 o 1.224 3.081 180.00 2.49768 0.02
3 1 0 2 o 0.319 3.081 180.00 2.49768 0.00
3 0 -1 1 o 1061.134 1061.503 0.00 2.43274 12.35
3 0 -1 2 o 1075.346 1061.503 0.00 2.43274 4.73
2 2 0 1 o 69.392 68.171 0.00 2.42575 2.03
1 2 -1 1 o 67.717 66.318 180.00 2.42492 1.86
2 2 0 2 o 71.015 68.171 0.00 2.42575 0.78
1 2 -1 2 o 68.955 66.318 180.00 2.42492 0.72
1 2 1 1 o 626.741 632.741 0.00 2.37074 17.55
1 2 1 2 o 601.013 632.741 0.00 2.37074 6.37
3 0 1 1 o 21.432 12.769 180.00 2.27887 0.20
0 0 2 1 o 2.389 1.296 0.00 2.27682 0.03
3 0 1 2 o 16.636 12.769 180.00 2.27887 0.06
0 0 2 2 o 1.542 1.296 0.00 2.27682 0.01
3 1 -1 1 o 2.611 10.306 0.00 2.25458 0.09
3 1 -1 2 o 5.438 10.306 0.00 2.25458 0.06
1 0 -2 1 o 125.075 106.641 180.00 2.23737 1.34
1 0 -2 2 o 153.421 106.641 180.00 2.23737 0.61
2 2 -1 1 o 289.698 272.799 180.00 2.18058 6.50
2 2 -1 2 o 298.123 272.799 180.00 2.18058 2.52
1 0 2 1 o 264.970 254.769 0.00 2.15419 2.84
1 0 2 2 o 275.539 254.769 0.00 2.15419 1.11
3 1 1 1 o 90.217 90.383 180.00 2.13047 1.87
0 1 2 1 o 698.933 700.555 180.00 2.12880 14.64
3 1 1 2 o 88.900 90.383 180.00 2.13047 0.70
0 1 2 2 o 673.658 700.555 180.00 2.12880 5.34
2 2 1 1 o 114.689 104.877 0.00 2.10336 2.43
2 2 1 2 o 104.890 104.877 0.00 2.10336 0.84
1 1 -2 1 o 170.132 172.521 0.00 2.09644 3.30
1 1 -2 2 o 176.570 172.521 0.00 2.09644 1.29
4 0 0 1 o 293.151 291.336 180.00 2.06012 2.48
2 0 -2 1 o 364.904 367.061 180.00 2.05810 2.98
4 0 0 2 o 281.539 291.336 180.00 2.06012 0.90
2 0 -2 2 o 333.804 367.061 180.00 2.05810 1.04
1 1 2 1 o 103.514 98.265 180.00 2.02755 1.98
3 2 0 1 o 467.979 445.435 0.00 2.02620 9.04
1 1 2 2 o 100.156 98.265 180.00 2.02755 0.72
3 2 0 2 o 445.483 445.435 0.00 2.02620 3.26
4 1 0 1 o 82.921 86.412 180.00 1.94853 1.36
2 1 -2 1 o 1.293 1.283 0.00 1.94682 0.02
1 3 0 1 o 31.931 30.760 180.00 1.94417 0.56
4 1 0 2 o 89.902 86.412 180.00 1.94853 0.55
2 1 -2 2 o 1.372 1.283 0.00 1.94682 0.01
1 3 0 2 o 36.022 30.760 180.00 1.94417 0.23
2 0 2 1 o 41.094 48.314 0.00 1.93335 0.37
4 0 -1 1 o 1.889 2.660 180.00 1.93123 0.01
2 0 2 2 o 22.968 48.314 0.00 1.93335 0.09
4 0 -1 2 o 1.543 2.660 180.00 1.93123 0.00
3 2 -1 1 o 462.940 459.827 180.00 1.88979 7.27
3 2 -1 2 o 494.165 459.827 180.00 1.88979 2.92
2 1 2 1 o 12.135 13.734 0.00 1.84023 0.20
4 1 -1 1 o 54.071 62.052 0.00 1.83840 0.80
2 1 2 2 o 12.670 13.734 0.00 1.84023 0.08
4 1 -1 2 o 59.673 62.052 0.00 1.83840 0.33
0 3 1 1 o 18.311 18.427 180.00 1.83166 0.29
0 3 1 2 o 19.807 18.427 180.00 1.83166 0.12
4 0 1 1 o 562.567 525.645 0.00 1.82704 3.48
4 0 1 2 o 633.213 525.645 0.00 1.82704 1.47
3 0 -2 1 o 41.569 32.602 0.00 1.82013 0.22
3 0 -2 2 o 48.247 32.602 0.00 1.82013 0.10
3 2 1 1 o 1.969 0.916 180.00 1.81490 0.04
0 2 2 1 o 23.047 14.247 180.00 1.81386 0.33
3 2 1 2 o 1.826 0.916 180.00 1.81490 0.01
0 2 2 2 o 19.899 14.247 180.00 1.81386 0.11
2 3 0 1 o 210.692 192.699 180.00 1.79970 2.97
1 3 -1 1 o 606.271 550.169 0.00 1.79936 8.20
2 3 0 2 o 218.215 192.699 180.00 1.79970 1.16
1 3 -1 2 o 618.931 550.169 0.00 1.79936 3.16
1 2 -2 1 o 57.159 51.083 0.00 1.79372 0.84
1 2 -2 2 o 49.433 51.083 0.00 1.79372 0.28
1 3 1 1 o 121.620 115.973 0.00 1.77689 1.62
1 3 1 2 o 127.188 115.973 0.00 1.77689 0.64
1 2 2 1 o 108.822 131.184 180.00 1.74999 1.59
4 1 1 1 o 40.894 48.009 0.00 1.74786 0.47
1 2 2 2 o 110.621 131.184 180.00 1.74999 0.61
4 1 1 2 o 42.570 48.009 0.00 1.74786 0.18
3 1 -2 1 o 128.520 140.972 180.00 1.74180 1.51
3 1 -2 2 o 122.248 140.972 180.00 1.74180 0.54
4 2 0 1 o 171.793 185.273 0.00 1.69843 2.16
2 2 -2 1 o 253.950 267.923 0.00 1.69730 3.06
4 2 0 2 o 184.646 185.273 0.00 1.69843 0.87
2 2 -2 2 o 270.459 267.923 0.00 1.69730 1.23
3 0 2 1 o 14.899 14.657 180.00 1.69266 0.08
2 3 -1 1 o 43.284 42.349 0.00 1.69247 0.53
3 0 2 2 o 17.227 14.657 180.00 1.69266 0.03
2 3 -1 2 o 51.010 42.349 0.00 1.69247 0.23
2 3 1 1 o 319.661 283.335 0.00 1.65559 3.78
2 3 1 2 o 337.514 283.335 0.00 1.65559 1.50
5 0 0 1 o 1.003 0.655 180.00 1.64810 0.00
5 0 0 2 o 1.262 0.655 180.00 1.64810 0.00
3 1 2 1 o 655.603 632.353 0.00 1.62911 6.84
2 2 2 1 o 46.825 45.986 180.00 1.62527 0.58
3 1 2 2 o 643.419 632.353 0.00 1.62911 2.54
4 2 -1 1 o 0.487 0.474 0.00 1.62401 0.00
2 2 2 2 o 48.716 45.986 180.00 1.62527 0.23
4 2 -1 2 o 0.502 0.474 0.00 1.62401 0.00
3 3 0 1 o 0.305 0.272 180.00 1.61717 0.01
3 3 0 2 o 0.283 0.272 180.00 1.61717 0.00
5 1 0 1 o 253.136 278.651 180.00 1.58927 2.43
5 0 -1 1 o 211.039 226.365 180.00 1.58764 0.94
4 0 -2 1 o 110.501 117.906 0.00 1.58695 0.47
5 1 0 2 o 262.963 278.651 180.00 1.58927 0.95
5 0 -1 2 o 218.544 226.365 180.00 1.58764 0.37
4 0 -2 2 o 115.116 117.906 0.00 1.58695 0.18
4 2 1 1 o 294.657 294.024 180.00 1.56057 2.94
4 2 1 2 o 306.221 294.024 180.00 1.56057 1.15
3 2 -2 1 o 11.593 10.771 180.00 1.55626 0.10
3 2 -2 2 o 14.519 10.771 180.00 1.55626 0.05
3 3 -1 1 o 5.290 9.812 180.00 1.54523 0.06
3 3 -1 2 o 12.516 9.812 180.00 1.54523 0.05
5 1 -1 1 o 57.288 56.538 0.00 1.53485 0.51
4 1 -2 1 o 468.595 451.941 180.00 1.53423 3.77
5 1 -1 2 o 59.025 56.538 0.00 1.53485 0.20
4 1 -2 2 o 465.363 451.941 180.00 1.53423 1.42
0 0 3 1 o 7.942 12.389 0.00 1.51788 0.04
5 0 1 1 o 30.202 45.527 0.00 1.51438 0.13
0 0 3 2 o 8.040 12.389 0.00 1.51788 0.02
1 0 -3 1 o 103.155 138.011 0.00 1.51278 0.46
5 0 1 2 o 42.206 45.527 0.00 1.51438 0.07
1 0 -3 2 o 132.637 138.011 0.00 1.51278 0.22
3 3 1 1 o 91.768 90.849 0.00 1.50347 0.90
0 3 2 1 o 397.788 386.934 0.00 1.50288 3.73
0 4 0 1 o 554.012 505.102 0.00 1.50048 2.22
3 3 1 2 o 101.479 90.849 0.00 1.50347 0.37
0 3 2 2 o 434.467 386.934 0.00 1.50288 1.53
0 4 0 2 o 564.835 505.102 0.00 1.50048 0.86
1 3 -2 1 o 50.606 53.487 180.00 1.49136 0.48
1 3 -2 2 o 74.476 53.487 180.00 1.49136 0.26
1 4 0 1 o 52.996 54.655 0.00 1.47621 0.43
4 0 2 1 o 5.118 5.536 180.00 1.47446 0.03
3 2 2 1 o 10.862 11.515 0.00 1.47431 0.09
1 0 3 1 o 13.603 14.908 180.00 1.47353 0.06
1 4 0 2 o 49.066 54.655 0.00 1.47621 0.15
0 1 3 1 o 130.506 144.747 0.00 1.47155 1.13
4 0 2 2 o 4.902 5.536 180.00 1.47446 0.01
3 2 2 2 o 10.625 11.515 0.00 1.47431 0.03
1 0 3 2 o 13.908 14.908 180.00 1.47353 0.02
5 1 1 1 o 72.764 72.293 0.00 1.46837 0.58
0 1 3 2 o 149.465 144.747 0.00 1.47155 0.48
1 1 -3 1 o 6.292 5.758 0.00 1.46690 0.05
1 3 2 1 o 73.611 63.531 0.00 1.46595 0.66
5 1 1 2 o 89.683 72.293 0.00 1.46837 0.27
1 1 -3 2 o 7.455 5.758 0.00 1.46690 0.02
1 3 2 2 o 86.940 63.531 0.00 1.46595 0.29
2 0 -3 1 o 70.870 50.784 0.00 1.45966 0.26
2 0 -3 2 o 101.543 50.784 0.00 1.45966 0.14
5 2 0 1 o 0.058 0.064 0.00 1.44458 0.00
4 3 0 1 o 48.419 55.439 0.00 1.43524 0.43
5 2 0 2 o 0.024 0.064 0.00 1.44458 0.00
2 3 -2 1 o 0.187 0.231 0.00 1.43455 0.00
4 1 2 1 o 96.649 111.424 0.00 1.43188 0.73
4 3 0 2 o 47.950 55.439 0.00 1.43524 0.16
1 1 3 1 o 119.202 137.280 0.00 1.43103 1.00
2 3 -2 2 o 0.187 0.231 0.00 1.43455 0.00
4 1 2 2 o 108.543 111.424 0.00 1.43188 0.31
1 1 3 2 o 144.652 137.280 0.00 1.43103 0.45
0 4 1 1 o 9.703 7.545 180.00 1.42511 0.09
0 4 1 2 o 8.562 7.545 180.00 1.42511 0.03
2 1 -3 1 o 169.263 168.353 0.00 1.41832 1.21
2 1 -3 2 o 162.881 168.353 0.00 1.41832 0.44
2 4 0 1 o 31.157 24.105 180.00 1.40990 0.23
1 4 -1 1 o 18.927 14.697 0.00 1.40974 0.14
2 4 0 2 o 26.869 24.105 180.00 1.40990 0.08
1 4 -1 2 o 16.058 14.697 0.00 1.40974 0.04
5 2 -1 1 o 139.708 142.011 0.00 1.40335 1.04
4 2 -2 1 o 71.009 70.974 180.00 1.40287 0.51
5 2 -1 2 o 158.245 142.011 0.00 1.40335 0.44
4 2 -2 2 o 81.100 70.974 180.00 1.40287 0.22
1 4 1 1 o 237.993 203.439 180.00 1.39885 1.76
1 4 1 2 o 225.028 203.439 180.00 1.39885 0.63
2 0 3 1 o 286.132 278.150 180.00 1.39140 1.06
2 3 2 1 o 13.004 12.820 180.00 1.39027 0.11
4 3 -1 1 o 79.698 79.849 180.00 1.38948 0.64
2 0 3 2 o 277.382 278.150 180.00 1.39140 0.39
2 3 2 2 o 12.808 12.820 180.00 1.39027 0.04
4 3 -1 2 o 80.079 79.849 180.00 1.38948 0.24
5 0 -2 1 o 66.536 63.195 0.00 1.38442 0.22
5 0 -2 2 o 48.036 63.195 0.00 1.38442 0.06
6 0 0 1 o 56.608 28.704 0.00 1.37341 0.18
3 0 -3 1 o 0.935 0.502 0.00 1.37207 0.00
6 0 0 2 o 65.640 28.704 0.00 1.37341 0.08
3 0 -3 2 o 0.891 0.502 0.00 1.37207 0.00
2 4 -1 1 o 113.875 98.526 0.00 1.35653 0.80
2 1 3 1 o 4.647 4.129 0.00 1.35546 0.03
0 2 3 1 o 10.247 9.919 180.00 1.35448 0.08
2 4 -1 2 o 96.644 98.526 0.00 1.35653 0.26
2 1 3 2 o 4.137 4.129 0.00 1.35546 0.01
5 2 1 1 o 32.171 32.022 180.00 1.35199 0.23
0 2 3 2 o 10.015 9.919 180.00 1.35448 0.03
1 2 -3 1 o 126.786 126.225 180.00 1.35085 0.91
4 3 1 1 o 11.031 11.452 180.00 1.34912 0.08
5 1 -2 1 o 4.779 4.964 180.00 1.34900 0.03
5 2 1 2 o 30.805 32.022 180.00 1.35199 0.08
1 2 -3 2 o 125.577 126.225 180.00 1.35085 0.34
3 3 -2 1 o 97.201 96.658 0.00 1.34633 0.70
4 3 1 2 o 11.386 11.452 180.00 1.34912 0.03
5 1 -2 2 o 4.918 4.964 180.00 1.34900 0.01
3 3 -2 2 o 90.854 96.658 0.00 1.34633 0.25
6 0 -1 1 o 289.986 303.637 180.00 1.34257 0.86
6 0 -1 2 o 278.542 303.637 180.00 1.34257 0.31
6 1 0 1 o -0.018 0.001 180.00 1.33881 0.00
3 1 -3 1 o 223.912 251.299 0.00 1.33756 1.34
2 4 1 1 o 28.878 32.504 180.00 1.33732 0.20
6 1 0 2 o -0.037 0.001 180.00 1.33881 0.00
3 1 -3 2 o 207.361 251.299 0.00 1.33756 0.47
2 4 1 2 o 27.423 32.504 180.00 1.33732 0.07
4 2 2 1 o 9.278 8.216 0.00 1.32335 0.07
1 2 3 1 o 16.369 14.878 0.00 1.32268 0.12
4 2 2 2 o 3.002 8.216 0.00 1.32335 0.01
1 2 3 2 o 7.288 14.878 0.00 1.32268 0.02
3 4 0 1 o 191.431 158.470 180.00 1.31682 1.28
3 4 0 2 o 201.198 158.470 180.00 1.31682 0.50
2 2 -3 1 o 41.043 31.922 180.00 1.31262 0.26
6 1 -1 1 o 1.135 0.971 180.00 1.31019 0.01
2 2 -3 2 o 36.164 31.922 180.00 1.31262 0.09
6 1 -1 2 o 3.143 0.971 180.00 1.31019 0.01
3 3 2 1 o 324.106 301.847 180.00 1.29221 2.16
5 0 2 1 o 112.993 105.243 180.00 1.29059 0.32
3 3 2 2 o 316.723 301.847 180.00 1.29221 0.80
3 0 3 1 o 49.513 47.076 180.00 1.28890 0.16
6 0 1 1 o 18.944 18.026 180.00 1.28889 0.05
5 0 2 2 o 114.637 105.243 180.00 1.29059 0.12
3 0 3 2 o 64.195 47.076 180.00 1.28890 0.07
6 0 1 2 o 24.497 18.026 180.00 1.28889 0.03
3 4 -1 1 o 159.438 152.604 0.00 1.27710 0.99
3 4 -1 2 o 150.419 152.604 0.00 1.27710 0.36
5 3 0 1 o 157.737 147.210 0.00 1.27206 1.01
5 3 0 2 o 153.357 147.210 0.00 1.27206 0.37
4 0 -3 1 o 30.540 29.020 180.00 1.26747 0.08
4 0 -3 2 o 26.689 29.020 180.00 1.26747 0.03
2 2 3 2 o 241.662 235.158 0.00 1.26232 0.57
5 1 2 2 o 19.006 19.161 180.00 1.26175 0.04
2 2 3 1 o 250.400 235.158 0.00 1.26232 1.57
5 1 2 1 o 20.560 19.161 180.00 1.26175 0.11
5 2 -2 1 o 49.692 57.703 180.00 1.25710 0.30
3 1 3 2 o 0.612 0.828 180.00 1.26017 0.00
6 1 1 2 o 187.228 216.418 0.00 1.26016 0.38
3 1 3 1 o 0.919 0.828 180.00 1.26017 0.01
6 1 1 1 o 228.671 216.418 0.00 1.26016 1.22
5 2 -2 2 o 55.694 57.703 180.00 1.25710 0.12
3 4 1 1 o 5.886 4.907 0.00 1.25322 0.04
0 4 2 1 o 8.926 7.457 0.00 1.25288 0.05
3 4 1 2 o 6.177 4.907 0.00 1.25322 0.02
0 4 2 2 o 9.313 7.457 0.00 1.25288 0.02
6 2 0 1 o 39.235 31.713 180.00 1.24884 0.24
3 2 -3 1 o 1.319 1.241 180.00 1.24783 0.01
1 4 -2 1 o 23.624 24.275 180.00 1.24618 0.15
6 2 0 2 o 30.451 31.713 180.00 1.24884 0.07
3 2 -3 2 o 1.169 1.241 180.00 1.24783 0.00
5 3 -1 1 o 32.420 35.125 180.00 1.24364 0.20
4 3 -2 1 o 206.673 221.830 0.00 1.24330 1.20
1 4 -2 2 o 22.545 24.275 180.00 1.24618 0.05
5 3 -1 2 o 33.516 35.125 180.00 1.24364 0.08
4 3 -2 2 o 220.526 221.830 0.00 1.24330 0.48
4 1 -3 1 o 2.338 2.315 180.00 1.24012 0.01
4 1 -3 2 o 2.983 2.315 180.00 1.24012 0.00
1 4 2 1 o 60.584 57.633 0.00 1.23124 0.37
1 4 2 2 o 49.874 57.633 0.00 1.23124 0.12
6 2 -1 1 o 205.866 220.128 0.00 1.22552 1.12
6 2 -1 2 o 249.195 220.128 0.00 1.22552 0.51
6 0 -2 1 o 13.410 16.737 0.00 1.21637 0.03
6 0 -2 2 o 18.928 16.737 0.00 1.21637 0.02
4 4 0 1 o 88.903 77.240 180.00 1.21287 0.52
2 4 -2 1 o 145.392 125.327 180.00 1.21246 0.82
4 4 0 2 o 84.689 77.240 180.00 1.21287 0.19
2 4 -2 2 o 139.006 125.327 180.00 1.21246 0.30
0 3 3 1 o 80.493 71.960 180.00 1.20924 0.48
5 3 1 1 o 58.044 50.484 180.00 1.20747 0.34
1 3 -3 1 o 2.330 2.099 180.00 1.20665 0.01
0 3 3 2 o 79.976 71.960 180.00 1.20924 0.18
5 3 1 2 o 66.282 50.484 180.00 1.20747 0.15
1 3 -3 2 o 3.500 2.099 180.00 1.20665 0.01
6 1 -2 1 o 69.193 52.297 0.00 1.19213 0.32
6 1 -2 2 o 69.102 52.297 0.00 1.19213 0.12
1 5 0 1 o 14.692 13.050 0.00 1.18785 0.08
4 3 2 1 o 70.093 67.481 180.00 1.18694 0.39
1 3 3 1 o 80.132 78.960 180.00 1.18645 0.47
5 2 2 1 o 89.590 92.292 0.00 1.18560 0.48
2 4 2 1 o 26.241 27.463 0.00 1.18537 0.16
1 5 0 2 o 12.077 13.050 0.00 1.18785 0.03
4 4 -1 1 o 0.035 0.037 180.00 1.18488 0.00
3 2 3 1 o 35.740 39.902 0.00 1.18429 0.20
6 2 1 1 o 14.630 16.303 0.00 1.18428 0.08
4 3 2 2 o 59.716 67.481 180.00 1.18694 0.13
1 3 3 2 o 68.142 78.960 180.00 1.18645 0.15
5 2 2 2 o 78.010 92.292 0.00 1.18560 0.16
2 4 2 2 o 22.916 27.463 0.00 1.18537 0.05
4 4 -1 2 o 0.032 0.037 180.00 1.18488 0.00
3 2 3 2 o 33.793 39.902 0.00 1.18429 0.07
6 2 1 2 o 13.861 16.303 0.00 1.18428 0.03
4 0 3 1 o 31.257 36.157 0.00 1.18111 0.08
2 3 -3 1 o 93.682 96.694 180.00 1.17917 0.50
4 0 3 2 o 35.399 36.157 0.00 1.18111 0.03
7 0 0 1 o 207.762 204.853 0.00 1.17721 0.48
2 3 -3 2 o 95.918 96.694 180.00 1.17917 0.19
7 0 0 2 o 178.888 204.853 0.00 1.17721 0.16
4 2 -3 1 o 19.471 22.471 0.00 1.16760 0.10
4 2 -3 2 o 25.748 22.471 0.00 1.16760 0.05
0 5 1 1 o 8.351 9.537 0.00 1.16073 0.05
7 0 -1 1 o 3.619 4.067 180.00 1.16068 0.01
5 0 -3 1 o 99.947 97.921 180.00 1.15995 0.21
4 4 1 1 o 130.076 121.711 0.00 1.15956 0.71
4 1 3 1 o 114.276 103.678 180.00 1.15889 0.57
0 5 1 2 o 10.055 9.537 0.00 1.16073 0.02
7 0 -1 2 o 4.264 4.067 180.00 1.16068 0.00
3 4 -2 1 o 1.444 1.397 0.00 1.15778 0.01
5 0 -3 2 o 97.214 97.921 180.00 1.15995 0.08
4 4 1 2 o 117.315 121.711 0.00 1.15956 0.24
4 1 3 2 o 94.529 103.678 180.00 1.15889 0.18
7 1 0 1 o 61.680 71.169 0.00 1.15520 0.28
3 4 -2 2 o 1.237 1.397 0.00 1.15778 0.00
2 5 0 1 o 94.963 72.333 0.00 1.15247 0.46
1 5 -1 1 o 222.994 169.104 180.00 1.15238 1.05
7 1 0 2 o 93.711 71.169 0.00 1.15520 0.16
2 5 0 2 o 109.496 72.333 0.00 1.15247 0.20
1 5 -1 2 o 256.838 169.104 180.00 1.15238 0.46
1 5 1 1 o 61.311 30.242 180.00 1.14642 0.28
1 5 1 2 o 29.052 30.242 180.00 1.14642 0.05
2 3 3 1 o 2.305 2.308 180.00 1.14230 0.01
5 1 -3 2 o 50.754 61.815 180.00 1.13888 0.08
7 1 -1 1 o 8.333 9.960 180.00 1.13956 0.05
2 3 3 2 o 1.959 2.308 180.00 1.14230 0.00
6 0 2 1 o 1.229 1.483 180.00 1.13944 0.00
5 3 -2 2 o 2.352 2.709 0.00 1.13843 0.00
0 0 4 2 o 86.873 100.621 180.00 1.13841 0.08
1 0 -4 1 o 97.704 118.171 180.00 1.13915 0.23
5 1 -3 1 o 49.742 61.815 180.00 1.13888 0.22
5 3 -2 1 o 2.119 2.709 0.00 1.13843 0.01
0 0 4 1 o 77.410 100.621 180.00 1.13841 0.20
7 1 -1 2 o 7.134 9.960 180.00 1.13956 0.02
6 0 2 2 o 1.093 1.483 180.00 1.13944 0.00
1 0 -4 2 o 94.211 118.171 180.00 1.13915 0.09
6 3 0 1 o 0.955 1.135 0.00 1.13229 0.01
3 3 -3 1 o 142.695 162.895 180.00 1.13153 0.70
6 3 0 2 o 0.941 1.135 0.00 1.13229 0.00
3 3 -3 2 o 157.974 162.895 180.00 1.13153 0.29
6 2 -2 1 o 8.720 10.195 180.00 1.12729 0.04
6 2 -2 2 o 12.728 10.195 180.00 1.12729 0.02
3 4 2 1 o 9.337 4.076 180.00 1.12283 0.05
2 5 -1 1 o 30.499 12.348 180.00 1.12277 0.14
3 4 2 2 o 5.004 4.076 180.00 1.12283 0.01
2 5 -1 2 o 15.488 12.348 180.00 1.12277 0.03
7 0 1 1 o 24.550 19.452 180.00 1.11990 0.06
6 1 2 1 o 78.618 64.131 180.00 1.11944 0.35
1 1 -4 1 o 23.916 19.417 180.00 1.11917 0.11
2 0 -4 1 o 0.013 0.011 180.00 1.11868 0.00
0 1 4 1 o 1.188 0.970 0.00 1.11847 0.00
7 0 1 2 o 26.941 19.452 180.00 1.11990 0.02
6 1 2 2 o 81.828 64.131 180.00 1.11944 0.14
1 0 4 1 o 1.101 0.852 180.00 1.11659 0.00
1 1 -4 2 o 23.097 19.417 180.00 1.11917 0.04
2 0 -4 2 o 0.010 0.011 180.00 1.11868 0.00
0 1 4 2 o 0.875 0.970 0.00 1.11847 0.00
6 3 -1 1 o 0.521 0.775 0.00 1.11482 0.00
1 0 4 2 o 0.770 0.852 180.00 1.11659 0.00
6 3 -1 2 o 0.924 0.775 0.00 1.11482 0.00
2 5 1 1 o 117.007 99.108 180.00 1.11180 0.56
5 4 0 1 o 0.015 0.019 0.00 1.10953 0.00
2 5 1 2 o 98.203 99.108 180.00 1.11180 0.18
5 4 0 2 o 0.004 0.019 0.00 1.10953 0.00
7 1 1 1 o 4.691 3.663 0.00 1.10090 0.02
3 5 0 1 o 0.400 0.354 0.00 1.09994 0.00
2 1 -4 1 o 51.377 47.166 180.00 1.09974 0.23
4 2 3 1 o 33.906 32.926 180.00 1.09905 0.16
7 1 1 2 o 3.500 3.663 0.00 1.10090 0.01
1 1 4 1 o 73.541 78.167 180.00 1.09776 0.36
3 5 0 2 o 0.333 0.354 0.00 1.09994 0.00
2 1 -4 2 o 45.479 47.166 180.00 1.09974 0.08
4 2 3 2 o 33.581 32.926 180.00 1.09905 0.06
7 2 0 1 o 153.849 145.491 180.00 1.09591 0.69
1 1 4 2 o 87.197 78.167 180.00 1.09776 0.16
7 2 0 2 o 177.839 145.491 180.00 1.09591 0.30
5 4 -1 1 o 56.448 61.435 180.00 1.09051 0.28
4 4 -2 1 o 28.431 30.012 0.00 1.09029 0.14
