#------------------------------------------------------------------------------
#$Date: 2016-02-18 17:37:37 +0200 (Thu, 18 Feb 2016) $
#$Revision: 176729 $
#$URL: svn://www.crystallography.net/cod/cif/1/50/16/1501690.cif $
#------------------------------------------------------------------------------
#
# This file is available in the Crystallography Open Database (COD),
# http://www.crystallography.net/
#
# All data on this site have been placed in the public domain by the
# contributors.
#
data_1501690
loop_
_publ_author_name
'Migliorati, Valentina'
'Ballirano, Paolo'
'Gontrani, Lorenzo'
'Triolo, Alessandro'
'Caminiti, Ruggero'
_publ_section_title
;
 Thermal and structural properties of ethylammonium chloride and its
 mixture with water.
;
_journal_issue                   17
_journal_name_full               'The journal of physical chemistry. B'
_journal_page_first              4887
_journal_page_last               4899
_journal_paper_doi               10.1021/jp2010138
_journal_volume                  115
_journal_year                    2011
_chemical_formula_sum            'C2 H8 Cl N'
_chemical_formula_weight         81.55
_chemical_name_systematic        ' ?'
_space_group_IT_number           11
_symmetry_cell_setting           monoclinic
_symmetry_space_group_name_Hall  '-P 2yb'
_symmetry_space_group_name_H-M   'P 1 21/m 1'
_audit_creation_date             2010-08-27T16:13
_audit_creation_method           'from EXP file using GSAS2CIF'
_audit_update_record
' 2010-08-27T16:13  Initial CIF as created by GSAS2CIF'
_cell_angle_alpha                90.0
_cell_angle_beta                 94.0251(13)
_cell_angle_gamma                90.0
_cell_formula_units_Z            2
_cell_length_a                   8.23546(14)
_cell_length_b                   5.99997(8)
_cell_length_c                   4.55596(7)
_cell_volume                     224.566(6)
_computing_structure_refinement  GSAS
_diffrn_radiation_probe          x-ray
_exptl_absorpt_correction_T_max  0.77480
_exptl_absorpt_correction_T_min  0.76997
_exptl_absorpt_process_details
;   GSAS Absorption/surface roughness correction: function number 0
 Debye-Scherrer absorption correction
Term (= MU.r/wave) =     0.10041    
Correction is not refined.
;
_pd_block_id
2010-08-27T16:13|55_OPT|paolo|Bruker_AXS_D8_Advance
_pd_calc_method                  'Rietveld Refinement'
_pd_instr_location               ' ?'
_pd_meas_2theta_range_inc        0.022
_pd_meas_2theta_range_max        89.994
_pd_meas_2theta_range_min        8.0
_pd_meas_number_of_points        3728
_pd_phase_name                   ethyl
_pd_proc_2theta_range_inc        0.022
_pd_proc_2theta_range_max        89.994
_pd_proc_2theta_range_min        8.0
_pd_proc_info_datetime           2010-08-27T16:13:30
_pd_proc_info_excluded_regions   ' ?'
_pd_proc_ls_background_function
;   GSAS Background function number 1 with 30 terms.
 Shifted Chebyshev function of 1st kind
      1:    485.063     2:   -430.431     3:    230.426     4:   -104.219    
      5:    70.4957     6:   -70.4380     7:    87.2826     8:   -62.9344    
      9:    21.7477    10:    9.23601    11:   -9.50965    12:   -2.01776    
     13:    17.3228    14:   -22.5303    15:    17.8667    16:   -7.88821    
     17:    5.18247    18:   -7.60568    19:    10.0011    20:   -10.5161    
     21:    9.85231    22:   -5.81427    23:    5.23003    24:   -1.65648    
     25:  -0.584785    26:    2.23297    27:   0.644367    28:  -0.953273    
     29:   -2.02163    30:    2.80819    
;
_pd_proc_ls_peak_cutoff          0.00100
_pd_proc_ls_profile_function
;
 CW Profile function number 3 with  19 terms
 Pseudovoigt profile coefficients as parameterized in
 P. Thompson, D.E. Cox & J.B. Hastings (1987). J. Appl. Cryst.,20,79-83.
 Asymmetry correction of L.W. Finger, D.E. Cox & A. P. Jephcoat (1994).
 J. Appl. Cryst.,27,892-900.
 Peak tails are ignored  where the intensity is below 0.0010 times the peak
   Aniso. broadening axis   0.0   1.0   0.0
;
_pd_proc_ls_prof_R_factor        0.0456
_pd_proc_ls_prof_wR_expected     0.0426
_pd_proc_ls_prof_wR_factor       0.0598
_pd_proc_number_of_points        3728
_pd_spec_mounting                ' ?'
_refine_ls_goodness_of_fit_all   1.41
_refine_ls_matrix_type           full
_refine_ls_number_parameters     63
_refine_ls_number_restraints     27
_refine_ls_R_Fsqd_factor         0.07022
_refine_ls_shift/su_max          0.07
_refine_ls_shift/su_mean         0.00
_reflns_d_resolution_high        1.093
_reflns_d_resolution_low         8.215
_reflns_limit_h_max              7
_reflns_limit_h_min              0
_reflns_limit_k_max              5
_reflns_limit_k_min              0
_reflns_limit_l_max              4
_reflns_limit_l_min              -4
_reflns_number_total             408
_cod_data_source_file            jp2010138_si_006.cif
_cod_data_source_block           55_OPT_publ
_cod_depositor_comments
;
The following automatic conversions were performed:

'_geom_bond_publ_flag' value 'N' changed to 'n' according to
/home/saulius/struct/CIF-dictionaries/cif_core.dic dictionary named
'cif_core.dic' version 2.4.1 from 2010-06-29 (47
times).

'_geom_angle_publ_flag' value 'N' changed to 'n' according
to /home/saulius/struct/CIF-dictionaries/cif_core.dic dictionary
named 'cif_core.dic' version 2.4.1 from 2010-06-29 (23 times).

Automatic conversion script
Id: cif_fix_values 1715 2011-07-08 13:25:40Z adriana 
;
_cod_original_sg_symbol_H-M      'p 21/m'
_cod_database_code               1501690
#BEGIN Tags that were not found in dictionaries:
_gsas_exptl_extinct_corr_t_min   1.00000
_gsas_exptl_extinct_corr_t_max   1.00000
#END Tags that were not found in dictionaries
loop_
_symmetry_equiv_pos_site_id
_symmetry_equiv_pos_as_xyz
1 +x,+y,+z
2 -x,+y+1/2,-z
-1 -x,-y,-z
-2 +x,-y+1/2,+z
loop_
_atom_site_type_symbol
_atom_site_label
_atom_site_fract_x
_atom_site_fract_y
_atom_site_fract_z
_atom_site_occupancy
_atom_site_thermal_displace_type
_atom_site_U_iso_or_equiv
_atom_site_symmetry_multiplicity
Cl Cl 0.15464(20) 0.75 0.3853(4) 1.0 Uiso 0.0320(4) 2
N N 0.12483(32) 0.25 0.1416(6) 1.0 Uiso 0.0351(11) 2
C C1 0.26691(31) 0.25 -0.0352(6) 1.0 Uiso 0.0351(11) 2
C C2 0.4228(4) 0.25 0.1696(7) 1.0 Uiso 0.0351(11) 2
H H1 0.0245(5) 0.25 0.0127(13) 1.0 Uiso 0.0527(17) 2
H H2 0.5174(5) 0.25 0.0508(12) 1.0 Uiso 0.0527(17) 2
H H3 0.1274(9) 0.1167(5) 0.2665(9) 1.0 Uiso 0.0527(17) 4
H H4 0.2654(8) 0.1161(5) -0.1584(9) 1.0 Uiso 0.0527(17) 4
H H5 0.4243(9) 0.1161(5) 0.2932(9) 1.0 Uiso 0.0527(17) 4
loop_
_atom_type_symbol
_atom_type_number_in_cell
_atom_type_scat_dispersion_real
_atom_type_scat_dispersion_imag
_atom_type_scat_Cromer_Mann_a1
_atom_type_scat_Cromer_Mann_a2
_atom_type_scat_Cromer_Mann_a3
_atom_type_scat_Cromer_Mann_a4
_atom_type_scat_Cromer_Mann_b1
_atom_type_scat_Cromer_Mann_b2
_atom_type_scat_Cromer_Mann_b3
_atom_type_scat_Cromer_Mann_b4
_atom_type_scat_Cromer_Mann_c
_atom_type_scat_source
Cl 2.0 0.000 0.000 11.4604 0.01040 7.19640 1.16620 6.25560 18.5194 1.64550
47.7784 -9.5574 International_Tables_Vol_C
N 2.0 0.000 0.000 12.2126 0.00570 3.13220 9.89330 2.01250 28.9975 1.16630
0.58260 -11.529 International_Tables_Vol_C
C 4.0 0.000 0.000 2.31000 20.8439 1.02000 10.2075 1.58860 0.56870 0.86500
51.6512 0.21560 International_Tables_Vol_C
H 16.0 0.000 0.000 0.49300 10.5109 0.32291 26.1257 0.14019 3.14236 0.04081
57.7997 0.00304 International_Tables_Vol_C
loop_
_diffrn_radiation_wavelength
_diffrn_radiation_wavelength_wt
_diffrn_radiation_type
_diffrn_radiation_wavelength_id
1.540598 1.000 K\a~1~ 1
1.544390 0.380 K\a~2~ 2
loop_
_geom_angle_atom_site_label_1
_geom_angle_atom_site_label_2
_geom_angle_atom_site_label_3
_geom_angle
_geom_angle_site_symmetry_1
_geom_angle_site_symmetry_3
_geom_angle_publ_flag
H1 Cl H3 76.14(14) 2_555 1_565 n
H1 Cl H3 76.14(14) 2_555 -2_565 n
H3 Cl H3 150.88(24) 1_565 -2_565 n
C1 N H1 110.0(4) 1_555 1_555 n
C1 N H3 109.5(4) 1_555 1_555 n
C1 N H3 109.5(4) 1_555 -2_565 n
H1 N H3 109.3(5) 1_555 1_555 n
H1 N H3 109.3(5) 1_555 -2_565 n
H3 N H3 109.3(5) 1_555 -2_565 n
N C1 C2 109.37(23) 1_555 1_555 n
N C1 H4 109.7(4) 1_555 1_555 n
N C1 H4 109.7(4) 1_555 -2_565 n
C2 C1 H4 109.0(4) 1_555 1_555 n
C2 C1 H4 109.0(4) 1_555 -2_565 n
H4 C1 H4 110.2(5) 1_555 -2_565 n
C1 C2 H2 109.2(4) 1_555 1_555 n
C1 C2 H5 109.0(4) 1_555 1_555 n
C1 C2 H5 109.0(4) 1_555 -2_565 n
H2 C2 H5 109.8(5) 1_555 1_555 n
H2 C2 H5 109.8(5) 1_555 -2_565 n
H5 C2 H5 110.0(5) 1_555 -2_565 n
Cl H1 N 163.4(5) 2_545 1_555 n
Cl H3 N 157.7(4) 1_545 1_555 n
loop_
_geom_bond_atom_site_label_1
_geom_bond_atom_site_label_2
_geom_bond_distance
_geom_bond_site_symmetry_2
_geom_bond_publ_flag
Cl H1 2.256(6) 2_555 n
Cl H3 2.2732(30) 1_565 n
Cl H3 2.2732(30) -2_555 n
N C1 1.466(4) 1_555 n
N H1 0.979(5) 1_555 n
N H3 0.981(4) 1_555 n
N H3 0.981(4) -2_555 n
N H4 2.019(6) 1_555 n
N H4 2.019(6) -2_555 n
C1 N 1.466(4) 1_555 n
C1 C2 1.533(4) 1_555 n
C1 H1 2.023(5) 1_555 n
C1 H2 2.073(5) 1_555 n
C1 H3 2.018(6) 1_555 n
C1 H3 2.018(6) -2_555 n
C1 H4 0.980(4) 1_555 n
C1 H4 0.980(4) -2_555 n
C1 H5 2.072(6) 1_555 n
C1 H5 2.072(6) -2_555 n
C2 C1 1.533(4) 1_555 n
C2 H2 0.980(6) 1_555 n
C2 H4 2.070(6) 1_555 n
C2 H4 2.070(6) -2_555 n
C2 H5 0.981(4) 1_555 n
C2 H5 0.981(4) -2_555 n
H1 Cl 2.256(6) 2_545 n
H1 N 0.979(5) 1_555 n
H1 C1 2.023(5) 1_555 n
H1 H3 1.599(7) 1_555 n
H1 H3 1.599(7) -2_555 n
H2 C1 2.073(5) 1_555 n
H2 C2 0.980(6) 1_555 n
H2 H5 1.604(7) 1_555 n
H2 H5 1.604(7) -2_555 n
H3 Cl 2.2732(30) 1_545 n
H3 N 0.981(4) 1_555 n
H3 C1 2.018(6) 1_555 n
H3 H1 1.599(7) 1_555 n
H3 H3 1.600(6) -2_555 n
H4 N 2.019(6) 1_555 n
H4 C1 0.980(4) 1_555 n
H4 C2 2.070(6) 1_555 n
H4 H4 1.607(6) -2_555 n
H5 C1 2.072(6) 1_555 n
H5 C2 0.981(4) 1_555 n
H5 H2 1.604(7) 1_555 n
H5 H5 1.607(6) -2_555 n
loop_
_pd_meas_counts_total
_pd_proc_ls_weight
_pd_proc_intensity_bkg_calc
_pd_calc_intensity_total
1678.0 0.000596 1661.72595 1661.72900
1627.0 0.000615 1641.19312 1641.19543
1603.0 0.000624 1621.28955 1621.29199
1640.0 0.000610 1602.01074 1602.01257
1541.0 0.000649 1583.34509 1583.34717
1554.0 0.000644 1565.28442 1565.28589
1480.0 0.000676 1547.81824 1547.81946
1493.0 0.000670 1530.93713 1530.93811
1488.0 0.000672 1514.63098 1514.63184
1487.0 0.000672 1498.88879 1498.88953
1414.0 0.000707 1483.69763 1483.69800
1454.0 0.000688 1469.04834 1469.04895
1485.0 0.000673 1454.92749 1454.92810
1490.0 0.000671 1441.32520 1441.32544
1458.0 0.000686 1428.22668 1428.22668
1490.0 0.000671 1415.62146 1415.62195
1466.0 0.000682 1403.49780 1403.49817
1426.0 0.000701 1391.84167 1391.84131
1378.0 0.000726 1380.64172 1380.64124
1402.0 0.000713 1369.88586 1369.88525
1394.0 0.000717 1359.55945 1359.55896
1363.0 0.000734 1349.65198 1349.65125
1414.0 0.000707 1340.15015 1340.14954
1312.0 0.000762 1331.04199 1331.04138
1386.0 0.000722 1322.31458 1322.31409
1279.0 0.000782 1313.95581 1313.95520
1326.0 0.000754 1305.95361 1305.95300
1296.0 0.000772 1298.29529 1298.29492
1324.0 0.000755 1290.96960 1290.96899
1259.0 0.000794 1283.96460 1283.96411
1250.0 0.000800 1277.26843 1277.26758
1310.0 0.000763 1270.86865 1270.86792
1255.0 0.000797 1264.75500 1264.75415
1267.0 0.000789 1258.91638 1258.91541
1203.0 0.000831 1253.34058 1253.33972
1212.0 0.000825 1248.01721 1248.01611
1219.0 0.000820 1242.93628 1242.93542
1184.0 0.000845 1238.08630 1238.08545
1233.0 0.000811 1233.45764 1233.45667
1266.0 0.000790 1229.03967 1229.03894
1224.0 0.000817 1224.82300 1224.82214
1247.0 0.000802 1220.79736 1220.79688
1190.0 0.000840 1216.95447 1216.95398
1270.0 0.000787 1213.28479 1213.28357
1258.0 0.000795 1209.77832 1209.77795
1219.0 0.000820 1206.42725 1206.42627
1228.0 0.000814 1203.22278 1203.22168
1134.0 0.000882 1200.15637 1200.15552
1130.0 0.000885 1197.22070 1197.21985
1094.0 0.000914 1194.40686 1194.40637
1153.0 0.000867 1191.70825 1191.70740
1288.0 0.000776 1189.11670 1189.11584
1206.0 0.000829 1186.62512 1186.62439
1256.0 0.000796 1184.22717 1184.22644
1242.0 0.000805 1181.91565 1181.91504
1175.0 0.000851 1179.68433 1179.68372
1180.0 0.000847 1177.52673 1177.52576
1156.0 0.000865 1175.43713 1175.43628
1157.0 0.000864 1173.40869 1173.40857
1124.0 0.000890 1171.43689 1171.43616
1168.0 0.000856 1169.51575 1169.51550
1193.0 0.000838 1167.64075 1167.63989
1127.0 0.000887 1165.80627 1165.80542
1113.0 0.000898 1164.00745 1164.00684
1133.0 0.000883 1162.24011 1162.23938
1134.0 0.000882 1160.49963 1160.49866
1105.0 0.000905 1158.78137 1158.78088
1201.0 0.000833 1157.08179 1157.08179
1079.0 0.000927 1155.39746 1155.39709
1103.0 0.000907 1153.72424 1153.72400
1254.0 0.000797 1152.05884 1152.05847
1135.0 0.000881 1150.39771 1150.39746
1127.0 0.000887 1148.73779 1148.73718
1111.0 0.000900 1147.07654 1147.07581
1109.0 0.000902 1145.41016 1145.40991
1141.0 0.000876 1143.73730 1143.73669
1164.0 0.000859 1142.05469 1142.05383
1119.0 0.000894 1140.36011 1140.35962
1183.0 0.000845 1138.65149 1138.65100
1132.0 0.000883 1136.92688 1136.92651
1040.0 0.000962 1135.18408 1135.18372
1120.0 0.000893 1133.42200 1133.42114
1163.0 0.000860 1131.63831 1131.63757
1116.0 0.000896 1129.83179 1129.83093
1138.0 0.000879 1128.00085 1128.00037
1086.0 0.000921 1126.14453 1126.14441
1141.0 0.000876 1124.26172 1124.26135
1195.0 0.000837 1122.35095 1122.35071
1176.0 0.000850 1120.41187 1120.41162
1077.0 0.000929 1118.44360 1118.44348
1070.0 0.000935 1116.44543 1116.44495
1105.0 0.000905 1114.41614 1114.41565
1081.0 0.000925 1112.35583 1112.35522
1160.0 0.000862 1110.26367 1110.26367
1146.0 0.000873 1108.14038 1110.65674
1040.0 0.000962 1105.98376 1109.61292
1067.0 0.000937 1103.79565 1107.67798
1132.0 0.000883 1101.57495 1105.73865
1120.0 0.000893 1099.32141 1103.79883
1067.0 0.000937 1097.03577 1101.86292
1047.0 0.000955 1094.71814 1099.93811
1061.0 0.000943 1092.36780 1098.03210
1100.0 0.000909 1089.98621 1096.15417
1143.0 0.000875 1087.57227 1094.31555
1185.0 0.000844 1085.12756 1092.53223
1059.0 0.000944 1082.65186 1090.82141
1148.0 0.000871 1080.14575 1089.20837
1107.0 0.000903 1077.60999 1087.72351
1168.0 0.000856 1075.04468 1086.40906
1116.0 0.000896 1072.45105 1085.32336
1170.0 0.000855 1069.82861 1084.56323
1134.0 0.000882 1067.17932 1084.34338
1221.0 0.000819 1064.50305 1085.30811
1205.0 0.000830 1061.80090 1089.38318
1200.0 0.000833 1059.07397 1101.35095
1264.0 0.000791 1056.32153 1130.40649
1281.0 0.000781 1053.54602 1189.79480
1361.0 0.000735 1050.74780 1293.34692
1460.0 0.000685 1047.92725 1451.36646
1686.0 0.000593 1045.08594 1671.10291
1945.0 0.000514 1042.22388 1963.82153
2274.0 0.000440 1039.34314 2356.71289
2947.0 0.0003393 1036.44336 2905.61572
3739.0 0.0002675 1033.52612 3688.78711
4519.0 0.0002213 1030.59302 4734.81055
5399.0 0.0001852 1027.64368 5870.72705
6100.0 0.0001639 1024.67993 6637.16260
6671.0 0.0001499 1021.70221 6512.74902
6375.0 0.0001569 1018.71210 5412.76221
4606.0 0.0002171 1015.70990 3860.31616
2768.0 0.000361 1012.69690 2507.96216
1632.0 0.000613 1009.67432 1663.41724
1293.0 0.000773 1006.64240 1262.70496
1115.0 0.000897 1003.60254 1110.59961
1023.0 0.000978 1000.55566 1058.87341
979.0 0.001021 997.50293 1038.54688
1044.0 0.000958 994.44519 1026.91541
987.0 0.001013 991.38281 1018.15045
991.0 0.001009 988.31726 1010.82391
979.0 0.001021 985.24939 1004.44403
1004.0 0.000996 982.17993 998.74493
967.0 0.001034 979.11011 993.55255
943.0 0.001060 976.04004 988.74341
963.0 0.001038 972.97144 984.23285
932.0 0.001073 969.90472 979.95715
932.0 0.001073 966.84131 975.86975
999.0 0.001001 963.78113 971.93469
880.0 0.001136 960.72559 968.12598
970.0 0.001031 957.67529 964.42230
941.0 0.001063 954.63074 960.80762
913.0 0.001095 951.59344 957.26947
952.0 0.001050 948.56323 950.10498
900.0 0.001111 945.54163 945.54114
934.0 0.001071 942.52863 942.52820
921.0 0.001086 939.52557 939.52539
917.0 0.001091 936.53326 936.53271
949.0 0.001054 933.55164 933.55121
894.0 0.001119 930.58148 930.58124
923.0 0.001083 927.62396 927.62341
902.0 0.001109 924.67914 924.67859
916.0 0.001092 921.74774 921.74725
954.0 0.001048 918.83020 918.82996
893.0 0.001120 915.92749 915.92700
856.0 0.001168 913.03986 913.03937
888.0 0.001126 910.16779 910.16736
902.0 0.001109 907.31201 907.31152
920.0 0.001087 904.47296 904.47241
900.0 0.001111 901.65039 901.65009
902.0 0.001109 898.84521 898.84491
861.0 0.001161 896.05829 896.05780
848.0 0.001179 893.28973 893.28943
823.0 0.001215 890.53943 890.53912
861.0 0.001161 887.80853 887.80829
860.0 0.001163 885.09662 885.09607
850.0 0.001176 882.40448 882.40411
866.0 0.001155 879.73218 879.73187
886.0 0.001129 877.08026 877.07977
858.0 0.001166 874.44879 874.44836
866.0 0.001155 871.83801 871.83752
842.0 0.001188 869.24811 869.24774
850.0 0.001176 866.67975 866.67932
836.0 0.001196 864.13251 864.13202
860.0 0.001163 861.60681 861.60638
870.0 0.001149 859.10284 859.10229
835.0 0.001198 856.62097 856.62067
897.0 0.001115 854.16101 854.16071
846.0 0.001182 851.72321 851.72284
840.0 0.001190 849.30731 849.30719
817.0 0.001224 846.91412 846.91351
875.0 0.001143 844.54297 844.54254
810.0 0.001235 842.19446 842.19421
838.0 0.001193 839.86871 839.86829
844.0 0.001185 837.56525 837.56482
865.0 0.001156 835.28424 835.28369
808.0 0.001238 833.02551 833.02521
841.0 0.001189 830.78973 830.78943
817.0 0.001224 828.57635 828.57593
844.0 0.001185 826.38525 826.38495
811.0 0.001233 824.21667 824.21649
805.0 0.001242 822.07086 822.07019
827.0 0.001209 819.94684 819.94666
836.0 0.001196 817.84509 817.84479
807.0 0.001239 815.76569 815.76514
789.0 0.001267 813.70813 813.70770
846.0 0.001182 811.67273 811.67236
807.0 0.001239 809.65906 809.65857
861.0 0.001161 807.66693 807.66656
822.0 0.001217 805.69635 805.69611
822.0 0.001217 803.74719 803.74664
774.0 0.001292 801.81927 801.81885
840.0 0.001190 799.91254 799.91217
797.0 0.001255 798.02667 798.02643
779.0 0.001284 796.16162 796.16119
794.0 0.001259 794.31683 794.31641
788.0 0.001269 792.49286 792.49225
819.0 0.001221 790.68890 790.68848
814.0 0.001229 788.90472 788.90424
805.0 0.001242 787.14032 787.14008
774.0 0.001292 785.39569 785.39520
806.0 0.001241 783.67041 783.67017
812.0 0.001232 781.96411 781.96368
811.0 0.001233 780.27686 780.27667
779.0 0.001284 778.60834 778.60785
797.0 0.001255 776.95789 776.95758
790.0 0.001266 775.32599 775.32550
770.0 0.001299 773.71204 773.71179
805.0 0.001242 772.11591 772.11548
826.0 0.001211 770.53680 770.53656
772.0 0.001295 768.97534 768.97491
798.0 0.001253 767.43085 767.43048
783.0 0.001277 765.90308 765.90265
797.0 0.001255 764.39172 764.39154
743.0 0.001346 762.89673 762.89648
725.0 0.001379 761.41766 761.41724
804.0 0.001244 759.95441 759.95380
739.0 0.001353 758.50647 758.50610
782.0 0.001279 757.07379 757.07349
742.0 0.001348 755.65607 755.65576
765.0 0.001307 754.25330 754.25287
783.0 0.001277 752.86456 752.86414
726.0 0.001377 751.49036 751.49011
808.0 0.001238 750.13007 750.12976
776.0 0.001289 748.78320 748.78308
726.0 0.001377 747.45013 747.44971
751.0 0.001332 746.13000 746.12952
753.0 0.001328 744.82294 744.82251
751.0 0.001332 743.52838 743.52795
754.0 0.001326 742.24615 742.24585
725.0 0.001379 740.97656 740.97607
755.0 0.001325 739.71838 739.71814
775.0 0.001290 738.47241 738.47192
801.0 0.001248 737.23743 737.23737
729.0 0.001372 736.01398 736.01361
716.0 0.001397 734.80139 734.80109
705.0 0.001418 733.59961 733.59924
768.0 0.001302 732.40845 732.40814
719.0 0.001391 731.22748 731.22711
729.0 0.001372 730.05627 730.05609
702.0 0.001425 728.89526 728.89502
709.0 0.001410 727.74371 727.74335
735.0 0.001361 726.60181 726.60150
701.0 0.001427 725.46899 725.46857
778.0 0.001285 724.34491 724.34479
725.0 0.001379 723.22992 723.22949
707.0 0.001414 722.12347 722.12292
725.0 0.001379 721.02539 721.02496
770.0 0.001299 719.93536 719.93506
708.0 0.001412 718.85321 718.85284
716.0 0.001397 717.77930 717.77887
731.0 0.001368 716.71277 716.71240
710.0 0.001408 715.65356 715.65320
718.0 0.001393 714.60175 714.60132
684.0 0.001462 713.55701 713.55652
690.0 0.001449 712.51904 712.51874
716.0 0.001397 711.48804 711.48773
708.0 0.001412 710.46350 710.46332
696.0 0.001437 709.44550 709.44501
707.0 0.001414 708.43378 708.43341
708.0 0.001412 707.42816 707.42767
675.0 0.001481 706.42853 706.42822
736.0 0.001359 705.43463 705.43420
698.0 0.001433 704.44666 704.44635
703.0 0.001422 703.46411 703.46393
718.0 0.001393 702.48706 702.48676
729.0 0.001372 701.51550 701.51489
706.0 0.001416 700.54877 700.54828
656.0 0.001524 699.58734 699.58691
711.0 0.001406 698.63098 698.63049
691.0 0.001447 697.67932 697.67889
658.0 0.001520 696.73242 696.73199
679.0 0.001473 695.79028 695.78973
696.0 0.001437 694.85278 694.85242
656.0 0.001524 693.91949 693.91919
686.0 0.001458 692.99066 692.99036
766.0 0.001305 692.06635 692.06592
679.0 0.001473 691.14600 691.14563
688.0 0.001453 690.23004 690.22968
729.0 0.001372 689.31799 689.31763
709.0 0.001410 688.40979 688.40930
694.0 0.001441 687.50555 687.50549
653.0 0.001531 686.60547 686.60492
719.0 0.001391 685.70898 685.70862
685.0 0.001460 684.81628 684.81580
675.0 0.001481 683.92706 683.92664
650.0 0.001538 683.04150 683.04120
730.0 0.001370 682.15979 682.15936
669.0 0.001495 681.28180 681.28125
709.0 0.001410 680.40686 680.40631
653.0 0.001531 679.53558 679.53503
696.0 0.001437 678.66766 678.66730
665.0 0.001504 677.80341 677.80316
670.0 0.001493 676.94244 676.94202
649.0 0.001541 676.08472 676.08423
670.0 0.001493 675.23041 675.22992
669.0 0.001495 674.37939 674.37909
698.0 0.001433 673.53162 673.53143
654.0 0.001529 672.68744 672.68701
643.0 0.001555 671.84631 671.84583
677.0 0.001477 671.00842 671.00824
667.0 0.001499 670.17395 670.17346
650.0 0.001538 669.34277 669.34241
659.0 0.001517 668.51477 668.51434
661.0 0.001513 667.69000 667.68964
674.0 0.001484 666.86841 666.86816
681.0 0.001468 666.05048 666.04999
690.0 0.001449 665.23578 665.23535
680.0 0.001471 664.42407 664.42377
643.0 0.001555 663.61591 663.61560
667.0 0.001499 662.81128 662.81049
606.0 0.001650 662.00958 662.00940
671.0 0.001490 661.21167 661.21130
652.0 0.001534 660.41681 660.41650
649.0 0.001541 659.62567 659.62512
654.0 0.001529 658.83777 658.83728
637.0 0.001570 658.05347 658.05304
653.0 0.001531 657.27258 657.27216
655.0 0.001527 656.49536 656.49500
623.0 0.001605 655.72162 655.72107
638.0 0.001567 654.95129 654.95111
651.0 0.001536 654.18481 654.18433
619.0 0.001616 653.42224 653.42163
653.0 0.001531 652.66278 652.66235
672.0 0.001488 651.90759 651.90704
690.0 0.001449 651.15576 651.15540
656.0 0.001524 650.40820 650.40759
627.0 0.001595 649.66400 649.66388
581.0 0.001721 648.92413 648.92395
596.0 0.001678 648.18793 648.18787
648.0 0.001543 647.45587 647.45557
685.0 0.001460 646.72772 646.72742
671.0 0.001490 646.00372 646.00336
620.0 0.001613 645.28406 645.28357
652.0 0.001534 644.56818 644.56775
672.0 0.001488 643.85651 643.85645
677.0 0.001477 643.14954 643.14899
607.0 0.001647 642.44647 642.44617
634.0 0.001577 641.74805 641.74768
618.0 0.001618 641.05383 641.05341
633.0 0.001580 640.36401 640.36371
668.0 0.001497 639.67896 639.67841
620.0 0.001613 638.99811 638.99774
655.0 0.001527 638.32220 638.32190
606.0 0.001650 637.65082 637.65033
624.0 0.001603 636.98395 636.98364
631.0 0.001585 636.32196 636.32166
634.0 0.001577 635.66504 635.66467
671.0 0.001490 635.01263 635.01239
645.0 0.001550 634.36523 634.36499
612.0 0.001634 633.72278 633.72241
660.0 0.001515 633.08539 633.08514
636.0 0.001572 632.45294 632.45264
639.0 0.001565 631.82562 631.82532
653.0 0.001531 631.20349 631.20300
621.0 0.001610 630.58649 630.58618
643.0 0.001555 629.97473 629.97424
664.0 0.001506 629.36829 629.36792
634.0 0.001577 628.76703 628.76660
608.0 0.001645 628.17126 628.17108
630.0 0.001587 627.58112 627.58081
640.0 0.001563 626.99609 626.99591
592.0 0.001689 626.41705 626.41650
630.0 0.001587 625.84344 625.84296
618.0 0.001618 625.27515 625.27472
632.0 0.001582 624.71265 624.71222
609.0 0.001642 624.15588 624.15540
657.0 0.001522 623.60474 623.60449
567.0 0.001764 623.05957 623.05933
634.0 0.001577 622.52014 622.51984
602.0 0.001661 621.98645 621.98608
613.0 0.001631 621.45874 621.45850
672.0 0.001488 620.93707 620.93683
617.0 0.001621 620.42145 620.42102
644.0 0.001553 619.91168 619.91138
626.0 0.001597 619.40802 619.40765
637.0 0.001570 618.91058 618.91034
652.0 0.001534 618.41888 618.41864
605.0 0.001653 617.93365 617.93347
669.0 0.001495 617.45447 617.45422
606.0 0.001650 616.98181 616.98114
569.0 0.001757 616.51520 616.51483
583.0 0.001715 616.05493 616.05469
647.0 0.001546 615.60114 615.60065
620.0 0.001613 615.15332 615.15289
596.0 0.001678 614.71198 614.71161
614.0 0.001629 614.27728 614.27698
633.0 0.001580 613.84888 613.84869
629.0 0.001590 613.42706 613.42682
666.0 0.001502 613.01166 613.01154
607.0 0.001647 612.60272 612.60254
605.0 0.001653 612.20038 612.20013
581.0 0.001721 611.80444 611.80420
628.0 0.001592 611.41541 611.41510
613.0 0.001631 611.03253 611.03253
632.0 0.001582 610.65686 610.65656
604.0 0.001656 610.28754 610.28717
652.0 0.001534 609.92505 609.92474
637.0 0.001570 609.56885 609.56860
635.0 0.001575 609.21979 609.21960
661.0 0.001513 608.87714 608.87683
597.0 0.001675 608.54126 608.54120
675.0 0.001481 608.21216 608.21191
646.0 0.001548 607.88995 607.88953
607.0 0.001647 607.57428 607.57397
617.0 0.001621 607.26532 607.26538
571.0 0.001751 606.96344 606.96320
612.0 0.001634 606.66840 606.66815
605.0 0.001653 606.37988 606.37970
620.0 0.001613 606.09845 606.09821
591.0 0.001692 605.82379 605.82355
602.0 0.001661 605.55585 605.55566
627.0 0.001595 605.29474 605.29456
608.0 0.001645 605.04041 605.04016
631.0 0.001585 604.79315 604.79309
600.0 0.001667 604.55231 604.55219
582.0 0.001718 604.31885 604.31848
635.0 0.001575 604.09167 604.09155
615.0 0.001626 603.87183 603.97668
600.0 0.001667 603.65881 603.77026
566.0 0.001767 603.45239 603.61102
614.0 0.001629 603.25293 603.42249
584.0 0.001712 603.06018 603.24158
625.0 0.001600 602.87445 603.06915
609.0 0.001642 602.69550 602.90466
604.0 0.001656 602.52344 602.74896
633.0 0.001580 602.35797 602.60223
617.0 0.001621 602.19952 602.46460
598.0 0.001672 602.04761 602.33649
609.0 0.001642 601.90295 602.21844
628.0 0.001592 601.76465 602.11127
614.0 0.001629 601.63336 602.01569
631.0 0.001585 601.50885 601.93237
594.0 0.001684 601.39087 601.86328
587.0 0.001704 601.28003 601.80988
626.0 0.001597 601.17548 601.77411
606.0 0.001650 601.07788 601.75977
564.0 0.001773 600.98712 601.77045
604.0 0.001656 600.90259 601.81348
613.0 0.001631 600.82532 601.90051
573.0 0.001745 600.75446 602.05963
546.0 0.001832 600.69037 602.36749
612.0 0.001634 600.63257 603.02655
637.0 0.001570 600.58167 604.50159
610.0 0.001639 600.53723 607.69647
649.0 0.001541 600.49951 614.12122
608.0 0.001645 600.46838 625.92438
661.0 0.001513 600.44360 645.49146
640.0 0.001563 600.42542 673.96387
632.0 0.001582 600.41376 708.44855
664.0 0.001506 600.40857 739.86798
674.0 0.001484 600.40997 755.25171
696.0 0.001437 600.41772 746.24280
695.0 0.001439 600.43201 717.27429
662.0 0.001511 600.45239 680.68707
620.0 0.001613 600.47943 648.01257
603.0 0.001658 600.51251 625.27350
636.0 0.001572 600.55219 612.37915
601.0 0.001664 600.59808 606.26031
592.0 0.001689 600.65027 603.73993
585.0 0.001709 600.70856 602.75793
638.0 0.001567 600.77338 602.33759
649.0 0.001541 600.84424 602.11829
602.0 0.001661 600.92133 601.98871
575.0 0.001739 601.00452 601.91327
613.0 0.001631 601.09381 601.87683
614.0 0.001629 601.18927 601.87115
605.0 0.001653 601.29053 601.89001
598.0 0.001672 601.39813 601.92871
615.0 0.001626 601.51184 601.98474
606.0 0.001650 601.63116 602.05573
651.0 0.001536 601.75653 602.13947
620.0 0.001613 601.88794 602.23517
615.0 0.001626 602.02545 602.34149
624.0 0.001603 602.16846 602.50507
596.0 0.001678 602.31720 602.63312
612.0 0.001634 602.47217 602.78827
592.0 0.001689 602.63251 602.93512
580.0 0.001724 602.79901 603.09052
608.0 0.001645 602.97083 603.25366
578.0 0.001730 603.14862 603.42493
637.0 0.001570 603.33185 603.60358
596.0 0.001678 603.52087 603.79034
601.0 0.001664 603.71521 603.88019
579.0 0.001727 603.91541 604.08850
626.0 0.001597 604.12115 604.26416
565.0 0.001770 604.33215 604.48920
577.0 0.001733 604.54852 604.72247
595.0 0.001681 604.77057 604.96362
572.0 0.001748 604.99792 605.21326
613.0 0.001631 605.23065 605.47290
595.0 0.001681 605.46863 605.74310
588.0 0.001701 605.71191 606.02545
620.0 0.001613 605.96027 606.32202
672.0 0.001488 606.21429 606.63623
583.0 0.001715 606.47314 606.97443
605.0 0.001653 606.73706 607.35144
602.0 0.001661 607.00629 607.81049
573.0 0.001745 607.28064 608.45880
629.0 0.001590 607.55981 609.54388
609.0 0.001642 607.84418 611.53955
610.0 0.001639 608.13361 615.22430
595.0 0.001681 608.42780 621.62994
661.0 0.001513 608.72662 631.64301
626.0 0.001597 609.03064 645.07129
693.0 0.001443 609.33942 659.51086
615.0 0.001626 609.65295 670.26215
694.0 0.001441 609.97107 672.50897
693.0 0.001443 610.29419 665.26068
676.0 0.001479 610.62189 652.22382
653.0 0.001531 610.95416 638.23340
655.0 0.001527 611.29102 626.93280
613.0 0.001631 611.63257 619.66156
660.0 0.001515 611.97839 615.86053
644.0 0.001553 612.32886 614.28137
605.0 0.001653 612.68390 613.82916
615.0 0.001626 613.04291 613.84650
640.0 0.001563 613.40656 614.03693
619.0 0.001616 613.77472 614.29395
643.0 0.001555 614.14673 614.58496
621.0 0.001610 614.52325 614.89813
613.0 0.001631 614.90411 615.22821
644.0 0.001553 615.28888 615.57233
615.0 0.001626 615.67786 615.92761
615.0 0.001626 616.07080 616.29297
609.0 0.001642 616.46814 616.66650
624.0 0.001603 616.86896 617.04755
586.0 0.001706 617.27411 617.43542
571.0 0.001751 617.68311 617.82959
614.0 0.001629 618.09589 618.22943
601.0 0.001664 618.51257 618.63507
614.0 0.001629 618.93304 619.04572
557.0 0.001795 619.35736 619.46130
597.0 0.001675 619.78534 619.88147
602.0 0.001661 620.21698 620.30615
625.0 0.001600 620.65210 620.73517
589.0 0.001698 621.09094 621.16827
627.0 0.001595 621.53320 621.60571
585.0 0.001709 621.97913 622.04712
624.0 0.001603 622.42828 622.44763
647.0 0.001546 622.88104 622.89911
613.0 0.001631 623.33698 623.33679
570.0 0.001754 623.79645 623.79633
612.0 0.001634 624.25897 624.25897
587.0 0.001704 624.72504 624.72498
597.0 0.001675 625.19391 625.19397
547.0 0.001828 625.66626 625.66595
598.0 0.001672 626.14136 626.14130
622.0 0.001608 626.61957 626.61963
612.0 0.001634 627.10107 627.10126
636.0 0.001572 627.58533 627.58514
576.0 0.001736 628.07275 628.07251
607.0 0.001647 628.56262 628.56256
583.0 0.001715 629.05536 629.05518
648.0 0.001543 629.55090 629.55066
619.0 0.001616 630.04919 630.04938
649.0 0.001541 630.55023 630.55023
586.0 0.001706 631.05383 631.05396
644.0 0.001553 631.56018 631.55994
641.0 0.001560 632.06879 632.06879
631.0 0.001585 632.57990 633.00220
688.0 0.001453 633.09369 633.53693
635.0 0.001575 633.60962 634.50476
665.0 0.001504 634.12793 635.23328
716.0 0.001397 634.64850 635.97064
685.0 0.001460 635.17120 636.56409
667.0 0.001499 635.69635 637.16534
667.0 0.001499 636.22333 637.77502
673.0 0.001486 636.75275 638.39398
735.0 0.001361 637.28375 639.02283
714.0 0.001401 637.81696 639.66284
696.0 0.001437 638.35211 640.31506
647.0 0.001546 638.88898 640.98016
716.0 0.001397 639.42816 641.66064
684.0 0.001462 639.96832 642.35730
667.0 0.001499 640.51062 643.07306
681.0 0.001468 641.05457 643.81018
737.0 0.001357 641.60022 644.57135
720.0 0.001389 642.14709 645.36060
644.0 0.001553 642.69568 646.18195
660.0 0.001515 643.24567 647.04138
657.0 0.001522 643.79700 647.94543
645.0 0.001550 644.34979 648.90222
715.0 0.001399 644.90381 649.92267
643.0 0.001555 645.45892 651.01971
672.0 0.001488 646.01532 652.21130
666.0 0.001502 646.57288 653.51965
643.0 0.001555 647.13123 654.97443
648.0 0.001543 647.69073 656.61694
688.0 0.001453 648.25104 658.50244
683.0 0.001464 648.81250 660.71735
685.0 0.001460 649.37469 663.41284
632.0 0.001582 649.93756 666.93054
659.0 0.001517 650.50104 672.16095
702.0 0.001425 651.06531 681.39563
718.0 0.001393 651.63007 699.99670
729.0 0.001372 652.19543 738.84265
823.0 0.001215 652.76123 816.48096
997.0 0.001003 653.32782 957.80634
1211.0 0.000826 653.89429 1183.93542
1389.0 0.000720 654.46106 1492.33850
1770.0 0.000565 655.02850 1835.46521
2045.0 0.000489 655.59558 2119.68115
2324.0 0.000430 656.16302 2245.21899
2280.0 0.000439 656.73029 2167.94409
2074.0 0.000482 657.29773 1919.72095
1777.0 0.000563 657.86542 1590.62793
1283.0 0.000779 658.43256 1272.76904
1059.0 0.000944 658.99957 1022.14380
854.0 0.001171 659.56635 856.05109
725.0 0.001379 660.13275 761.61200
681.0 0.001468 660.69897 714.73218
742.0 0.001348 661.26465 693.74347
656.0 0.001524 661.82983 684.58313
666.0 0.001502 662.39417 680.17139
638.0 0.001567 662.95825 677.62372
663.0 0.001508 663.52167 675.93262
670.0 0.001493 664.08411 674.74487
671.0 0.001490 664.64594 673.90552
641.0 0.001560 665.20660 673.32507
642.0 0.001558 665.76666 672.94299
685.0 0.001460 666.32544 672.71478
668.0 0.001497 666.88318 672.60852
655.0 0.001527 667.43988 675.99579
673.0 0.001486 667.99530 676.23492
667.0 0.001499 668.54950 676.55121
694.0 0.001441 669.10229 678.24652
669.0 0.001495 669.65387 678.75574
699.0 0.001431 670.20398 679.32428
690.0 0.001449 670.75220 679.94885
672.0 0.001488 671.29919 680.62769
677.0 0.001477 671.84436 681.35999
719.0 0.001391 672.38794 682.14618
674.0 0.001484 672.92987 682.98810
663.0 0.001508 673.46948 683.88879
706.0 0.001416 674.00757 684.85187
690.0 0.001449 674.54340 685.88324
748.0 0.001337 675.07733 686.98920
713.0 0.001403 675.60925 688.17889
730.0 0.001370 676.13861 689.46295
656.0 0.001524 676.66632 690.85510
740.0 0.001351 677.19159 692.37091
708.0 0.001412 677.71405 694.03082
722.0 0.001385 678.23438 695.43414
719.0 0.001391 678.75214 697.48468
698.0 0.001433 679.26752 699.35309
705.0 0.001418 679.78040 701.79590
703.0 0.001422 680.28992 704.59198
731.0 0.001368 680.79718 707.99768
748.0 0.001337 681.30157 711.95020
770.0 0.001299 681.80298 716.60077
716.0 0.001397 682.30139 722.15125
763.0 0.001311 682.79694 728.88928
768.0 0.001302 683.28961 737.26947
754.0 0.001326 683.77850 748.14807
766.0 0.001305 684.26459 763.61646
837.0 0.001195 684.74731 789.34607
924.0 0.001082 685.22693 840.13849
1003.0 0.000997 685.70300 950.14380
1213.0 0.000824 686.17548 1185.67786
1620.0 0.000617 686.64447 1650.30518
2486.0 0.000402 687.11005 2456.52759
3492.0 0.0002864 687.57184 3641.38965
4963.0 0.0002015 688.02991 5053.54639
6106.0 0.0001638 688.48383 6306.63086
6789.0 0.0001473 688.93457 6912.10010
6797.0 0.0001471 689.38123 6609.72559
6011.0 0.0001664 689.82355 5606.35010
4496.0 0.0002224 690.26233 4306.39502
3111.0 0.0003214 690.69666 3053.10938
2117.0 0.000472 691.12701 2073.22632
1384.0 0.000723 691.55304 1431.20947
889.0 0.001125 691.97498 1071.41577
784.0 0.001276 692.39258 895.95386
753.0 0.001328 692.80554 818.11157
714.0 0.001401 693.21423 783.13385
692.0 0.001445 693.61859 764.79938
695.0 0.001439 694.01813 753.03339
664.0 0.001506 694.41309 744.43518
651.0 0.001536 694.80334 737.79510
693.0 0.001443 695.18921 732.53925
660.0 0.001515 695.57001 728.32062
652.0 0.001534 695.94574 724.89734
641.0 0.001560 696.31665 722.09320
659.0 0.001517 696.68274 719.77954
679.0 0.001473 697.04395 717.85773
679.0 0.001473 697.39990 716.25311
661.0 0.001513 697.75073 714.90814
640.0 0.001563 698.09650 713.77692
650.0 0.001538 698.43689 712.82330
666.0 0.001502 698.77191 712.01807
627.0 0.001595 699.10162 711.33783
678.0 0.001475 699.42603 710.76392
683.0 0.001464 699.74512 710.27972
683.0 0.001464 700.05853 709.88983
714.0 0.001401 700.36664 709.54938
773.0 0.001294 700.66852 709.26575
803.0 0.001245 700.96545 709.03790
829.0 0.001206 701.25659 708.84631
790.0 0.001266 701.54144 708.69141
740.0 0.001351 701.82111 708.56836
721.0 0.001387 702.09485 708.47321
737.0 0.001357 702.36230 708.40210
765.0 0.001307 702.62439 708.35199
796.0 0.001256 702.88013 708.32019
761.0 0.001314 703.12982 708.30426
812.0 0.001232 703.37354 704.89117
771.0 0.001297 703.61127 705.05939
796.0 0.001256 703.84277 705.22699
773.0 0.001294 704.06805 704.12494
811.0 0.001233 704.28717 704.34857
794.0 0.001259 704.49988 704.56647
743.0 0.001346 704.70630 704.77838
742.0 0.001348 704.90656 704.98505
716.0 0.001397 705.10028 705.18604
675.0 0.001481 705.28735 705.38153
622.0 0.001608 705.46826 705.57196
665.0 0.001504 705.64264 705.75763
653.0 0.001531 705.81042 705.93878
675.0 0.001481 705.97162 706.11548
682.0 0.001466 706.12622 706.28864
667.0 0.001499 706.27429 706.45911
606.0 0.001650 706.41522 706.62775
620.0 0.001613 706.55005 706.79657
644.0 0.001553 706.67773 706.96796
609.0 0.001642 706.79889 707.14807
643.0 0.001555 706.91309 707.35034
637.0 0.001570 707.02039 707.61517
651.0 0.001536 707.12115 708.04279
614.0 0.001629 707.21472 708.85138
637.0 0.001570 707.30139 710.43646
659.0 0.001517 707.38123 713.33606
679.0 0.001473 707.45422 717.97400
707.0 0.001414 707.51984 724.16559
704.0 0.001420 707.57874 730.68011
692.0 0.001445 707.63055 735.40680
700.0 0.001429 707.67548 736.41046
770.0 0.001299 707.71307 733.53900
681.0 0.001468 707.74353 728.36151
701.0 0.001427 707.76709 722.52466
694.0 0.001441 707.78375 717.25842
650.0 0.001538 707.79242 713.30151
631.0 0.001585 707.79462 710.76312
693.0 0.001443 707.78943 709.35040
652.0 0.001534 707.77692 708.65222
684.0 0.001462 707.75751 708.32184
677.0 0.001477 707.73053 708.14813
638.0 0.001567 707.69629 708.03217
658.0 0.001520 707.65479 707.93573
677.0 0.001477 707.60638 707.84521
709.0 0.001410 707.55023 707.75677
719.0 0.001391 707.48712 707.66724
722.0 0.001385 707.41669 707.57501
719.0 0.001391 707.33881 707.47937
646.0 0.001548 707.25372 707.37909
657.0 0.001522 707.16132 707.27399
705.0 0.001418 707.06152 707.16351
687.0 0.001456 706.95447 707.04669
641.0 0.001560 706.84003 706.92426
777.0 0.001287 706.71832 706.79523
715.0 0.001399 706.58899 706.65991
694.0 0.001441 706.45264 706.51801
720.0 0.001389 706.30878 706.36920
751.0 0.001332 706.15765 706.21375
739.0 0.001353 705.99939 706.05145
699.0 0.001431 705.83344 705.88239
716.0 0.001397 705.66040 705.70575
735.0 0.001361 705.47992 705.52252
765.0 0.001307 705.29242 705.33240
730.0 0.001370 705.09711 705.13495
773.0 0.001294 704.89490 704.93024
728.0 0.001374 704.68506 704.71869
723.0 0.001383 704.46808 707.01080
757.0 0.001321 704.24377 715.43536
779.0 0.001284 704.01215 715.75970
773.0 0.001294 703.77356 717.07153
798.0 0.001253 703.52753 720.75037
772.0 0.001295 703.27417 721.39001
780.0 0.001282 703.01385 722.11505
766.0 0.001305 702.74597 722.90887
792.0 0.001263 702.47101 723.79486
808.0 0.001238 702.18903 724.77698
809.0 0.001236 701.89960 725.86780
800.0 0.001250 701.60339 727.08179
830.0 0.001205 701.29993 728.43610
743.0 0.001346 700.98938 729.95111
833.0 0.001200 700.67151 731.64935
776.0 0.001289 700.34692 733.55841
816.0 0.001225 700.01501 735.71149
808.0 0.001238 699.67621 738.14679
834.0 0.001199 699.33051 740.91235
814.0 0.001229 698.97736 744.06439
836.0 0.001196 698.61774 747.67133
804.0 0.001244 698.25098 751.81976
840.0 0.001190 697.87744 756.61383
857.0 0.001167 697.49701 762.18823
889.0 0.001125 697.10962 768.70953
905.0 0.001105 696.71558 776.39124
839.0 0.001192 696.31476 785.51617
942.0 0.001062 695.90710 796.44751
860.0 0.001163 695.49261 809.68329
889.0 0.001125 695.07141 825.89960
924.0 0.001082 694.64380 846.07507
933.0 0.001072 694.20935 871.82983
1001.0 0.000999 693.76837 906.40021
1062.0 0.000942 693.32074 957.77826
1194.0 0.000838 692.86682 1046.90088
1463.0 0.000684 692.40594 1225.54785
1847.0 0.000541 691.93909 1605.91626
2581.0 0.000387 691.46564 2388.66479
4069.0 0.0002458 690.98578 3850.86255
6222.0 0.0001607 690.49951 6230.70361
9530.0 0.0001049 690.00714 9495.44434
12699.0 0.0000787 689.50836 13113.45996
15808.0 0.0000633 689.00354 16067.48926
17174.0 0.0000582 688.49219 17306.97461
16666.0 0.0000600 687.97479 16420.50391
14324.0 0.0000698 687.45129 13954.74609
10886.0 0.0000919 686.92188 10823.59180
7411.0 0.0001349 686.38641 7725.38721
4962.0 0.0002015 685.84479 5129.44678
3174.0 0.0003151 685.29736 3263.54761
1825.0 0.000548 684.74402 2097.68848
1254.0 0.000797 684.18475 1458.40442
1065.0 0.000939 683.61993 1144.22473
951.0 0.001052 683.04883 998.63757
920.0 0.001087 682.47241 924.35309
857.0 0.001167 681.89050 879.99829
789.0 0.001267 681.30273 849.59991
804.0 0.001244 680.70917 825.67908
805.0 0.001242 680.11035 806.53613
786.0 0.001272 679.50598 790.90033
734.0 0.001362 678.89618 777.94641
754.0 0.001326 678.28119 767.08099
763.0 0.001311 677.66077 757.87640
741.0 0.001350 677.03503 750.00531
737.0 0.001357 676.40399 743.22394
744.0 0.001344 675.76788 737.34399
743.0 0.001346 675.12671 732.21588
761.0 0.001314 674.48041 727.72772
738.0 0.001355 673.82898 723.78717
761.0 0.001314 673.17255 720.32532
769.0 0.001300 672.51147 717.28821
722.0 0.001385 671.84515 714.63269
735.0 0.001361 671.17456 712.33020
734.0 0.001362 670.49872 710.35944
765.0 0.001307 669.81836 708.71069
751.0 0.001332 669.13336 707.38379
724.0 0.001381 668.44366 706.38745
687.0 0.001456 667.74963 705.74438
746.0 0.001340 667.05103 705.49078
785.0 0.001274 666.34784 705.68219
746.0 0.001340 665.64069 706.39966
704.0 0.001420 664.92871 707.75934
745.0 0.001342 664.21283 709.93457
704.0 0.001420 663.49255 710.73737
693.0 0.001443 662.76807 707.05237
721.0 0.001387 662.03998 715.58154
704.0 0.001420 661.30719 730.05890
792.0 0.001263 660.57074 758.96039
834.0 0.001199 659.83038 830.07538
970.0 0.001031 659.08612 980.60071
1252.0 0.000799 658.33795 1262.47632
1657.0 0.000604 657.58630 1717.94348
2248.0 0.000445 656.83093 2326.67969
2906.0 0.0003441 656.07153 2966.35132
3583.0 0.0002791 655.30884 3432.36768
3805.0 0.0002628 654.54266 3542.25024
3581.0 0.0002793 653.77283 3287.34619
3040.0 0.0003289 652.99982 2818.68628
2279.0 0.000439 652.22327 2279.22412
1863.0 0.000537 651.44342 1764.55481
1404.0 0.000712 650.66040 1345.35034
1032.0 0.000969 649.87402 1050.52527
819.0 0.001221 649.08478 869.87567
668.0 0.001497 648.29260 772.61743
679.0 0.001473 647.49713 725.18817
681.0 0.001468 646.69891 702.47028
628.0 0.001592 645.89740 690.37433
652.0 0.001534 645.09344 682.66809
625.0 0.001600 644.28668 677.00854
648.0 0.001543 643.47699 672.55231
648.0 0.001543 642.66479 668.94446
613.0 0.001631 641.84991 665.98950
604.0 0.001656 641.03253 663.56610
622.0 0.001608 640.21283 661.59241
599.0 0.001669 639.39032 660.02026
652.0 0.001534 638.56573 658.82581
555.0 0.001802 637.73865 658.00964
644.0 0.001553 636.90942 657.59747
582.0 0.001718 636.07770 657.64966
564.0 0.001773 635.24414 658.29028
589.0 0.001698 634.40826 659.80444
612.0 0.001634 633.57068 662.95721
592.0 0.001689 632.73083 669.83502
666.0 0.001502 631.88910 685.64716
692.0 0.001445 631.04517 721.38007
775.0 0.001290 630.19995 795.46222
939.0 0.001065 629.35254 929.97504
1098.0 0.000911 628.50385 1136.49097
1450.0 0.000690 627.65308 1395.50330
1724.0 0.000580 626.80096 1645.16333
1786.0 0.000560 625.94720 1798.82422
1870.0 0.000535 625.09174 1797.86121
1749.0 0.000572 624.23505 1663.84119
1445.0 0.000692 623.37695 1463.13525
1255.0 0.000797 622.51740 1245.45923
978.0 0.001022 621.65668 1043.98718
827.0 0.001209 620.79449 881.23560
713.0 0.001403 619.93140 769.83081
625.0 0.001600 619.06677 702.13159
612.0 0.001634 618.20111 664.94202
634.0 0.001577 617.33472 646.85535
591.0 0.001692 616.46710 637.70837
597.0 0.001675 615.59875 632.39282
591.0 0.001692 614.72919 628.67584
619.0 0.001616 613.85901 625.72296
585.0 0.001709 612.98810 623.22491
622.0 0.001608 612.11615 621.04230
608.0 0.001645 611.24402 619.09644
578.0 0.001730 610.37054 617.33258
626.0 0.001597 609.49652 615.71143
620.0 0.001613 608.62231 614.20441
598.0 0.001672 607.74750 612.78827
573.0 0.001745 606.87213 611.44720
564.0 0.001773 605.99646 610.16724
593.0 0.001686 605.12012 608.93811
634.0 0.001577 604.24353 607.75183
617.0 0.001621 603.36682 606.60126
599.0 0.001669 602.48956 605.48157
633.0 0.001580 601.61230 609.35370
648.0 0.001543 600.73492 608.52789
593.0 0.001686 599.85724 607.74054
593.0 0.001686 598.97931 606.99060
564.0 0.001773 598.10175 608.21417
599.0 0.001669 597.22363 607.63727
626.0 0.001597 596.34589 607.10760
623.0 0.001605 595.46820 606.62781
640.0 0.001563 594.59064 606.20142
605.0 0.001653 593.71326 605.83295
603.0 0.001658 592.83594 605.52789
577.0 0.001733 591.95868 605.29199
619.0 0.001616 591.08197 605.13348
670.0 0.001493 590.20520 604.18384
610.0 0.001639 589.32916 604.25073
604.0 0.001656 588.45313 604.42535
622.0 0.001608 587.57770 604.72375
623.0 0.001605 586.70276 604.84521
607.0 0.001647 585.82813 605.46820
643.0 0.001555 584.95398 606.28467
657.0 0.001522 584.08020 607.32983
629.0 0.001590 583.20728 608.64661
619.0 0.001616 582.33472 610.28778
662.0 0.001511 581.46289 612.32123
603.0 0.001658 580.59204 614.83203
660.0 0.001515 579.72131 617.93109
664.0 0.001506 578.85132 622.25739
668.0 0.001497 577.98230 627.03375
681.0 0.001468 577.11389 632.99170
724.0 0.001381 576.24658 640.66925
687.0 0.001456 575.37976 650.24084
708.0 0.001412 574.51392 662.78925
741.0 0.001350 573.64905 680.28510
822.0 0.001217 572.78485 707.87659
833.0 0.001200 571.92175 759.26605
967.0 0.001034 571.05920 867.58112
1129.0 0.000886 570.19818 1099.74707
1563.0 0.000640 569.33777 1561.43213
2285.0 0.000438 568.47833 2366.99609
3507.0 0.0002851 567.62048 3553.70020
4911.0 0.0002036 566.76288 4975.43066
6246.0 0.0001601 565.90680 6265.54199
6928.0 0.0001443 565.05188 6964.99365
7007.0 0.0001427 564.19781 6832.32324
6467.0 0.0001546 563.34521 6061.94238
4982.0 0.0002007 562.49359 5006.27686
3661.0 0.0002731 561.64288 3887.87866
2655.0 0.000377 560.79370 2848.64722
1970.0 0.000508 559.94568 2005.83374
1309.0 0.000764 559.09906 1408.88818
858.0 0.001166 558.25323 1038.02734
732.0 0.001366 557.40887 834.96106
649.0 0.001541 556.56592 733.90247
656.0 0.001524 555.72418 684.55994
619.0 0.001616 554.88385 658.17377
630.0 0.001587 554.04437 641.64063
622.0 0.001608 553.20660 629.94153
594.0 0.001684 552.37018 621.31885
594.0 0.001684 551.53503 615.32050
568.0 0.001761 550.70117 612.50958
609.0 0.001642 549.86871 615.12408
619.0 0.001616 549.03754 628.33020
621.0 0.001610 548.20801 661.02094
728.0 0.001374 547.37994 724.00513
855.0 0.001170 546.55316 823.25848
994.0 0.001006 545.72754 949.98248
1101.0 0.000908 544.90344 1074.68860
1204.0 0.000831 544.08099 1154.74512
1203.0 0.000831 543.25983 1159.61804
1168.0 0.000856 542.44025 1098.06104
985.0 0.001015 541.62207 1003.05865
895.0 0.001117 540.80530 898.48254
810.0 0.001235 539.99005 797.40918
737.0 0.001357 539.17645 711.13208
632.0 0.001582 538.36426 646.55170
609.0 0.001642 537.55328 603.86035
606.0 0.001650 536.74384 578.74646
588.0 0.001701 535.93622 565.16431
551.0 0.001815 535.12970 557.85004
557.0 0.001795 534.32489 553.46753
519.0 0.001927 533.52142 550.78174
559.0 0.001789 532.71936 548.28162
604.0 0.001656 531.91925 546.11700
535.0 0.001869 531.12042 539.23157
568.0 0.001761 530.32312 537.71295
532.0 0.001880 529.52704 536.31476
583.0 0.001715 528.73267 535.01306
550.0 0.001818 527.93982 531.90924
551.0 0.001815 527.14856 530.83704
528.0 0.001894 526.35870 529.81268
522.0 0.001916 525.57019 528.82874
550.0 0.001818 524.78326 527.95099
503.0 0.001988 523.99811 527.03436
526.0 0.001901 523.21405 526.14374
559.0 0.001789 522.43158 525.27679
493.0 0.002028 521.65070 524.45874
501.0 0.001996 520.87128 523.63373
509.0 0.001965 520.09320 522.82721
503.0 0.001988 519.31677 522.03821
494.0 0.002024 518.54163 521.26648
494.0 0.002024 517.76807 520.51160
495.0 0.002020 516.99585 519.77368
490.0 0.002041 516.22528 519.05322
530.0 0.001887 515.45612 518.35071
516.0 0.001938 514.68817 517.66748
480.0 0.002083 513.92163 517.00476
492.0 0.002033 513.15680 516.36432
479.0 0.002088 512.39331 515.74854
532.0 0.001880 511.63107 515.16034
549.0 0.001821 510.87051 514.12866
489.0 0.002045 510.11121 513.62982
492.0 0.002033 509.35306 513.17120
524.0 0.001908 508.59659 512.57635
470.0 0.002128 507.84128 512.23126
510.0 0.001961 507.08768 511.95517
479.0 0.002088 506.33496 511.76343
486.0 0.002058 505.58398 511.67682
501.0 0.001996 504.83411 511.72244
547.0 0.001828 504.08560 511.93762
520.0 0.001923 503.33862 512.37457
475.0 0.002105 502.59280 513.11548
526.0 0.001901 501.84805 514.31427
482.0 0.002075 501.10489 516.33588
511.0 0.001957 500.36288 521.08234
559.0 0.001789 499.62234 529.19043
556.0 0.001799 498.88284 547.03070
567.0 0.001764 498.14453 584.45514
634.0 0.001577 497.40771 655.04926
790.0 0.001266 496.67184 768.51752
938.0 0.001066 495.93756 921.15045
1219.0 0.000820 495.20422 1084.81506
1232.0 0.000812 494.47223 1210.14368
1262.0 0.000792 493.74136 1250.67993
1246.0 0.000803 493.01157 1201.21765
1201.0 0.000833 492.28305 1098.99146
1042.0 0.000960 491.55573 979.20453
911.0 0.001098 490.82925 858.75464
774.0 0.001292 490.10425 750.40863
646.0 0.001548 489.38016 667.17371
650.0 0.001538 488.65750 616.12573
593.0 0.001686 487.93582 596.68683
603.0 0.001658 487.21497 601.29651
622.0 0.001608 486.49539 617.21625
625.0 0.001600 485.77686 630.21710
665.0 0.001504 485.05954 630.16754
621.0 0.001610 484.34302 616.68280
603.0 0.001658 483.62744 596.19629
581.0 0.001721 482.91315 573.81793
609.0 0.001642 482.19980 551.78601
553.0 0.001808 481.48755 532.03510
520.0 0.001923 480.77600 516.30164
484.0 0.002066 480.06570 505.17856
471.0 0.002123 479.35629 498.17407
468.0 0.002137 478.64789 494.18268
533.0 0.001876 477.94040 492.04245
516.0 0.001938 477.23370 490.90472
492.0 0.002033 476.52808 490.30518
491.0 0.002037 475.82352 490.04764
504.0 0.001984 475.11975 490.07608
524.0 0.001908 474.41669 490.39676
482.0 0.002075 473.71469 491.04895
522.0 0.001916 473.01343 492.09973
475.0 0.002105 472.31335 493.65048
524.0 0.001908 471.61380 495.86658
540.0 0.001852 470.91513 499.06000
532.0 0.001880 470.21750 503.97198
557.0 0.001795 469.52045 512.55634
593.0 0.001686 468.82449 529.79193
660.0 0.001515 468.12912 566.77325
633.0 0.001580 467.43481 643.59259
925.0 0.001081 466.74097 787.69824
1159.0 0.000863 466.04807 1021.44702
1428.0 0.000700 465.35593 1338.79797
1684.0 0.000594 464.66461 1684.52161
1918.0 0.000521 463.97415 1957.47607
1894.0 0.000528 463.28409 2057.77051
1911.0 0.000523 462.59500 1967.14832
1852.0 0.000540 461.90680 1763.28430
1400.0 0.000714 461.21893 1518.20190
1127.0 0.000887 460.53223 1267.96252
1005.0 0.000995 459.84595 1032.40417
823.0 0.001215 459.16040 835.65149
631.0 0.001585 458.47565 689.52972
594.0 0.001684 457.79150 593.77356
484.0 0.002066 457.10815 538.75793
509.0 0.001965 456.42538 509.87671
480.0 0.002083 455.74341 495.13907
486.0 0.002058 455.06198 486.87488
505.0 0.001980 454.38138 481.68906
497.0 0.002012 453.70132 477.87894
454.0 0.002203 453.02188 474.84830
515.0 0.001942 452.34311 472.34741
482.0 0.002075 451.66510 470.24518
482.0 0.002075 450.98761 468.45660
454.0 0.002203 450.31082 466.92331
489.0 0.002045 449.63467 465.52893
440.0 0.002273 448.95911 464.39139
486.0 0.002058 448.28442 463.41220
439.0 0.002278 447.61005 462.57480
440.0 0.002273 446.93649 461.84134
496.0 0.002016 446.26334 461.26071
468.0 0.002137 445.59088 460.80164
454.0 0.002203 444.91934 460.46509
490.0 0.002041 444.24817 460.25430
454.0 0.002203 443.57767 460.17709
470.0 0.002128 442.90775 460.24417
473.0 0.002114 442.23825 460.47064
519.0 0.001927 441.56982 460.87686
468.0 0.002137 440.90167 461.48871
518.0 0.001931 440.23425 462.33997
533.0 0.001876 439.56735 463.47427
485.0 0.002062 438.90118 464.94757
512.0 0.001953 438.23566 466.83231
494.0 0.002024 437.57074 469.22501
501.0 0.001996 436.90640 472.25214
493.0 0.002028 436.24258 476.08728
533.0 0.001876 435.57947 480.97174
497.0 0.002012 434.91714 487.27014
583.0 0.001715 434.25528 495.64413
577.0 0.001733 433.59415 507.57468
558.0 0.001792 432.93353 526.91437
562.0 0.001779 432.27350 563.49634
716.0 0.001397 431.61429 639.53589
848.0 0.001179 430.95569 796.53723
1115.0 0.000897 430.29776 1093.64746
1697.0 0.000589 429.64050 1585.24902
2391.0 0.000418 428.98386 2271.87500
3211.0 0.0003114 428.32800 3053.81006
3740.0 0.0002674 427.67261 3720.86182
3846.0 0.0002600 427.01816 4036.51123
3832.0 0.0002610 426.36411 3912.87134
3519.0 0.0002842 425.71078 3493.35571
2917.0 0.0003428 425.05841 2966.75024
2155.0 0.000464 424.40656 2422.22461
1745.0 0.000573 423.75558 1892.62329
1381.0 0.000724 423.10507 1423.02515
1025.0 0.000976 422.45538 1054.37634
653.0 0.001531 421.80664 798.83417
593.0 0.001686 421.15839 642.36957
491.0 0.002037 420.51114 556.60675
473.0 0.002114 419.86444 512.47693
466.0 0.002146 419.21857 489.22705
447.0 0.002237 418.57358 475.41037
460.0 0.002174 417.92923 465.85742
412.0 0.002427 417.28586 458.51315
481.0 0.002079 416.64310 452.54575
434.0 0.002304 416.00140 447.56201
435.0 0.002299 415.36044 443.32617
453.0 0.002208 414.72034 439.67307
425.0 0.002353 414.08102 436.48431
442.0 0.002262 413.44260 433.66846
424.0 0.002358 412.80521 431.15692
418.0 0.002392 412.16858 428.89590
441.0 0.002268 411.53293 426.84247
437.0 0.002288 410.89804 424.96341
422.0 0.002370 410.26422 423.23099
455.0 0.002198 409.63129 421.62347
454.0 0.002203 408.99951 420.12338
427.0 0.002342 408.36844 418.71500
392.0 0.002551 407.73849 417.38678
421.0 0.002375 407.10962 416.12772
435.0 0.002299 406.48157 414.92944
387.0 0.002584 405.85477 413.78513
349.0 0.002865 405.22885 412.68768
425.0 0.002353 404.60416 411.63232
382.0 0.002618 403.98041 410.61423
389.0 0.002571 403.35770 409.62936
391.0 0.002558 402.73624 408.67722
390.0 0.002564 402.11578 407.74948
404.0 0.002475 401.49661 406.84644
427.0 0.002342 400.87851 405.96536
433.0 0.002309 400.26144 405.10519
399.0 0.002506 399.64581 404.26273
384.0 0.002604 399.03113 403.43704
374.0 0.002674 398.41797 402.62686
368.0 0.002717 397.80591 401.84042
386.0 0.002591 397.19501 401.05780
349.0 0.002865 396.58554 400.28735
386.0 0.002591 395.97733 399.52832
381.0 0.002625 395.37042 398.78336
389.0 0.002571 394.76471 395.78741
410.0 0.002439 394.16043 395.14331
388.0 0.002577 393.55746 394.50305
376.0 0.002660 392.95609 393.86642
425.0 0.002353 392.35590 392.38129
350.0 0.002857 391.75714 391.78387
373.0 0.002681 391.15976 391.18784
379.0 0.002639 390.56412 390.59354
401.0 0.002494 389.96976 390.00089
363.0 0.002755 389.37683 389.40967
331.0 0.003021 388.78561 388.82013
403.0 0.002481 388.19562 388.23230
356.0 0.002809 387.60751 387.64655
381.0 0.002625 387.02075 387.06223
393.0 0.002545 386.43576 386.47989
368.0 0.002717 385.85217 385.89938
389.0 0.002571 385.27017 385.32065
362.0 0.002762 384.69003 384.74435
374.0 0.002674 384.11145 384.16986
344.0 0.002907 383.53467 383.59766
367.0 0.002725 382.95941 383.02774
356.0 0.002809 382.38583 382.46024
381.0 0.002625 381.81430 381.89551
343.0 0.002915 381.24435 381.33337
365.0 0.002740 380.67636 380.77451
413.0 0.002421 380.10983 380.21869
391.0 0.002558 379.54529 379.66693
348.0 0.002874 378.98273 379.11972
392.0 0.002551 378.42181 378.57782
388.0 0.002577 377.86285 378.04465
382.0 0.002618 377.30579 377.52640
350.0 0.002857 376.75073 377.03842
354.0 0.002825 376.19751 376.61096
389.0 0.002571 375.64627 376.29272
341.0 0.002933 375.09714 376.13913
355.0 0.002817 374.54999 376.17990
396.0 0.002525 374.00461 376.37283
384.0 0.002604 373.46155 376.57751
380.0 0.002632 372.92038 376.59329
387.0 0.002584 372.38138 376.29669
350.0 0.002857 371.84448 375.82037
368.0 0.002717 371.30966 375.51566
353.0 0.002833 370.77710 375.74176
407.0 0.002457 370.24649 376.88800
412.0 0.002427 369.71823 379.76825
385.0 0.002597 369.19205 381.91437
387.0 0.002584 368.66809 383.64835
403.0 0.002481 368.14645 384.15579
378.0 0.002646 367.62698 383.45844
403.0 0.002481 367.10977 381.34790
396.0 0.002525 366.59497 378.94617
352.0 0.002841 366.08221 376.54892
398.0 0.002513 365.57214 374.19543
390.0 0.002564 365.06418 371.99460
407.0 0.002457 364.55865 370.11447
367.0 0.002725 364.05542 368.64352
339.0 0.002950 363.55463 367.57043
346.0 0.002890 363.05640 366.81091
358.0 0.002793 362.56036 366.25815
356.0 0.002809 362.06702 365.82544
396.0 0.002525 361.57599 365.45950
379.0 0.002639 361.08737 365.13519
343.0 0.002915 360.60147 364.84314
391.0 0.002558 360.11798 364.58078
374.0 0.002674 359.63702 364.34866
380.0 0.002632 359.15857 364.14883
397.0 0.002519 358.68259 363.98389
384.0 0.002604 358.20944 363.85730
393.0 0.002545 357.73871 363.77377
364.0 0.002747 357.27066 363.73856
364.0 0.002747 356.80515 363.75845
382.0 0.002618 356.34238 363.84122
394.0 0.002538 355.88217 363.99698
387.0 0.002584 355.42468 364.23730
392.0 0.002551 354.97000 364.57739
387.0 0.002584 354.51785 365.03549
399.0 0.002506 354.06845 365.63437
377.0 0.002653 353.62186 366.40308
379.0 0.002639 353.17786 367.37875
365.0 0.002740 352.73679 368.60931
366.0 0.002732 352.29831 370.15784
392.0 0.002551 351.86255 372.10800
387.0 0.002584 351.42987 376.02335
382.0 0.002618 350.99976 379.23328
409.0 0.002445 350.57263 383.41525
422.0 0.002370 350.14813 389.16000
442.0 0.002262 349.72656 397.91144
430.0 0.002326 349.30792 413.86700
481.0 0.002079 348.89191 444.30920
509.0 0.001965 348.47910 506.09949
647.0 0.001546 348.06891 624.60364
860.0 0.001163 347.66168 827.73065
1221.0 0.000819 347.25739 1128.38428
1511.0 0.000662 346.85596 1501.19897
1798.0 0.000556 346.45740 1868.12659
1996.0 0.000501 346.06174 2115.62329
1951.0 0.000513 345.66907 2158.48291
2027.0 0.000493 345.27945 2017.14990
1831.0 0.000546 344.89270 1787.88550
1458.0 0.000686 344.50885 1542.94885
1176.0 0.000850 344.12799 1300.63635
985.0 0.001015 343.74997 1063.41382
850.0 0.001176 343.37512 848.06458
670.0 0.001493 343.00317 673.75818
487.0 0.002053 342.63425 548.82294
496.0 0.002016 342.26819 469.47098
436.0 0.002294 341.90506 424.29987
415.0 0.002410 341.54526 400.38034
395.0 0.002532 341.18826 387.74274
390.0 0.002564 340.83423 380.50623
379.0 0.002639 340.48309 375.82202
375.0 0.002667 340.13507 372.49332
396.0 0.002525 339.79037 370.03616
329.0 0.003040 339.44827 368.23605
373.0 0.002681 339.10941 366.98352
381.0 0.002625 338.77344 366.21664
371.0 0.002695 338.44052 365.90619
438.0 0.002283 338.11075 366.04828
398.0 0.002513 337.78384 366.66345
345.0 0.002899 337.46008 367.79938
396.0 0.002525 337.13925 369.53680
405.0 0.002469 336.82141 372.00156
389.0 0.002571 336.50668 375.39670
398.0 0.002513 336.19489 380.10406
411.0 0.002433 335.88620 386.98163
407.0 0.002457 335.58038 398.20673
427.0 0.002342 335.27783 419.14923
446.0 0.002242 334.97803 461.54068
522.0 0.001916 334.68140 546.70209
662.0 0.001511 334.38782 704.44519
911.0 0.001098 334.09711 962.24481
1316.0 0.000760 333.80936 1322.66943
1717.0 0.000582 333.52463 1739.23743
2106.0 0.000475 333.24286 2109.83862
2260.0 0.000442 332.96420 2309.10962
2272.0 0.000440 332.68839 2276.00000
2255.0 0.000443 332.41565 2075.30176
1789.0 0.000559 332.14581 1817.01636
1557.0 0.000642 331.87894 1558.56543
1208.0 0.000828 331.61502 1304.06091
1021.0 0.000979 331.35400 1055.00110
891.0 0.001122 331.09576 832.19324
620.0 0.001613 330.84076 655.22614
494.0 0.002024 330.58838 530.71600
430.0 0.002326 330.33911 453.02786
380.0 0.002632 330.09262 409.21173
408.0 0.002451 329.84909 385.65359
376.0 0.002660 329.60846 371.72403
355.0 0.002817 329.37061 363.95862
373.0 0.002681 329.13574 358.55051
364.0 0.002747 328.90347 354.39255
329.0 0.003040 328.67419 350.58679
360.0 0.002778 328.44778 347.74280
362.0 0.002762 328.22406 345.38742
361.0 0.002770 328.00311 343.37149
376.0 0.002660 327.78506 341.62646
346.0 0.002890 327.56970 340.11365
403.0 0.002481 327.35709 338.77051
346.0 0.002890 327.14722 337.57672
380.0 0.002632 326.94003 336.50946
354.0 0.002825 326.73560 335.54678
351.0 0.002849 326.53384 334.67841
334.0 0.002994 326.33478 333.88278
328.0 0.003049 326.13834 333.15366
322.0 0.003106 325.94446 332.48245
350.0 0.002857 325.75333 331.86130
342.0 0.002924 325.56473 331.28412
325.0 0.003077 325.37878 330.74619
310.0 0.003226 325.19540 330.24255
291.0 0.003436 325.01468 329.77023
308.0 0.003247 324.83633 329.32513
330.0 0.003030 324.66052 328.90509
310.0 0.003226 324.48727 328.50757
301.0 0.003322 324.31641 328.13022
326.0 0.003067 324.14819 327.77167
319.0 0.003135 323.98224 327.42996
306.0 0.003268 323.81873 327.10385
332.0 0.003012 323.65765 326.79208
297.0 0.003367 323.49899 326.49362
344.0 0.002907 323.34265 326.20773
306.0 0.003268 323.18860 325.93311
326.0 0.003067 323.03690 325.69070
297.0 0.003367 322.88745 325.43799
301.0 0.003322 322.74033 325.19470
303.0 0.003300 322.59552 324.96075
312.0 0.003205 322.45288 324.73529
329.0 0.003040 322.31226 323.08673
319.0 0.003135 322.17404 322.93185
298.0 0.003356 322.03793 322.78217
314.0 0.003185 321.90390 322.63739
329.0 0.003040 321.77197 321.94388
342.0 0.002924 321.64215 321.83087
322.0 0.003106 321.51437 321.72278
307.0 0.003257 321.38870 321.62033
302.0 0.003311 321.26489 321.63263
305.0 0.003279 321.14316 321.54877
325.0 0.003077 321.02338 321.47504
312.0 0.003205 320.90558 321.41550
327.0 0.003058 320.78961 321.37991
309.0 0.003236 320.67551 321.43253
334.0 0.002994 320.56335 321.54694
297.0 0.003367 320.45282 321.87375
303.0 0.003300 320.34427 322.59610
294.0 0.003401 320.23749 323.94312
318.0 0.003145 320.13242 326.08170
339.0 0.002950 320.02896 328.94867
357.0 0.002801 319.92743 332.09354
357.0 0.002801 319.82736 334.68829
349.0 0.002865 319.72897 335.86868
353.0 0.002833 319.63229 335.39133
373.0 0.002681 319.53693 333.85516
354.0 0.002825 319.44327 331.96283
299.0 0.003344 319.35123 330.01059
329.0 0.003040 319.26053 328.01074
315.0 0.003175 319.17136 326.01636
351.0 0.002849 319.08365 324.20319
304.0 0.003289 318.99731 322.71652
304.0 0.003289 318.91235 321.61334
312.0 0.003205 318.82867 320.87421
295.0 0.003390 318.74649 320.42487
322.0 0.003106 318.66541 320.17599
353.0 0.002833 318.58560 320.05618
323.0 0.003096 318.50714 320.02240
316.0 0.003165 318.42984 320.06168
310.0 0.003226 318.35364 320.19620
349.0 0.002865 318.27859 320.50574
302.0 0.003311 318.20465 321.16534
353.0 0.002833 318.13177 322.47595
340.0 0.002941 318.06003 324.82999
327.0 0.003058 317.98926 328.54147
298.0 0.003356 317.91946 333.56021
345.0 0.002899 317.85062 339.18573
302.0 0.003311 317.78278 344.02817
328.0 0.003049 317.71585 346.51575
324.0 0.003086 317.64966 346.03723
319.0 0.003135 317.58432 343.62228
337.0 0.002967 317.51987 340.81412
355.0 0.002817 317.45618 338.53412
308.0 0.003247 317.39316 337.22690
368.0 0.002717 317.33090 337.73779
325.0 0.003077 317.26935 341.85193
337.0 0.002967 317.20840 351.80023
393.0 0.002545 317.14813 369.10788
416.0 0.002404 317.08847 393.69617
414.0 0.002415 317.02927 420.28201
389.0 0.002571 316.97073 442.01208
448.0 0.002232 316.91257 451.14557
437.0 0.002288 316.85489 445.54565
448.0 0.002232 316.79773 431.11139
454.0 0.002203 316.74094 414.38730
385.0 0.002597 316.68457 398.54968
426.0 0.002347 316.62851 383.14426
414.0 0.002415 316.57285 367.68268
364.0 0.002747 316.51724 353.30530
373.0 0.002681 316.46210 341.43085
338.0 0.002959 316.40720 332.73621
309.0 0.003236 316.35251 327.08752
303.0 0.003300 316.29785 323.78827
320.0 0.003125 316.24341 321.99362
284.0 0.00352 316.18915 321.01535
319.0 0.003135 316.13489 320.46072
341.0 0.002933 316.08072 320.10779
364.0 0.002747 316.02652 319.86313
319.0 0.003135 315.97253 319.69025
324.0 0.003086 315.91830 319.56665
334.0 0.002994 315.86411 319.74194
311.0 0.003215 315.80975 319.71750
318.0 0.003145 315.75525 319.73004
326.0 0.003067 315.70071 319.77884
314.0 0.003185 315.64600 319.86383
311.0 0.003215 315.59103 320.08087
328.0 0.003049 315.53589 320.24658
350.0 0.002857 315.48038 320.45602
282.0 0.00355 315.42480 320.71436
332.0 0.003012 315.36868 321.02866
347.0 0.002882 315.31244 321.40762
344.0 0.002907 315.25571 321.86319
333.0 0.003003 315.19858 322.41049
317.0 0.003155 315.14105 323.06918
317.0 0.003155 315.08307 323.86526
373.0 0.002681 315.02481 324.83347
328.0 0.003049 314.96591 326.02170
345.0 0.002899 314.90643 327.50070
316.0 0.003165 314.84641 329.39194
338.0 0.002959 314.78595 331.94882
353.0 0.002833 314.72485 335.75989
366.0 0.002732 314.66321 342.34137
340.0 0.002941 314.60089 355.06555
387.0 0.002584 314.53781 379.57678
444.0 0.002252 314.47415 424.88855
523.0 0.001912 314.40973 501.78061
665.0 0.001504 314.34457 611.58960
745.0 0.001342 314.27863 747.06702
872.0 0.001147 314.21204 881.89264
947.0 0.001056 314.14453 976.42450
1003.0 0.000997 314.07623 998.64673
1013.0 0.000987 314.00711 951.35260
1005.0 0.000995 313.93713 870.93909
807.0 0.001239 313.86627 788.49139
673.0 0.001486 313.79443 712.39166
624.0 0.001603 313.72189 637.27789
562.0 0.001779 313.64819 561.65204
489.0 0.002045 313.57361 491.85464
450.0 0.002222 313.49789 435.00912
401.0 0.002494 313.42139 394.11685
341.0 0.002933 313.34384 368.20544
350.0 0.002857 313.26514 353.84814
322.0 0.003106 313.18552 347.09668
364.0 0.002747 313.10455 345.43927
337.0 0.002967 313.02280 348.33679
347.0 0.002882 312.93982 357.37814
367.0 0.002725 312.85571 376.03909
407.0 0.002457 312.77045 407.52664
455.0 0.002198 312.68399 453.31689
510.0 0.001961 312.59653 509.31848
571.0 0.001751 312.50766 564.27466
566.0 0.001767 312.41763 601.68695
567.0 0.001764 312.32632 608.76447
656.0 0.001524 312.23407 588.03839
620.0 0.001613 312.14038 554.81567
566.0 0.001767 312.04550 521.49554
452.0 0.002212 311.94916 491.17841
469.0 0.002132 311.85178 461.40897
436.0 0.002294 311.75296 431.41080
418.0 0.002392 311.65283 403.94635
377.0 0.002653 311.55145 381.95163
367.0 0.002725 311.44858 366.81488
380.0 0.002632 311.34448 358.30624
376.0 0.002660 311.23904 355.16681
355.0 0.002817 311.13217 356.03729
377.0 0.002653 311.02396 360.26059
414.0 0.002415 310.91428 368.49634
366.0 0.002732 310.80322 383.43762
412.0 0.002427 310.69086 410.93503
456.0 0.002193 310.57706 461.33389
556.0 0.001799 310.46182 550.10107
693.0 0.001443 310.34518 695.66290
983.0 0.001017 310.22708 911.87488
1310.0 0.000763 310.10742 1195.40894
1603.0 0.000624 309.98645 1514.32617
1681.0 0.000595 309.86398 1806.96082
1846.0 0.000542 309.74011 1992.79810
1949.0 0.000513 309.61478 2010.11670
1922.0 0.000520 309.48792 1875.34729
1794.0 0.000557 309.35968 1670.35718
1532.0 0.000653 309.22986 1463.48596
1231.0 0.000812 309.09851 1274.12988
978.0 0.001022 308.96567 1091.39368
889.0 0.001125 308.83151 908.76343
790.0 0.001266 308.69580 740.19037
592.0 0.001689 308.55850 601.13782
467.0 0.002141 308.41977 498.86581
414.0 0.002415 308.27957 432.30585
399.0 0.002506 308.13788 393.04132
331.0 0.003021 307.99457 371.95978
333.0 0.003003 307.84991 361.63660
327.0 0.003058 307.70370 358.24509
337.0 0.002967 307.55609 361.12491
357.0 0.002801 307.40683 372.02023
408.0 0.002451 307.25620 393.39108
430.0 0.002326 307.10400 426.71808
548.0 0.001825 306.95038 469.70764
524.0 0.001908 306.79523 514.53668
545.0 0.001835 306.63858 548.49982
536.0 0.001866 306.48041 559.74292
557.0 0.001795 306.32083 547.42273
561.0 0.001783 306.15985 523.25598
522.0 0.001916 305.99731 500.25784
470.0 0.002128 305.83319 485.24399
475.0 0.002105 305.66785 481.00055
504.0 0.001984 305.50110 489.45370
516.0 0.001938 305.33273 513.89807
585.0 0.001709 305.16287 553.53485
555.0 0.001802 304.99170 598.93848
554.0 0.001805 304.81906 633.10144
599.0 0.001669 304.64514 639.36902
637.0 0.001570 304.46957 616.00299
594.0 0.001684 304.29266 577.37891
585.0 0.001709 304.11453 538.23511
478.0 0.002092 303.93488 503.39691
465.0 0.002151 303.75394 470.30072
447.0 0.002237 303.57156 436.75253
407.0 0.002457 303.38776 403.46280
387.0 0.002584 303.20270 374.50891
352.0 0.002841 303.01639 352.19211
334.0 0.002994 302.82870 336.77863
292.0 0.003425 302.63977 327.18707
326.0 0.003067 302.44943 321.85471
338.0 0.002959 302.25781 318.70419
329.0 0.003040 302.06491 316.82471
295.0 0.003390 301.87082 315.41891
324.0 0.003086 301.67548 314.54657
313.0 0.003195 301.47885 313.89993
343.0 0.002915 301.28094 312.03561
328.0 0.003049 301.08203 311.76257
290.0 0.003448 300.88171 311.55960
302.0 0.003311 300.68042 311.56046
288.0 0.003472 300.47787 311.70334
325.0 0.003077 300.27414 311.47644
329.0 0.003040 300.06937 311.97818
320.0 0.003125 299.86346 312.70490
348.0 0.002874 299.65646 313.74207
326.0 0.003067 299.44818 315.27502
330.0 0.003030 299.23904 317.73062
317.0 0.003155 299.02890 322.04025
323.0 0.003096 298.81769 330.00854
340.0 0.002941 298.60535 344.58475
426.0 0.002347 298.39218 369.61545
436.0 0.002294 298.17773 408.73004
506.0 0.001976 297.96271 463.42471
539.0 0.001855 297.74655 531.05731
574.0 0.001742 297.52954 603.54895
690.0 0.001449 297.31161 669.02814
710.0 0.001408 297.09268 718.80096
783.0 0.001277 296.87296 751.14825
772.0 0.001295 296.65253 763.19006
740.0 0.001351 296.43115 748.08362
714.0 0.001401 296.20895 705.93585
722.0 0.001385 295.98605 648.33948
619.0 0.001616 295.76242 589.17822
567.0 0.001764 295.53793 535.99054
462.0 0.002165 295.31284 488.65347
450.0 0.002222 295.08691 445.24600
433.0 0.002309 294.86044 406.80167
386.0 0.002591 294.63333 375.49472
370.0 0.002703 294.40549 352.31552
372.0 0.002688 294.17709 336.84488
331.0 0.003021 293.94803 327.49249
313.0 0.003195 293.71835 322.69162
350.0 0.002857 293.48831 320.68207
307.0 0.003257 293.25763 320.39618
315.0 0.003175 293.02661 321.33054
285.0 0.00351 292.79495 323.41461
326.0 0.003067 292.56290 327.26129
333.0 0.003003 292.33047 334.11288
353.0 0.002833 292.09766 346.57086
356.0 0.002809 291.86441 369.14218
392.0 0.002551 291.63077 408.56870
509.0 0.001965 291.39676 473.16809
591.0 0.001692 291.16263 571.57367
729.0 0.001372 290.92813 707.37311
914.0 0.001094 290.69333 874.04883
1058.0 0.000945 290.45828 1051.68945
1149.0 0.000870 290.22314 1209.95166
1267.0 0.000789 289.98773 1311.32690
1255.0 0.000797 289.75208 1322.89319
1301.0 0.000769 289.51633 1247.67712
1232.0 0.000812 289.28067 1127.15625
1021.0 0.000979 289.04471 1002.44415
823.0 0.001215 288.80872 890.92426
744.0 0.001344 288.57272 787.89740
625.0 0.001600 288.33667 684.66187
641.0 0.001560 288.10074 584.24359
537.0 0.001862 287.86487 496.06796
426.0 0.002347 287.62897 426.75110
344.0 0.002907 287.39316 377.81580
335.0 0.002985 287.15753 346.54135
308.0 0.003247 286.92191 328.03030
289.0 0.003460 286.68649 317.40295
294.0 0.003401 286.45135 311.07928
274.0 0.00365 286.21640 306.93790
292.0 0.003425 285.98178 303.90997
320.0 0.003125 285.74716 301.50891
292.0 0.003425 285.51309 299.51349
309.0 0.003236 285.27924 297.81296
276.0 0.00362 285.04572 296.33972
261.0 0.00383 284.81265 295.04736
299.0 0.003344 284.57990 293.90222
273.0 0.00366 284.34760 292.87799
309.0 0.003236 284.11569 292.09119
298.0 0.003356 283.88434 291.25574
282.0 0.00355 283.65353 290.49106
262.0 0.00382 283.42294 289.78665
267.0 0.00375 283.19305 289.13519
268.0 0.00373 282.96381 288.52762
294.0 0.003401 282.73526 287.85953
302.0 0.003311 282.50711 287.33112
293.0 0.003413 282.27960 286.83270
291.0 0.003436 282.05283 286.36081
294.0 0.003401 281.82681 285.72818
290.0 0.003448 281.60144 285.24796
268.0 0.00373 281.37689 284.84610
266.0 0.00376 281.15292 284.49033
270.0 0.00370 280.92993 284.12106
279.0 0.00358 280.70764 283.69556
277.0 0.00361 280.48618 283.35471
295.0 0.003390 280.26581 283.02563
298.0 0.003356 280.04602 282.70691
266.0 0.00376 279.82724 282.40964
295.0 0.003390 279.60947 282.11090
288.0 0.003472 279.39255 281.82071
291.0 0.003436 279.17664 281.53909
307.0 0.003257 278.96176 281.26541
330.0 0.003030 278.74777 281.00223
269.0 0.00372 278.53497 280.74390
283.0 0.00353 278.32321 280.49271
259.0 0.00386 278.11240 280.24878
284.0 0.00352 277.90280 280.01196
264.0 0.00379 277.69440 279.78333
273.0 0.00366 277.48706 279.56104
276.0 0.00362 277.28091 279.34601
276.0 0.00362 277.07596 279.13858
253.0 0.00395 276.87225 278.93903
285.0 0.00351 276.66986 278.74783
276.0 0.00362 276.46851 278.56522
278.0 0.00360 276.26865 278.26077
271.0 0.00369 276.06982 278.10168
275.0 0.00364 275.87259 277.95370
249.0 0.00402 275.67651 277.24680
296.0 0.003378 275.48190 277.14178
270.0 0.00370 275.28857 277.00098
280.0 0.00357 275.09674 276.92871
271.0 0.00369 274.90625 276.87552
262.0 0.00382 274.71713 276.62680
294.0 0.003401 274.52954 276.62979
251.0 0.00398 274.34351 276.66464
307.0 0.003257 274.15878 276.73831
289.0 0.003460 273.97565 276.85965
286.0 0.003497 273.79407 277.04047
255.0 0.00392 273.61389 277.29761
289.0 0.003460 273.43524 277.65625
268.0 0.00373 273.25836 278.16293
299.0 0.003344 273.08292 278.91638
293.0 0.003413 272.90912 280.14566
294.0 0.003401 272.73694 282.36163
283.0 0.00353 272.56638 286.58740
280.0 0.00357 272.39752 294.55841
296.0 0.003378 272.23019 308.62244
328.0 0.003049 272.06467 331.00833
365.0 0.002740 271.90073 362.37299
413.0 0.002421 271.73862 400.14673
437.0 0.002288 271.57813 437.47354
435.0 0.002299 271.41931 463.96341
437.0 0.002288 271.26227 470.69019
471.0 0.002123 271.10712 458.10791
480.0 0.002083 270.95364 435.81516
405.0 0.002469 270.80191 413.30118
416.0 0.002404 270.65204 394.46829
344.0 0.002907 270.50385 378.03925
360.0 0.002778 270.35760 362.04764
360.0 0.002778 270.21313 345.83621
360.0 0.002778 270.07050 332.42682
307.0 0.003257 269.92969 323.88617
322.0 0.003106 269.79065 320.54166
281.0 0.00356 269.65356 320.74045
307.0 0.003257 269.51834 321.52963
330.0 0.003030 269.38495 319.60071
258.0 0.00388 269.25351 314.73306
297.0 0.003367 269.12393 308.71259
315.0 0.003175 268.99634 303.26849
279.0 0.00358 268.87061 298.97614
276.0 0.00362 268.74661 295.33301
306.0 0.003268 268.62482 291.65500
275.0 0.00364 268.50467 287.92862
293.0 0.003413 268.38666 284.52829
299.0 0.003344 268.27060 281.67917
291.0 0.003436 268.15631 279.35193
302.0 0.003311 268.04416 277.43329
265.0 0.00377 267.93381 275.89374
297.0 0.003367 267.82553 274.72934
281.0 0.00356 267.71918 273.88354
304.0 0.003289 267.61484 273.24268
313.0 0.003195 267.51236 272.67813
269.0 0.00372 267.41183 272.12711
274.0 0.00365 267.31335 271.60751
254.0 0.00394 267.21695 271.15735
268.0 0.00373 267.12234 270.80173
285.0 0.00351 267.02988 270.54535
252.0 0.00397 266.93927 270.37634
256.0 0.00391 266.85068 270.27536
288.0 0.003472 266.76404 270.22372
261.0 0.00383 266.67938 270.20886
281.0 0.00356 266.59674 270.22388
257.0 0.00389 266.51608 270.26602
299.0 0.003344 266.43735 270.33521
265.0 0.00377 266.36072 270.43274
252.0 0.00397 266.28595 270.56085
272.0 0.00368 266.21313 270.72266
273.0 0.00366 266.14227 270.92184
306.0 0.003268 266.07352 271.16336
255.0 0.00392 266.00662 271.45343
267.0 0.00375 265.94162 271.79919
265.0 0.00377 265.87866 272.21045
272.0 0.00368 265.81766 272.69876
279.0 0.00358 265.75854 273.27896
268.0 0.00373 265.70151 273.96997
276.0 0.00362 265.64624 274.79633
266.0 0.00376 265.59299 275.78964
252.0 0.00397 265.54169 276.99237
287.0 0.003484 265.49225 278.46396
306.0 0.003268 265.44473 280.29715
288.0 0.003472 265.39914 282.66287
321.0 0.003115 265.35544 285.92944
290.0 0.003448 265.31360 290.94809
296.0 0.003378 265.27362 299.59915
286.0 0.003497 265.23563 315.55487
318.0 0.003145 265.19946 344.96408
361.0 0.002770 265.16510 396.15213
423.0 0.002364 265.13260 476.39981
578.0 0.001730 265.10196 587.33557
723.0 0.001383 265.07309 719.35370
749.0 0.001335 265.04611 848.19147
812.0 0.001232 265.02090 937.08533
832.0 0.001202 264.99744 954.48602
935.0 0.001070 264.97592 904.87012
954.0 0.001048 264.95593 824.23163
833.0 0.001200 264.93781 745.70221
685.0 0.001460 264.92148 682.48645
598.0 0.001672 264.90686 628.27826
529.0 0.001890 264.89389 570.52484
506.0 0.001976 264.88278 506.73401
533.0 0.001876 264.87338 443.87158
430.0 0.002326 264.86554 389.43430
379.0 0.002639 264.85950 347.62091
320.0 0.003125 264.85501 318.85855
294.0 0.003401 264.85220 300.90131
289.0 0.003460 264.85098 290.40942
287.0 0.003484 264.85144 284.63107
285.0 0.00351 264.85345 281.01205
277.0 0.00361 264.85703 278.61676
284.0 0.00352 264.86221 276.86969
262.0 0.00382 264.86893 275.50198
299.0 0.003344 264.87720 274.38950
270.0 0.00370 264.88684 273.56052
253.0 0.00395 264.89816 272.78928
290.0 0.003448 264.91095 272.13678
303.0 0.003300 264.92511 271.58350
275.0 0.00364 264.94092 271.11154
262.0 0.00382 264.95798 270.70819
303.0 0.003300 264.97644 270.36295
287.0 0.003484 264.99640 270.06729
272.0 0.00368 265.01767 269.81613
280.0 0.00357 265.04044 269.60110
307.0 0.003257 265.06442 269.43878
273.0 0.00366 265.08975 269.30316
293.0 0.003413 265.11639 269.17896
253.0 0.00395 265.14435 269.07913
254.0 0.00394 265.17346 269.00238
281.0 0.00356 265.20401 268.94595
232.0 0.00431 265.23560 268.91708
260.0 0.00385 265.26859 268.90637
305.0 0.003279 265.30252 268.90869
297.0 0.003367 265.33780 268.92972
282.0 0.00355 265.37418 268.96973
275.0 0.00364 265.41168 269.02942
267.0 0.00375 265.45023 269.10968
265.0 0.00377 265.48996 269.21222
269.0 0.00372 265.53067 269.33899
255.0 0.00392 265.57245 269.49365
282.0 0.00355 265.61530 269.68195
276.0 0.00362 265.65909 269.91461
250.0 0.00400 265.70383 270.21481
280.0 0.00357 265.74963 270.83548
269.0 0.00372 265.79630 272.04617
268.0 0.00373 265.84387 273.04138
274.0 0.00365 265.89233 274.57538
270.0 0.00370 265.94168 276.81964
303.0 0.003300 265.99185 279.82031
288.0 0.003472 266.04291 283.46005
298.0 0.003356 266.09473 287.30237
274.0 0.00365 266.14728 290.23184
270.0 0.00370 266.20053 291.86646
312.0 0.003205 266.25467 292.53122
309.0 0.003236 266.30945 293.61697
313.0 0.003195 266.36493 296.68088
313.0 0.003195 266.42096 303.36386
311.0 0.003215 266.47781 314.29538
358.0 0.002793 266.53510 330.72720
340.0 0.002941 266.59317 351.04654
368.0 0.002717 266.65161 372.36105
402.0 0.002488 266.71078 389.82416
356.0 0.002809 266.77036 398.58200
343.0 0.002915 266.83051 399.17175
374.0 0.002674 266.89102 398.07352
408.0 0.002451 266.95215 404.25339
428.0 0.002336 267.01349 424.45227
475.0 0.002105 267.07547 460.59106
460.0 0.002174 267.13773 508.57281
537.0 0.001862 267.20035 558.96960
607.0 0.001647 267.26328 597.98969
616.0 0.001623 267.32657 610.63184
626.0 0.001597 267.39017 592.01532
685.0 0.001460 267.45395 553.96368
649.0 0.001541 267.51807 513.32782
525.0 0.001905 267.58240 479.87537
465.0 0.002151 267.64679 454.54016
385.0 0.002597 267.71155 431.68646
403.0 0.002481 267.77634 406.30542
428.0 0.002336 267.84122 379.08344
398.0 0.002513 267.90634 353.87775
342.0 0.002924 267.97131 333.99286
350.0 0.002857 268.03659 321.35858
321.0 0.003115 268.10184 316.16000
293.0 0.003413 268.16702 317.09268
326.0 0.003067 268.23227 321.81299
325.0 0.003077 268.29739 327.40070
343.0 0.002915 268.36261 331.01938
312.0 0.003205 268.42764 331.08975
353.0 0.002833 268.49261 328.08640
357.0 0.002801 268.55743 323.87128
314.0 0.003185 268.62213 320.18402
334.0 0.002994 268.68661 317.73129
334.0 0.002994 268.75092 316.26511
324.0 0.003086 268.81522 315.29990
319.0 0.003135 268.87900 314.88199
310.0 0.003226 268.94269 315.88507
395.0 0.002532 269.00595 320.06293
341.0 0.002933 269.06909 330.47711
355.0 0.002817 269.13181 352.37915
381.0 0.002625 269.19412 393.86227
391.0 0.002558 269.25629 465.11447
544.0 0.001838 269.31787 575.03137
759.0 0.001318 269.37915 725.12793
966.0 0.001035 269.43994 902.98737
1051.0 0.000951 269.50046 1078.03381
1109.0 0.000902 269.56021 1204.21924
1291.0 0.000775 269.61972 1240.11096
1289.0 0.000776 269.67874 1184.29700
1340.0 0.000746 269.73706 1078.82227
1186.0 0.000843 269.79498 970.83466
973.0 0.001028 269.85226 885.23157
826.0 0.001211 269.90909 821.05066
749.0 0.001335 269.96509 762.10504
760.0 0.001316 270.02066 696.23602
715.0 0.001399 270.07553 625.95166
655.0 0.001527 270.12982 558.91718
516.0 0.001938 270.18338 499.54678
475.0 0.002105 270.23621 449.20074
406.0 0.002463 270.28836 408.82977
373.0 0.002681 270.33984 379.12619
348.0 0.002874 270.39050 358.88995
353.0 0.002833 270.44037 345.65732
309.0 0.003236 270.48953 336.22076
316.0 0.003165 270.53790 327.83789
289.0 0.003460 270.58542 319.39078
289.0 0.003460 270.63214 311.57480
290.0 0.003448 270.67807 305.19113
305.0 0.003279 270.72305 301.08624
299.0 0.003344 270.76721 300.10297
308.0 0.003247 270.81039 303.25348
307.0 0.003257 270.85275 311.74091
324.0 0.003086 270.89423 326.75143
384.0 0.002604 270.93475 348.55185
399.0 0.002506 270.97437 374.81885
402.0 0.002488 271.01285 401.69635
464.0 0.002155 271.05060 421.85449
421.0 0.002375 271.08719 428.24591
428.0 0.002336 271.12289 419.84250
398.0 0.002513 271.15744 403.00488
413.0 0.002421 271.19110 385.24396
364.0 0.002747 271.22369 370.84058
370.0 0.002703 271.25519 359.85544
349.0 0.002865 271.28555 349.59729
296.0 0.003378 271.31506 337.76300
336.0 0.002976 271.34332 324.65897
319.0 0.003135 271.37057 311.96585
336.0 0.002976 271.39667 301.12256
285.0 0.00351 271.42166 292.85400
289.0 0.003460 271.44556 287.16754
286.0 0.003497 271.46832 283.56836
294.0 0.003401 271.48993 281.42926
281.0 0.00356 271.51038 280.19370
302.0 0.003311 271.52963 279.45444
226.0 0.00442 271.54770 278.98679
288.0 0.003472 271.56470 278.67749
270.0 0.00370 271.58047 278.46829
273.0 0.00366 271.59503 278.34460
248.0 0.00403 271.60840 278.30157
260.0 0.00385 271.62067 278.32977
275.0 0.00364 271.63159 278.43021
269.0 0.00372 271.64130 278.60812
287.0 0.003484 271.64975 278.87256
254.0 0.00394 271.65707 279.23978
262.0 0.00382 271.66312 279.73801
286.0 0.003497 271.66788 280.42374
268.0 0.00373 271.67151 281.41962
243.0 0.00412 271.67377 282.99542
282.0 0.00355 271.67484 285.70010
283.0 0.00353 271.67465 290.32025
254.0 0.00394 271.67319 298.20532
313.0 0.003195 271.67044 312.14716
322.0 0.003106 271.66641 333.06741
347.0 0.002882 271.66122 361.14694
396.0 0.002525 271.65466 394.23508
423.0 0.002364 271.64679 427.16132
371.0 0.002695 271.63776 452.25455
434.0 0.002304 271.62741 463.37811
482.0 0.002075 271.61572 461.01349
429.0 0.002331 271.60291 452.03500
428.0 0.002336 271.58868 442.11533
430.0 0.002326 271.57315 432.46609
377.0 0.002653 271.55658 420.85385
388.0 0.002577 271.53848 405.27701
378.0 0.002646 271.51923 386.25565
350.0 0.002857 271.49863 366.65347
309.0 0.003236 271.47678 349.26343
308.0 0.003247 271.45367 335.41766
318.0 0.003145 271.42926 325.29614
331.0 0.003021 271.40369 319.37616
291.0 0.003436 271.37671 318.98001
314.0 0.003185 271.34860 325.72736
358.0 0.002793 271.31921 340.72653
381.0 0.002625 271.28842 363.57401
413.0 0.002421 271.25653 391.39648
423.0 0.002364 271.22327 418.52112
440.0 0.002273 271.18893 436.39572
415.0 0.002410 271.15326 438.58163
440.0 0.002273 271.11633 426.40610
461.0 0.002169 271.07822 407.08502
432.0 0.002315 271.03897 388.22134
350.0 0.002857 270.99841 373.69754
366.0 0.002732 270.95673 362.71091
364.0 0.002747 270.91379 352.08987
321.0 0.003115 270.86966 339.62677
327.0 0.003058 270.82431 325.63501
346.0 0.002890 270.77780 312.00003
321.0 0.003115 270.73010 300.35333
319.0 0.003135 270.68134 291.41296
268.0 0.00373 270.63135 285.21490
275.0 0.00364 270.58023 281.23767
279.0 0.00358 270.52805 278.81750
267.0 0.00375 270.47455 277.35138
273.0 0.00366 270.42004 276.41876
294.0 0.003401 270.36444 275.77231
264.0 0.00379 270.30777 275.28421
266.0 0.00376 270.24994 274.89276
283.0 0.00353 270.19107 274.56818
282.0 0.00355 270.13110 274.29468
258.0 0.00388 270.07016 274.06265
288.0 0.003472 270.00806 273.86539
292.0 0.003425 269.94507 273.69791
263.0 0.00380 269.88095 273.55667
285.0 0.00351 269.81586 273.43881
268.0 0.00373 269.74976 273.34244
307.0 0.003257 269.68277 273.26614
278.0 0.00360 269.61465 273.20908
270.0 0.00370 269.54572 273.17078
272.0 0.00368 269.47565 273.15137
262.0 0.00382 269.40482 273.15100
256.0 0.00391 269.33307 273.17062
259.0 0.00386 269.26038 273.21140
246.0 0.00407 269.18671 273.27487
231.0 0.00433 269.11227 273.36328
281.0 0.00356 269.03696 273.47931
258.0 0.00388 268.96082 273.62643
272.0 0.00368 268.88370 273.80865
229.0 0.00437 268.80597 274.03159
314.0 0.003185 268.72723 274.30170
273.0 0.00366 268.64777 274.62698
270.0 0.00370 268.56775 274.87589
252.0 0.00397 268.48672 275.34943
282.0 0.00355 268.40506 275.91785
290.0 0.003448 268.32266 276.60297
294.0 0.003401 268.23947 277.38684
282.0 0.00355 268.15567 278.41013
282.0 0.00355 268.07123 279.64462
288.0 0.003472 267.98602 281.54871
293.0 0.003413 267.90033 283.96298
302.0 0.003311 267.81384 287.68579
298.0 0.003356 267.72693 293.83752
296.0 0.003378 267.63922 304.25824
293.0 0.003413 267.55115 321.62805
331.0 0.003021 267.46234 349.08990
377.0 0.002653 267.37302 389.17038
428.0 0.002336 267.28326 442.88931
521.0 0.001919 267.19290 507.92548
596.0 0.001678 267.10220 577.23053
578.0 0.001730 267.01086 639.81976
655.0 0.001527 266.91922 686.30823
694.0 0.001441 266.82718 712.70612
737.0 0.001357 266.73450 715.85291
615.0 0.001626 266.64166 696.35217
660.0 0.001515 266.54834 662.90375
635.0 0.001575 266.45465 625.30865
607.0 0.001647 266.36066 587.89056
547.0 0.001828 266.26636 551.13098
509.0 0.001965 266.17175 514.32458
473.0 0.002114 266.07675 476.04880
452.0 0.002212 265.98169 436.90823
384.0 0.002604 265.88623 400.06491
364.0 0.002747 265.79071 368.30170
349.0 0.002865 265.69479 342.55362
325.0 0.003077 265.59882 322.48590
315.0 0.003175 265.50269 307.38727
315.0 0.003175 265.40631 296.42609
283.0 0.00353 265.30994 288.67831
278.0 0.00360 265.21323 283.29358
299.0 0.003344 265.11664 279.58600
264.0 0.00379 265.01987 277.02759
294.0 0.003401 264.92313 275.22726
260.0 0.00385 264.82635 273.91003
258.0 0.00388 264.72949 272.89688
274.0 0.00365 264.63269 272.08005
305.0 0.003279 264.53598 271.39789
264.0 0.00379 264.43924 270.81509
311.0 0.003215 264.34256 270.31055
275.0 0.00364 264.24600 269.87045
273.0 0.00366 264.14948 269.48495
267.0 0.00375 264.05316 269.14667
269.0 0.00372 263.95691 268.85028
259.0 0.00386 263.86093 268.59100
263.0 0.00380 263.76501 268.76932
276.0 0.00362 263.66940 268.58676
284.0 0.00352 263.57385 268.43472
291.0 0.003436 263.47870 268.31219
247.0 0.00405 263.38379 268.21890
266.0 0.00376 263.28903 268.15533
252.0 0.00397 263.19470 268.15616
270.0 0.00370 263.10056 268.30991
286.0 0.003497 263.00687 268.34946
252.0 0.00397 262.91345 268.42773
254.0 0.00394 262.82047 268.54944
269.0 0.00372 262.72772 268.72067
268.0 0.00373 262.63553 268.94937
261.0 0.00383 262.54373 269.25879
262.0 0.00382 262.45239 269.63690
275.0 0.00364 262.36142 270.11469
255.0 0.00392 262.27094 270.71854
276.0 0.00362 262.18097 271.48618
282.0 0.00355 262.09161 272.49011
298.0 0.003356 262.00262 273.87589
274.0 0.00365 261.91425 275.95560
281.0 0.00356 261.82648 279.37320
312.0 0.003205 261.73929 285.33841
304.0 0.003289 261.65271 295.82947
354.0 0.002825 261.56659 313.54254
374.0 0.002674 261.48129 341.28961
428.0 0.002336 261.39651 380.68997
443.0 0.002257 261.31247 430.49963
497.0 0.002012 261.22903 485.14838
525.0 0.001905 261.14630 533.93811
524.0 0.001908 261.06436 563.34314
554.0 0.001805 260.98309 563.62372
601.0 0.001664 260.90250 538.76605
566.0 0.001767 260.82269 503.43304
554.0 0.001805 260.74374 470.08612
434.0 0.002304 260.66553 444.85474
379.0 0.002639 260.58817 426.83395
359.0 0.002786 260.51160 410.51068
411.0 0.002433 260.43579 390.72867
384.0 0.002604 260.36081 367.06262
396.0 0.002525 260.28671 342.77112
332.0 0.003012 260.21356 320.87003
320.0 0.003125 260.14127 303.25247
292.0 0.003425 260.06982 290.44638
259.0 0.00386 259.99927 281.96375
283.0 0.00353 259.92975 276.73318
258.0 0.00388 259.86105 273.65143
289.0 0.003460 259.79333 271.84955
280.0 0.00357 259.72665 270.76358
266.0 0.00376 259.66089 270.07254
302.0 0.003311 259.59613 269.61121
277.0 0.00361 259.53232 269.30377
255.0 0.00392 259.46951 269.12241
273.0 0.00366 259.40775 269.06152
265.0 0.00377 259.34702 269.12137
260.0 0.00385 259.28726 269.30356
276.0 0.00362 259.22861 269.61050
292.0 0.003425 259.17102 270.04785
255.0 0.00392 259.11453 270.62778
301.0 0.003322 259.05902 271.37372
282.0 0.00355 259.00467 272.31870
253.0 0.00395 258.95135 273.50900
280.0 0.00357 258.89920 275.01440
275.0 0.00364 258.84827 276.95508
281.0 0.00356 258.79831 279.57108
322.0 0.003106 258.74933 283.37143
291.0 0.003436 258.70169 289.40811
320.0 0.003125 258.65521 299.69055
331.0 0.003021 258.60980 317.59406
351.0 0.002849 258.56558 347.92218
353.0 0.002833 258.52252 396.08081
522.0 0.001916 258.48059 465.98309
622.0 0.001608 258.43979 557.08600
650.0 0.001538 258.40030 661.50470
724.0 0.001381 258.36194 762.37372
725.0 0.001379 258.32483 834.90045
769.0 0.001300 258.28888 856.64862
832.0 0.001202 258.25403 827.22900
805.0 0.001242 258.22040 769.54565
775.0 0.001290 258.18811 710.21033
638.0 0.001567 258.15692 664.47852
573.0 0.001745 258.12701 633.59802
530.0 0.001887 258.09827 607.38306
506.0 0.001976 258.07074 573.08990
524.0 0.001908 258.04456 526.78186
535.0 0.001869 258.01947 474.57928
477.0 0.002096 257.99567 424.78479
361.0 0.002770 257.97296 382.99948
323.0 0.003096 257.95166 351.18329
296.0 0.003378 257.93152 328.29416
323.0 0.003096 257.91260 311.97708
298.0 0.003356 257.89493 300.05527
288.0 0.003472 257.87845 291.12430
273.0 0.00366 257.86322 284.34326
287.0 0.003484 257.84924 279.20840
295.0 0.003390 257.83643 275.41431
295.0 0.003390 257.82495 272.67514
278.0 0.00360 257.81467 270.70236
267.0 0.00375 257.80554 269.23141
276.0 0.00362 257.79776 268.06335
279.0 0.00358 257.79105 267.08517
267.0 0.00375 257.78561 266.24802
269.0 0.00372 257.78143 265.53091
288.0 0.003472 257.77841 264.92084
283.0 0.00353 257.77658 264.40417
275.0 0.00364 257.77609 263.96567
279.0 0.00358 257.77667 263.39023
290.0 0.003448 257.77844 263.07288
278.0 0.00360 257.78149 262.79953
281.0 0.00356 257.78564 262.56345
246.0 0.00407 257.79099 262.36014
252.0 0.00397 257.79758 262.18597
263.0 0.00380 257.80530 262.03769
255.0 0.00392 257.81415 261.83701
250.0 0.00400 257.82422 261.73505
286.0 0.003497 257.83536 261.65240
262.0 0.00382 257.84760 261.58774
259.0 0.00386 257.86111 261.54025
268.0 0.00373 257.87570 261.50919
264.0 0.00379 257.89148 261.49387
244.0 0.00410 257.90820 261.49457
271.0 0.00369 257.92624 261.51114
269.0 0.00372 257.94513 261.54367
250.0 0.00400 257.96524 261.59290
270.0 0.00370 257.98636 261.65924
260.0 0.00385 258.00867 261.92993
264.0 0.00379 258.03192 262.03922
261.0 0.00383 258.05630 262.16974
267.0 0.00375 258.08167 262.32379
260.0 0.00385 258.10806 262.50385
289.0 0.003460 258.13550 262.71332
248.0 0.00403 258.16394 262.95602
276.0 0.00362 258.19345 263.23700
282.0 0.00355 258.22375 263.63412
293.0 0.003413 258.25516 264.01389
265.0 0.00377 258.28748 264.45593
268.0 0.00373 258.32080 264.97327
294.0 0.003401 258.35504 265.58313
279.0 0.00358 258.39011 266.30981
259.0 0.00386 258.42621 267.20279
266.0 0.00376 258.46307 268.31561
243.0 0.00412 258.50092 269.80389
257.0 0.00389 258.53958 271.96805
283.0 0.00353 258.57913 275.39035
273.0 0.00366 258.61954 281.09537
257.0 0.00389 258.66071 290.64557
303.0 0.003300 258.70267 306.00702
308.0 0.003247 258.74557 329.03659
394.0 0.002538 258.78912 360.53729
427.0 0.002342 258.83350 399.24503
395.0 0.002532 258.87863 440.99695
419.0 0.002387 258.92441 478.04910
412.0 0.002427 258.97104 502.23245
470.0 0.002128 259.01828 508.17093
488.0 0.002049 259.06619 500.59363
509.0 0.001965 259.11487 490.05829
497.0 0.002012 259.16415 484.93814
457.0 0.002188 259.21411 487.65060
483.0 0.002070 259.26462 494.00916
467.0 0.002141 259.31583 496.04520
451.0 0.002217 259.36752 486.49695
444.0 0.002252 259.41980 464.86530
435.0 0.002299 259.47263 436.08264
434.0 0.002304 259.52615 406.49603
381.0 0.002625 259.58005 380.89615
373.0 0.002681 259.63440 361.08066
358.0 0.002793 259.68930 346.02411
334.0 0.002994 259.74463 333.56674
315.0 0.003175 259.80054 322.12335
256.0 0.00391 259.85663 311.08487
304.0 0.003289 259.91330 300.66019
276.0 0.00362 259.97037 291.46967
300.0 0.003333 260.02771 283.99698
267.0 0.00375 260.08557 278.37433
280.0 0.00357 260.14362 274.42688
271.0 0.00369 260.20209 271.81400
284.0 0.00352 260.26074 270.15845
272.0 0.00368 260.31973 269.13574
266.0 0.00376 260.37897 268.51157
273.0 0.00366 260.43845 268.13800
267.0 0.00375 260.49808 267.93179
260.0 0.00385 260.55801 267.85074
268.0 0.00373 260.61810 267.87549
255.0 0.00392 260.67828 268.02759
268.0 0.00373 260.73862 268.25348
288.0 0.003472 260.79919 268.82358
273.0 0.00366 260.85977 269.28885
259.0 0.00386 260.92041 269.90585
285.0 0.00351 260.98102 270.72607
302.0 0.003311 261.04178 271.85425
286.0 0.003497 261.10263 273.51138
292.0 0.003425 261.16342 276.15097
280.0 0.00357 261.22418 280.57294
272.0 0.00368 261.28488 288.21854
294.0 0.003401 261.34561 300.77805
294.0 0.003401 261.40607 320.41879
335.0 0.002985 261.46664 348.66287
395.0 0.002532 261.52695 385.39362
425.0 0.002353 261.58725 427.77490
475.0 0.002105 261.64716 469.56723
484.0 0.002066 261.70706 501.24472
496.0 0.002016 261.76678 513.10205
497.0 0.002012 261.82623 502.60373
501.0 0.001996 261.88541 477.36102
472.0 0.002119 261.94437 448.43866
435.0 0.002299 262.00287 423.83420
404.0 0.002475 262.06128 406.63263
364.0 0.002747 262.11932 395.26056
356.0 0.002809 262.17706 385.13037
364.0 0.002747 262.23431 372.21375
371.0 0.002695 262.29123 356.14102
406.0 0.002463 262.34778 339.21774
308.0 0.003247 262.40399 323.82831
322.0 0.003106 262.45953 311.34064
284.0 0.00352 262.51489 301.94333
304.0 0.003289 262.56958 294.95926
303.0 0.003300 262.62378 289.53979
260.0 0.00385 262.67749 285.21799
275.0 0.00364 262.73071 281.86536
257.0 0.00389 262.78329 279.39383
307.0 0.003257 262.83524 277.69171
281.0 0.00356 262.88669 276.54126
291.0 0.003436 262.93753 275.63870
288.0 0.003472 262.98773 274.73184
283.0 0.00353 263.03717 273.82156
269.0 0.00372 263.08612 272.97873
276.0 0.00362 263.13425 272.42932
267.0 0.00375 263.18176 272.33444
293.0 0.003413 263.22852 272.60480
262.0 0.00382 263.27448 273.53809
267.0 0.00375 263.31970 274.79510
279.0 0.00358 263.36417 276.08780
290.0 0.003448 263.40778 276.98767
276.0 0.00362 263.45068 277.18155
282.0 0.00355 263.49265 276.60358
285.0 0.00351 263.53375 275.65250
282.0 0.00355 263.57407 274.76364
257.0 0.00389 263.61346 274.14218
244.0 0.00410 263.65207 273.80167
281.0 0.00356 263.68945 273.93036
273.0 0.00366 263.72617 273.86526
283.0 0.00353 263.76190 273.72766
268.0 0.00373 263.79663 273.65268
289.0 0.003460 263.83044 273.51202
266.0 0.00376 263.86316 273.53201
276.0 0.00362 263.89496 273.77066
242.0 0.00413 263.92560 274.29114
294.0 0.003401 263.95532 275.23978
308.0 0.003247 263.98389 276.51404
287.0 0.003484 264.01147 278.44855
300.0 0.003333 264.03796 281.33914
266.0 0.00376 264.06329 285.99731
285.0 0.00351 264.08755 293.71252
317.0 0.003155 264.11069 306.39066
341.0 0.002933 264.13263 326.41385
381.0 0.002625 264.15353 356.08365
436.0 0.002294 264.17313 396.56705
463.0 0.002160 264.19165 446.59058
516.0 0.001938 264.20892 501.29419
536.0 0.001866 264.22504 552.02496
562.0 0.001779 264.23987 587.50458
586.0 0.001706 264.25360 597.63983
583.0 0.001715 264.26596 580.96429
668.0 0.001497 264.27716 547.29425
559.0 0.001789 264.28693 509.94916
551.0 0.001815 264.29559 478.28369
478.0 0.002092 264.30295 455.56052
435.0 0.002299 264.30896 439.78915
420.0 0.002381 264.31360 425.61633
425.0 0.002353 264.31711 407.95706
425.0 0.002353 264.31915 385.72134
388.0 0.002577 264.31995 361.48206
382.0 0.002618 264.31937 338.47107
332.0 0.003012 264.31747 318.91187
312.0 0.003205 264.31409 303.81134
283.0 0.00353 264.30939 293.11169
276.0 0.00362 264.30350 285.88623
307.0 0.003257 264.29599 281.52878
285.0 0.00351 264.28723 278.94354
277.0 0.00361 264.27713 277.47525
252.0 0.00397 264.26529 276.72943
283.0 0.00353 264.25238 276.50479
278.0 0.00360 264.23795 276.70670
261.0 0.00383 264.22214 277.27646
264.0 0.00379 264.20477 278.07629
276.0 0.00362 264.18597 279.15302
284.0 0.00352 264.16577 280.31628
282.0 0.00355 264.14420 281.49783
275.0 0.00364 264.12109 282.80859
272.0 0.00368 264.09665 284.54047
281.0 0.00356 264.07074 286.99301
284.0 0.00352 264.04333 290.32498
273.0 0.00366 264.01443 294.54739
289.0 0.003460 263.98398 299.50299
300.0 0.003333 263.95221 304.96475
322.0 0.003106 263.91888 311.03412
323.0 0.003096 263.88406 317.82745
308.0 0.003247 263.84784 324.95444
304.0 0.003289 263.81012 331.19470
312.0 0.003205 263.77094 334.76971
307.0 0.003257 263.73016 334.56137
326.0 0.003067 263.68814 331.28668
328.0 0.003049 263.64441 326.96567
334.0 0.002994 263.59937 323.79559
331.0 0.003021 263.55273 323.58963
309.0 0.003236 263.50458 327.77853
335.0 0.002985 263.45505 337.67746
332.0 0.003012 263.40399 354.91522
364.0 0.002747 263.35147 381.93600
421.0 0.002375 263.29745 421.31982
463.0 0.002160 263.24210 474.65582
514.0 0.001946 263.18506 540.38275
577.0 0.001733 263.12665 612.62079
652.0 0.001534 263.06683 681.29907
728.0 0.001374 263.00543 734.17224
766.0 0.001305 262.94263 760.96515
835.0 0.001198 262.87842 759.16290
833.0 0.001200 262.81271 734.30890
791.0 0.001264 262.74557 694.70892
711.0 0.001406 262.67709 649.82611
648.0 0.001543 262.60706 607.82446
613.0 0.001631 262.53568 572.05023
541.0 0.001848 262.46268 540.84534
541.0 0.001848 262.38846 510.60950
504.0 0.001984 262.31274 479.13461
465.0 0.002151 262.23557 446.08344
409.0 0.002445 262.15707 412.24615
389.0 0.002571 262.07727 379.82376
362.0 0.002762 261.99591 351.33716
348.0 0.002874 261.91324 328.29803
251.0 0.00398 261.82922 311.02905
286.0 0.003497 261.74380 299.04446
294.0 0.003401 261.65692 291.48358
281.0 0.00356 261.56894 287.46512
274.0 0.00365 261.47949 286.25229
286.0 0.003497 261.38873 287.38297
304.0 0.003289 261.29663 290.12943
283.0 0.00353 261.20309 294.39066
252.0 0.00397 261.10855 299.04697
315.0 0.003175 261.01254 302.87692
285.0 0.00351 260.91534 304.48187
287.0 0.003484 260.81671 303.15094
310.0 0.003226 260.71695 299.48038
301.0 0.003322 260.61594 294.89319
281.0 0.00356 260.51367 290.53052
276.0 0.00362 260.41019 287.24701
274.0 0.00365 260.30542 285.02124
262.0 0.00382 260.19949 283.41669
264.0 0.00379 260.09235 281.74557
272.0 0.00368 259.98407 279.56723
319.0 0.003135 259.87469 276.94049
283.0 0.00353 259.76410 274.20477
280.0 0.00357 259.65225 271.68335
236.0 0.00424 259.53946 269.58224
262.0 0.00382 259.42560 267.98099
251.0 0.00398 259.31052 266.86050
277.0 0.00361 259.19434 266.14423
284.0 0.00352 259.07712 265.74649
265.0 0.00377 258.95877 265.61124
251.0 0.00398 258.83963 265.73969
241.0 0.00415 258.71921 266.20712
284.0 0.00352 258.59790 267.17365
253.0 0.00395 258.47549 268.86905
254.0 0.00394 258.35220 271.56567
279.0 0.00358 258.22797 275.46429
303.0 0.003300 258.10281 280.59119
305.0 0.003279 257.97650 286.67059
305.0 0.003279 257.84946 293.03949
305.0 0.003279 257.72153 298.62665
285.0 0.00351 257.59271 302.21609
353.0 0.002833 257.46286 303.28677
303.0 0.003300 257.33237 302.50250
331.0 0.003021 257.20087 301.12372
316.0 0.003165 257.06860 300.11215
322.0 0.003106 256.93570 299.89200
291.0 0.003436 256.80182 300.58569
299.0 0.003344 256.66724 302.47910
330.0 0.003030 256.53186 305.82358
306.0 0.003268 256.39584 311.08972
347.0 0.002882 256.25909 318.89880
320.0 0.003125 256.12152 329.56265
327.0 0.003058 255.98335 342.45938
368.0 0.002717 255.84459 355.74188
349.0 0.002865 255.70503 366.62799
358.0 0.002793 255.56503 372.54538
350.0 0.002857 255.42427 373.41278
340.0 0.002941 255.28297 372.19928
401.0 0.002494 255.14113 372.58395
349.0 0.002865 254.99870 376.60110
380.0 0.002632 254.85582 384.04080
366.0 0.002732 254.71233 391.75415
397.0 0.002519 254.56833 396.21329
407.0 0.002457 254.42390 393.89780
425.0 0.002353 254.27898 384.08578
378.0 0.002646 254.13365 369.53949
395.0 0.002532 253.98790 353.65494
359.0 0.002786 253.84169 339.30008
331.0 0.003021 253.69511 327.75720
299.0 0.003344 253.54825 318.77783
290.0 0.003448 253.40102 311.35663
279.0 0.00358 253.25346 304.34891
342.0 0.002924 253.10547 297.04941
291.0 0.003436 252.95726 289.61191
319.0 0.003135 252.80882 282.50629
288.0 0.003472 252.66013 276.17310
268.0 0.00373 252.51117 270.93759
239.0 0.00418 252.36201 266.97827
228.0 0.00439 252.21259 264.25244
257.0 0.00389 252.06313 262.71942
246.0 0.00407 251.91344 262.25900
273.0 0.00366 251.76363 262.70520
274.0 0.00365 251.61365 263.84579
269.0 0.00372 251.46358 265.37283
275.0 0.00364 251.31351 266.85611
284.0 0.00352 251.16333 267.76578
280.0 0.00357 251.01306 267.66379
273.0 0.00366 250.86275 266.49805
242.0 0.00413 250.71255 264.74570
250.0 0.00400 250.56229 262.89468
268.0 0.00373 250.41205 261.31238
262.0 0.00382 250.26189 260.14783
253.0 0.00395 250.11177 259.34409
255.0 0.00392 249.96175 258.68726
240.0 0.00417 249.81186 257.91885
251.0 0.00398 249.66202 256.94781
275.0 0.00364 249.51241 255.82626
254.0 0.00394 249.36290 254.68724
254.0 0.00394 249.21359 253.64220
233.0 0.00429 249.06447 252.75703
213.0 0.00469 248.91554 252.05225
276.0 0.00362 248.76680 251.51424
266.0 0.00376 248.61838 251.11003
225.0 0.00444 248.47018 250.80226
286.0 0.003497 248.32233 250.55890
242.0 0.00413 248.17474 250.45125
256.0 0.00391 248.02739 250.27867
271.0 0.00369 247.88046 250.12576
236.0 0.00424 247.73381 249.98825
278.0 0.00360 247.58759 249.86482
235.0 0.00426 247.44179 249.75465
264.0 0.00379 247.29630 249.65782
287.0 0.003484 247.15118 249.57748
243.0 0.00412 247.00659 249.54495
242.0 0.00413 246.86238 249.49373
260.0 0.00385 246.71877 249.45927
281.0 0.00356 246.57542 249.41336
232.0 0.00431 246.43269 249.43991
245.0 0.00408 246.29044 249.46785
241.0 0.00415 246.14877 249.52322
257.0 0.00389 246.00763 249.61212
254.0 0.00394 245.86696 249.73291
244.0 0.00410 245.72682 249.91650
266.0 0.00376 245.58733 250.16040
251.0 0.00398 245.44850 250.52106
264.0 0.00379 245.31024 251.04865
252.0 0.00397 245.17253 251.84741
232.0 0.00431 245.03552 253.09149
257.0 0.00389 244.89914 255.09000
229.0 0.00437 244.76338 258.13300
259.0 0.00386 244.62837 262.40997
244.0 0.00410 244.49399 268.39960
252.0 0.00397 244.36031 276.19351
283.0 0.00353 244.22740 285.72369
316.0 0.003165 244.09514 296.63034
330.0 0.003030 243.96371 308.27820
337.0 0.002967 243.83290 320.12903
335.0 0.002985 243.70294 332.34363
333.0 0.003003 243.57372 345.87521
368.0 0.002717 243.44518 361.19876
373.0 0.002681 243.31755 377.31726
359.0 0.002786 243.19069 391.83224
375.0 0.002667 243.06465 402.39755
370.0 0.002703 242.93938 407.47269
408.0 0.002451 242.81496 405.73697
389.0 0.002571 242.69147 396.65164
363.0 0.002755 242.56877 382.20273
359.0 0.002786 242.44685 366.01785
307.0 0.003257 242.32587 351.06757
318.0 0.003145 242.20573 338.52356
295.0 0.003390 242.08653 328.37457
295.0 0.003390 241.96822 319.92328
282.0 0.00355 241.85072 312.21194
296.0 0.003378 241.73416 304.11136
287.0 0.003484 241.61852 295.19073
292.0 0.003425 241.50383 285.92883
287.0 0.003484 241.39005 277.09521
302.0 0.003311 241.27715 269.31699
253.0 0.00395 241.16519 262.99252
239.0 0.00418 241.05426 258.22083
212.0 0.00472 240.94426 254.82243
257.0 0.00389 240.83521 252.54982
262.0 0.00382 240.72704 251.10880
255.0 0.00392 240.61984 250.18585
278.0 0.00360 240.51366 249.54547
267.0 0.00375 240.40848 249.05431
268.0 0.00373 240.30417 248.67897
265.0 0.00377 240.20093 248.44638
248.0 0.00403 240.09859 248.43002
275.0 0.00364 239.99736 248.70216
243.0 0.00412 239.89702 249.45877
232.0 0.00431 239.79774 250.98712
265.0 0.00377 239.69946 253.73367
235.0 0.00426 239.60208 258.29498
234.0 0.00427 239.50572 265.32169
269.0 0.00372 239.41043 275.31488
291.0 0.003436 239.31601 288.33105
305.0 0.003279 239.22273 303.66782
303.0 0.003300 239.13039 319.63339
328.0 0.003049 239.03915 333.45306
330.0 0.003030 238.94876 341.67496
376.0 0.002660 238.85939 341.96048
323.0 0.003096 238.77116 335.10538
386.0 0.002591 238.68385 324.53741
345.0 0.002899 238.59756 313.94565
333.0 0.003003 238.51219 305.84814
272.0 0.00368 238.42787 301.29797
321.0 0.003115 238.34454 299.94223
315.0 0.003175 238.26227 300.28537
305.0 0.003279 238.18091 300.39185
360.0 0.002778 238.10060 298.98544
321.0 0.003115 238.02118 295.80258
312.0 0.003205 237.94275 291.00778
304.0 0.003289 237.86546 284.89420
310.0 0.003226 237.78897 278.11896
321.0 0.003115 237.71358 271.62094
277.0 0.00361 237.63908 266.18314
286.0 0.003497 237.56557 262.18506
280.0 0.00357 237.49300 259.61252
282.0 0.00355 237.42143 258.15475
261.0 0.00383 237.35083 257.31366
270.0 0.00370 237.28111 256.58060
279.0 0.00358 237.21236 255.67815
295.0 0.003390 237.14456 254.63684
242.0 0.00413 237.07764 253.69470
254.0 0.00394 237.01169 253.12946
284.0 0.00352 236.94661 253.23712
250.0 0.00400 236.88251 254.38919
241.0 0.00415 236.81924 257.13245
256.0 0.00391 236.75691 262.29654
262.0 0.00382 236.69540 271.04657
282.0 0.00355 236.63484 284.75327
315.0 0.003175 236.57520 304.79715
349.0 0.002865 236.51634 331.81125
360.0 0.002778 236.45839 365.13565
410.0 0.002439 236.40126 402.17236
418.0 0.002392 236.34494 437.89450
428.0 0.002336 236.28949 465.41779
469.0 0.002132 236.23489 477.91440
498.0 0.002008 236.18111 472.83429
530.0 0.001887 236.12810 453.76865
484.0 0.002066 236.07585 428.27646
439.0 0.002278 236.02444 403.46298
397.0 0.002519 235.97386 383.86847
333.0 0.003003 235.92395 370.77286
329.0 0.003040 235.87483 362.50253
364.0 0.002747 235.82642 355.64035
349.0 0.002865 235.77881 346.86862
378.0 0.002646 235.73192 334.93030
369.0 0.002710 235.68573 320.99869
354.0 0.002825 235.64026 307.29886
273.0 0.00366 235.59543 296.06705
299.0 0.003344 235.55127 288.98346
282.0 0.00355 235.50781 286.96634
271.0 0.00369 235.46507 290.12131
305.0 0.003279 235.42299 297.71506
320.0 0.003125 235.38144 308.18558
297.0 0.003367 235.34058 319.16144
359.0 0.002786 235.30026 327.66135
346.0 0.002890 235.26065 331.01962
333.0 0.003003 235.22156 328.66293
355.0 0.002817 235.18311 322.54309
331.0 0.003021 235.14516 315.91147
341.0 0.002933 235.10779 311.46478
308.0 0.003247 235.07089 310.62149
308.0 0.003247 235.03459 313.30316
289.0 0.003460 234.99886 317.97372
294.0 0.003401 234.96344 321.96729
348.0 0.002874 234.92862 322.43515
325.0 0.003077 234.89427 317.84656
318.0 0.003145 234.86035 308.96857
300.0 0.003333 234.82695 298.04968
280.0 0.00357 234.79399 287.37930
269.0 0.00372 234.76132 278.49915
269.0 0.00372 234.72916 272.01666
277.0 0.00361 234.69739 267.75888
257.0 0.00389 234.66592 264.84433
251.0 0.00398 234.63492 262.42795
246.0 0.00407 234.60426 259.68881
249.0 0.00402 234.57391 256.60800
250.0 0.00400 234.54387 253.44357
255.0 0.00392 234.51414 250.70203
251.0 0.00398 234.48474 248.74414
232.0 0.00431 234.45563 247.76559
223.0 0.00448 234.42679 247.79715
241.0 0.00415 234.39822 248.68181
235.0 0.00426 234.36983 250.09138
247.0 0.00405 234.34174 251.56422
223.0 0.00448 234.31387 252.49193
247.0 0.00405 234.28616 252.43153
258.0 0.00388 234.25861 251.34100
203.0 0.00493 234.23126 249.60762
224.0 0.00446 234.20416 247.77957
225.0 0.00444 234.17712 246.15762
264.0 0.00379 234.15019 244.97153
250.0 0.00400 234.12350 244.21852
217.0 0.00461 234.09686 243.73471
231.0 0.00433 234.07031 243.21355
234.0 0.00427 234.04373 242.55359
263.0 0.00380 234.01738 241.66756
244.0 0.00410 233.99101 240.66653
235.0 0.00426 233.96471 239.71233
243.0 0.00412 233.93840 238.89536
243.0 0.00412 233.91216 238.31787
221.0 0.00452 233.88591 238.03496
248.0 0.00403 233.85963 238.07581
216.0 0.00463 233.83336 238.44403
216.0 0.00463 233.80705 239.11298
243.0 0.00412 233.78061 240.06667
247.0 0.00405 233.75420 241.09290
235.0 0.00426 233.72774 242.03215
257.0 0.00389 233.70108 242.66138
229.0 0.00437 233.67439 242.78101
254.0 0.00394 233.64755 242.37228
260.0 0.00385 233.62062 241.62152
239.0 0.00418 233.59360 240.77815
264.0 0.00379 233.56641 240.03468
254.0 0.00394 233.53906 239.50951
256.0 0.00391 233.51151 239.17451
253.0 0.00395 233.48380 238.96887
238.0 0.00420 233.45593 238.86136
286.0 0.003497 233.42778 238.58691
260.0 0.00385 233.39949 238.19783
249.0 0.00402 233.37093 237.74020
216.0 0.00463 233.34218 237.28114
233.0 0.00429 233.31317 236.87309
252.0 0.00397 233.28383 236.48628
230.0 0.00435 233.25435 236.17096
240.0 0.00417 233.22449 235.99930
220.0 0.00455 233.19441 235.96272
226.0 0.00442 233.16396 235.95808
226.0 0.00442 233.13332 236.00372
218.0 0.00459 233.10231 236.09230
254.0 0.00394 233.07092 236.22125
224.0 0.00446 233.03928 236.39461
268.0 0.00373 233.00725 236.60101
238.0 0.00420 232.97487 236.88065
261.0 0.00383 232.94221 237.31001
249.0 0.00402 232.90909 237.96700
256.0 0.00391 232.87569 238.98825
249.0 0.00402 232.84181 240.59686
272.0 0.00368 232.80754 243.08926
257.0 0.00389 232.77290 246.79497
250.0 0.00400 232.73788 251.98857
275.0 0.00364 232.70242 258.75934
269.0 0.00372 232.66660 266.87607
286.0 0.003497 232.63029 275.66644
296.0 0.003378 232.59363 283.93665
320.0 0.003125 232.55646 290.00473
291.0 0.003436 232.51886 292.50812
296.0 0.003378 232.48077 291.12735
314.0 0.003185 232.44226 287.09650
330.0 0.003030 232.40329 282.24402
290.0 0.003448 232.36386 278.09161
306.0 0.003268 232.32397 275.49814
256.0 0.00391 232.28358 274.64001
264.0 0.00379 232.24275 275.06842
272.0 0.00368 232.20143 276.08185
274.0 0.00365 232.15962 277.03931
288.0 0.003472 232.11731 278.00967
290.0 0.003448 232.07449 279.50824
288.0 0.003472 232.03123 282.17816
299.0 0.003344 231.98744 286.39343
294.0 0.003401 231.94313 292.20477
274.0 0.00365 231.89832 299.43146
301.0 0.003322 231.85297 307.51660
279.0 0.00358 231.80717 315.21323
280.0 0.00357 231.76085 320.60226
324.0 0.003086 231.71397 321.77341
290.0 0.003448 231.66666 318.03110
334.0 0.002994 231.61877 310.85513
304.0 0.003289 231.57042 302.58670
267.0 0.00375 231.52151 295.31018
281.0 0.00356 231.47205 290.46924
267.0 0.00375 231.42213 288.79355
253.0 0.00395 231.37167 290.22003
333.0 0.003003 231.32066 293.92932
278.0 0.00360 231.26918 298.66531
322.0 0.003106 231.21715 303.30939
292.0 0.003425 231.16472 307.01437
317.0 0.003155 231.11163 308.88348
309.0 0.003236 231.05812 307.79276
321.0 0.003115 231.00403 303.18729
334.0 0.002994 230.94948 295.90134
299.0 0.003344 230.89442 287.73065
280.0 0.00357 230.83885 280.38815
272.0 0.00368 230.78276 274.99686
238.0 0.00420 230.72620 272.09137
249.0 0.00402 230.66911 271.64981
254.0 0.00394 230.61162 273.30792
280.0 0.00357 230.55356 276.53958
276.0 0.00362 230.49501 281.04318
283.0 0.00353 230.43605 286.95853
285.0 0.00351 230.37653 294.53387
314.0 0.003185 230.31659 303.54047
336.0 0.002976 230.25621 312.92566
299.0 0.003344 230.19534 320.77377
307.0 0.003257 230.13402 324.80112
337.0 0.002967 230.07224 323.73077
343.0 0.002915 230.01003 318.41379
317.0 0.003155 229.94733 311.38770
294.0 0.003401 229.88423 305.53763
268.0 0.00373 229.82068 303.19043
287.0 0.003484 229.75677 305.69348
294.0 0.003401 229.69241 313.25729
320.0 0.003125 229.62761 324.86407
317.0 0.003155 229.56250 338.39175
332.0 0.003012 229.49693 351.06873
345.0 0.002899 229.43095 359.96872
301.0 0.003322 229.36464 362.37357
348.0 0.002874 229.29793 356.87454
342.0 0.002924 229.23085 344.74881
349.0 0.002865 229.16351 329.39075
303.0 0.003300 229.09575 314.30069
306.0 0.003268 229.02766 301.85452
265.0 0.00377 228.95920 293.06821
255.0 0.00392 228.89049 287.72876
222.0 0.00450 228.82138 284.62073
261.0 0.00383 228.75208 281.93808
279.0 0.00358 228.68243 278.08792
262.0 0.00382 228.61244 272.53864
265.0 0.00377 228.54227 265.82886
238.0 0.00420 228.47171 258.86380
243.0 0.00412 228.40106 252.39825
236.0 0.00424 228.33005 246.90205
245.0 0.00408 228.25885 242.56651
190.0 0.00526 228.18739 239.36372
246.0 0.00407 228.11574 237.12820
234.0 0.00427 228.04388 235.64052
240.0 0.00417 227.97177 234.69736
220.0 0.00455 227.89952 234.14766
240.0 0.00417 227.82713 233.90305
233.0 0.00429 227.75458 233.92690
225.0 0.00444 227.68182 234.21555
213.0 0.00469 227.60896 234.77557
225.0 0.00444 227.53600 235.60121
243.0 0.00412 227.46286 236.65169
242.0 0.00413 227.38959 237.83067
227.0 0.00441 227.31630 238.94461
252.0 0.00397 227.24289 240.02875
241.0 0.00415 227.16943 240.67133
244.0 0.00410 227.09589 240.92067
241.0 0.00415 227.02231 240.73972
246.0 0.00407 226.94865 240.20218
239.0 0.00418 226.87503 239.52142
219.0 0.00457 226.80130 238.95717
238.0 0.00420 226.72768 238.76765
238.0 0.00420 226.65399 239.09256
240.0 0.00417 226.58034 240.18610
255.0 0.00392 226.50676 242.35086
254.0 0.00394 226.43321 245.84480
246.0 0.00407 226.35971 251.04256
246.0 0.00407 226.28621 258.19452
281.0 0.00356 226.21283 267.33505
293.0 0.003413 226.13959 278.02179
334.0 0.002994 226.06642 289.22488
297.0 0.003367 225.99336 299.17120
308.0 0.003247 225.92044 305.54395
291.0 0.003436 225.84766 306.60995
341.0 0.002933 225.77513 302.26175
352.0 0.002841 225.70259 294.37122
325.0 0.003077 225.63029 285.42679
286.0 0.003497 225.55821 277.41342
283.0 0.00353 225.48628 271.43680
240.0 0.00417 225.41458 267.74725
251.0 0.00398 225.34308 265.82883
276.0 0.00362 225.27177 264.59167
251.0 0.00398 225.20081 262.89160
291.0 0.003436 225.13013 260.06134
291.0 0.003436 225.05960 256.30975
285.0 0.00351 224.98943 252.28424
256.0 0.00391 224.91948 248.74065
261.0 0.00383 224.84995 246.05943
272.0 0.00368 224.78059 244.37021
242.0 0.00413 224.71164 243.51677
230.0 0.00435 224.64294 243.10144
247.0 0.00405 224.57468 242.60422
238.0 0.00420 224.50670 241.62486
220.0 0.00455 224.43912 240.11163
259.0 0.00386 224.37192 238.30194
256.0 0.00391 224.30518 236.55482
253.0 0.00395 224.23871 235.09930
233.0 0.00429 224.17262 234.05649
222.0 0.00450 224.10703 233.41974
242.0 0.00413 224.04185 233.06664
242.0 0.00413 223.97714 232.79298
232.0 0.00431 223.91281 232.33986
238.0 0.00420 223.84898 231.69414
268.0 0.00373 223.78557 230.91536
242.0 0.00413 223.72266 229.98302
223.0 0.00448 223.66026 229.06366
264.0 0.00379 223.59834 228.24176
208.0 0.00481 223.53687 227.56560
257.0 0.00389 223.47585 227.04839
225.0 0.00444 223.41544 226.67763
240.0 0.00417 223.35556 226.40489
232.0 0.00431 223.29619 226.23071
239.0 0.00418 223.23729 226.11290
223.0 0.00448 223.17899 226.04538
208.0 0.00481 223.12125 225.89433
216.0 0.00463 223.06406 225.84322
241.0 0.00415 223.00745 225.81186
226.0 0.00442 222.95135 225.80324
232.0 0.00431 222.89589 225.82014
250.0 0.00400 222.84097 225.86430
224.0 0.00446 222.78667 225.93738
202.0 0.00495 222.73302 226.09904
256.0 0.00391 222.67987 226.23633
230.0 0.00435 222.62738 226.37827
234.0 0.00427 222.57544 226.59184
229.0 0.00437 222.52412 226.85181
245.0 0.00408 222.47343 227.16762
208.0 0.00481 222.42340 227.55293
250.0 0.00400 222.37399 228.02991
224.0 0.00446 222.32524 228.63672
232.0 0.00431 222.27707 229.44295
217.0 0.00461 222.22955 230.59666
252.0 0.00397 222.18268 232.27246
230.0 0.00435 222.13641 234.84666
241.0 0.00415 222.09087 238.84189
241.0 0.00415 222.04590 244.94461
218.0 0.00459 222.00163 253.92415
266.0 0.00376 221.95804 266.44711
288.0 0.003472 221.91504 282.81403
305.0 0.003279 221.87270 302.65479
297.0 0.003367 221.83104 324.67563
339.0 0.002950 221.79007 346.45300
363.0 0.002755 221.74965 364.41446
417.0 0.002398 221.70999 374.63855
413.0 0.002421 221.67096 375.02036
424.0 0.002358 221.63258 367.06219
391.0 0.002558 221.59480 354.86166
382.0 0.002618 221.55774 342.66855
325.0 0.003077 221.52136 333.01227
300.0 0.003333 221.48550 326.97134
335.0 0.002985 221.45039 324.00735
317.0 0.003155 221.41597 322.54156
323.0 0.003096 221.38214 320.57687
319.0 0.003135 221.34897 316.30219
338.0 0.002959 221.31644 308.95193
340.0 0.002941 221.28447 299.18665
345.0 0.002899 221.25323 288.47296
265.0 0.00377 221.22261 278.20331
266.0 0.00376 221.19257 269.10828
287.0 0.003484 221.16318 261.52765
234.0 0.00427 221.13443 255.19717
260.0 0.00385 221.10628 249.99126
229.0 0.00437 221.07867 245.67690
229.0 0.00437 221.05174 242.18559
243.0 0.00412 221.02534 239.24786
227.0 0.00441 220.99968 236.72437
225.0 0.00444 220.97449 234.56480
212.0 0.00472 220.94986 232.74776
229.0 0.00437 220.92583 231.23161
235.0 0.00426 220.90242 229.99159
237.0 0.00422 220.87952 228.93336
229.0 0.00437 220.85716 228.04353
219.0 0.00457 220.83536 227.35864
227.0 0.00441 220.81401 226.83871
253.0 0.00395 220.79333 226.46584
247.0 0.00405 220.77310 226.22209
227.0 0.00441 220.75340 226.11427
220.0 0.00455 220.73422 226.08879
217.0 0.00461 220.71548 226.16843
221.0 0.00452 220.69728 226.36014
231.0 0.00433 220.67957 226.70341
245.0 0.00408 220.66226 227.26189
239.0 0.00418 220.64542 228.18533
240.0 0.00417 220.62897 229.66173
225.0 0.00444 220.61305 231.96306
244.0 0.00410 220.59758 235.41133
206.0 0.00485 220.58240 240.32550
255.0 0.00392 220.56775 246.88216
251.0 0.00398 220.55344 255.04259
231.0 0.00433 220.53943 264.38931
258.0 0.00388 220.52589 274.04474
279.0 0.00358 220.51268 282.62488
283.0 0.00353 220.49982 288.35983
347.0 0.002882 220.48724 289.80692
315.0 0.003175 220.47505 286.85999
343.0 0.002915 220.46315 280.91876
259.0 0.00386 220.45157 273.94388
274.0 0.00365 220.44023 267.58676
253.0 0.00395 220.42912 262.90271
260.0 0.00385 220.41829 260.30634
255.0 0.00392 220.40776 259.71930
268.0 0.00373 220.39743 260.65771
265.0 0.00377 220.38728 262.42358
275.0 0.00364 220.37737 264.55450
291.0 0.003436 220.36763 267.12131
278.0 0.00360 220.35812 270.58826
290.0 0.003448 220.34871 275.31177
281.0 0.00356 220.33945 281.15491
270.0 0.00370 220.33035 287.33569
260.0 0.00385 220.32130 292.40704
279.0 0.00358 220.31247 294.63004
246.0 0.00407 220.30365 292.88464
287.0 0.003484 220.29491 287.54190
310.0 0.003226 220.28622 280.20126
264.0 0.00379 220.27759 272.64764
245.0 0.00408 220.26900 266.20026
231.0 0.00433 220.26041 261.57187
253.0 0.00395 220.25175 258.92206
267.0 0.00375 220.24318 257.66907
278.0 0.00360 220.23457 257.05319
233.0 0.00429 220.22583 256.11084
254.0 0.00394 220.21710 254.21646
267.0 0.00375 220.20831 251.39621
248.0 0.00403 220.19936 248.15314
237.0 0.00422 220.19034 245.10710
226.0 0.00442 220.18120 242.81493
247.0 0.00405 220.17192 241.76595
237.0 0.00422 220.16245 242.39842
230.0 0.00435 220.15286 245.18251
254.0 0.00394 220.14311 250.47128
256.0 0.00391 220.13312 258.62866
277.0 0.00361 220.12288 269.77487
310.0 0.003226 220.11241 283.50742
272.0 0.00368 220.10176 299.24551
298.0 0.003356 220.09088 315.36658
328.0 0.003049 220.07968 329.73242
369.0 0.002710 220.06819 339.76810
391.0 0.002558 220.05641 343.41797
352.0 0.002841 220.04422 340.65140
394.0 0.002538 220.03178 333.75754
371.0 0.002695 220.01900 326.07553
276.0 0.00362 220.00580 320.53821
303.0 0.003300 219.99226 319.05890
300.0 0.003333 219.97836 322.41565
336.0 0.002976 219.96400 329.92468
317.0 0.003155 219.94931 339.60898
349.0 0.002865 219.93408 348.44440
348.0 0.002874 219.91847 352.99957
368.0 0.002717 219.90236 350.83243
373.0 0.002681 219.88582 341.75345
400.0 0.002500 219.86880 327.94836
355.0 0.002817 219.85120 312.47177
321.0 0.003115 219.83321 297.97598
246.0 0.00407 219.81458 286.16623
263.0 0.00380 219.79547 277.78824
252.0 0.00397 219.77577 272.72037
233.0 0.00429 219.75552 270.17358
258.0 0.00388 219.73474 268.94397
268.0 0.00373 219.71332 267.84952
245.0 0.00408 219.69133 266.28647
258.0 0.00388 219.66870 264.38443
261.0 0.00383 219.64549 262.60724
271.0 0.00369 219.62163 261.28250
257.0 0.00389 219.59712 260.38983
266.0 0.00376 219.57201 259.54236
267.0 0.00375 219.54616 258.20471
264.0 0.00379 219.51968 255.83403
233.0 0.00429 219.49246 252.54378
265.0 0.00377 219.46468 248.79651
248.0 0.00403 219.43607 245.15370
231.0 0.00433 219.40681 242.05574
225.0 0.00444 219.37679 239.74536
208.0 0.00481 219.34607 238.25739
227.0 0.00441 219.31462 237.43393
223.0 0.00448 219.28244 236.96722
218.0 0.00459 219.24956 236.49327
233.0 0.00429 219.21581 235.77814
236.0 0.00424 219.18134 234.75748
233.0 0.00429 219.14613 233.63902
227.0 0.00441 219.11012 232.69189
238.0 0.00420 219.07335 232.17343
242.0 0.00413 219.03584 232.28415
219.0 0.00457 218.99741 233.08432
218.0 0.00459 218.95819 234.70253
251.0 0.00398 218.91824 236.97029
248.0 0.00403 218.87746 239.63875
211.0 0.00474 218.83594 242.31715
265.0 0.00377 218.79347 244.52983
249.0 0.00402 218.75029 245.87930
256.0 0.00391 218.70624 246.19447
237.0 0.00422 218.66139 245.53320
272.0 0.00368 218.61574 244.14453
266.0 0.00376 218.56920 242.42497
227.0 0.00441 218.52185 240.89040
232.0 0.00431 218.47372 239.91901
242.0 0.00413 218.42471 239.79832
244.0 0.00410 218.37492 240.72899
250.0 0.00400 218.32423 242.87569
252.0 0.00397 218.27280 246.43831
265.0 0.00377 218.22054 251.62506
262.0 0.00382 218.16742 258.83966
285.0 0.00351 218.11349 268.09512
274.0 0.00365 218.05865 279.21487
279.0 0.00358 218.00310 291.53702
290.0 0.003448 217.94675 303.66223
293.0 0.003413 217.88947 313.68854
309.0 0.003236 217.83147 319.43744
326.0 0.003067 217.77264 319.35782
332.0 0.003012 217.71306 313.59225
329.0 0.003040 217.65259 304.03171
302.0 0.003311 217.59140 293.26547
281.0 0.00356 217.52940 283.38742
268.0 0.00373 217.46658 275.67188
243.0 0.00412 217.40303 270.58670
254.0 0.00394 217.33875 267.82227
266.0 0.00376 217.27371 266.45139
230.0 0.00435 217.20782 265.26294
275.0 0.00364 217.14128 263.12421
241.0 0.00415 217.07399 259.50012
291.0 0.003436 217.00594 254.62454
282.0 0.00355 216.93723 249.15614
242.0 0.00413 216.86774 243.69038
211.0 0.00474 216.79756 238.67853
205.0 0.00488 216.72672 234.37068
231.0 0.00433 216.65523 230.90739
222.0 0.00450 216.58302 228.28767
221.0 0.00452 216.51018 226.36922
201.0 0.00498 216.43672 225.26001
220.0 0.00455 216.36256 224.78793
242.0 0.00413 216.28775 224.92938
248.0 0.00403 216.21243 225.67775
252.0 0.00397 216.13655 227.02678
206.0 0.00485 216.05997 228.96309
244.0 0.00410 215.98294 231.41180
262.0 0.00382 215.90524 234.21678
261.0 0.00383 215.82715 237.09474
252.0 0.00397 215.74838 239.57672
245.0 0.00408 215.66922 241.11314
242.0 0.00413 215.58949 241.36047
258.0 0.00388 215.50931 240.18819
245.0 0.00408 215.42863 237.99997
254.0 0.00394 215.34755 235.40167
231.0 0.00433 215.26608 232.92448
217.0 0.00461 215.18410 230.91600
235.0 0.00426 215.10185 229.53137
259.0 0.00386 215.01912 228.74767
232.0 0.00431 214.93608 228.39012
263.0 0.00380 214.85265 228.14720
211.0 0.00474 214.76891 227.77377
263.0 0.00380 214.68488 227.05875
258.0 0.00388 214.60057 226.01881
230.0 0.00435 214.51599 224.80637
204.0 0.00490 214.43112 223.59616
222.0 0.00450 214.34608 222.52716
224.0 0.00446 214.26085 221.67369
205.0 0.00488 214.17534 221.14433
223.0 0.00448 214.08977 220.96445
219.0 0.00457 214.00391 221.20528
212.0 0.00472 213.91803 221.97247
222.0 0.00450 213.83202 223.44415
209.0 0.00478 213.74599 225.87865
211.0 0.00474 213.65976 229.59541
210.0 0.00476 213.57349 234.91542
241.0 0.00415 213.48727 242.06447
245.0 0.00408 213.40106 251.03894
263.0 0.00380 213.31485 261.52072
257.0 0.00389 213.22865 272.71472
269.0 0.00372 213.14255 283.30154
239.0 0.00418 213.05647 291.46414
274.0 0.00365 212.97060 295.33408
283.0 0.00353 212.88481 293.99478
284.0 0.00352 212.79915 288.20532
281.0 0.00356 212.71362 279.91238
276.0 0.00362 212.62834 271.16766
241.0 0.00415 212.54329 263.50034
254.0 0.00394 212.45853 257.76898
255.0 0.00392 212.37392 254.18260
240.0 0.00417 212.28967 252.41876
237.0 0.00422 212.20567 251.65306
253.0 0.00395 212.12202 250.80734
259.0 0.00386 212.03876 248.97694
252.0 0.00397 211.95584 245.81296
218.0 0.00459 211.87328 241.61963
248.0 0.00403 211.79121 236.98640
248.0 0.00403 211.70959 232.45555
248.0 0.00403 211.62839 228.40430
201.0 0.00498 211.54759 225.03781
206.0 0.00485 211.46745 222.43661
257.0 0.00389 211.38780 220.55066
234.0 0.00427 211.30869 219.29169
219.0 0.00457 211.23012 218.52271
220.0 0.00455 211.15216 218.15286
224.0 0.00446 211.07477 218.14526
207.0 0.00483 210.99806 218.46100
207.0 0.00483 210.92201 219.17513
228.0 0.00439 210.84666 220.47345
233.0 0.00429 210.77197 222.42079
249.0 0.00402 210.69804 225.46747
259.0 0.00386 210.62483 229.80344
214.0 0.00467 210.55240 235.59251
210.0 0.00476 210.48071 242.93320
246.0 0.00407 210.40984 251.64474
265.0 0.00377 210.33981 261.23239
278.0 0.00360 210.27057 270.76871
289.0 0.003460 210.20226 279.01947
296.0 0.003378 210.13481 284.77063
310.0 0.003226 210.06821 287.13678
324.0 0.003086 210.00256 285.94385
277.0 0.00361 209.93782 281.78986
264.0 0.00379 209.87405 276.09772
275.0 0.00364 209.81126 270.50516
282.0 0.00355 209.74939 266.33740
263.0 0.00380 209.68863 264.33008
280.0 0.00357 209.62877 264.59189
265.0 0.00377 209.57004 266.64764
262.0 0.00382 209.51231 269.60507
241.0 0.00415 209.45561 272.32993
278.0 0.00360 209.40009 273.73669
285.0 0.00351 209.34557 273.14017
301.0 0.003322 209.29214 270.61194
277.0 0.00361 209.23994 266.87848
262.0 0.00382 209.18881 262.76358
231.0 0.00433 209.13879 258.76810
262.0 0.00382 209.09001 254.98851
251.0 0.00398 209.04237 251.32138
252.0 0.00397 208.99594 247.73140
270.0 0.00370 208.95065 244.31517
300.0 0.003333 208.90663 241.13860
259.0 0.00386 208.86377 238.15779
254.0 0.00394 208.82214 235.33920
232.0 0.00431 208.78180 232.65825
251.0 0.00398 208.74268 230.24348
213.0 0.00469 208.70477 228.14323
237.0 0.00422 208.66814 226.28992
238.0 0.00420 208.63281 224.53694
226.0 0.00442 208.59879 222.76193
227.0 0.00441 208.56592 220.95140
201.0 0.00498 208.53442 219.18129
233.0 0.00429 208.50421 217.53854
250.0 0.00400 208.47533 216.07886
224.0 0.00446 208.44771 214.86229
199.0 0.00503 208.42140 213.82106
218.0 0.00459 208.39638 212.98233
190.0 0.00526 208.37273 212.32516
219.0 0.00457 208.35033 211.82037
241.0 0.00415 208.32927 211.43669
217.0 0.00461 208.30951 211.14485
214.0 0.00467 208.29111 210.92119
231.0 0.00433 208.27403 210.74730
208.0 0.00481 208.25827 210.60986
202.0 0.00495 208.24374 210.49959
204.0 0.00490 208.23056 210.41948
206.0 0.00485 208.21873 210.32713
218.0 0.00459 208.20819 210.26808
218.0 0.00459 208.19901 210.22067
198.0 0.00505 208.19104 210.18362
220.0 0.00455 208.18439 210.15605
222.0 0.00450 208.17905 210.13742
182.0 0.00549 208.17494 210.12714
198.0 0.00505 208.17216 210.12515
218.0 0.00459 208.17070 210.13124
245.0 0.00408 208.17043 210.14546
250.0 0.00400 208.17148 210.16759
215.0 0.00465 208.17377 210.19818
207.0 0.00483 208.17725 210.23708
224.0 0.00446 208.18199 210.28510
190.0 0.00526 208.18791 210.34236
215.0 0.00465 208.19516 210.40968
195.0 0.00513 208.20343 210.48770
203.0 0.00493 208.21307 210.57732
214.0 0.00467 208.22374 210.67972
220.0 0.00455 208.23561 210.79645
238.0 0.00420 208.24870 210.92888
244.0 0.00410 208.26289 211.02084
231.0 0.00433 208.27817 211.19292
223.0 0.00448 208.29457 211.38910
229.0 0.00437 208.31210 211.61438
180.0 0.00556 208.33067 211.87611
214.0 0.00467 208.35030 212.18570
218.0 0.00459 208.37097 212.56142
231.0 0.00433 208.39267 213.03882
207.0 0.00483 208.41536 213.65018
227.0 0.00441 208.43909 214.46809
214.0 0.00467 208.46370 215.58498
221.0 0.00452 208.48935 217.09831
211.0 0.00474 208.51588 219.19513
253.0 0.00395 208.54327 222.00862
228.0 0.00439 208.57167 225.68547
213.0 0.00469 208.60088 230.34007
231.0 0.00433 208.63092 236.01979
232.0 0.00431 208.66179 242.67078
230.0 0.00435 208.69354 250.11166
260.0 0.00385 208.72598 258.04254
277.0 0.00361 208.75923 266.15494
259.0 0.00386 208.79315 274.24521
300.0 0.003333 208.82782 282.18118
277.0 0.00361 208.86319 289.76608
293.0 0.003413 208.89926 296.73099
311.0 0.003215 208.93593 302.81744
319.0 0.003135 208.97321 307.74658
308.0 0.003247 209.01114 311.04977
333.0 0.003003 209.04950 312.45212
301.0 0.003322 209.08849 311.74719
302.0 0.003311 209.12802 309.07095
311.0 0.003215 209.16795 304.88037
341.0 0.002933 209.20840 299.82892
296.0 0.003378 209.24930 294.45554
289.0 0.003460 209.29051 289.06976
269.0 0.00372 209.33221 283.86069
255.0 0.00392 209.37421 279.03986
277.0 0.00361 209.41656 274.60620
269.0 0.00372 209.45923 270.33636
231.0 0.00433 209.50208 266.11984
260.0 0.00385 209.54530 261.84369
245.0 0.00408 209.58865 257.52786
239.0 0.00418 209.63216 253.28369
231.0 0.00433 209.67589 249.25443
226.0 0.00442 209.71967 245.48044
230.0 0.00435 209.76364 241.91434
258.0 0.00388 209.80765 238.52773
239.0 0.00418 209.85175 235.41908
215.0 0.00465 209.89583 232.70752
207.0 0.00483 209.93987 230.63087
225.0 0.00444 209.98393 229.32407
217.0 0.00461 210.02786 228.95288
236.0 0.00424 210.07173 229.66322
223.0 0.00448 210.11551 231.55830
220.0 0.00455 210.15907 234.55771
209.0 0.00478 210.20256 238.44930
238.0 0.00420 210.24573 242.90030
217.0 0.00461 210.28877 247.37518
260.0 0.00385 210.33145 251.18520
293.0 0.003413 210.37393 253.58542
246.0 0.00407 210.41608 254.10194
282.0 0.00355 210.45784 252.85046
240.0 0.00417 210.49922 250.57018
237.0 0.00422 210.54030 248.23674
211.0 0.00474 210.58095 246.69177
245.0 0.00408 210.62105 246.50072
254.0 0.00394 210.66078 247.80260
242.0 0.00413 210.69998 250.44572
236.0 0.00424 210.73866 253.89191
260.0 0.00385 210.77684 257.26529
261.0 0.00383 210.81435 259.46844
273.0 0.00366 210.85138 259.56296
269.0 0.00372 210.88771 257.25803
253.0 0.00395 210.92348 253.06683
246.0 0.00407 210.95857 247.91760
229.0 0.00437 210.99289 242.71609
243.0 0.00412 211.02657 238.10364
205.0 0.00488 211.05952 234.46819
207.0 0.00483 211.09169 231.90227
252.0 0.00397 211.12318 230.30283
199.0 0.00503 211.15381 229.38280
219.0 0.00457 211.18367 228.73792
230.0 0.00435 211.21262 227.96922
239.0 0.00418 211.24077 226.83266
216.0 0.00463 211.26810 225.31880
230.0 0.00435 211.29453 223.58301
244.0 0.00410 211.32007 221.80925
212.0 0.00472 211.34462 220.15083
206.0 0.00485 211.36829 218.70349
204.0 0.00490 211.39102 217.51697
217.0 0.00461 211.41280 216.59311
205.0 0.00488 211.43361 215.91008
213.0 0.00469 211.45338 215.42897
211.0 0.00474 211.47218 215.10425
206.0 0.00485 211.48996 214.89525
243.0 0.00412 211.50670 214.77036
208.0 0.00481 211.52246 214.70871
209.0 0.00478 211.53716 214.69781
214.0 0.00467 211.55075 214.73643
216.0 0.00463 211.56334 214.83186
196.0 0.00510 211.57480 214.99927
214.0 0.00467 211.58521 215.26132
203.0 0.00493 211.59453 215.64485
242.0 0.00413 211.60272 216.17705
207.0 0.00483 211.60988 216.87805
242.0 0.00413 211.61584 217.75011
214.0 0.00467 211.62076 218.77315
231.0 0.00433 211.62460 219.89017
238.0 0.00420 211.62721 221.00763
217.0 0.00461 211.62878 221.98964
242.0 0.00413 211.62923 222.67894
215.0 0.00465 211.62854 222.96419
228.0 0.00439 211.62671 222.85535
234.0 0.00427 211.62376 222.49196
232.0 0.00431 211.61975 222.07092
232.0 0.00431 211.61453 221.77956
251.0 0.00398 211.60831 221.76839
233.0 0.00429 211.60089 222.16838
216.0 0.00463 211.59244 223.05743
216.0 0.00463 211.58282 224.50064
226.0 0.00442 211.57213 226.58676
255.0 0.00392 211.56035 229.40016
207.0 0.00483 211.54749 233.02861
230.0 0.00435 211.53349 237.59097
240.0 0.00417 211.51849 243.20541
233.0 0.00429 211.50247 249.95766
269.0 0.00372 211.48529 257.74319
291.0 0.003436 211.46715 266.14404
262.0 0.00382 211.44798 274.40817
297.0 0.003367 211.42780 281.43518
301.0 0.003322 211.40652 286.01215
331.0 0.003021 211.38426 287.40829
321.0 0.003115 211.36116 285.51736
334.0 0.002994 211.33702 280.95651
296.0 0.003378 211.31190 274.89059
258.0 0.00388 211.28590 268.57910
302.0 0.003311 211.25888 263.11105
249.0 0.00402 211.23106 259.18024
232.0 0.00431 211.20232 257.06885
253.0 0.00395 211.17271 256.63950
242.0 0.00413 211.14221 257.36783
251.0 0.00398 211.11089 258.51352
291.0 0.003436 211.07881 259.33267
263.0 0.00380 211.04591 259.26422
262.0 0.00382 211.01216 258.05026
290.0 0.003448 210.97775 255.83325
237.0 0.00422 210.94260 253.11383
223.0 0.00448 210.90668 250.68761
236.0 0.00424 210.87010 249.40471
213.0 0.00469 210.83282 250.02249
239.0 0.00418 210.79495 253.08922
203.0 0.00493 210.75638 258.91556
291.0 0.003436 210.71730 267.32309
294.0 0.003401 210.67763 277.85724
291.0 0.003436 210.63733 289.55887
300.0 0.003333 210.59654 300.91776
299.0 0.003344 210.55524 310.00919
332.0 0.003012 210.51350 314.80856
364.0 0.002747 210.47125 314.09995
341.0 0.002933 210.42854 308.19464
360.0 0.002778 210.38550 298.79556
311.0 0.003215 210.34204 288.02808
260.0 0.00385 210.29826 277.74350
259.0 0.00386 210.25407 269.18637
242.0 0.00413 210.20961 262.92297
229.0 0.00437 210.16492 259.11575
276.0 0.00362 210.11986 257.31665
249.0 0.00402 210.07472 256.72250
256.0 0.00391 210.02933 256.28561
269.0 0.00372 209.98367 255.01485
263.0 0.00380 209.93794 252.37524
252.0 0.00397 209.89206 248.46883
263.0 0.00380 209.84612 243.84650
243.0 0.00412 209.80008 239.13396
238.0 0.00420 209.75398 234.83398
208.0 0.00481 209.70789 231.24623
235.0 0.00426 209.66174 228.58189
218.0 0.00459 209.61569 226.79707
242.0 0.00413 209.56975 225.74054
235.0 0.00426 209.52379 225.15370
224.0 0.00446 209.47800 224.72815
225.0 0.00444 209.43227 224.16331
208.0 0.00481 209.38673 223.29663
219.0 0.00457 209.34137 222.14153
233.0 0.00429 209.29626 220.83408
232.0 0.00431 209.25128 219.54066
252.0 0.00397 209.20660 218.38167
247.0 0.00405 209.16228 217.46191
213.0 0.00469 209.11816 216.80249
235.0 0.00426 209.07440 216.38957
222.0 0.00450 209.03104 216.16922
212.0 0.00472 208.98787 216.05124
195.0 0.00513 208.94524 215.93341
206.0 0.00485 208.90298 215.72650
226.0 0.00442 208.86110 215.39722
220.0 0.00455 208.81975 214.97072
240.0 0.00417 208.77884 214.51547
201.0 0.00498 208.73846 214.05040
239.0 0.00418 208.69849 213.62187
231.0 0.00433 208.65910 213.24487
235.0 0.00426 208.62029 212.91570
209.0 0.00478 208.58199 212.63293
227.0 0.00441 208.54427 212.39841
212.0 0.00472 208.50720 212.22276
225.0 0.00444 208.47067 212.10245
220.0 0.00455 208.43488 212.04832
243.0 0.00412 208.39961 212.06877
212.0 0.00472 208.36510 212.17654
208.0 0.00481 208.33118 212.39238
212.0 0.00472 208.29807 212.75597
215.0 0.00465 208.26555 213.30516
218.0 0.00459 208.23375 214.11819
222.0 0.00450 208.20277 215.28410
211.0 0.00474 208.17245 216.91069
210.0 0.00476 208.14290 219.10533
222.0 0.00450 208.11414 221.93410
230.0 0.00435 208.08609 225.43315
247.0 0.00405 208.05890 229.50760
206.0 0.00485 208.03244 233.96120
238.0 0.00420 208.00684 238.44858
227.0 0.00441 207.98204 242.46126
229.0 0.00437 207.95804 245.43762
246.0 0.00407 207.93489 246.96107
247.0 0.00405 207.91263 247.04420
247.0 0.00405 207.89108 246.10115
240.0 0.00417 207.87048 244.75093
228.0 0.00439 207.85072 243.54099
262.0 0.00382 207.83186 242.75032
238.0 0.00420 207.81377 242.52126
230.0 0.00435 207.79659 242.74010
246.0 0.00407 207.78035 243.08270
259.0 0.00386 207.76498 243.11298
223.0 0.00448 207.75043 242.46178
265.0 0.00377 207.73685 240.96899
252.0 0.00397 207.72412 238.66612
230.0 0.00435 207.71231 235.87943
221.0 0.00452 207.70143 232.88754
207.0 0.00483 207.69148 230.07727
226.0 0.00442 207.68243 227.65002
221.0 0.00452 207.67421 225.72195
194.0 0.00515 207.66702 224.31978
221.0 0.00452 207.66074 223.38293
217.0 0.00461 207.65538 222.80997
202.0 0.00495 207.65089 222.51131
208.0 0.00481 207.64746 222.49066
211.0 0.00474 207.64485 222.86163
235.0 0.00426 207.64330 223.85728
185.0 0.00541 207.64261 225.67435
213.0 0.00469 207.64287 228.45396
229.0 0.00437 207.64410 232.25398
236.0 0.00424 207.64630 236.97284
223.0 0.00448 207.64949 242.31535
246.0 0.00407 207.65366 247.75977
223.0 0.00448 207.65872 252.56706
266.0 0.00376 207.66483 255.84445
268.0 0.00373 207.67191 256.82504
273.0 0.00366 207.68001 255.30029
229.0 0.00437 207.68906 251.76729
246.0 0.00407 207.69914 247.13028
238.0 0.00420 207.71025 242.28941
210.0 0.00476 207.72231 237.94005
222.0 0.00450 207.73549 234.47504
253.0 0.00395 207.74963 232.10953
230.0 0.00435 207.76488 230.84819
254.0 0.00394 207.78119 230.40631
227.0 0.00441 207.79858 230.38901
228.0 0.00439 207.81700 230.31415
237.0 0.00422 207.83650 229.75281
226.0 0.00442 207.85718 228.50130
212.0 0.00472 207.87891 226.64340
226.0 0.00442 207.90181 224.45265
230.0 0.00435 207.92581 222.20015
208.0 0.00481 207.95107 220.12955
231.0 0.00433 207.97742 218.36452
228.0 0.00439 208.00502 217.05359
209.0 0.00478 208.03380 216.19051
210.0 0.00476 208.06384 215.74413
229.0 0.00437 208.09505 215.64391
223.0 0.00448 208.12761 215.79805
207.0 0.00483 208.16148 216.07733
215.0 0.00465 208.19658 216.40195
197.0 0.00508 208.23309 216.65767
216.0 0.00463 208.27087 216.79555
234.0 0.00427 208.31009 216.77365
240.0 0.00417 208.35071 216.57552
219.0 0.00457 208.39268 216.23267
231.0 0.00433 208.43617 215.84186
223.0 0.00448 208.48116 215.49300
253.0 0.00395 208.52763 215.27579
216.0 0.00463 208.57561 215.26219
230.0 0.00435 208.62514 215.50714
237.0 0.00422 208.67628 216.05663
198.0 0.00505 208.72897 216.93614
197.0 0.00508 208.78331 218.17874
237.0 0.00422 208.83937 219.77727
253.0 0.00395 208.89708 221.73621
212.0 0.00472 208.95654 223.93065
225.0 0.00444 209.01770 226.26620
219.0 0.00457 209.08064 228.57327
252.0 0.00397 209.14545 230.60011
250.0 0.00400 209.21204 232.05785
241.0 0.00415 209.28053 232.74188
218.0 0.00459 209.35083 232.64307
230.0 0.00435 209.42310 231.95110
222.0 0.00450 209.49731 230.93240
217.0 0.00461 209.57341 229.82541
224.0 0.00446 209.65160 228.77356
224.0 0.00446 209.73174 227.83250
232.0 0.00431 209.81392 227.01646
237.0 0.00422 209.89816 226.30292
227.0 0.00441 209.98445 225.70593
231.0 0.00433 210.07291 225.19313
224.0 0.00446 210.16339 224.68961
248.0 0.00403 210.25601 224.11226
249.0 0.00402 210.35081 223.42909
207.0 0.00483 210.44774 222.68213
234.0 0.00427 210.54678 221.95317
241.0 0.00415 210.64803 221.33279
236.0 0.00424 210.75137 220.90909
227.0 0.00441 210.85701 220.71469
214.0 0.00467 210.96466 220.83525
212.0 0.00472 211.07462 221.34177
188.0 0.00532 211.18660 222.34081
222.0 0.00450 211.30069 223.92203
205.0 0.00488 211.41707 226.12978
223.0 0.00448 211.53551 228.91217
255.0 0.00392 211.65604 232.15692
224.0 0.00446 211.77850 235.62454
230.0 0.00435 211.90300 238.92270
238.0 0.00420 212.02969 241.55484
298.0 0.003356 212.15817 242.99791
296.0 0.003378 212.28868 242.95120
261.0 0.00383 212.42081 241.48274
270.0 0.00370 212.55487 239.03831
233.0 0.00429 212.69077 236.16908
225.0 0.00444 212.82814 233.35770
223.0 0.00448 212.96735 230.97755
175.0 0.00571 213.10800 229.21036
212.0 0.00472 213.24997 228.11958
222.0 0.00450 213.39351 227.64767
223.0 0.00448 213.53815 227.62274
233.0 0.00429 213.68414 227.78749
213.0 0.00469 213.83101 227.85464
243.0 0.00412 213.97887 227.58530
235.0 0.00426 214.12767 226.87747
237.0 0.00422 214.27704 225.79597
219.0 0.00457 214.42708 224.49464
247.0 0.00405 214.57748 223.13246
223.0 0.00448 214.72821 221.84680
209.0 0.00478 214.87926 220.74471
227.0 0.00441 215.03006 219.81314
205.0 0.00488 215.18082 219.09232
229.0 0.00437 215.33116 218.57159
231.0 0.00433 215.48097 218.22343
213.0 0.00469 215.63034 218.01224
230.0 0.00435 215.77855 217.90536
205.0 0.00488 215.92592 217.87328
228.0 0.00439 216.07198 217.89293
215.0 0.00465 216.21649 217.94730
243.0 0.00412 216.35959 217.98209
224.0 0.00446 216.50064 218.07631
225.0 0.00444 216.63977 218.18179
207.0 0.00483 216.77657 218.30705
222.0 0.00450 216.91087 218.42769
206.0 0.00485 217.04272 218.55453
199.0 0.00503 217.17154 218.68573
215.0 0.00465 217.29729 218.82178
225.0 0.00444 217.41978 218.96213
219.0 0.00457 217.53876 219.10663
215.0 0.00465 217.65410 219.27107
242.0 0.00413 217.76553 219.42506
222.0 0.00450 217.87300 219.56856
247.0 0.00405 217.97617 219.73517
213.0 0.00469 218.07491 219.91035
233.0 0.00429 218.16919 220.10559
200.0 0.00500 218.25871 220.31683
226.0 0.00442 218.34352 220.54674
211.0 0.00474 218.42346 220.81401
224.0 0.00446 218.49821 221.13704
220.0 0.00455 218.56807 221.53778
218.0 0.00459 218.63277 222.04585
221.0 0.00452 218.69241 222.69688
239.0 0.00418 218.74690 223.52705
239.0 0.00418 218.79640 224.55388
209.0 0.00478 218.84097 225.80655
210.0 0.00476 218.88066 227.28235
249.0 0.00402 218.91570 228.96323
187.0 0.00535 218.94632 230.80704
241.0 0.00415 218.97281 232.73868
231.0 0.00433 218.99550 234.66843
245.0 0.00408 219.01460 236.51823
221.0 0.00452 219.03078 238.28877
235.0 0.00426 219.04451 240.08701
236.0 0.00424 219.05621 242.09428
222.0 0.00450 219.06680 244.46518
253.0 0.00395 219.07692 247.23366
234.0 0.00427 219.08743 250.28555
276.0 0.00362 219.09927 253.32977
229.0 0.00437 219.11349 255.95462
290.0 0.003448 219.13132 257.71957
255.0 0.00392 219.15396 258.29254
247.0 0.00405 219.18297 257.59869
252.0 0.00397 219.21973 255.86093
251.0 0.00398 219.26604 253.53694
257.0 0.00389 219.32381 251.15628
253.0 0.00395 219.39491 249.27794
262.0 0.00382 219.48174 248.31050
231.0 0.00433 219.58649 248.54407
238.0 0.00420 219.71173 250.10689
262.0 0.00382 219.86053 252.94441
257.0 0.00389 220.03548 256.80988
260.0 0.00385 220.24022 261.29193
274.0 0.00365 220.47792 265.84497
305.0 0.003279 220.75244 269.83151
260.0 0.00385 221.06793 272.58759
298.0 0.003356 221.42828 273.53799
317.0 0.003155 221.83879 272.42581
307.0 0.003257 222.30367 269.47849
293.0 0.003413 222.82829 265.35797
280.0 0.00357 223.41936 260.84109
265.0 0.00377 224.08107 256.61914
243.0 0.00412 224.82158 253.17020
231.0 0.00433 225.64635 250.78091
221.0 0.00452 226.56284 249.55244
242.0 0.00413 227.58005 249.43518
239.0 0.00418 228.70459 250.26170
258.0 0.00388 229.94655 251.76488
274.0 0.00365 231.31363 253.62706
257.0 0.00389 232.81580 255.56319
248.0 0.00403 234.46564 257.43442
240.0 0.00417 236.27138 259.30154
252.0 . . .
loop_
_refln_index_h
_refln_index_k
_refln_index_l
_pd_refln_wavelength_id
_refln_observed_status
_refln_F_squared_meas
_refln_F_squared_calc
_refln_phase_calc
_refln_d_spacing
_gsas_i100_meas
1 0 0 1 o 245.012 237.643 0.00 8.21514 39.25
1 0 0 2 o 251.477 237.643 0.00 8.21514 15.21
1 1 0 1 o 8.753 10.235 180.00 4.84528 0.86
1 1 0 2 o 8.824 10.235 180.00 4.84528 0.33
0 0 1 1 o 5.812 10.203 0.00 4.54472 0.21
0 0 1 2 o 12.460 10.203 0.00 4.54472 0.20
2 0 0 1 o 169.245 152.497 180.00 4.10757 6.43
1 0 -1 1 o 181.213 162.948 0.00 4.10054 6.47
2 0 0 2 o 171.155 152.497 180.00 4.10757 2.46
1 0 -1 2 o 180.639 162.948 0.00 4.10054 2.44
1 0 1 1 o 1194.707 1193.891 180.00 3.86354 43.97
1 0 1 2 o 1214.310 1193.891 180.00 3.86354 16.89
0 1 1 1 o -1.765 1.330 0.00 3.62277 0.00
0 1 1 2 o -1.765 1.330 0.00 3.62277 0.00
2 1 0 1 o 489.201 470.959 0.00 3.38940 29.28
1 1 -1 1 o 1777.316 1735.553 180.00 3.38544 100.00
2 1 0 2 o 477.574 470.959 0.00 3.38940 10.82
1 1 -1 2 o 1730.831 1735.553 180.00 3.38544 36.85
1 1 1 1 o 404.680 398.698 180.00 3.24834 22.17
1 1 1 2 o 401.404 398.698 180.00 3.24834 8.31
2 0 -1 1 o 405.295 437.557 0.00 3.15968 8.45
2 0 -1 2 o 370.676 437.557 0.00 3.15968 2.94
0 2 0 1 o 2579.349 2536.113 180.00 2.99998 51.32
0 2 0 2 o 2473.991 2536.113 180.00 2.99998 18.63
2 0 1 1 o 264.237 252.009 180.00 2.94621 5.00
2 0 1 2 o 264.887 252.009 180.00 2.94621 1.89
1 2 0 1 o 165.903 159.768 180.00 2.81797 6.32
1 2 0 2 o 170.600 159.768 180.00 2.81797 2.45
2 1 -1 1 o 29.569 27.439 180.00 2.79571 1.13
2 1 -1 2 o 31.787 27.439 180.00 2.79571 0.46
3 0 0 1 o 854.566 819.166 180.00 2.73838 13.64
3 0 0 2 o 780.254 819.166 180.00 2.73838 4.73
2 1 1 1 o 917.317 904.771 180.00 2.64458 30.75
2 1 1 2 o 841.017 904.771 180.00 2.64458 10.70
0 2 1 1 o -1.004 0.000 0.00 2.50370 0.00
0 2 1 2 o -1.004 0.000 0.00 2.50370 0.00
3 1 0 1 o 0.394 4.905 180.00 2.49119 0.00
3 1 0 2 o 2.633 4.905 180.00 2.49119 0.02
2 2 0 1 o 72.014 70.193 0.00 2.42264 2.09
3 0 -1 1 o 1079.200 1063.432 0.00 2.42186 12.39
1 2 -1 1 o 69.048 68.517 180.00 2.42119 1.89
2 2 0 2 o 68.792 70.193 0.00 2.42264 0.76
3 0 -1 2 o 1040.158 1063.432 0.00 2.42186 4.52
1 2 -1 2 o 66.972 68.517 180.00 2.42119 0.69
1 2 1 1 o 637.031 638.211 0.00 2.36953 17.76
1 2 1 2 o 625.510 638.211 0.00 2.36953 6.60
3 0 1 1 o 17.866 15.678 180.00 2.27595 0.16
0 0 2 1 o 1.148 0.892 0.00 2.27236 0.01
3 0 1 2 o 11.856 15.678 180.00 2.27595 0.04
0 0 2 2 o -0.190 0.892 0.00 2.27236 0.00
3 1 -1 1 o 4.417 10.145 0.00 2.24581 0.13
3 1 -1 2 o 7.972 10.145 0.00 2.24581 0.08
1 0 -2 1 o 116.861 115.576 180.00 2.23072 1.25
1 0 -2 2 o 149.091 115.576 180.00 2.23072 0.59
2 2 -1 1 o 309.174 289.261 180.00 2.17557 6.87
2 2 -1 2 o 297.043 289.261 180.00 2.17557 2.50
1 0 2 1 o 259.143 253.074 0.00 2.15166 2.76
1 0 2 2 o 270.722 253.074 0.00 2.15166 1.09
3 1 1 1 o 93.245 90.520 180.00 2.12800 1.92
0 1 2 1 o 725.264 722.955 180.00 2.12506 15.08
3 1 1 2 o 90.338 90.520 180.00 2.12800 0.71
0 1 2 2 o 706.330 722.955 180.00 2.12506 5.56
2 2 1 1 o 110.991 106.053 0.00 2.10204 2.34
2 2 1 2 o 108.141 106.053 0.00 2.10204 0.86
1 1 -2 1 o 155.722 160.072 0.00 2.09089 2.99
1 1 -2 2 o 163.074 160.072 0.00 2.09089 1.18
4 0 0 1 o 305.664 283.157 180.00 2.05379 2.55
2 0 -2 1 o 378.167 357.348 180.00 2.05027 3.04
4 0 0 2 o 302.773 283.157 180.00 2.05379 0.95
2 0 -2 2 o 393.750 357.348 180.00 2.05027 1.19
1 1 2 1 o 107.240 106.903 180.00 2.02536 2.04
3 2 0 1 o 451.826 458.577 0.00 2.02250 8.70
1 1 2 2 o 104.644 106.903 180.00 2.02536 0.75
3 2 0 2 o 437.982 458.577 0.00 2.02250 3.19
1 3 0 1 o 29.805 30.009 180.00 1.94323 0.53
4 1 0 1 o 92.579 93.030 180.00 1.94310 1.49
2 1 -2 1 o 0.990 0.975 0.00 1.94012 0.01
1 3 0 2 o 30.521 30.009 180.00 1.94323 0.20
4 1 0 2 o 94.390 93.030 180.00 1.94310 0.57
2 1 -2 2 o 0.934 0.975 0.00 1.94012 0.00
2 0 2 1 o 36.696 50.122 0.00 1.93177 0.33
2 0 2 2 o 50.280 50.122 0.00 1.93177 0.16
4 0 -1 1 o 12.095 6.172 180.00 1.92289 0.08
4 0 -1 2 o 17.125 6.172 180.00 1.92289 0.04
3 2 -1 1 o 447.922 462.050 180.00 1.88443 6.98
3 2 -1 2 o 506.957 462.050 180.00 1.88443 2.96
2 1 2 1 o 11.848 10.125 0.00 1.83881 0.19
2 1 2 2 o 11.824 10.125 0.00 1.83881 0.07
4 1 -1 1 o 58.175 61.340 0.00 1.83115 0.85
0 3 1 1 o 18.738 20.226 180.00 1.83057 0.30
4 1 -1 2 o 60.781 61.340 0.00 1.83115 0.33
0 3 1 2 o 20.490 20.226 180.00 1.83057 0.12
4 0 1 1 o 597.312 541.350 0.00 1.82412 3.67
4 0 1 2 o 633.056 541.350 0.00 1.82412 1.47
3 2 1 1 o 0.651 0.543 180.00 1.81320 0.02
3 0 -2 1 o 52.873 48.670 0.00 1.81233 0.28
0 2 2 1 o 16.652 14.789 180.00 1.81138 0.24
3 2 1 2 o 0.843 0.543 180.00 1.81320 0.01
3 0 -2 2 o 59.306 48.670 0.00 1.81233 0.12
0 2 2 2 o 18.466 14.789 180.00 1.81138 0.10
2 3 0 1 o 204.453 193.627 180.00 1.79817 2.88
1 3 -1 1 o 614.036 571.974 0.00 1.79757 8.27
2 3 0 2 o 218.833 193.627 180.00 1.79817 1.16
1 3 -1 2 o 643.503 571.974 0.00 1.79757 3.27
1 2 -2 1 o 61.118 56.519 0.00 1.79008 0.90
1 2 -2 2 o 44.378 56.519 0.00 1.79008 0.26
1 3 1 1 o 131.001 122.663 0.00 1.77612 1.74
1 3 1 2 o 124.073 122.663 0.00 1.77612 0.62
1 2 2 1 o 103.190 130.043 180.00 1.74844 1.51
4 1 1 1 o 44.718 53.430 0.00 1.74525 0.51
1 2 2 2 o 104.520 130.043 180.00 1.74844 0.58
4 1 1 2 o 43.091 53.430 0.00 1.74525 0.19
3 1 -2 1 o 168.282 158.857 180.00 1.73491 1.92
3 1 -2 2 o 177.084 158.857 180.00 1.73491 0.76
4 2 0 1 o 172.068 182.487 0.00 1.69470 2.14
2 2 -2 1 o 254.933 265.056 0.00 1.69272 3.04
3 0 2 1 o 18.144 18.489 180.00 1.69133 0.09
4 2 0 2 o 180.814 182.487 0.00 1.69470 0.85
2 3 -1 1 o 38.454 38.524 0.00 1.68990 0.47
2 2 -2 2 o 268.188 265.056 0.00 1.69272 1.21
3 0 2 2 o 19.093 18.489 180.00 1.69133 0.04
2 3 -1 2 o 41.691 38.524 0.00 1.68990 0.19
2 3 1 1 o 329.359 294.674 0.00 1.65474 3.89
2 3 1 2 o 321.011 294.674 0.00 1.65474 1.43
5 0 0 1 o 0.811 0.586 180.00 1.64303 0.00
5 0 0 2 o 0.739 0.586 180.00 1.64303 0.00
3 1 2 1 o 664.813 660.788 0.00 1.62788 6.92
2 2 2 1 o 46.358 46.916 180.00 1.62417 0.58
3 1 2 2 o 655.620 660.788 0.00 1.62788 2.58
2 2 2 2 o 48.220 46.916 180.00 1.62417 0.23
4 2 -1 1 o 1.995 1.775 0.00 1.61889 0.02
3 3 0 1 o 0.134 0.036 180.00 1.61509 0.00
4 2 -1 2 o 3.088 1.775 0.00 1.61889 0.01
3 3 0 2 o 0.286 0.036 180.00 1.61509 0.00
5 1 0 1 o 262.416 290.228 180.00 1.58469 2.49
5 0 -1 1 o 236.802 247.105 180.00 1.58104 1.04
5 1 0 2 o 279.005 290.228 180.00 1.58469 1.00
4 0 -2 1 o 119.577 122.095 0.00 1.57984 0.50
5 0 -1 2 o 236.247 247.105 180.00 1.58104 0.39
4 0 -2 2 o 110.857 122.095 0.00 1.57984 0.18
4 2 1 1 o 306.167 304.776 180.00 1.55861 3.04
4 2 1 2 o 314.218 304.776 180.00 1.55861 1.17
3 2 -2 1 o 18.936 18.872 180.00 1.55124 0.16
3 2 -2 2 o 26.196 18.872 180.00 1.55124 0.08
3 3 -1 1 o 11.591 10.350 180.00 1.54213 0.12
3 3 -1 2 o 8.887 10.350 180.00 1.54213 0.04
5 1 -1 1 o 55.386 50.170 0.00 1.52886 0.48
4 1 -2 1 o 515.814 468.564 180.00 1.52777 4.08
5 1 -1 2 o 57.985 50.170 0.00 1.52886 0.19
4 1 -2 2 o 543.660 468.564 180.00 1.52777 1.62
0 0 3 1 o 8.957 13.667 0.00 1.51491 0.05
5 0 1 1 o 31.992 42.075 0.00 1.51160 0.13
0 0 3 2 o 10.480 13.667 0.00 1.51491 0.02
1 0 -3 1 o 118.988 143.947 0.00 1.50880 0.52
5 0 1 2 o 36.174 42.075 0.00 1.51160 0.06
1 0 -3 2 o 130.320 143.947 0.00 1.50880 0.21
3 3 1 1 o 90.504 93.514 0.00 1.50235 0.88
0 3 2 1 o 419.222 410.443 0.00 1.50132 3.91
0 4 0 1 o 580.806 538.457 0.00 1.49999 2.32
3 3 1 2 o 102.094 93.514 0.00 1.50235 0.37
0 3 2 2 o 438.954 410.443 0.00 1.50132 1.54
0 4 0 2 o 547.000 538.457 0.00 1.49999 0.83
1 3 -2 1 o 35.619 46.860 180.00 1.48912 0.35
1 3 -2 2 o 37.827 46.860 180.00 1.48912 0.14
1 4 0 1 o 69.084 55.247 0.00 1.47560 0.55
3 2 2 1 o 17.892 14.792 0.00 1.47331 0.15
4 0 2 1 o 5.814 4.485 180.00 1.47311 0.03
1 4 0 2 o 62.941 55.247 0.00 1.47560 0.19
1 0 3 1 o 13.917 12.529 180.00 1.47148 0.06
3 2 2 2 o 14.645 14.792 0.00 1.47331 0.05
4 0 2 2 o 4.351 4.485 180.00 1.47311 0.01
0 1 3 1 o 131.873 138.644 0.00 1.46881 1.13
1 0 3 2 o 11.746 12.529 180.00 1.47148 0.02
5 1 1 1 o 75.921 74.946 0.00 1.46580 0.61
0 1 3 2 o 144.842 138.644 0.00 1.46881 0.47
1 3 2 1 o 76.745 72.513 0.00 1.46489 0.69
1 1 -3 1 o 10.118 9.500 0.00 1.46324 0.08
5 1 1 2 o 78.642 74.946 0.00 1.46580 0.24
1 3 2 2 o 75.049 72.513 0.00 1.46489 0.25
1 1 -3 2 o 7.561 9.500 0.00 1.46324 0.02
2 0 -3 1 o 51.425 46.791 0.00 1.45486 0.19
2 0 -3 2 o 27.271 46.791 0.00 1.45486 0.04
5 2 0 1 o 0.070 0.030 0.00 1.44106 0.00
5 2 0 2 o 0.038 0.030 0.00 1.44106 0.00
4 3 0 1 o 57.918 60.428 0.00 1.43285 0.50
2 3 -2 1 o 0.337 0.344 0.00 1.43165 0.00
4 1 2 1 o 114.733 121.497 0.00 1.43062 0.86
4 3 0 2 o 54.114 60.428 0.00 1.43285 0.18
1 1 3 1 o 131.756 148.059 0.00 1.42913 1.09
2 3 -2 2 o 0.273 0.344 0.00 1.43165 0.00
4 1 2 2 o 100.834 121.497 0.00 1.43062 0.29
1 1 3 2 o 129.962 148.059 0.00 1.42913 0.41
0 4 1 1 o 4.509 4.950 180.00 1.42441 0.05
0 4 1 2 o 10.839 4.950 180.00 1.42441 0.03
2 1 -3 1 o 206.764 189.011 0.00 1.41389 1.45
1 4 -1 2 o 28.578 16.569 0.00 1.40870 0.08
2 1 -3 2 o 262.602 189.011 0.00 1.41389 0.69
2 4 0 1 o 40.683 25.648 180.00 1.40898 0.30
1 4 -1 1 o 26.564 16.569 0.00 1.40870 0.19
2 4 0 2 o 45.409 25.648 180.00 1.40898 0.13
5 2 -1 1 o 166.893 157.511 0.00 1.39869 1.23
1 4 1 1 o 228.044 212.649 180.00 1.39830 1.69
4 2 -2 1 o 81.395 75.002 180.00 1.39786 0.58
5 2 -1 2 o 173.605 157.511 0.00 1.39869 0.48
1 4 1 2 o 237.734 212.649 180.00 1.39830 0.66
4 2 -2 2 o 84.995 75.002 180.00 1.39786 0.23
2 0 3 1 o 318.874 291.092 180.00 1.39000 1.17
2 3 2 1 o 11.566 10.387 180.00 1.38946 0.10
2 0 3 2 o 286.741 291.092 180.00 1.39000 0.40
4 3 -1 1 o 79.493 81.613 180.00 1.38614 0.63
2 3 2 2 o 10.080 10.387 180.00 1.38946 0.03
4 3 -1 2 o 60.910 81.613 180.00 1.38614 0.19
5 0 -2 1 o 6.533 62.596 0.00 1.37817 0.04
5 0 -2 2 o 36.802 62.596 0.00 1.37817 0.05
6 0 0 1 o 42.153 28.311 0.00 1.36919 0.14
3 0 -3 1 o 1.620 0.602 0.00 1.36685 0.00
6 0 0 2 o 94.065 28.311 0.00 1.36919 0.11
3 0 -3 2 o 0.539 0.602 0.00 1.36685 0.00
2 4 -1 1 o 148.781 106.252 0.00 1.35505 1.02
2 1 3 1 o 5.653 4.186 0.00 1.35414 0.04
0 2 3 1 o 12.905 11.184 180.00 1.35227 0.10
2 4 -1 2 o 116.991 106.252 0.00 1.35505 0.31
2 1 3 2 o 4.419 4.186 0.00 1.35414 0.01
5 2 1 1 o 29.120 29.428 180.00 1.34992 0.21
0 2 3 2 o 10.077 11.184 180.00 1.35227 0.03
1 2 -3 1 o 115.513 133.166 180.00 1.34792 0.83
4 3 1 1 o 11.641 13.324 180.00 1.34774 0.08
5 2 1 2 o 25.429 29.428 180.00 1.34992 0.07
1 2 -3 2 o 126.681 133.166 180.00 1.34792 0.34
4 3 1 2 o 12.882 13.324 180.00 1.34774 0.03
5 1 -2 1 o 2.627 2.548 180.00 1.34319 0.01
3 3 -2 1 o 113.200 109.247 0.00 1.34297 0.80
5 1 -2 2 o 2.174 2.548 180.00 1.34319 0.00
3 3 -2 2 o 92.987 109.247 0.00 1.34297 0.25
6 0 -1 1 o 308.991 323.483 180.00 1.33717 0.91
2 4 1 1 o 32.273 34.194 180.00 1.33672 0.22
6 1 0 1 o 0.575 0.659 0.00 1.33487 0.00
6 0 -1 2 o 267.669 323.483 180.00 1.33717 0.30
2 4 1 2 o 28.232 34.194 180.00 1.33672 0.07
3 1 -3 1 o 209.071 253.009 0.00 1.33270 1.25
6 1 0 2 o 0.543 0.659 0.00 1.33487 0.00
3 1 -3 2 o 153.164 253.009 0.00 1.33270 0.36
4 2 2 1 o 5.125 6.970 0.00 1.32229 0.05
1 2 3 1 o 11.923 12.963 0.00 1.32112 0.09
4 2 2 2 o 6.926 6.970 0.00 1.32229 0.02
1 2 3 2 o 14.466 12.963 0.00 1.32112 0.04
3 4 0 1 o 209.761 167.805 180.00 1.31556 1.39
3 4 0 2 o 228.769 167.805 180.00 1.31556 0.57
2 2 -3 1 o 39.910 28.544 180.00 1.30905 0.25
2 2 -3 2 o 63.903 28.544 180.00 1.30905 0.15
6 1 -1 1 o 3.794 1.369 180.00 1.30515 0.02
6 1 -1 2 o 3.233 1.369 180.00 1.30515 0.01
3 3 2 1 o 362.793 323.549 180.00 1.29144 2.40
5 0 2 1 o 122.332 108.046 180.00 1.28917 0.34
3 3 2 2 o 372.973 323.549 180.00 1.29144 0.93
3 0 3 1 o 63.902 54.672 180.00 1.28785 0.20
6 0 1 1 o 20.905 20.205 180.00 1.28629 0.06
5 0 2 2 o 106.548 108.046 180.00 1.28917 0.11
3 0 3 2 o 43.212 54.672 180.00 1.28785 0.05
6 0 1 2 o 20.725 20.205 180.00 1.28629 0.02
3 4 -1 1 o 174.422 157.465 0.00 1.27522 1.08
3 4 -1 2 o 172.498 157.465 0.00 1.27522 0.40
5 3 0 1 o 136.982 155.010 0.00 1.26956 0.88
5 3 0 2 o 143.476 155.010 0.00 1.26956 0.35
4 0 -3 1 o 33.361 32.436 180.00 1.26219 0.09
2 2 3 1 o 271.218 251.904 0.00 1.26120 1.69
5 1 2 1 o 21.733 20.352 180.00 1.26041 0.12
3 1 3 1 o 0.105 0.097 180.00 1.25917 0.00
4 0 -3 2 o 32.853 32.436 180.00 1.26219 0.03
2 2 3 2 o 261.509 251.904 0.00 1.26120 0.62
6 1 1 1 o 246.835 234.623 0.00 1.25771 1.31
5 1 2 2 o 21.420 20.352 180.00 1.26041 0.04
3 1 3 2 o 0.050 0.097 180.00 1.25917 0.00
6 1 1 2 o 195.349 234.623 0.00 1.25771 0.40
3 4 1 1 o 3.845 4.232 0.00 1.25245 0.03
5 2 -2 1 o 52.478 57.537 180.00 1.25234 0.31
0 4 2 1 o 7.141 8.288 0.00 1.25185 0.04
3 4 1 2 o 2.132 4.232 0.00 1.25245 0.01
5 2 -2 2 o 33.318 57.537 180.00 1.25234 0.08
0 4 2 2 o 5.755 8.288 0.00 1.25185 0.01
6 2 0 1 o 34.007 32.084 180.00 1.24559 0.21
1 4 -2 1 o 30.060 26.333 180.00 1.24475 0.19
3 2 -3 1 o 2.000 1.795 180.00 1.24383 0.01
6 2 0 2 o 36.118 32.084 180.00 1.24559 0.08
1 4 -2 2 o 28.704 26.333 180.00 1.24475 0.07
3 2 -3 2 o 1.833 1.795 180.00 1.24383 0.00
5 3 -1 1 o 31.698 31.502 180.00 1.24030 0.19
4 3 -2 1 o 233.718 234.796 0.00 1.23972 1.33
5 3 -1 2 o 28.392 31.502 180.00 1.24030 0.07
4 3 -2 2 o 212.948 234.796 0.00 1.23972 0.46
4 1 -3 1 o 5.796 7.461 180.00 1.23516 0.03
4 1 -3 2 o 10.998 7.461 180.00 1.23516 0.02
1 4 2 2 o 96.073 57.231 0.00 1.23050 0.21
1 4 2 1 o 87.017 57.231 0.00 1.23050 0.52
6 2 -1 1 o 186.663 236.312 0.00 1.22134 1.02
6 2 -1 2 o 241.016 236.312 0.00 1.22134 0.49
4 4 0 1 o 88.826 78.562 180.00 1.21132 0.51
6 0 -2 1 o 14.158 12.383 0.00 1.21093 0.03
2 4 -2 1 o 146.680 128.912 180.00 1.21060 0.82
4 4 0 2 o 85.847 78.562 180.00 1.21132 0.19
6 0 -2 2 o 13.679 12.383 0.00 1.21093 0.01
2 4 -2 2 o 143.630 128.912 180.00 1.21060 0.30
0 3 3 1 o 76.390 68.335 180.00 1.20759 0.45
5 3 1 1 o 70.205 52.728 180.00 1.20591 0.40
0 3 3 2 o 104.857 68.335 180.00 1.20759 0.23
1 3 -3 1 o 5.724 3.808 180.00 1.20449 0.03
5 3 1 2 o 83.703 52.728 180.00 1.20591 0.18
1 3 -3 2 o 6.787 3.808 180.00 1.20449 0.01
1 5 0 1 o 12.779 11.636 0.00 1.18739 0.07
6 1 -2 1 o 61.483 57.818 0.00 1.18700 0.29
4 3 2 1 o 79.538 75.069 180.00 1.18609 0.44
1 3 3 1 o 91.466 85.581 180.00 1.18525 0.53
2 4 2 1 o 29.389 27.513 0.00 1.18476 0.18
1 5 0 2 o 12.397 11.636 0.00 1.18739 0.03
5 2 2 1 o 102.370 96.878 0.00 1.18444 0.54
6 1 -2 2 o 60.277 57.818 0.00 1.18700 0.11
3 2 3 1 o 46.907 47.335 0.00 1.18341 0.26
4 3 2 2 o 72.629 75.069 180.00 1.18609 0.15
4 4 -1 1 o 0.387 0.419 180.00 1.18271 0.00
1 3 3 2 o 74.542 85.581 180.00 1.18525 0.17
6 2 1 1 o 16.092 18.741 0.00 1.18220 0.08
2 4 2 2 o 22.401 27.513 0.00 1.18476 0.05
5 2 2 2 o 77.382 96.878 0.00 1.18444 0.16
3 2 3 2 o 35.306 47.335 0.00 1.18341 0.08
4 0 3 1 o 30.519 40.774 0.00 1.18020 0.07
4 4 -1 2 o 0.314 0.419 180.00 1.18271 0.00
6 2 1 2 o 12.811 18.741 0.00 1.18220 0.03
4 0 3 2 o 32.182 40.774 0.00 1.18020 0.03
2 3 -3 1 o 98.714 112.706 180.00 1.17651 0.53
2 3 -3 2 o 100.881 112.706 180.00 1.17651 0.20
7 0 0 1 o 201.062 224.431 0.00 1.17359 0.46
7 0 0 2 o 172.773 224.431 0.00 1.17359 0.15
4 2 -3 1 o 44.030 25.053 0.00 1.16341 0.21
4 2 -3 2 o 29.186 25.053 0.00 1.16341 0.06
0 5 1 1 o 10.679 9.555 0.00 1.16023 0.06
4 4 1 1 o 156.322 129.509 0.00 1.15858 0.84
4 1 3 1 o 130.435 106.087 180.00 1.15801 0.64
0 5 1 2 o 11.489 9.555 0.00 1.16023 0.02
7 0 -1 1 o 1.598 1.527 180.00 1.15613 0.00
4 4 1 2 o 131.497 129.509 0.00 1.15858 0.27
3 4 -2 1 o 4.140 4.132 0.00 1.15554 0.02
4 1 3 2 o 102.742 106.087 180.00 1.15801 0.19
5 0 -3 1 o 92.281 98.870 180.00 1.15488 0.19
7 0 -1 2 o 1.278 1.527 180.00 1.15613 0.00
3 4 -2 2 o 3.979 4.132 0.00 1.15554 0.01
5 0 -3 2 o 105.160 98.870 180.00 1.15488 0.08
2 5 0 1 o 81.337 74.797 0.00 1.15185 0.40
7 1 0 1 o 90.747 83.155 0.00 1.15177 0.41
1 5 -1 1 o 203.862 185.644 180.00 1.15169 0.97
2 5 0 2 o 81.961 74.797 0.00 1.15185 0.15
7 1 0 2 o 91.261 83.155 0.00 1.15177 0.15
1 5 -1 2 o 204.867 185.644 180.00 1.15169 0.37
1 5 1 1 o 50.529 34.596 180.00 1.14599 0.23
1 5 1 2 o 65.839 34.596 180.00 1.14599 0.11
2 3 3 1 o 7.040 2.194 180.00 1.14141 0.04
2 3 3 2 o 3.457 2.194 180.00 1.14141 0.01
6 0 2 1 o 1.183 0.932 180.00 1.13798 0.00
1 0 -4 1 o 113.554 119.682 180.00 1.13634 0.27
0 0 4 1 o 110.276 116.567 180.00 1.13618 0.27
7 1 -1 1 o 8.738 9.105 180.00 1.13525 0.05
6 0 2 2 o 0.897 0.932 180.00 1.13798 0.00
5 3 -2 1 o 1.519 1.554 0.00 1.13483 0.01
5 1 -3 1 o 65.307 68.476 180.00 1.13406 0.28
1 0 -4 2 o 106.169 119.682 180.00 1.13634 0.09
0 0 4 2 o 99.269 116.567 180.00 1.13618 0.09
7 1 -1 2 o 4.778 9.105 180.00 1.13525 0.01
5 3 -2 2 o 0.835 1.554 0.00 1.13483 0.00
5 1 -3 2 o 28.362 68.476 180.00 1.13406 0.05
6 3 0 1 o 0.022 0.204 0.00 1.12980 0.00
3 3 -3 1 o 142.112 169.330 180.00 1.12848 0.70
6 3 0 2 o 0.199 0.204 0.00 1.12980 0.00
3 3 -3 2 o 181.936 169.330 180.00 1.12848 0.33
6 2 -2 1 o 9.201 6.709 180.00 1.12290 0.04
3 4 2 1 o 9.394 5.880 180.00 1.12223 0.05
2 5 -1 1 o 21.303 10.950 180.00 1.12182 0.10
6 2 -2 2 o 13.224 6.709 180.00 1.12290 0.02
3 4 2 2 o 8.885 5.880 180.00 1.12223 0.02
2 5 -1 2 o 15.675 10.950 180.00 1.12182 0.03
6 1 2 1 o 78.679 66.287 180.00 1.11804 0.35
7 0 1 1 o 19.622 17.574 180.00 1.11749 0.05
1 1 -4 1 o 23.873 20.176 180.00 1.11650 0.11
0 1 4 1 o 2.999 2.537 0.00 1.11634 0.01
2 0 -4 1 o 0.275 0.185 0.00 1.11536 0.00
6 1 2 2 o 96.398 66.287 180.00 1.11804 0.16
1 0 4 1 o 1.785 1.154 180.00 1.11490 0.00
7 0 1 2 o 26.112 17.574 180.00 1.11749 0.02
1 1 -4 2 o 21.537 20.176 180.00 1.11650 0.04
0 1 4 2 o 2.525 2.537 0.00 1.11634 0.00
2 0 -4 2 o 0.159 0.185 0.00 1.11536 0.00
6 3 -1 2 o 1.040 1.033 0.00 1.11160 0.00
1 0 4 2 o 1.155 1.154 180.00 1.11490 0.00
2 5 1 2 o 120.010 107.908 180.00 1.11135 0.22
6 3 -1 1 o 1.209 1.033 0.00 1.11160 0.01
2 5 1 1 o 126.867 107.908 180.00 1.11135 0.60
5 4 0 1 o 0.066 0.039 0.00 1.10778 0.00
5 4 0 2 o 0.115 0.039 0.00 1.10778 0.00
3 5 0 1 o 0.073 0.110 0.00 1.09910 0.00
7 1 1 1 o 2.268 3.039 0.00 1.09859 0.01
4 2 3 1 o 29.524 38.622 180.00 1.09827 0.14
2 1 -4 1 o 43.437 46.537 180.00 1.09658 0.20
3 5 0 2 o 0.102 0.110 0.00 1.09910 0.00
1 1 4 1 o 75.695 77.755 180.00 1.09613 0.37
7 1 1 2 o 3.003 3.039 0.00 1.09859 0.00
4 2 3 2 o 38.762 38.622 180.00 1.09827 0.07
2 1 -4 2 o 53.520 46.537 180.00 1.09658 0.09
1 1 4 2 o 93.712 77.755 180.00 1.09613 0.17
7 2 0 1 o 196.662 160.277 180.00 1.09294 0.87
7 2 0 2 o 137.260 160.277 180.00 1.09294 0.24
