#------------------------------------------------------------------------------
#$Date: 2016-02-18 17:37:37 +0200 (Thu, 18 Feb 2016) $
#$Revision: 176729 $
#$URL: svn://www.crystallography.net/cod/cif/1/50/16/1501691.cif $
#------------------------------------------------------------------------------
#
# This file is available in the Crystallography Open Database (COD),
# http://www.crystallography.net/
#
# All data on this site have been placed in the public domain by the
# contributors.
#
data_1501691
loop_
_publ_author_name
'Migliorati, Valentina'
'Ballirano, Paolo'
'Gontrani, Lorenzo'
'Triolo, Alessandro'
'Caminiti, Ruggero'
_publ_section_title
;
 Thermal and structural properties of ethylammonium chloride and its
 mixture with water.
;
_journal_issue                   17
_journal_name_full               'The journal of physical chemistry. B'
_journal_page_first              4887
_journal_page_last               4899
_journal_paper_doi               10.1021/jp2010138
_journal_volume                  115
_journal_year                    2011
_chemical_formula_sum            'C2 H8 Cl N'
_chemical_formula_weight         81.55
_chemical_name_systematic        ' ?'
_space_group_IT_number           11
_symmetry_cell_setting           monoclinic
_symmetry_space_group_name_Hall  '-P 2yb'
_symmetry_space_group_name_H-M   'P 1 21/m 1'
_audit_creation_date             2010-05-18T16:32
_audit_creation_method           'from EXP file using GSAS2CIF'
_audit_update_record
' 2010-05-18T16:32  Initial CIF as created by GSAS2CIF'
_cell_angle_alpha                90.0
_cell_angle_beta                 94.0710(14)
_cell_angle_gamma                90.0
_cell_formula_units_Z            2
_cell_length_a                   8.24185(14)
_cell_length_b                   6.00052(8)
_cell_length_c                   4.55819(7)
_cell_volume                     224.858(6)
_computing_structure_refinement  GSAS
_diffrn_radiation_probe          x-ray
_exptl_absorpt_correction_T_max  0.77480
_exptl_absorpt_correction_T_min  0.76997
_exptl_absorpt_process_details
;   GSAS Absorption/surface roughness correction: function number 0
 Debye-Scherrer absorption correction
Term (= MU.r/wave) =     0.10041    
Correction is not refined.
;
_pd_block_id
2010-05-18T16:32|60_OPT|paolo|Bruker_AXS_D8_Advance
_pd_calc_method                  'Rietveld Refinement'
_pd_instr_location               ' ?'
_pd_meas_2theta_range_inc        0.022
_pd_meas_2theta_range_max        89.994
_pd_meas_2theta_range_min        8.0
_pd_meas_number_of_points        3728
_pd_phase_name                   ethyl
_pd_proc_2theta_range_inc        0.022
_pd_proc_2theta_range_max        89.994
_pd_proc_2theta_range_min        8.0
_pd_proc_info_datetime           2010-05-18T16:32:06
_pd_proc_info_excluded_regions   ' ?'
_pd_proc_ls_background_function
;   GSAS Background function number 1 with 30 terms.
 Shifted Chebyshev function of 1st kind
      1:    482.264     2:   -424.567     3:    224.161     4:   -100.619    
      5:    66.3197     6:   -68.2152     7:    83.3467     8:   -61.2252    
      9:    18.9697    10:    10.7706    11:   -11.1117    12:  -0.937556    
     13:    15.6290    14:   -21.6595    15:    17.2055    16:   -7.92683    
     17:    4.84465    18:   -7.22152    19:    10.5213    20:   -10.0163    
     21:    10.3157    22:   -5.86610    23:    5.83068    24:  -0.577088    
     25:  -0.812471    26:    2.62520    27:  -0.728941    28:   0.348497    
     29:   -2.71316    30:    3.50140    
;
_pd_proc_ls_peak_cutoff          0.00100
_pd_proc_ls_profile_function
;
 CW Profile function number 3 with  19 terms
 Pseudovoigt profile coefficients as parameterized in
 P. Thompson, D.E. Cox & J.B. Hastings (1987). J. Appl. Cryst.,20,79-83.
 Asymmetry correction of L.W. Finger, D.E. Cox & A. P. Jephcoat (1994).
 J. Appl. Cryst.,27,892-900.
 Peak tails are ignored  where the intensity is below 0.0010 times the peak
   Aniso. broadening axis   0.0   1.0   0.0
;
_pd_proc_ls_prof_R_factor        0.0463
_pd_proc_ls_prof_wR_expected     0.0426
_pd_proc_ls_prof_wR_factor       0.0604
_pd_proc_number_of_points        3728
_pd_spec_mounting                ' ?'
_refine_ls_goodness_of_fit_all   1.43
_refine_ls_matrix_type           full
_refine_ls_number_parameters     63
_refine_ls_number_restraints     27
_refine_ls_R_Fsqd_factor         0.06371
_refine_ls_shift/su_max          0.07
_refine_ls_shift/su_mean         0.00
_reflns_d_resolution_high        1.094
_reflns_d_resolution_low         8.221
_reflns_limit_h_max              7
_reflns_limit_h_min              0
_reflns_limit_k_max              5
_reflns_limit_k_min              0
_reflns_limit_l_max              4
_reflns_limit_l_min              -4
_reflns_number_total             408
_cod_data_source_file            jp2010138_si_007.cif
_cod_data_source_block           60_OPT_publ
_cod_depositor_comments
;
The following automatic conversions were performed:

'_geom_bond_publ_flag' value 'N' changed to 'n' according to
/home/saulius/struct/CIF-dictionaries/cif_core.dic dictionary named
'cif_core.dic' version 2.4.1 from 2010-06-29 (47
times).

'_geom_angle_publ_flag' value 'N' changed to 'n' according
to /home/saulius/struct/CIF-dictionaries/cif_core.dic dictionary
named 'cif_core.dic' version 2.4.1 from 2010-06-29 (23 times).

Automatic conversion script
Id: cif_fix_values 1715 2011-07-08 13:25:40Z adriana 
;
_cod_original_sg_symbol_H-M      'p 21/m'
_cod_database_code               1501691
#BEGIN Tags that were not found in dictionaries:
_gsas_exptl_extinct_corr_t_min   1.00000
_gsas_exptl_extinct_corr_t_max   1.00000
#END Tags that were not found in dictionaries
loop_
_symmetry_equiv_pos_site_id
_symmetry_equiv_pos_as_xyz
1 +x,+y,+z
2 -x,+y+1/2,-z
-1 -x,-y,-z
-2 +x,-y+1/2,+z
loop_
_atom_site_type_symbol
_atom_site_label
_atom_site_fract_x
_atom_site_fract_y
_atom_site_fract_z
_atom_site_occupancy
_atom_site_thermal_displace_type
_atom_site_U_iso_or_equiv
_atom_site_symmetry_multiplicity
Cl Cl 0.15456(20) 0.75 0.3863(4) 1.0 Uiso 0.0317(4) 2
N N 0.12491(33) 0.25 0.1432(6) 1.0 Uiso 0.0381(12) 2
C C1 0.26679(31) 0.25 -0.0329(6) 1.0 Uiso 0.0381(12) 2
C C2 0.4225(4) 0.25 0.1721(7) 1.0 Uiso 0.0381(12) 2
H H1 0.0245(5) 0.25 0.0147(13) 1.0 Uiso 0.0572(17) 2
H H2 0.5170(5) 0.25 0.0531(12) 1.0 Uiso 0.0572(17) 2
H H3 0.1273(9) 0.1167(5) 0.2681(9) 1.0 Uiso 0.0572(17) 4
H H4 0.2659(8) 0.1160(5) -0.1559(9) 1.0 Uiso 0.0572(17) 4
H H5 0.4241(9) 0.1159(5) 0.2952(9) 1.0 Uiso 0.0572(17) 4
loop_
_atom_type_symbol
_atom_type_number_in_cell
_atom_type_scat_dispersion_real
_atom_type_scat_dispersion_imag
_atom_type_scat_Cromer_Mann_a1
_atom_type_scat_Cromer_Mann_a2
_atom_type_scat_Cromer_Mann_a3
_atom_type_scat_Cromer_Mann_a4
_atom_type_scat_Cromer_Mann_b1
_atom_type_scat_Cromer_Mann_b2
_atom_type_scat_Cromer_Mann_b3
_atom_type_scat_Cromer_Mann_b4
_atom_type_scat_Cromer_Mann_c
_atom_type_scat_source
Cl 2.0 0.000 0.000 11.4604 0.01040 7.19640 1.16620 6.25560 18.5194 1.64550
47.7784 -9.5574 International_Tables_Vol_C
N 2.0 0.000 0.000 12.2126 0.00570 3.13220 9.89330 2.01250 28.9975 1.16630
0.58260 -11.529 International_Tables_Vol_C
C 4.0 0.000 0.000 2.31000 20.8439 1.02000 10.2075 1.58860 0.56870 0.86500
51.6512 0.21560 International_Tables_Vol_C
H 16.0 0.000 0.000 0.49300 10.5109 0.32291 26.1257 0.14019 3.14236 0.04081
57.7997 0.00304 International_Tables_Vol_C
loop_
_diffrn_radiation_wavelength
_diffrn_radiation_wavelength_wt
_diffrn_radiation_type
_diffrn_radiation_wavelength_id
1.540598 1.000 K\a~1~ 1
1.544390 0.380 K\a~2~ 2
loop_
_geom_angle_atom_site_label_1
_geom_angle_atom_site_label_2
_geom_angle_atom_site_label_3
_geom_angle
_geom_angle_site_symmetry_1
_geom_angle_site_symmetry_3
_geom_angle_publ_flag
H1 Cl H3 76.18(14) 2_555 1_565 n
H1 Cl H3 76.18(14) 2_555 -2_565 n
H3 Cl H3 151.01(24) 1_565 -2_565 n
C1 N H1 110.2(4) 1_555 1_555 n
C1 N H3 109.5(4) 1_555 1_555 n
C1 N H3 109.5(4) 1_555 -2_565 n
H1 N H3 109.2(5) 1_555 1_555 n
H1 N H3 109.2(5) 1_555 -2_565 n
H3 N H3 109.2(5) 1_555 -2_565 n
N C1 C2 109.41(24) 1_555 1_555 n
N C1 H4 109.9(4) 1_555 1_555 n
N C1 H4 109.9(4) 1_555 -2_565 n
C2 C1 H4 108.7(4) 1_555 1_555 n
C2 C1 H4 108.7(4) 1_555 -2_565 n
H4 C1 H4 110.3(5) 1_555 -2_565 n
C1 C2 H2 109.1(4) 1_555 1_555 n
C1 C2 H5 109.0(4) 1_555 1_555 n
C1 C2 H5 109.0(4) 1_555 -2_565 n
H2 C2 H5 109.8(5) 1_555 1_555 n
H2 C2 H5 109.8(5) 1_555 -2_565 n
H5 C2 H5 110.3(5) 1_555 -2_565 n
Cl H1 N 163.1(5) 2_545 1_555 n
Cl H3 N 157.6(4) 1_545 1_555 n
loop_
_geom_bond_atom_site_label_1
_geom_bond_atom_site_label_2
_geom_bond_distance
_geom_bond_site_symmetry_2
_geom_bond_publ_flag
Cl H1 2.266(6) 2_555 n
Cl H3 2.2726(30) 1_565 n
Cl H3 2.2726(30) -2_555 n
N C1 1.465(4) 1_555 n
N H1 0.979(6) 1_555 n
N H3 0.981(4) 1_555 n
N H3 0.981(4) -2_555 n
N H4 2.020(6) 1_555 n
N H4 2.020(6) -2_555 n
C1 N 1.465(4) 1_555 n
C1 C2 1.533(4) 1_555 n
C1 H1 2.024(5) 1_555 n
C1 H2 2.071(5) 1_555 n
C1 H3 2.017(6) 1_555 n
C1 H3 2.017(6) -2_555 n
C1 H4 0.980(4) 1_555 n
C1 H4 0.980(4) -2_555 n
C1 H5 2.071(6) 1_555 n
C1 H5 2.071(6) -2_555 n
C2 C1 1.533(4) 1_555 n
C2 H2 0.980(6) 1_555 n
C2 H4 2.067(6) 1_555 n
C2 H4 2.067(6) -2_555 n
C2 H5 0.981(4) 1_555 n
C2 H5 0.981(4) -2_555 n
H1 Cl 2.266(6) 2_545 n
H1 N 0.979(6) 1_555 n
H1 C1 2.024(5) 1_555 n
H1 H3 1.598(7) 1_555 n
H1 H3 1.598(7) -2_555 n
H2 C1 2.071(5) 1_555 n
H2 C2 0.980(6) 1_555 n
H2 H5 1.604(7) 1_555 n
H2 H5 1.604(7) -2_555 n
H3 Cl 2.2726(30) 1_545 n
H3 N 0.981(4) 1_555 n
H3 C1 2.017(6) 1_555 n
H3 H1 1.598(7) 1_555 n
H3 H3 1.600(6) -2_555 n
H4 N 2.020(6) 1_555 n
H4 C1 0.980(4) 1_555 n
H4 C2 2.067(6) 1_555 n
H4 H4 1.608(6) -2_555 n
H5 C1 2.071(6) 1_555 n
H5 C2 0.981(4) 1_555 n
H5 H2 1.604(7) 1_555 n
H5 H5 1.609(6) -2_555 n
loop_
_pd_meas_counts_total
_pd_proc_ls_weight
_pd_proc_intensity_bkg_calc
_pd_calc_intensity_total
1595.0 0.000627 1615.62732 1615.63110
1517.0 0.000659 1597.74390 1597.74707
1605.0 0.000623 1580.24512 1580.24805
1577.0 0.000634 1563.14441 1563.14697
1507.0 0.000664 1546.44580 1546.44824
1540.0 0.000649 1530.15881 1530.16040
1512.0 0.000661 1514.28699 1514.28882
1555.0 0.000643 1498.83582 1498.83740
1413.0 0.000708 1483.80908 1483.81030
1574.0 0.000635 1469.20752 1469.20825
1450.0 0.000690 1455.03027 1455.03076
1426.0 0.000701 1441.27869 1441.27966
1475.0 0.000678 1427.95251 1427.95251
1425.0 0.000702 1415.04822 1415.04883
1323.0 0.000756 1402.56287 1402.56287
1427.0 0.000701 1390.49353 1390.49365
1352.0 0.000740 1378.83606 1378.83618
1440.0 0.000694 1367.58435 1367.58472
1347.0 0.000742 1356.73499 1356.73499
1343.0 0.000745 1346.28064 1346.28052
1346.0 0.000743 1336.21411 1336.21460
1342.0 0.000745 1326.53040 1326.53027
1304.0 0.000767 1317.22095 1317.22058
1356.0 0.000737 1308.27795 1308.27795
1294.0 0.000773 1299.69458 1299.69458
1271.0 0.000787 1291.46118 1291.46069
1278.0 0.000782 1283.57043 1283.56982
1234.0 0.000810 1276.01270 1276.01221
1260.0 0.000794 1268.77930 1268.77893
1263.0 0.000792 1261.86145 1261.86133
1289.0 0.000776 1255.25037 1255.25024
1306.0 0.000766 1248.93567 1248.93542
1269.0 0.000788 1242.90906 1242.90869
1227.0 0.000815 1237.16089 1237.16028
1255.0 0.000797 1231.68127 1231.68103
1232.0 0.000812 1226.46069 1226.46033
1183.0 0.000845 1221.49036 1221.49036
1200.0 0.000833 1216.76038 1216.76038
1210.0 0.000826 1212.26208 1212.26196
1168.0 0.000856 1207.98584 1207.98547
1250.0 0.000800 1203.92151 1203.92102
1211.0 0.000826 1200.06091 1200.06067
1227.0 0.000815 1196.39478 1196.39453
1250.0 0.000800 1192.91406 1192.91370
1193.0 0.000838 1189.60999 1189.61011
1201.0 0.000833 1186.47400 1186.47400
1207.0 0.000829 1183.49731 1183.49731
1214.0 0.000824 1180.67151 1180.67102
1176.0 0.000850 1177.98877 1177.98865
1249.0 0.000801 1175.44067 1175.44055
1159.0 0.000863 1173.01904 1173.01880
1169.0 0.000855 1170.71631 1170.71606
1093.0 0.000915 1168.52502 1168.52478
1177.0 0.000850 1166.43799 1166.43762
1158.0 0.000864 1164.44727 1164.44702
1169.0 0.000855 1162.54639 1162.54639
1129.0 0.000886 1160.72852 1160.72900
1158.0 0.000864 1158.98743 1158.98706
1090.0 0.000917 1157.31555 1157.31555
1159.0 0.000863 1155.70752 1155.70764
1114.0 0.000898 1154.15698 1154.15710
1105.0 0.000905 1152.65845 1152.65820
1110.0 0.000901 1151.20544 1151.20569
1115.0 0.000897 1149.79358 1149.79333
1128.0 0.000887 1148.41663 1148.41663
1156.0 0.000865 1147.07007 1147.06995
1139.0 0.000878 1145.74902 1145.74878
1125.0 0.000889 1144.44849 1144.44861
1082.0 0.000924 1143.16443 1143.16406
1171.0 0.000854 1141.89221 1141.89221
1096.0 0.000912 1140.62781 1140.62756
1145.0 0.000873 1139.36743 1139.36719
1059.0 0.000944 1138.10681 1138.10669
1090.0 0.000917 1136.84351 1136.84363
1138.0 0.000879 1135.57300 1135.57312
1156.0 0.000865 1134.29272 1134.29285
1149.0 0.000870 1132.99927 1132.99951
1099.0 0.000910 1131.69019 1131.69031
1136.0 0.000880 1130.36279 1130.36255
1172.0 0.000853 1129.01392 1129.01367
1154.0 0.000867 1127.64172 1127.64172
1124.0 0.000890 1126.24402 1126.24414
1077.0 0.000929 1124.81873 1124.81812
1094.0 0.000914 1123.36365 1123.36328
1099.0 0.000910 1121.87732 1121.87708
1140.0 0.000877 1120.35779 1120.35779
1131.0 0.000884 1118.80457 1118.80408
1062.0 0.000942 1117.21460 1117.21423
1105.0 0.000905 1115.58826 1115.58777
1088.0 0.000919 1113.92346 1113.92297
1123.0 0.000890 1112.21960 1112.21912
1196.0 0.000836 1110.47534 1110.47510
1113.0 0.000898 1108.69043 1108.69055
1103.0 0.000907 1106.86499 1109.27234
1114.0 0.000898 1104.99731 1107.56543
1056.0 0.000947 1103.08728 1106.79224
1049.0 0.000953 1101.13489 1105.10217
1075.0 0.000930 1099.13928 1103.39807
1078.0 0.000928 1097.10144 1101.68457
1104.0 0.000906 1095.02026 1099.96777
1089.0 0.000918 1092.89612 1098.25342
1134.0 0.000882 1090.72900 1096.54980
1081.0 0.000925 1088.51978 1094.86707
1139.0 0.000878 1086.26819 1093.21851
1118.0 0.000894 1083.97485 1091.61975
1145.0 0.000873 1081.63989 1090.09119
1181.0 0.000847 1079.26404 1088.65881
1152.0 0.000868 1076.84729 1087.35791
1154.0 0.000867 1074.39111 1086.23499
1138.0 0.000879 1071.89612 1085.35938
1190.0 0.000840 1069.36230 1084.85632
1137.0 0.000880 1066.79089 1085.05054
1173.0 0.000853 1064.18237 1086.94568
1257.0 0.000796 1061.53821 1093.36353
1311.0 0.000763 1058.85889 1110.66394
1225.0 0.000816 1056.14575 1149.80554
1342.0 0.000745 1053.39880 1224.78333
1390.0 0.000719 1050.61987 1348.41650
1493.0 0.000670 1047.81006 1529.45142
1741.0 0.000574 1044.96997 1775.57910
2016.0 0.000496 1042.10071 2102.62085
2456.0 0.000407 1039.20374 2547.51782
3290.0 0.0003040 1036.28015 3177.57837
4096.0 0.0002441 1033.33032 4065.26294
4819.0 0.0002075 1030.35669 5181.55908
5594.0 0.0001788 1027.35974 6243.38916
6407.0 0.0001561 1024.34021 6723.31982
6623.0 0.0001510 1021.30023 6207.51172
5837.0 0.0001713 1018.24060 4858.65625
3908.0 0.0002559 1015.16180 3317.25195
2253.0 0.000444 1012.06677 2139.64648
1425.0 0.000702 1008.95490 1477.02905
1104.0 0.000906 1005.82819 1188.69714
1065.0 0.000939 1002.68774 1085.28052
1035.0 0.000966 999.53534 1049.48901
997.0 0.001003 996.37140 1033.53455
1003.0 0.000997 993.19769 1023.17920
1017.0 0.000983 990.01495 1014.94122
1027.0 0.000974 986.82452 1007.90265
935.0 0.001070 983.62750 1001.68842
998.0 0.001002 980.42548 996.07446
980.0 0.001020 977.21930 990.91034
944.0 0.001059 974.00952 986.08893
967.0 0.001034 970.79822 981.53546
959.0 0.001043 967.58624 977.19342
988.0 0.001012 964.37469 973.02191
998.0 0.001002 961.16437 968.98883
944.0 0.001059 957.95660 965.07068
893.0 0.001120 954.75232 961.24835
981.0 0.001019 951.55231 957.50800
867.0 0.001153 948.35797 949.97534
901.0 0.001110 945.17035 945.17010
914.0 0.001094 941.99017 941.98975
888.0 0.001126 938.81799 938.81775
931.0 0.001074 935.65552 935.65533
893.0 0.001120 932.50348 932.50336
888.0 0.001126 929.36255 929.36237
919.0 0.001088 926.23309 926.23267
868.0 0.001152 923.11670 923.11652
918.0 0.001089 920.01410 920.01385
912.0 0.001096 916.92566 916.92560
886.0 0.001129 913.85266 913.85223
914.0 0.001094 910.79535 910.79517
851.0 0.001175 907.75458 907.75403
913.0 0.001095 904.73138 904.73090
900.0 0.001111 901.72595 901.72559
849.0 0.001178 898.73895 898.73859
899.0 0.001112 895.77136 895.77106
890.0 0.001124 892.82330 892.82312
896.0 0.001116 889.89612 889.89563
853.0 0.001172 886.98956 886.98932
843.0 0.001186 884.10431 884.10413
855.0 0.001170 881.24078 881.24066
913.0 0.001095 878.39978 878.39941
863.0 0.001159 875.58173 875.58148
844.0 0.001185 872.78656 872.78638
897.0 0.001115 870.01538 870.01514
867.0 0.001153 867.26807 867.26776
852.0 0.001174 864.54474 864.54456
851.0 0.001175 861.84662 861.84644
856.0 0.001168 859.17297 859.17273
843.0 0.001186 856.52478 856.52454
831.0 0.001203 853.90210 853.90179
796.0 0.001256 851.30493 851.30469
797.0 0.001255 848.73383 848.73370
847.0 0.001181 846.18872 846.18860
843.0 0.001186 843.67023 843.66992
865.0 0.001156 841.17767 841.17743
825.0 0.001212 838.71179 838.71173
818.0 0.001222 836.27283 836.27252
864.0 0.001157 833.86047 833.86041
916.0 0.001092 831.47498 831.47491
810.0 0.001235 829.11633 829.11639
873.0 0.001145 826.78436 826.78430
799.0 0.001252 824.47968 824.47961
857.0 0.001167 822.20203 822.20172
863.0 0.001159 819.95093 819.95068
791.0 0.001264 817.72662 817.72656
883.0 0.001133 815.52948 815.52924
843.0 0.001186 813.35889 813.35864
812.0 0.001232 811.21509 811.21490
830.0 0.001205 809.09778 809.09760
753.0 0.001328 807.00671 807.00653
830.0 0.001205 804.94214 804.94208
768.0 0.001302 802.90393 802.90375
807.0 0.001239 800.89172 800.89154
825.0 0.001212 798.90503 798.90491
833.0 0.001200 796.94434 796.94440
804.0 0.001244 795.00879 795.00885
788.0 0.001269 793.09894 793.09900
783.0 0.001277 791.21417 791.21387
832.0 0.001202 789.35394 789.35376
776.0 0.001289 787.51843 787.51837
832.0 0.001202 785.70721 785.70734
786.0 0.001272 783.92035 783.92041
807.0 0.001239 782.15747 782.15753
782.0 0.001279 780.41791 780.41785
810.0 0.001235 778.70184 778.70172
828.0 0.001208 777.00873 777.00867
758.0 0.001319 775.33850 775.33832
782.0 0.001279 773.69055 773.69055
799.0 0.001252 772.06500 772.06500
764.0 0.001309 770.46082 770.46088
767.0 0.001304 768.87854 768.87848
788.0 0.001269 767.31720 767.31726
777.0 0.001287 765.77722 765.77710
824.0 0.001214 764.25751 764.25726
741.0 0.001350 762.75787 762.75793
779.0 0.001284 761.27832 761.27820
820.0 0.001220 759.81805 759.81805
708.0 0.001412 758.37720 758.37708
715.0 0.001399 756.95514 756.95538
752.0 0.001330 755.55164 755.55170
776.0 0.001289 754.16620 754.16614
788.0 0.001269 752.79877 752.79858
763.0 0.001311 751.44861 751.44849
723.0 0.001383 750.11572 750.11554
723.0 0.001383 748.79919 748.79926
741.0 0.001350 747.49933 747.49927
749.0 0.001335 746.21570 746.21552
745.0 0.001342 744.94769 744.94751
725.0 0.001379 743.69501 743.69489
737.0 0.001357 742.45721 742.45703
773.0 0.001294 741.23413 741.23389
777.0 0.001287 740.02515 740.02496
747.0 0.001339 738.83026 738.83020
740.0 0.001351 737.64886 737.64874
728.0 0.001374 736.48090 736.48083
767.0 0.001304 735.32568 735.32544
691.0 0.001447 734.18304 734.18286
727.0 0.001376 733.05261 733.05249
794.0 0.001259 731.93427 731.93420
725.0 0.001379 730.82739 730.82727
724.0 0.001381 729.73169 729.73151
704.0 0.001420 728.64709 728.64697
748.0 0.001337 727.57312 727.57281
684.0 0.001462 726.50928 726.50916
735.0 0.001361 725.45532 725.45526
733.0 0.001364 724.41138 724.41119
719.0 0.001391 723.37659 723.37622
705.0 0.001418 722.35107 722.35065
723.0 0.001383 721.33386 721.33392
727.0 0.001376 720.32538 720.32538
709.0 0.001410 719.32526 719.32495
716.0 0.001397 718.33307 718.33264
775.0 0.001290 717.34851 717.34821
701.0 0.001427 716.37122 716.37097
704.0 0.001420 715.40094 715.40057
765.0 0.001307 714.43768 714.43744
686.0 0.001458 713.48090 713.48090
690.0 0.001449 712.53082 712.53046
716.0 0.001397 711.58649 711.58636
748.0 0.001337 710.64832 710.64795
719.0 0.001391 709.71576 709.71533
694.0 0.001441 708.78827 708.78809
707.0 0.001414 707.86609 707.86609
735.0 0.001361 706.94916 706.94885
735.0 0.001361 706.03705 706.03674
714.0 0.001401 705.12909 705.12897
648.0 0.001543 704.22595 704.22552
709.0 0.001410 703.32684 703.32654
679.0 0.001473 702.43176 702.43146
686.0 0.001458 701.54028 701.54004
681.0 0.001468 700.65271 700.65240
726.0 0.001377 699.76849 699.76807
651.0 0.001536 698.88757 698.88733
705.0 0.001418 698.01013 698.00977
673.0 0.001486 697.13519 697.13513
707.0 0.001414 696.26367 696.26337
747.0 0.001339 695.39453 695.39398
668.0 0.001497 694.52808 694.52789
696.0 0.001437 693.66412 693.66376
670.0 0.001493 692.80292 692.80231
720.0 0.001389 691.94324 691.94299
692.0 0.001445 691.08594 691.08588
693.0 0.001443 690.23071 690.23065
681.0 0.001468 689.37775 689.37744
641.0 0.001560 688.52618 688.52582
677.0 0.001477 687.67682 687.67645
722.0 0.001385 686.82898 686.82867
685.0 0.001460 685.98242 685.98224
672.0 0.001488 685.13763 685.13727
700.0 0.001429 684.29456 684.29413
702.0 0.001425 683.45245 683.45221
676.0 0.001479 682.61182 682.61176
689.0 0.001451 681.77283 681.77240
639.0 0.001565 680.93469 680.93420
657.0 0.001522 680.09796 680.09760
622.0 0.001608 679.26215 679.26190
717.0 0.001395 678.42773 678.42743
680.0 0.001471 677.59460 677.59418
712.0 0.001404 676.76233 676.76215
706.0 0.001416 675.93121 675.93091
635.0 0.001575 675.10114 675.10089
639.0 0.001565 674.27203 674.27191
632.0 0.001582 673.44440 673.44397
673.0 0.001486 672.61737 672.61719
660.0 0.001515 671.79175 671.79120
720.0 0.001389 670.96698 670.96667
697.0 0.001435 670.14331 670.14325
664.0 0.001506 669.32098 669.32056
662.0 0.001511 668.49957 668.49921
742.0 0.001348 667.67938 667.67889
645.0 0.001550 666.86029 666.85986
661.0 0.001513 666.04254 666.04211
699.0 0.001431 665.22607 665.22559
656.0 0.001524 664.41077 664.41040
691.0 0.001447 663.59662 663.59631
666.0 0.001502 662.78424 662.78375
658.0 0.001520 661.97296 661.97260
700.0 0.001429 661.16315 661.16284
625.0 0.001600 660.35522 660.35474
700.0 0.001429 659.54834 659.54797
689.0 0.001451 658.74329 658.74298
631.0 0.001585 657.94000 657.93964
688.0 0.001453 657.13855 657.13794
627.0 0.001595 656.33881 656.33838
642.0 0.001558 655.54083 655.54053
633.0 0.001580 654.74487 654.74445
705.0 0.001418 653.95105 653.95056
627.0 0.001595 653.15918 653.15875
658.0 0.001520 652.36963 652.36896
655.0 0.001527 651.58203 651.58160
668.0 0.001497 650.79688 650.79645
692.0 0.001445 650.01416 650.01355
645.0 0.001550 649.23389 649.23364
645.0 0.001550 648.45624 648.45605
618.0 0.001618 647.68140 647.68073
608.0 0.001645 646.90900 646.90863
679.0 0.001473 646.13953 646.13898
600.0 0.001667 645.37305 645.37250
637.0 0.001570 644.60919 644.60901
680.0 0.001471 643.84875 643.84839
601.0 0.001664 643.09155 643.09094
687.0 0.001456 642.33759 642.33698
638.0 0.001567 641.58667 641.58630
634.0 0.001577 640.83942 640.83887
603.0 0.001658 640.09570 640.09528
712.0 0.001404 639.35541 639.35504
590.0 0.001695 638.61902 638.61871
623.0 0.001605 637.88654 637.88605
668.0 0.001497 637.15814 637.15741
610.0 0.001639 636.43311 636.43280
616.0 0.001623 635.71265 635.71204
640.0 0.001563 634.99615 634.99585
631.0 0.001585 634.28406 634.28369
623.0 0.001605 633.57623 633.57581
654.0 0.001529 632.87292 632.87262
646.0 0.001548 632.17413 632.17352
616.0 0.001623 631.48010 631.47961
617.0 0.001621 630.79083 630.79047
654.0 0.001529 630.10645 630.10571
636.0 0.001572 629.42657 629.42621
627.0 0.001595 628.75195 628.75165
613.0 0.001631 628.08264 628.08203
629.0 0.001590 627.41821 627.41754
605.0 0.001653 626.75928 626.75897
602.0 0.001661 626.10571 626.10516
623.0 0.001605 625.45740 625.45679
618.0 0.001618 624.81464 624.81415
593.0 0.001686 624.17767 624.17719
628.0 0.001592 623.54626 623.54590
638.0 0.001567 622.92059 622.92023
613.0 0.001631 622.30109 622.30042
623.0 0.001605 621.68726 621.68677
649.0 0.001541 621.07959 621.07904
609.0 0.001642 620.47815 620.47742
630.0 0.001587 619.88251 619.88220
613.0 0.001631 619.29352 619.29272
639.0 0.001565 618.71057 618.71002
613.0 0.001631 618.13416 618.13361
614.0 0.001629 617.56439 617.56384
622.0 0.001608 617.00085 617.00049
625.0 0.001600 616.44403 616.44330
622.0 0.001608 615.89392 615.89349
607.0 0.001647 615.35071 615.35022
613.0 0.001631 614.81409 614.81378
626.0 0.001597 614.28448 614.28412
650.0 0.001538 613.76202 613.76135
626.0 0.001597 613.24634 613.24585
643.0 0.001555 612.73767 612.73712
629.0 0.001590 612.23627 612.23566
629.0 0.001590 611.74170 611.74115
607.0 0.001647 611.25476 611.25409
612.0 0.001634 610.77490 610.77448
584.0 0.001712 610.30243 610.30206
631.0 0.001585 609.83734 609.83698
607.0 0.001647 609.37976 609.37909
625.0 0.001600 608.92957 608.92896
600.0 0.001667 608.48694 608.48633
613.0 0.001631 608.05182 608.05145
599.0 0.001669 607.62433 607.62378
587.0 0.001704 607.20459 607.20404
573.0 0.001745 606.79236 606.79169
605.0 0.001653 606.38806 606.38757
600.0 0.001667 605.99139 605.99072
560.0 0.001786 605.60229 605.60211
642.0 0.001558 605.22131 605.22083
602.0 0.001661 604.84808 604.84766
577.0 0.001733 604.48279 604.48230
622.0 0.001608 604.12531 604.12488
630.0 0.001587 603.77576 603.77527
616.0 0.001623 603.43445 603.43372
595.0 0.001681 603.10065 603.10010
588.0 0.001701 602.77521 602.77454
594.0 0.001684 602.45764 602.45697
605.0 0.001653 602.14801 602.14758
583.0 0.001715 601.84644 601.84570
631.0 0.001585 601.55298 601.55243
578.0 0.001730 601.26758 601.26703
614.0 0.001629 600.99023 600.98969
625.0 0.001600 600.72089 600.72052
601.0 0.001664 600.45984 600.45941
620.0 0.001613 600.20667 600.20618
604.0 0.001656 599.96198 599.96106
622.0 0.001608 599.72479 599.72443
589.0 0.001698 599.49622 599.59845
607.0 0.001647 599.27545 599.38434
605.0 0.001653 599.06293 599.21783
581.0 0.001721 598.85840 599.02411
618.0 0.001618 598.66223 598.83954
592.0 0.001689 598.47394 598.66443
644.0 0.001553 598.29352 598.49878
600.0 0.001667 598.12146 598.34290
601.0 0.001664 597.95703 598.19739
624.0 0.001603 597.80127 598.06201
606.0 0.001650 597.65320 597.93738
619.0 0.001616 597.51331 597.82446
611.0 0.001637 597.38135 597.72339
590.0 0.001695 597.25726 597.63513
633.0 0.001580 597.14124 597.56073
603.0 0.001658 597.03314 597.50159
618.0 0.001618 596.93292 597.45947
621.0 0.001610 596.84082 597.43689
628.0 0.001592 596.75623 597.43713
623.0 0.001605 596.67993 597.46448
548.0 0.001825 596.61096 597.52655
601.0 0.001664 596.55023 597.63800
567.0 0.001764 596.49719 597.83459
598.0 0.001672 596.45166 598.21631
566.0 0.001767 596.41406 599.03644
627.0 0.001595 596.38416 600.84857
640.0 0.001563 596.36176 604.68274
571.0 0.001751 596.34711 612.18304
646.0 0.001548 596.34003 625.56152
639.0 0.001565 596.34039 646.97748
641.0 0.001560 596.34833 676.71100
658.0 0.001520 596.36389 710.35193
648.0 0.001543 596.38672 737.60626
708.0 0.001412 596.41718 746.21198
704.0 0.001420 596.45483 731.20435
685.0 0.001460 596.49982 699.94098
631.0 0.001585 596.55212 664.71936
624.0 0.001603 596.61176 635.52148
587.0 0.001704 596.67841 616.37244
595.0 0.001681 596.75238 606.05853
593.0 0.001686 596.83337 601.38599
595.0 0.001681 596.92126 599.53290
598.0 0.001672 597.01642 598.82776
641.0 0.001560 597.11871 598.53290
583.0 0.001715 597.22772 598.39117
573.0 0.001745 597.34375 598.32330
594.0 0.001684 597.46649 598.30359
643.0 0.001555 597.59613 598.31958
624.0 0.001603 597.73242 598.36401
651.0 0.001536 597.87549 598.43158
589.0 0.001698 598.02533 598.51843
577.0 0.001733 598.18158 598.62225
582.0 0.001718 598.34436 598.74017
570.0 0.001754 598.51385 598.87140
606.0 0.001650 598.68939 599.01428
615.0 0.001626 598.87170 599.20129
595.0 0.001681 599.06030 599.36707
624.0 0.001603 599.25513 599.54224
586.0 0.001706 599.45636 599.73987
575.0 0.001739 599.66357 599.93378
570.0 0.001754 599.87695 600.13586
581.0 0.001721 600.09644 600.34644
595.0 0.001681 600.32190 600.56464
621.0 0.001610 600.55328 600.79089
577.0 0.001733 600.79083 601.02484
627.0 0.001595 601.03418 601.16766
656.0 0.001524 601.28345 601.42249
590.0 0.001695 601.53827 601.64709
593.0 0.001686 601.79877 601.91919
621.0 0.001610 602.06482 602.19812
611.0 0.001637 602.33667 602.48499
644.0 0.001553 602.61407 602.78033
623.0 0.001605 602.89697 603.08441
566.0 0.001767 603.18524 603.39819
618.0 0.001618 603.47882 603.72308
595.0 0.001681 603.77771 604.06091
576.0 0.001736 604.08191 604.41461
606.0 0.001650 604.39130 604.79065
598.0 0.001672 604.70581 605.20685
628.0 0.001592 605.02551 605.71002
595.0 0.001681 605.34991 606.41577
590.0 0.001695 605.67969 607.56952
618.0 0.001618 606.01422 609.61316
619.0 0.001616 606.35352 613.21558
666.0 0.001502 606.69794 619.15271
632.0 0.001582 607.04688 627.85150
679.0 0.001473 607.40070 638.57214
625.0 0.001600 607.75897 648.76044
689.0 0.001451 608.12164 654.60919
702.0 0.001425 608.48914 653.38190
687.0 0.001456 608.86108 645.95685
630.0 0.001587 609.23730 635.72760
667.0 0.001499 609.61804 626.05066
650.0 0.001538 610.00299 618.98438
625.0 0.001600 610.39191 614.85535
630.0 0.001587 610.78564 612.94427
633.0 0.001580 611.18311 612.32288
604.0 0.001656 611.58478 612.30420
619.0 0.001616 611.99054 612.52209
609.0 0.001642 612.39996 612.82739
619.0 0.001616 612.81342 613.16956
669.0 0.001495 613.23077 613.53284
590.0 0.001695 613.65204 613.91162
665.0 0.001504 614.07690 614.30261
648.0 0.001543 614.50555 614.70331
586.0 0.001706 614.93774 615.11243
635.0 0.001575 615.37347 615.52911
572.0 0.001748 615.81287 615.95245
570.0 0.001754 616.25580 616.38141
633.0 0.001580 616.70178 616.81543
593.0 0.001686 617.15143 617.25482
630.0 0.001587 617.60449 617.69904
608.0 0.001645 618.06061 618.14734
565.0 0.001770 618.51996 618.59973
593.0 0.001686 618.98242 619.05585
570.0 0.001754 619.44806 619.51611
554.0 0.001805 619.91650 619.97992
648.0 0.001543 620.38843 620.44714
609.0 0.001642 620.86279 620.91779
601.0 0.001664 621.34021 621.39160
625.0 0.001600 621.82056 621.83453
643.0 0.001555 622.30353 622.31659
587.0 0.001704 622.78925 622.78870
608.0 0.001645 623.27789 623.27686
575.0 0.001739 623.76874 623.76813
571.0 0.001751 624.26221 624.26172
618.0 0.001618 624.75848 624.75775
593.0 0.001686 625.25702 625.25616
637.0 0.001570 625.75787 625.75714
589.0 0.001698 626.26129 626.26050
606.0 0.001650 626.76685 626.76611
599.0 0.001669 627.27472 627.27417
587.0 0.001704 627.78467 627.78424
629.0 0.001590 628.29694 628.29645
547.0 0.001828 628.81122 628.81073
598.0 0.001672 629.32776 629.32709
613.0 0.001631 629.84613 629.84552
596.0 0.001678 630.36639 630.36572
610.0 0.001639 630.88873 630.88812
624.0 0.001603 631.41260 631.41180
666.0 0.001502 631.93848 631.93768
630.0 0.001587 632.46594 632.46539
673.0 0.001486 632.99536 633.42987
661.0 0.001513 633.52618 634.41187
686.0 0.001458 634.05865 635.15088
667.0 0.001499 634.59253 635.74176
730.0 0.001370 635.12799 636.50592
671.0 0.001490 635.66498 637.11768
705.0 0.001418 636.20319 637.73730
662.0 0.001511 636.74286 638.36511
681.0 0.001468 637.28387 639.00220
665.0 0.001504 637.82593 639.64917
666.0 0.001502 638.36932 640.30713
707.0 0.001414 638.91364 640.97778
672.0 0.001488 639.45917 641.66180
686.0 0.001458 640.00592 642.36176
698.0 0.001433 640.55334 643.07880
732.0 0.001366 641.10187 643.81622
692.0 0.001445 641.65112 644.57642
684.0 0.001462 642.20135 645.36267
671.0 0.001490 642.75238 646.18024
640.0 0.001563 643.30396 647.03296
647.0 0.001546 643.85632 647.92847
629.0 0.001590 644.40924 648.87421
669.0 0.001495 644.96301 649.88019
649.0 0.001541 645.51727 650.95929
671.0 0.001490 646.07147 652.12756
651.0 0.001536 646.62677 653.40680
623.0 0.001605 647.18219 654.82526
688.0 0.001453 647.73779 656.41949
652.0 0.001534 648.29376 658.24316
641.0 0.001560 648.85010 660.37244
635.0 0.001575 649.40637 662.93787
670.0 0.001493 649.96289 666.21790
687.0 0.001456 650.51947 670.92352
682.0 0.001466 651.07611 678.92249
700.0 0.001429 651.63281 694.71045
784.0 0.001276 652.18909 727.79547
822.0 0.001217 652.74554 795.19843
990.0 0.001010 653.30182 921.37537
1200.0 0.000833 653.85791 1130.69067
1331.0 0.000751 654.41339 1428.52283
1670.0 0.000599 654.96899 1778.19067
2071.0 0.000483 655.52411 2091.85815
2301.0 0.000435 656.07837 2260.83521
2325.0 0.000430 656.63245 2222.01782
2177.0 0.000459 657.18616 1994.89856
1764.0 0.000567 657.73926 1666.02393
1385.0 0.000722 658.29169 1333.90857
1088.0 0.000919 658.84314 1064.00696
869.0 0.001151 659.39417 880.52942
764.0 0.001309 659.94409 774.07599
712.0 0.001404 660.49353 720.35065
661.0 0.001513 661.04187 696.08807
623.0 0.001605 661.58936 685.57141
646.0 0.001548 662.13580 680.62323
666.0 0.001502 662.68115 677.83960
656.0 0.001524 663.22546 676.01294
687.0 0.001456 663.76855 674.72839
678.0 0.001475 664.31042 673.81299
671.0 0.001490 664.85132 673.16956
655.0 0.001527 665.39050 672.73352
670.0 0.001493 665.92847 672.45831
651.0 0.001536 666.46527 672.30981
681.0 0.001468 667.00037 672.26239
678.0 0.001475 667.53369 675.72656
648.0 0.001543 668.06604 675.99884
679.0 0.001473 668.59662 676.33911
730.0 0.001370 669.12531 678.06348
673.0 0.001486 669.65216 678.58405
632.0 0.001582 670.17743 679.15955
699.0 0.001431 670.70099 679.78748
640.0 0.001563 671.22247 680.46655
739.0 0.001353 671.74194 681.19690
705.0 0.001418 672.25958 681.97943
683.0 0.001464 672.77515 682.81726
670.0 0.001493 673.28851 683.71234
675.0 0.001481 673.79974 684.67017
690.0 0.001449 674.30884 685.69629
730.0 0.001370 674.81573 686.79822
695.0 0.001439 675.32037 687.98486
694.0 0.001441 675.82233 689.26758
688.0 0.001453 676.32239 690.66095
700.0 0.001429 676.81952 692.18207
764.0 0.001309 677.31427 693.85150
727.0 0.001376 677.80652 695.28644
744.0 0.001344 678.29590 696.93121
680.0 0.001471 678.78290 699.11334
717.0 0.001395 679.26697 701.76221
700.0 0.001429 679.74841 704.62183
645.0 0.001550 680.22687 708.10541
759.0 0.001318 680.70233 712.16394
790.0 0.001266 681.17499 716.95825
796.0 0.001256 681.64465 722.70551
756.0 0.001323 682.11121 729.71924
786.0 0.001272 682.57471 738.51367
777.0 0.001287 683.03503 750.12219
847.0 0.001181 683.49225 767.17737
801.0 0.001248 683.94611 796.83832
881.0 0.001135 684.39673 857.33209
1045.0 0.000957 684.84369 989.19385
1326.0 0.000754 685.28735 1267.59631
1844.0 0.000542 685.72778 1802.54407
2712.0 0.000369 686.16467 2698.91138
3825.0 0.0002614 686.59747 3960.45581
5079.0 0.0001969 687.02716 5382.56641
6478.0 0.0001544 687.45294 6537.55127
7045.0 0.0001419 687.87524 6954.13916
6884.0 0.0001453 688.29327 6468.93799
5777.0 0.0001731 688.70776 5364.98633
4116.0 0.0002430 689.11823 4043.63672
2832.0 0.000353 689.52490 2829.11572
1800.0 0.000556 689.92767 1916.16028
1248.0 0.000801 690.32611 1337.57019
902.0 0.001109 690.72076 1022.89258
817.0 0.001224 691.11096 873.05786
766.0 0.001305 691.49719 807.11945
718.0 0.001393 691.87897 776.89514
679.0 0.001473 692.25641 760.39343
729.0 0.001372 692.62964 749.44971
676.0 0.001479 692.99854 741.32269
691.0 0.001447 693.36285 735.00073
643.0 0.001555 693.72272 729.97430
614.0 0.001629 694.07794 725.92444
637.0 0.001570 694.42877 722.62720
613.0 0.001631 694.77478 719.91711
629.0 0.001590 695.11615 717.67413
635.0 0.001575 695.45282 715.80463
650.0 0.001538 695.78491 714.23871
658.0 0.001520 696.11176 712.92194
677.0 0.001477 696.43384 711.81049
667.0 0.001499 696.75104 710.86981
669.0 0.001495 697.06323 710.07257
660.0 0.001515 697.37054 709.39594
704.0 0.001420 697.67279 708.82184
672.0 0.001488 697.96954 708.34674
770.0 0.001299 698.26135 707.93524
789.0 0.001267 698.54791 707.58795
759.0 0.001318 698.82947 707.30042
765.0 0.001307 699.10559 707.05621
800.0 0.001250 699.37634 706.85400
743.0 0.001346 699.64160 706.68738
807.0 0.001239 699.90149 706.55206
751.0 0.001332 700.15613 706.44427
786.0 0.001272 700.40509 706.36011
753.0 0.001328 700.64850 706.29645
824.0 0.001214 700.88629 706.25098
774.0 0.001292 701.11847 706.22144
776.0 0.001289 701.34497 702.83136
811.0 0.001233 701.56573 702.98285
809.0 0.001236 701.78082 703.13428
805.0 0.001242 701.98999 702.02960
779.0 0.001284 702.19360 702.23627
809.0 0.001236 702.39111 702.43744
755.0 0.001325 702.58264 702.63312
664.0 0.001506 702.76843 702.82361
646.0 0.001548 702.94806 703.00867
681.0 0.001468 703.12183 703.18823
653.0 0.001531 703.28955 703.36328
644.0 0.001553 703.45135 703.53308
631.0 0.001585 703.60669 703.69824
656.0 0.001524 703.75580 703.85889
654.0 0.001529 703.89886 704.01575
603.0 0.001658 704.03589 704.16956
676.0 0.001479 704.16644 704.32092
614.0 0.001629 704.29102 704.47089
628.0 0.001592 704.40894 704.62256
634.0 0.001577 704.52081 704.78088
698.0 0.001433 704.62573 704.96118
589.0 0.001698 704.72498 705.20282
612.0 0.001634 704.81738 705.60217
645.0 0.001550 704.90338 706.35492
611.0 0.001637 704.98291 707.78235
644.0 0.001553 705.05597 710.25946
696.0 0.001437 705.12250 713.96417
681.0 0.001468 705.18219 718.51538
678.0 0.001475 705.23572 722.78540
691.0 0.001447 705.28241 725.23663
666.0 0.001502 705.32263 724.87616
637.0 0.001570 705.35590 722.14703
696.0 0.001437 705.38257 718.26208
701.0 0.001427 705.40259 714.26068
669.0 0.001495 705.41589 710.89307
652.0 0.001534 705.42242 708.50885
661.0 0.001513 705.42218 707.05670
611.0 0.001637 705.41534 706.28369
668.0 0.001497 705.40161 705.90948
730.0 0.001370 705.38074 705.72565
679.0 0.001473 705.35339 705.61774
669.0 0.001495 705.31927 705.53510
656.0 0.001524 705.27808 705.45972
674.0 0.001484 705.22998 705.38538
696.0 0.001437 705.17493 705.30957
707.0 0.001414 705.11310 705.23077
676.0 0.001479 705.04462 705.14801
670.0 0.001493 704.96881 705.06091
686.0 0.001458 704.88617 704.96844
679.0 0.001473 704.79663 704.87042
692.0 0.001445 704.70007 704.76660
709.0 0.001410 704.59637 704.65698
729.0 0.001372 704.48596 704.54120
691.0 0.001447 704.36847 704.41907
707.0 0.001414 704.24408 704.29028
707.0 0.001414 704.11273 704.15540
734.0 0.001362 703.97418 704.01367
771.0 0.001297 703.82874 703.86536
726.0 0.001377 703.67627 703.71027
716.0 0.001397 703.51672 703.54852
733.0 0.001364 703.35040 703.38000
712.0 0.001404 703.17694 703.20465
703.0 0.001422 702.99634 703.02240
668.0 0.001497 702.80902 702.83325
764.0 0.001309 702.61444 702.63727
691.0 0.001447 702.41290 704.90063
794.0 0.001259 702.20453 704.81317
780.0 0.001282 701.98901 713.47388
765.0 0.001307 701.76636 714.76825
795.0 0.001258 701.53693 715.21338
797.0 0.001255 701.30042 719.00830
814.0 0.001229 701.05695 719.72131
805.0 0.001242 700.80670 720.50757
758.0 0.001319 700.54901 721.37103
788.0 0.001269 700.28479 722.33154
780.0 0.001282 700.01361 723.39648
840.0 0.001190 699.73553 724.57965
810.0 0.001235 699.45032 725.89771
806.0 0.001241 699.15833 727.36884
800.0 0.001250 698.85944 729.01593
855.0 0.001170 698.55359 730.86456
818.0 0.001222 698.24091 732.94519
837.0 0.001195 697.92139 735.29590
890.0 0.001124 697.59497 737.95953
856.0 0.001168 697.26190 740.99121
815.0 0.001227 696.92181 744.45477
835.0 0.001198 696.57538 748.42926
822.0 0.001217 696.22162 753.01569
867.0 0.001153 695.86163 758.33490
882.0 0.001134 695.49463 764.54565
850.0 0.001176 695.12097 771.84595
832.0 0.001202 694.74054 780.49127
862.0 0.001160 694.35370 790.82294
925.0 0.001081 693.96008 803.28711
928.0 0.001078 693.55994 818.50317
941.0 0.001063 693.15289 837.34076
941.0 0.001063 692.73981 861.16101
1029.0 0.000972 692.31989 892.56067
1083.0 0.000923 691.89355 937.61353
1115.0 0.000897 691.46057 1012.35059
1365.0 0.000733 691.02124 1157.66919
1694.0 0.000590 690.57568 1466.29895
2220.0 0.000450 690.12354 2115.18945
3621.0 0.0002762 689.66504 3369.27954
5636.0 0.0001774 689.20032 5499.82178
8544.0 0.0001170 688.72925 8573.55469
12048.0 0.0000830 688.25195 12197.07520
15097.0 0.0000662 687.76837 15446.98340
16810.0 0.0000595 687.27856 17202.25781
16967.0 0.0000589 686.78247 16831.25586
14985.0 0.0000667 686.28052 14673.29297
11724.0 0.0000853 685.77234 11630.75586
8311.0 0.0001203 685.25812 8466.62793
5641.0 0.0001773 684.73810 5709.20117
3532.0 0.0002831 684.21185 3653.74268
2058.0 0.000486 683.67963 2325.76392
1325.0 0.000755 683.14148 1575.14624
1023.0 0.000978 682.59772 1197.71973
906.0 0.001104 682.04810 1020.28748
831.0 0.001203 681.49237 935.67950
881.0 0.001135 680.93109 886.45630
857.0 0.001167 680.36407 853.10223
782.0 0.001279 679.79150 828.65259
775.0 0.001290 679.21326 808.65656
725.0 0.001379 678.62946 792.38940
724.0 0.001381 678.03998 778.95270
741.0 0.001350 677.44507 767.71765
762.0 0.001312 676.84467 758.21790
754.0 0.001326 676.23920 750.11346
744.0 0.001344 675.62775 743.13977
748.0 0.001337 675.01129 737.09875
785.0 0.001274 674.38983 731.83618
719.0 0.001391 673.76300 727.22833
832.0 0.001202 673.13110 723.18231
735.0 0.001361 672.49384 719.62146
692.0 0.001445 671.85144 716.48810
770.0 0.001299 671.20441 713.73804
716.0 0.001397 670.55182 711.33612
687.0 0.001456 669.89490 709.25922
730.0 0.001370 669.23273 707.49219
774.0 0.001292 668.56555 706.02979
722.0 0.001385 667.89423 704.87500
709.0 0.001410 667.21777 704.04199
730.0 0.001370 666.53656 703.55627
735.0 0.001361 665.85089 703.45898
753.0 0.001328 665.16046 703.81042
756.0 0.001323 664.46588 704.69812
751.0 0.001332 663.76648 706.24768
720.0 0.001389 663.06274 706.13654
736.0 0.001359 662.35461 709.82397
700.0 0.001429 661.64233 707.01892
730.0 0.001370 660.92560 715.55029
715.0 0.001399 660.20477 733.36127
807.0 0.001239 659.47955 768.97925
847.0 0.001181 658.75031 852.62048
1014.0 0.000986 658.01715 1025.28979
1316.0 0.000760 657.28003 1341.26013
1758.0 0.000569 656.53882 1832.70178
2566.0 0.000390 655.79401 2460.18921
3088.0 0.0003238 655.04510 3081.29199
3606.0 0.0002773 654.29236 3485.22900
3607.0 0.0002772 653.53619 3514.76563
3536.0 0.0002828 652.77606 3202.86475
2932.0 0.0003411 652.01263 2709.34546
2189.0 0.000457 651.24536 2166.28125
1720.0 0.000581 650.47461 1665.59802
1304.0 0.000767 649.70074 1271.36169
976.0 0.001025 648.92297 1002.51520
730.0 0.001370 648.14240 842.51068
762.0 0.001312 647.35822 758.48090
644.0 0.001553 646.57080 718.01996
615.0 0.001626 645.78052 698.44781
644.0 0.001553 644.98706 687.69440
639.0 0.001565 644.19019 680.62811
633.0 0.001580 643.39056 675.35730
630.0 0.001587 642.58801 671.19391
568.0 0.001761 641.78284 667.83478
641.0 0.001560 640.97443 665.10809
624.0 0.001603 640.16345 662.90845
573.0 0.001745 639.34955 661.16943
611.0 0.001637 638.53326 659.85663
592.0 0.001689 637.71423 658.96558
615.0 0.001626 636.89264 658.52087
594.0 0.001684 636.06873 658.59052
627.0 0.001595 635.24219 659.32953
625.0 0.001600 634.41333 661.13098
633.0 0.001580 633.58246 665.07947
626.0 0.001597 632.74884 674.08002
659.0 0.001517 631.91333 694.97137
713.0 0.001403 631.07556 741.12482
788.0 0.001269 630.23566 832.69275
982.0 0.001018 629.39380 989.52979
1169.0 0.000855 628.54968 1214.26416
1490.0 0.000671 627.70398 1472.97253
1804.0 0.000554 626.85614 1693.24988
1767.0 0.000566 626.00677 1793.02808
1805.0 0.000554 625.15546 1740.03186
1618.0 0.000618 624.30231 1578.81677
1363.0 0.000734 623.44781 1372.06274
1108.0 0.000903 622.59137 1160.83032
1026.0 0.000975 621.73346 975.33234
743.0 0.001346 620.87415 834.68451
726.0 0.001377 620.01355 739.59235
615.0 0.001626 619.15125 685.50177
652.0 0.001534 618.28778 657.34955
603.0 0.001658 617.42273 642.69873
620.0 0.001613 616.55688 635.43256
590.0 0.001695 615.68939 630.92517
583.0 0.001715 614.82117 627.60242
592.0 0.001689 613.95160 624.88562
587.0 0.001704 613.08099 622.55328
598.0 0.001672 612.20966 620.49664
604.0 0.001656 611.33685 618.64850
590.0 0.001695 610.46399 616.96234
583.0 0.001715 609.58966 615.40363
604.0 0.001656 608.71448 613.94702
620.0 0.001613 607.83893 612.57288
583.0 0.001715 606.96252 611.26611
596.0 0.001678 606.08569 610.01477
627.0 0.001595 605.20782 608.80957
566.0 0.001767 604.32983 607.64307
610.0 0.001639 603.45099 606.50964
569.0 0.001757 602.57178 605.40387
654.0 0.001529 601.69238 604.32196
586.0 0.001706 600.81232 608.19226
644.0 0.001553 599.93207 607.39374
632.0 0.001582 599.05164 606.62921
601.0 0.001664 598.17084 605.89874
613.0 0.001631 597.28992 607.12622
614.0 0.001629 596.40875 606.56323
591.0 0.001692 595.52753 606.04541
617.0 0.001621 594.64636 605.57599
608.0 0.001645 593.76514 605.15826
603.0 0.001658 592.88416 604.79736
642.0 0.001558 592.00287 604.49823
585.0 0.001709 591.12146 604.26782
638.0 0.001567 590.24084 603.27484
616.0 0.001623 589.36017 603.24609
595.0 0.001681 588.47961 603.31207
609.0 0.001642 587.59930 603.16486
601.0 0.001664 586.71954 603.47876
658.0 0.001520 585.84003 603.93530
593.0 0.001686 584.96063 604.55902
603.0 0.001658 584.08203 605.37811
636.0 0.001572 583.20349 606.42798
616.0 0.001623 582.32581 607.75269
620.0 0.001613 581.44855 609.40588
627.0 0.001595 580.57166 611.45703
647.0 0.001546 579.69550 613.99243
615.0 0.001626 578.82013 617.60089
644.0 0.001553 577.94525 621.50366
649.0 0.001541 577.07092 626.34845
654.0 0.001529 576.19757 632.40228
658.0 0.001520 575.32483 640.21777
684.0 0.001462 574.45300 649.99957
733.0 0.001364 573.58167 662.92334
722.0 0.001385 572.71136 681.25104
730.0 0.001370 571.84204 710.98767
866.0 0.001155 570.97375 767.94977
984.0 0.001016 570.10602 889.36755
1220.0 0.000820 569.23962 1147.73035
1660.0 0.000602 568.37402 1651.84741
2394.0 0.000418 567.50940 2509.23901
3632.0 0.0002753 566.64600 3734.42261
5057.0 0.0001977 565.78333 5148.94287
6255.0 0.0001599 564.92212 6365.26758
6914.0 0.0001446 564.06189 6941.30762
6751.0 0.0001481 563.20288 6698.92188
6328.0 0.0001580 562.34491 5876.96729
4753.0 0.0002104 561.48810 4811.74316
3443.0 0.0002904 560.63251 3705.46265
2578.0 0.000388 559.77832 2696.87720
1895.0 0.000528 558.92517 1894.87048
1159.0 0.000863 558.07367 1337.04932
839.0 0.001192 557.22314 996.45410
724.0 0.001381 556.37390 812.69086
671.0 0.001490 555.52625 721.93713
666.0 0.001502 554.67963 677.40997
641.0 0.001560 553.83478 653.19525
650.0 0.001538 552.99109 637.76776
651.0 0.001536 552.14856 626.78528
632.0 0.001582 551.30786 618.77747
610.0 0.001639 550.46826 613.52563
594.0 0.001684 549.63043 612.01440
644.0 0.001553 548.79407 617.29047
608.0 0.001645 547.95880 635.70538
677.0 0.001477 547.12543 677.08862
723.0 0.001383 546.29364 751.49084
901.0 0.001110 545.46307 860.94098
1030.0 0.000971 544.63416 990.04688
1144.0 0.000874 543.80664 1103.74890
1210.0 0.000826 542.98120 1160.40942
1189.0 0.000841 542.15692 1140.90662
1125.0 0.000889 541.33447 1065.57373
992.0 0.001008 540.51312 966.27936
880.0 0.001136 539.69366 862.13885
802.0 0.001247 538.87604 765.29132
683.0 0.001464 538.05975 686.11188
588.0 0.001701 537.24530 629.19397
564.0 0.001773 536.43213 592.97168
590.0 0.001695 535.62085 572.31445
583.0 0.001715 534.81146 561.26917
565.0 0.001770 534.00336 555.18518
556.0 0.001799 533.19708 551.75861
521.0 0.001919 532.39233 548.91687
525.0 0.001905 531.58942 546.55530
529.0 0.001890 530.78827 544.48309
551.0 0.001815 529.98853 537.77472
546.0 0.001832 529.19067 536.30499
548.0 0.001825 528.39441 534.94580
567.0 0.001764 527.59973 533.67590
543.0 0.001842 526.80719 530.63715
584.0 0.001712 526.01587 529.58459
544.0 0.001838 525.22632 528.57709
536.0 0.001866 524.43866 527.68768
528.0 0.001894 523.65247 526.75366
561.0 0.001783 522.86829 525.84900
552.0 0.001812 522.08545 524.96906
504.0 0.001984 521.30463 524.14282
530.0 0.001887 520.52527 523.30774
527.0 0.001898 519.74768 522.49213
487.0 0.002053 518.97168 521.69470
532.0 0.001880 518.19751 520.91467
502.0 0.001992 517.42529 520.15192
505.0 0.001980 516.65430 519.40594
487.0 0.002053 515.88501 518.67731
532.0 0.001880 515.11761 517.96655
563.0 0.001776 514.35181 517.27448
533.0 0.001876 513.58783 516.60193
540.0 0.001852 512.82526 515.95068
545.0 0.001835 512.06427 515.32227
516.0 0.001938 511.30527 514.72028
490.0 0.002041 510.54761 513.66199
551.0 0.001815 509.79181 513.14398
512.0 0.001953 509.03760 512.66211
495.0 0.002020 508.28513 512.22296
481.0 0.002079 507.53400 511.65521
479.0 0.002088 506.78461 511.33575
470.0 0.002128 506.03699 511.08929
512.0 0.001953 505.29071 510.93277
486.0 0.002058 504.54599 510.88831
499.0 0.002004 503.80328 510.98575
535.0 0.001869 503.06186 511.26532
490.0 0.002041 502.32214 511.78561
505.0 0.001980 501.58380 512.64227
462.0 0.002165 500.84708 514.02820
513.0 0.001949 500.11188 517.35083
487.0 0.002053 499.37839 522.07251
520.0 0.001923 498.64630 532.22882
539.0 0.001855 497.91577 554.77240
558.0 0.001792 497.18658 600.09717
715.0 0.001399 496.45911 681.81897
816.0 0.001225 495.73279 807.60260
1058.0 0.000945 495.00839 967.40509
1215.0 0.000823 494.28516 1126.40735
1291.0 0.000775 493.56342 1232.92285
1301.0 0.000769 492.84317 1248.22009
1295.0 0.000772 492.12442 1180.95654
1219.0 0.000820 491.40686 1071.93591
1015.0 0.000985 490.69095 951.59985
818.0 0.001222 489.97626 835.26556
820.0 0.001220 489.26306 737.31482
678.0 0.001475 488.55118 670.07886
673.0 0.001486 487.84070 637.33667
630.0 0.001587 487.13156 632.95520
649.0 0.001541 486.42380 642.84735
735.0 0.001361 485.71735 650.36926
658.0 0.001520 485.01199 644.69556
626.0 0.001597 484.30832 626.61267
608.0 0.001645 483.60568 602.80280
592.0 0.001689 482.90427 577.75818
552.0 0.001812 482.20435 553.63629
574.0 0.001742 481.50552 532.61786
467.0 0.002141 480.80807 516.36761
513.0 0.001949 480.11182 505.19083
498.0 0.002008 479.41660 498.32642
510.0 0.001961 478.72284 494.48218
501.0 0.001996 478.03021 492.42438
467.0 0.002141 477.33865 491.31430
460.0 0.002174 476.64813 490.71567
478.0 0.002092 475.95901 490.45340
463.0 0.002160 475.27100 490.48016
494.0 0.002024 474.58423 490.80573
499.0 0.002004 473.89828 491.47058
471.0 0.002123 473.21371 492.54391
476.0 0.002101 472.52997 494.13074
512.0 0.001953 471.84763 496.40503
521.0 0.001919 471.16605 499.71118
533.0 0.001876 470.48575 504.88290
487.0 0.002053 469.80637 514.13586
570.0 0.001754 469.12793 533.02869
649.0 0.001541 468.45081 573.60468
708.0 0.001412 467.77451 657.01373
902.0 0.001109 467.09937 810.62714
1153.0 0.000867 466.42490 1054.42554
1460.0 0.000685 465.75159 1377.14807
1698.0 0.000589 465.07938 1717.47900
1931.0 0.000518 464.40784 1972.56726
1947.0 0.000514 463.73761 2049.07227
1998.0 0.000501 463.06805 1941.73206
1734.0 0.000577 462.39935 1729.62085
1350.0 0.000741 461.73187 1485.99561
1136.0 0.000880 461.06491 1237.01208
954.0 0.001048 460.39917 1005.63739
784.0 0.001276 459.73407 814.42346
616.0 0.001623 459.06998 675.81927
538.0 0.001859 458.40674 586.13208
456.0 0.002193 457.74420 534.52435
501.0 0.001996 457.08273 507.84967
514.0 0.001946 456.42200 494.20273
494.0 0.002024 455.76196 486.60437
487.0 0.002053 455.10291 481.51328
451.0 0.002217 454.44467 477.85333
489.0 0.002045 453.78717 474.92719
444.0 0.002252 453.13043 472.50415
511.0 0.001957 452.47437 470.46146
487.0 0.002053 451.81924 468.71973
443.0 0.002257 451.16495 467.22202
490.0 0.002041 450.51129 465.84787
448.0 0.002232 449.85843 464.72903
462.0 0.002165 449.20633 463.76102
446.0 0.002242 448.55499 462.89743
485.0 0.002062 447.90424 462.18970
468.0 0.002137 447.25424 461.59933
443.0 0.002257 446.60507 461.12256
485.0 0.002062 445.95639 460.75916
470.0 0.002128 445.30865 460.51227
445.0 0.002247 444.66153 460.38736
481.0 0.002079 444.01529 460.39349
484.0 0.002066 443.36945 460.54321
468.0 0.002137 442.72430 460.85376
478.0 0.002092 442.08005 461.34683
525.0 0.001905 441.43628 462.05087
470.0 0.002128 440.79337 463.00195
493.0 0.002028 440.15097 464.24738
496.0 0.002016 439.50940 465.84708
520.0 0.001923 438.86847 467.87903
488.0 0.002049 438.22797 470.44778
522.0 0.001916 437.58835 473.69043
533.0 0.001876 436.94919 477.79727
500.0 0.002000 436.31097 483.03784
531.0 0.001883 435.67319 489.84082
529.0 0.001890 435.03619 499.05054
590.0 0.001695 434.39975 512.69049
623.0 0.001605 433.76407 536.08038
617.0 0.001621 433.12875 582.33533
697.0 0.001435 432.49435 679.30920
917.0 0.001091 431.86053 874.86987
1291.0 0.000775 431.22736 1229.38989
1902.0 0.000526 430.59500 1783.94336
2652.0 0.000377 429.96298 2511.96899
3256.0 0.0003071 429.33194 3273.97095
3639.0 0.0002748 428.70117 3841.80444
3897.0 0.0002566 428.07141 4009.82935
3803.0 0.0002630 427.44202 3771.37744
3403.0 0.0002939 426.81351 3306.09375
2594.0 0.000386 426.18558 2773.34375
1990.0 0.000503 425.55823 2234.04150
1609.0 0.000622 424.93182 1722.52002
1249.0 0.000801 424.30579 1286.28345
891.0 0.001122 423.68042 957.16669
655.0 0.001527 423.05597 737.85004
549.0 0.001821 422.43198 608.41638
545.0 0.001835 421.80887 539.30927
485.0 0.002062 421.18622 503.88379
475.0 0.002105 420.56442 484.70499
427.0 0.002342 419.94333 472.77463
462.0 0.002165 419.32297 464.20981
473.0 0.002114 418.70337 457.48825
487.0 0.002053 418.08432 451.97153
438.0 0.002283 417.46619 447.33701
427.0 0.002342 416.84866 443.38046
477.0 0.002096 416.23199 439.95538
455.0 0.002198 415.61597 436.95605
466.0 0.002146 415.00064 434.29944
417.0 0.002398 414.38617 431.92380
455.0 0.002198 413.77246 429.78012
426.0 0.002347 413.15961 427.82913
423.0 0.002364 412.54745 426.04056
424.0 0.002358 411.93622 424.38873
433.0 0.002309 411.32553 422.85370
410.0 0.002439 410.71603 421.41913
444.0 0.002252 410.10703 420.07071
384.0 0.002604 409.49902 418.79745
382.0 0.002618 408.89188 417.58957
406.0 0.002463 408.28543 416.43887
422.0 0.002370 407.68024 415.33881
433.0 0.002309 407.07553 414.28323
423.0 0.002364 406.47208 413.26749
391.0 0.002558 405.86908 412.28683
418.0 0.002392 405.26724 411.34109
396.0 0.002525 404.66644 410.42072
409.0 0.002445 404.06631 409.52563
392.0 0.002551 403.46759 408.65393
425.0 0.002353 402.86945 407.80426
374.0 0.002674 402.27231 406.97250
368.0 0.002717 401.67627 406.15836
367.0 0.002725 401.08118 405.35986
387.0 0.002584 400.48721 404.58490
415.0 0.002410 399.89417 403.81476
399.0 0.002506 399.30212 403.05731
375.0 0.002667 398.71136 402.31113
362.0 0.002762 398.12152 401.57916
371.0 0.002695 397.53281 400.85391
405.0 0.002469 396.94510 397.94083
408.0 0.002451 396.35864 397.31598
355.0 0.002817 395.77325 396.69473
370.0 0.002703 395.18909 396.07690
395.0 0.002532 394.60611 394.63297
386.0 0.002591 394.02420 394.05255
358.0 0.002793 393.44360 393.47342
378.0 0.002646 392.86420 392.89584
356.0 0.002809 392.28589 392.31934
389.0 0.002571 391.70901 391.74438
382.0 0.002618 391.13333 391.17096
400.0 0.002500 390.55890 390.59903
395.0 0.002532 389.98593 390.02866
362.0 0.002762 389.41403 389.45963
367.0 0.002725 388.84357 388.89249
390.0 0.002564 388.27444 388.32700
380.0 0.002632 387.70676 387.76312
394.0 0.002538 387.14050 387.20145
386.0 0.002591 386.57544 386.64151
410.0 0.002439 386.01190 386.08377
362.0 0.002762 385.44992 385.52808
361.0 0.002770 384.88904 384.97501
354.0 0.002825 384.33002 384.42453
385.0 0.002597 383.77222 383.87692
376.0 0.002660 383.21637 383.33258
378.0 0.002646 382.66147 382.79190
384.0 0.002604 382.10843 382.25589
358.0 0.002793 381.55695 381.72516
369.0 0.002710 381.00696 381.20230
395.0 0.002532 380.45868 380.69296
394.0 0.002538 379.91180 380.21030
394.0 0.002538 379.36688 379.78473
358.0 0.002793 378.82343 379.47186
400.0 0.002500 378.28171 379.35132
392.0 0.002551 377.74170 379.49915
376.0 0.002660 377.20337 379.92889
349.0 0.002865 376.66666 380.52591
377.0 0.002653 376.13187 381.03705
366.0 0.002732 375.59879 381.17599
385.0 0.002597 375.06744 380.87158
376.0 0.002660 374.53796 380.44370
357.0 0.002801 374.01019 380.37067
383.0 0.002611 373.48459 382.10385
394.0 0.002538 372.96033 383.53116
368.0 0.002717 372.43857 385.10599
342.0 0.002924 371.91824 386.28885
369.0 0.002710 371.39987 386.71017
416.0 0.002404 370.88367 385.50934
368.0 0.002717 370.36929 383.50525
395.0 0.002532 369.85687 381.24796
438.0 0.002283 369.34647 379.02139
363.0 0.002755 368.83798 376.85068
444.0 0.002252 368.33176 374.83624
375.0 0.002667 367.82733 373.12088
387.0 0.002584 367.32513 371.77866
374.0 0.002674 366.82486 370.79315
383.0 0.002611 366.32687 370.08728
374.0 0.002674 365.83099 369.56580
357.0 0.002801 365.33698 369.15161
364.0 0.002747 364.84540 368.79883
375.0 0.002667 364.35587 368.48541
375.0 0.002667 363.86856 368.20401
376.0 0.002660 363.38348 367.95227
402.0 0.002488 362.90054 367.73175
397.0 0.002519 362.41995 367.54456
406.0 0.002463 361.94150 367.39343
363.0 0.002755 361.46539 367.28265
395.0 0.002532 360.99164 367.21707
373.0 0.002681 360.51999 367.20288
340.0 0.002941 360.05087 367.24701
370.0 0.002703 359.58398 367.35864
379.0 0.002639 359.11942 367.54855
366.0 0.002732 358.65735 367.82983
393.0 0.002545 358.19760 368.21960
414.0 0.002415 357.74026 368.73770
404.0 0.002475 357.28528 369.41040
398.0 0.002513 356.83276 370.27078
409.0 0.002445 356.38272 371.36078
364.0 0.002747 355.93515 372.73593
355.0 0.002817 355.49005 374.46875
384.0 0.002604 355.04736 376.65918
377.0 0.002653 354.60718 379.44727
372.0 0.002688 354.16962 384.51361
412.0 0.002427 353.73453 389.43152
420.0 0.002381 353.30212 396.60858
447.0 0.002237 352.87207 408.59262
471.0 0.002123 352.44455 432.00876
479.0 0.002088 352.01990 478.39389
591.0 0.001692 351.59763 569.64771
784.0 0.001276 351.17816 732.93091
1044.0 0.000958 350.76105 988.81989
1374.0 0.000728 350.34662 1329.96960
1723.0 0.000580 349.93481 1702.40820
1920.0 0.000521 349.52585 2007.83533
2022.0 0.000495 349.11945 2145.26782
1971.0 0.000507 348.71561 2088.34668
1972.0 0.000507 348.31467 1902.10730
1666.0 0.000600 347.91635 1667.07739
1398.0 0.000715 347.52060 1423.66614
1139.0 0.000878 347.12775 1182.08728
916.0 0.001092 346.73755 954.95001
808.0 0.001238 346.34998 760.77478
610.0 0.001639 345.96533 612.25940
505.0 0.001980 345.58337 511.04126
424.0 0.002358 345.20404 449.29333
420.0 0.002381 344.82767 414.82877
401.0 0.002494 344.45383 396.42712
390.0 0.002564 344.08307 386.33707
397.0 0.002519 343.71484 380.24796
343.0 0.002915 343.34961 376.13351
378.0 0.002646 342.98715 373.12885
391.0 0.002558 342.62717 370.87021
412.0 0.002427 342.27042 369.18686
353.0 0.002833 341.91620 367.98520
396.0 0.002525 341.56509 367.21252
408.0 0.002451 341.21661 366.84128
385.0 0.002597 340.87091 366.86588
399.0 0.002506 340.52820 367.30118
369.0 0.002710 340.18814 368.18326
354.0 0.002825 339.85114 369.57385
395.0 0.002532 339.51691 371.56833
388.0 0.002577 339.18552 374.31140
393.0 0.002545 338.85687 378.04034
403.0 0.002481 338.53113 383.22406
415.0 0.002410 338.20837 390.96201
443.0 0.002257 337.88821 404.05566
424.0 0.002358 337.57117 429.22568
472.0 0.002119 337.25677 480.48117
569.0 0.001757 336.94531 581.72870
730.0 0.001370 336.63672 763.52356
1054.0 0.000949 336.33099 1049.15771
1447.0 0.000691 336.02805 1430.46265
1772.0 0.000564 335.72809 1846.44543
2069.0 0.000483 335.43085 2184.84351
2220.0 0.000450 335.13644 2327.65088
2281.0 0.000438 334.84497 2244.31836
2212.0 0.000452 334.55621 2021.32288
1759.0 0.000569 334.27048 1760.13916
1373.0 0.000728 333.98743 1502.13647
1116.0 0.000896 333.70746 1246.83545
999.0 0.001001 333.42996 1001.28137
803.0 0.001245 333.15543 787.88922
611.0 0.001637 332.88376 623.24487
457.0 0.002188 332.61481 510.62982
429.0 0.002331 332.34882 442.11502
408.0 0.002451 332.08557 403.14563
411.0 0.002433 331.82498 382.77597
381.0 0.002625 331.56744 371.38593
351.0 0.002849 331.31232 364.33319
353.0 0.002833 331.06027 359.29016
339.0 0.002950 330.81085 354.92694
381.0 0.002625 330.56427 351.66602
326.0 0.003067 330.32047 348.98813
335.0 0.002985 330.07916 346.71332
361.0 0.002770 329.84076 344.75800
320.0 0.003125 329.60504 343.06787
361.0 0.002770 329.37210 341.57770
370.0 0.002703 329.14175 340.25925
367.0 0.002725 328.91422 339.08463
334.0 0.002994 328.68930 338.02859
337.0 0.002967 328.46698 337.07687
322.0 0.003106 328.24747 336.20779
351.0 0.002849 328.03046 335.41296
299.0 0.003344 327.81625 334.68219
354.0 0.002825 327.60440 334.00662
335.0 0.002985 327.39532 333.37946
331.0 0.003021 327.18878 332.79477
345.0 0.002899 326.98480 332.24811
321.0 0.003115 326.78342 331.73480
320.0 0.003125 326.58463 331.25146
304.0 0.003289 326.38834 330.79498
313.0 0.003195 326.19461 330.36234
348.0 0.002874 326.00336 329.95181
321.0 0.003115 325.81439 329.56119
295.0 0.003390 325.62817 329.18869
321.0 0.003115 325.44431 328.83252
364.0 0.002747 325.26279 328.49170
326.0 0.003067 325.08383 328.16498
360.0 0.002778 324.90723 327.85117
336.0 0.002976 324.73300 327.57202
330.0 0.003030 324.56119 327.28244
301.0 0.003322 324.39172 327.00357
316.0 0.003165 324.22440 326.73462
320.0 0.003125 324.05957 326.47522
329.0 0.003040 323.89703 326.23340
307.0 0.003257 323.73660 324.51431
355.0 0.002817 323.57867 324.33688
334.0 0.002994 323.42279 324.16437
312.0 0.003205 323.26920 323.99677
289.0 0.003460 323.11786 323.83414
305.0 0.003279 322.96860 323.12991
337.0 0.002967 322.82144 322.99863
327.0 0.003058 322.67651 322.87216
308.0 0.003247 322.53363 322.85681
330.0 0.003030 322.39294 322.74652
320.0 0.003125 322.25424 322.64429
274.0 0.00365 322.11740 322.55270
306.0 0.003268 321.98270 322.51599
327.0 0.003058 321.85010 322.47119
284.0 0.00352 321.71942 322.48810
313.0 0.003195 321.59058 322.63522
316.0 0.003165 321.46390 323.03757
293.0 0.003413 321.33902 323.87137
317.0 0.003155 321.21585 325.30835
343.0 0.002915 321.09470 327.39484
337.0 0.002967 320.97534 329.91486
320.0 0.003125 320.85779 332.32196
340.0 0.002941 320.74197 333.88351
345.0 0.002899 320.62787 334.12158
319.0 0.003135 320.51563 333.23566
313.0 0.003195 320.40497 331.79166
333.0 0.003003 320.29608 330.16681
322.0 0.003106 320.18881 328.47641
340.0 0.002941 320.08301 326.75894
326.0 0.003067 319.97910 325.13559
332.0 0.003012 319.87640 323.73776
302.0 0.003311 319.77551 322.63986
299.0 0.003344 319.67596 321.85898
361.0 0.002770 319.57813 321.35748
297.0 0.003367 319.48172 321.06854
320.0 0.003125 319.38660 320.92841
313.0 0.003195 319.29300 320.89771
298.0 0.003356 319.20078 320.97433
346.0 0.002890 319.10977 321.21442
305.0 0.003279 319.02026 321.76788
335.0 0.002985 318.93188 322.91620
311.0 0.003215 318.84494 325.05832
358.0 0.002793 318.75925 328.57358
341.0 0.002933 318.67459 333.54474
308.0 0.003247 318.59131 339.43335
325.0 0.003077 318.50909 344.94952
338.0 0.002959 318.42801 348.38437
309.0 0.003236 318.34805 348.66974
332.0 0.003012 318.26913 346.43304
371.0 0.002695 318.19119 343.29227
333.0 0.003003 318.11444 340.38269
338.0 0.002959 318.03854 338.11331
352.0 0.002841 317.96359 336.90808
329.0 0.003040 317.88962 338.00681
336.0 0.002976 317.81656 343.40018
324.0 0.003086 317.74432 355.12268
376.0 0.002660 317.67303 374.09167
408.0 0.002451 317.60236 399.26270
422.0 0.002370 317.53265 424.47375
471.0 0.002123 317.46375 442.60620
458.0 0.002183 317.39529 447.21378
465.0 0.002151 317.32773 438.80676
446.0 0.002242 317.26083 423.55661
414.0 0.002415 317.19458 407.48282
405.0 0.002469 317.12891 392.29761
361.0 0.002770 317.06381 377.25778
393.0 0.002545 316.99930 362.38953
356.0 0.002809 316.93524 349.03363
380.0 0.002632 316.87177 338.37106
347.0 0.002882 316.80872 330.82166
334.0 0.002994 316.74606 326.06070
315.0 0.003175 316.68387 323.34012
332.0 0.003012 316.62210 321.87061
324.0 0.003086 316.56052 321.06686
298.0 0.003356 316.49933 320.58090
325.0 0.003077 316.43854 320.26712
285.0 0.00351 316.37799 320.04532
343.0 0.002915 316.31754 319.88489
319.0 0.003135 316.25742 319.77106
329.0 0.003040 316.19742 319.94925
283.0 0.00353 316.13757 319.92773
344.0 0.002907 316.07800 319.94131
319.0 0.003135 316.01834 319.98965
344.0 0.002907 315.95883 320.07300
342.0 0.002924 315.89920 320.28641
319.0 0.003135 315.83987 320.44839
314.0 0.003185 315.78046 320.65356
318.0 0.003145 315.72089 320.90677
307.0 0.003257 315.66122 321.21512
309.0 0.003236 315.60153 321.58740
342.0 0.002924 315.54193 322.03571
324.0 0.003086 315.48187 322.57486
314.0 0.003185 315.42169 323.22467
332.0 0.003012 315.36136 324.01099
338.0 0.002959 315.30078 324.96844
343.0 0.002915 315.24011 326.14484
340.0 0.002941 315.17892 327.61264
318.0 0.003145 315.11752 329.49765
317.0 0.003155 315.05588 332.04623
350.0 0.002857 314.99387 335.95438
354.0 0.002825 314.93137 342.75772
385.0 0.002597 314.86865 355.98761
392.0 0.002551 314.80530 381.43951
444.0 0.002252 314.74152 428.11194
516.0 0.001938 314.67728 506.33630
652.0 0.001534 314.61270 616.62396
761.0 0.001314 314.54749 750.68445
808.0 0.001238 314.48175 881.53290
868.0 0.001152 314.41547 970.19196
982.0 0.001018 314.34845 987.11841
1077.0 0.000929 314.28091 937.79193
916.0 0.001092 314.21283 858.20148
803.0 0.001245 314.14401 777.33765
693.0 0.001443 314.07446 702.25958
591.0 0.001692 314.00421 627.83856
596.0 0.001678 313.93338 553.25494
521.0 0.001919 313.86163 485.15851
459.0 0.002179 313.78918 430.12100
356.0 0.002809 313.71585 390.76752
370.0 0.002703 313.64191 365.94278
374.0 0.002674 313.56714 352.17355
381.0 0.002625 313.49133 345.53543
325.0 0.003077 313.41467 343.45053
361.0 0.002770 313.33716 345.10016
340.0 0.002941 313.25885 351.59564
359.0 0.002786 313.17953 366.01117
415.0 0.002410 313.09940 391.76791
405.0 0.002469 313.01816 432.00339
512.0 0.001953 312.93604 484.97989
548.0 0.001825 312.85291 542.88910
604.0 0.001656 312.76877 591.04218
578.0 0.001730 312.68356 613.18756
613.0 0.001631 312.59720 603.94550
580.0 0.001724 312.51004 574.40771
582.0 0.001718 312.42160 539.87756
502.0 0.001992 312.33228 507.83795
484.0 0.002066 312.24152 477.65359
432.0 0.002315 312.14993 447.13492
448.0 0.002232 312.05713 417.72266
407.0 0.002457 311.96310 392.64713
382.0 0.002618 311.86801 374.07425
359.0 0.002786 311.77185 362.48776
369.0 0.002710 311.67426 357.01410
359.0 0.002786 311.57565 356.24075
355.0 0.002817 311.47574 359.13855
340.0 0.002941 311.37463 365.79749
419.0 0.002387 311.27231 378.16595
404.0 0.002475 311.16864 401.14294
438.0 0.002283 311.06375 444.05930
541.0 0.001848 310.95770 521.67505
677.0 0.001477 310.85037 652.79419
832.0 0.001202 310.74155 853.81702
1171.0 0.000854 310.63156 1126.30237
1551.0 0.000645 310.52032 1443.90649
1680.0 0.000595 310.40787 1748.28723
1816.0 0.000551 310.29395 1960.03149
1919.0 0.000521 310.17862 2011.05200
2015.0 0.000496 310.06198 1901.75317
1868.0 0.000535 309.94403 1706.45532
1522.0 0.000657 309.82477 1499.10449
1279.0 0.000782 309.70422 1307.50317
1038.0 0.000963 309.58221 1124.75879
910.0 0.001099 309.45880 941.83630
828.0 0.001208 309.33411 769.52655
661.0 0.001513 309.20804 624.44006
471.0 0.002123 309.08044 515.31946
437.0 0.002288 308.95160 442.60202
378.0 0.002646 308.82129 398.82068
328.0 0.003049 308.68967 374.68506
349.0 0.002865 308.55661 362.30328
354.0 0.002825 308.42209 356.85822
366.0 0.002732 308.28622 356.76077
360.0 0.002778 308.14917 362.70013
386.0 0.002591 308.01025 377.14651
399.0 0.002506 307.87030 402.59171
480.0 0.002083 307.72879 439.43811
505.0 0.001980 307.58591 483.70526
526.0 0.001901 307.44165 525.89685
546.0 0.001832 307.29596 553.08618
565.0 0.001770 307.14874 556.58423
565.0 0.001770 307.00034 540.86658
550.0 0.001818 306.85040 519.98315
494.0 0.002024 306.69907 506.30136
487.0 0.002053 306.54633 505.82266
490.0 0.002041 306.39224 520.78461
568.0 0.001761 306.23679 550.98230
631.0 0.001585 306.07990 593.05194
566.0 0.001767 305.92160 635.80200
638.0 0.001567 305.76196 661.79425
686.0 0.001458 305.60092 657.19385
646.0 0.001548 305.43863 625.41022
624.0 0.001603 305.27484 582.76947
584.0 0.001712 305.10962 542.07642
461.0 0.002169 304.94318 506.09464
429.0 0.002331 304.77545 470.95786
431.0 0.002320 304.60632 434.98584
400.0 0.002500 304.43570 401.44388
426.0 0.002347 304.26398 372.64142
356.0 0.002809 304.09070 351.03668
355.0 0.002817 303.91629 336.48874
331.0 0.003021 303.74060 327.61566
347.0 0.002882 303.56354 322.75037
302.0 0.003311 303.38516 319.86057
333.0 0.003003 303.20560 318.11429
326.0 0.003067 303.02484 316.95508
321.0 0.003115 302.84256 315.95941
343.0 0.002915 302.65939 315.35638
308.0 0.003247 302.47464 313.54572
303.0 0.003300 302.28885 313.32254
322.0 0.003106 302.10184 313.24371
309.0 0.003236 301.91357 313.24777
316.0 0.003165 301.72421 313.47302
328.0 0.003049 301.53363 313.35107
313.0 0.003195 301.34198 313.98239
303.0 0.003300 301.14902 314.88605
316.0 0.003165 300.95499 316.19394
335.0 0.002985 300.75986 318.20709
294.0 0.003401 300.56348 321.60330
316.0 0.003165 300.36612 327.78064
343.0 0.002915 300.16772 339.22403
411.0 0.002433 299.96835 359.59436
468.0 0.002137 299.76773 393.08304
487.0 0.002053 299.56619 442.80170
500.0 0.002000 299.36353 508.59723
587.0 0.001704 299.15994 584.93591
652.0 0.001534 298.95547 660.46490
739.0 0.001353 298.74991 722.35663
813.0 0.001230 298.54333 763.66846
801.0 0.001248 298.33585 781.38641
805.0 0.001242 298.12753 770.65576
796.0 0.001256 297.91833 731.65942
699.0 0.001431 297.70816 675.10303
616.0 0.001623 297.49713 614.46411
550.0 0.001818 297.28513 558.22827
474.0 0.002110 297.07260 507.61108
461.0 0.002169 296.85913 460.93042
454.0 0.002203 296.64474 419.09351
386.0 0.002591 296.42984 384.54935
367.0 0.002725 296.21396 358.58722
331.0 0.003021 295.99744 340.92468
328.0 0.003049 295.78006 330.10187
297.0 0.003367 295.56232 324.16180
330.0 0.003030 295.34360 321.31705
305.0 0.003279 295.12436 320.31412
345.0 0.002899 294.90445 320.46335
307.0 0.003257 294.68384 321.50146
321.0 0.003115 294.46286 323.43057
340.0 0.002941 294.24103 326.76578
319.0 0.003135 294.01892 332.47183
343.0 0.002915 293.79611 342.70679
387.0 0.002584 293.57288 361.52554
405.0 0.002469 293.34906 395.26071
474.0 0.002110 293.12488 453.69202
582.0 0.001718 292.90024 546.38794
743.0 0.001346 292.67523 679.49115
929.0 0.001076 292.44974 848.71570
1063.0 0.000941 292.22382 1033.88025
1226.0 0.000816 291.99765 1200.89136
1284.0 0.000779 291.77100 1309.17773
1325.0 0.000755 291.54419 1326.23218
1261.0 0.000793 291.31720 1255.27173
1182.0 0.000846 291.08984 1137.61536
1052.0 0.000951 290.86212 1014.35297
889.0 0.001125 290.63434 902.81982
716.0 0.001397 290.40637 799.14063
679.0 0.001473 290.17822 695.01782
620.0 0.001613 289.94986 593.26520
503.0 0.001988 289.72141 503.44717
410.0 0.002439 289.49280 432.46140
337.0 0.002967 289.26416 382.10172
337.0 0.002967 289.03564 349.76913
295.0 0.003390 288.80692 330.57104
285.0 0.00351 288.57803 319.56198
297.0 0.003367 288.34933 313.05402
332.0 0.003012 288.12079 308.83673
266.0 0.00376 287.89233 305.78259
333.0 0.003003 287.66379 303.37460
284.0 0.00352 287.43539 301.37976
314.0 0.003185 287.20715 299.68259
292.0 0.003425 286.97916 298.21442
258.0 0.00388 286.75134 296.92819
297.0 0.003367 286.52365 295.78918
292.0 0.003425 286.29608 294.77115
296.0 0.003378 286.06906 293.95624
280.0 0.00357 285.84216 293.16360
291.0 0.003436 285.61578 292.40509
292.0 0.003425 285.38940 291.70773
291.0 0.003436 285.16351 291.06131
281.0 0.00356 284.93802 290.30487
281.0 0.00356 284.71292 289.78598
274.0 0.00365 284.48834 289.27698
271.0 0.00369 284.26401 288.78336
304.0 0.003289 284.04041 288.12784
252.0 0.00397 283.81708 287.68927
281.0 0.00356 283.59433 287.21387
287.0 0.003484 283.37222 286.81589
261.0 0.00383 283.15060 286.43393
281.0 0.00356 282.92960 286.02423
271.0 0.00369 282.70914 285.67389
286.0 0.003497 282.48953 285.33588
279.0 0.00358 282.27045 285.00931
278.0 0.00360 282.05206 284.69299
285.0 0.00351 281.83432 284.39737
301.0 0.003322 281.61728 284.10016
262.0 0.00382 281.40118 283.81183
315.0 0.003175 281.18567 283.53372
281.0 0.00356 280.97098 283.26132
267.0 0.00375 280.75714 282.99649
296.0 0.003378 280.54422 282.73880
298.0 0.003356 280.33215 282.48834
282.0 0.00355 280.12094 282.24515
248.0 0.00403 279.91068 282.00934
292.0 0.003425 279.70123 281.77985
264.0 0.00379 279.49280 281.55753
266.0 0.00376 279.28531 281.34241
258.0 0.00388 279.07892 281.13480
278.0 0.00360 278.87347 280.93478
295.0 0.003390 278.66901 280.74304
308.0 0.003247 278.46561 280.55997
281.0 0.00356 278.26331 280.25928
261.0 0.00383 278.06216 280.09976
289.0 0.003460 277.86212 279.95105
260.0 0.00385 277.66324 279.24783
299.0 0.003344 277.46542 279.14236
265.0 0.00377 277.26877 279.00296
284.0 0.00352 277.07333 278.93066
283.0 0.00353 276.87921 278.87799
336.0 0.002976 276.68628 278.63205
280.0 0.00357 276.49454 278.63702
262.0 0.00382 276.30420 278.67505
284.0 0.00352 276.11499 278.75348
261.0 0.00383 275.92715 278.88162
263.0 0.00380 275.74063 279.07260
284.0 0.00352 275.55545 279.34448
309.0 0.003236 275.37167 279.72696
274.0 0.00365 275.18927 280.27704
294.0 0.003401 275.00809 281.12106
293.0 0.003413 274.82855 282.54803
299.0 0.003344 274.65030 285.18213
284.0 0.00352 274.47351 290.20575
270.0 0.00370 274.29822 299.50037
332.0 0.003012 274.12445 315.41266
348.0 0.002874 273.95200 339.85776
391.0 0.002558 273.78122 372.83313
401.0 0.002494 273.61203 410.87686
456.0 0.002193 273.44418 446.39206
467.0 0.002141 273.27789 469.23309
447.0 0.002237 273.11319 472.46228
499.0 0.002004 272.95010 458.42966
478.0 0.002092 272.78848 436.28864
410.0 0.002439 272.62866 414.19901
375.0 0.002667 272.47046 395.10974
381.0 0.002625 272.31369 377.62234
352.0 0.002841 272.15863 360.44647
322.0 0.003106 272.00516 343.29599
319.0 0.003135 271.85358 329.05423
326.0 0.003067 271.70355 319.77057
287.0 0.003484 271.55505 316.03711
295.0 0.003390 271.40851 316.66794
267.0 0.00375 271.26352 319.16537
294.0 0.003401 271.12024 319.89828
268.0 0.00373 270.97870 317.26566
298.0 0.003356 270.83890 312.20139
290.0 0.003448 270.70093 306.74405
323.0 0.003096 270.56458 302.18668
296.0 0.003378 270.43011 298.58780
277.0 0.00361 270.29739 295.21060
309.0 0.003236 270.16638 291.55347
277.0 0.00361 270.03720 287.74380
280.0 0.00357 269.90985 284.10034
296.0 0.003378 269.78418 280.92102
299.0 0.003344 269.66040 278.42877
280.0 0.00357 269.53833 276.66278
260.0 0.00385 269.41824 275.48621
271.0 0.00369 269.29996 274.68076
261.0 0.00383 269.18341 274.05231
254.0 0.00394 269.06879 273.50580
292.0 0.003425 268.95596 273.02725
285.0 0.00351 268.84491 272.62723
268.0 0.00373 268.73581 272.31305
272.0 0.00368 268.62854 272.08139
320.0 0.003125 268.52310 271.91946
269.0 0.00372 268.41940 271.81110
236.0 0.00424 268.31793 271.74310
233.0 0.00429 268.21799 271.70660
279.0 0.00358 268.12000 271.69733
275.0 0.00364 268.02396 271.71381
300.0 0.003333 267.92969 271.75586
259.0 0.00386 267.83728 271.82513
252.0 0.00397 267.74680 271.92340
275.0 0.00364 267.65817 272.05362
260.0 0.00385 267.57138 272.21933
271.0 0.00369 267.48654 272.42477
265.0 0.00377 267.40350 272.67560
266.0 0.00376 267.32233 272.97842
282.0 0.00355 267.24310 273.34171
292.0 0.003425 267.16568 273.77634
327.0 0.003058 267.09018 274.29550
297.0 0.003367 267.01642 274.91602
285.0 0.00351 266.94467 275.65930
293.0 0.003413 266.87469 276.55353
307.0 0.003257 266.80667 277.63617
315.0 0.003175 266.74033 278.95737
290.0 0.003448 266.67593 280.59222
317.0 0.003155 266.61334 282.66888
273.0 0.00366 266.55264 285.44992
288.0 0.003472 266.49380 289.53461
293.0 0.003413 266.43665 296.28232
279.0 0.00358 266.38144 308.52133
308.0 0.003247 266.32806 331.21393
329.0 0.003040 266.27646 371.97388
409.0 0.002445 266.22662 438.95477
524.0 0.001908 266.17862 536.92383
724.0 0.001381 266.13245 661.72107
800.0 0.001250 266.08801 795.78888
716.0 0.001397 266.04532 907.25079
833.0 0.001200 266.00449 959.02771
880.0 0.001136 265.96530 936.85443
921.0 0.001086 265.92798 865.87183
941.0 0.001063 265.89240 783.66077
726.0 0.001377 265.85849 712.96527
568.0 0.001761 265.82623 655.49799
543.0 0.001842 265.79575 599.75775
521.0 0.001919 265.76709 537.72137
500.0 0.002000 265.74011 473.19507
473.0 0.002114 265.71472 414.09763
370.0 0.002703 265.69110 366.18109
322.0 0.003106 265.66891 331.49484
320.0 0.003125 265.64865 308.87854
313.0 0.003195 265.62985 295.29880
286.0 0.003497 265.61279 287.48694
282.0 0.00355 265.59729 283.16373
286.0 0.003497 265.58340 280.28647
275.0 0.00364 265.57111 278.27679
272.0 0.00368 265.56049 276.74579
280.0 0.00357 265.55130 275.51627
287.0 0.003484 265.54367 274.50113
256.0 0.00391 265.53766 273.74252
275.0 0.00364 265.53323 273.02594
284.0 0.00352 265.53015 272.41650
254.0 0.00394 265.52869 271.89514
260.0 0.00385 265.52859 271.44739
298.0 0.003356 265.53003 271.06207
321.0 0.003115 265.53302 270.72971
265.0 0.00377 265.53732 270.44330
270.0 0.00370 265.54303 270.21231
281.0 0.00356 265.55023 270.00342
284.0 0.00352 265.55881 269.82358
290.0 0.003448 265.56879 269.68759
272.0 0.00368 265.57996 269.56146
277.0 0.00361 265.59256 269.45892
269.0 0.00372 265.60648 269.38382
266.0 0.00376 265.62189 269.32455
269.0 0.00372 265.63828 269.28378
306.0 0.003268 265.65613 269.26834
259.0 0.00386 265.67517 269.26584
266.0 0.00376 265.69547 269.28223
278.0 0.00360 265.71710 269.31799
277.0 0.00361 265.73984 269.37381
271.0 0.00369 265.76379 269.45108
268.0 0.00373 265.78885 269.55157
299.0 0.003344 265.81512 269.67767
274.0 0.00365 265.84253 269.83319
280.0 0.00357 265.87097 270.02353
253.0 0.00395 265.90048 270.25864
298.0 0.003356 265.93115 270.55823
256.0 0.00391 265.96292 271.16727
253.0 0.00395 265.99567 272.33755
305.0 0.003279 266.02939 273.29501
264.0 0.00379 266.06406 274.80426
283.0 0.00353 266.09982 277.10910
299.0 0.003344 266.13647 280.37708
318.0 0.003145 266.17404 284.63062
297.0 0.003367 266.21271 289.54907
316.0 0.003165 266.25204 294.06619
297.0 0.003367 266.29239 297.60837
276.0 0.00362 266.33362 300.15329
324.0 0.003086 266.37555 303.18967
344.0 0.002907 266.41840 308.80154
302.0 0.003311 266.46201 318.31635
302.0 0.003311 266.50638 333.25934
350.0 0.002857 266.55148 351.77420
354.0 0.002825 266.59735 370.65335
355.0 0.002817 266.64395 385.43457
394.0 0.002538 266.69119 392.47388
387.0 0.002584 266.73911 392.20303
372.0 0.002688 266.78775 389.32892
381.0 0.002625 266.83691 389.16205
368.0 0.002717 266.88681 397.33698
431.0 0.002320 266.93710 417.99289
486.0 0.002058 266.98807 452.35236
501.0 0.001996 267.03964 498.09875
541.0 0.001848 267.09164 547.87634
552.0 0.001812 267.14423 588.44690
605.0 0.001653 267.19711 604.32428
614.0 0.001629 267.25064 589.30878
606.0 0.001650 267.30457 553.79980
594.0 0.001684 267.35886 514.26257
572.0 0.001748 267.41367 480.89011
444.0 0.002252 267.46866 455.34274
381.0 0.002625 267.52420 432.56848
387.0 0.002584 267.57993 407.62564
435.0 0.002299 267.63593 380.99258
378.0 0.002646 267.69241 356.36365
353.0 0.002833 267.74896 337.11078
338.0 0.002959 267.80582 324.82614
322.0 0.003106 267.86295 319.39764
327.0 0.003058 267.92029 319.11969
324.0 0.003086 267.97775 321.38486
351.0 0.002849 268.03552 323.69739
339.0 0.002950 268.09317 324.68423
373.0 0.002681 268.15112 323.96460
347.0 0.002882 268.20926 321.68021
319.0 0.003135 268.26736 318.58960
356.0 0.002809 268.32544 315.57068
331.0 0.003021 268.38361 313.05820
343.0 0.002915 268.44193 311.21487
369.0 0.002710 268.49997 310.09482
351.0 0.002849 268.55832 309.77698
335.0 0.002985 268.61639 310.76788
342.0 0.002924 268.67456 314.26767
352.0 0.002841 268.73264 322.53415
342.0 0.002924 268.79050 339.69983
344.0 0.002907 268.84824 372.64301
407.0 0.002457 268.90585 430.88705
482.0 0.002075 268.96341 524.33307
751.0 0.001332 269.02063 658.18811
887.0 0.001127 269.07776 826.28906
1014.0 0.000986 269.13467 1005.85315
1095.0 0.000913 269.19135 1156.50952
1206.0 0.000829 269.24771 1231.67737
1314.0 0.000761 269.30377 1210.63000
1382.0 0.000724 269.35965 1120.76746
1293.0 0.000773 269.41513 1011.24097
1098.0 0.000911 269.47040 917.01086
895.0 0.001117 269.52512 847.07562
763.0 0.001311 269.57965 789.34930
716.0 0.001397 269.63370 727.82965
747.0 0.001339 269.68741 658.47968
700.0 0.001429 269.74072 587.59442
588.0 0.001701 269.79355 521.10352
513.0 0.001949 269.84586 462.90811
424.0 0.002358 269.89780 416.11487
355.0 0.002817 269.94928 382.14297
317.0 0.003155 270.00009 359.47131
331.0 0.003021 270.05051 344.92990
298.0 0.003356 270.10043 334.62564
323.0 0.003096 270.14978 325.75153
286.0 0.003497 270.19849 317.20450
281.0 0.00356 270.24670 309.36539
287.0 0.003484 270.29431 302.95901
269.0 0.00372 270.34128 298.54074
278.0 0.00360 270.38763 296.59549
301.0 0.003322 270.43335 297.82101
314.0 0.003185 270.47842 303.17865
314.0 0.003185 270.52274 314.05209
340.0 0.002941 270.56644 331.16470
353.0 0.002833 270.60950 354.11249
365.0 0.002740 270.65182 380.91266
405.0 0.002469 270.69321 406.11905
430.0 0.002326 270.73410 422.43469
437.0 0.002288 270.77420 424.23157
480.0 0.002083 270.81351 412.85583
423.0 0.002364 270.85211 395.45401
411.0 0.002433 270.88983 378.81741
359.0 0.002786 270.92673 365.74826
369.0 0.002710 270.96289 355.36725
327.0 0.003058 270.99829 344.85541
348.0 0.002874 271.03275 332.68756
339.0 0.002950 271.06641 319.75809
329.0 0.003040 271.09927 307.71732
288.0 0.003472 271.13120 297.75336
261.0 0.00383 271.16223 290.39005
280.0 0.00357 271.19244 285.46091
270.0 0.00370 271.22162 282.40546
273.0 0.00366 271.25012 280.62744
278.0 0.00360 271.27750 279.59775
289.0 0.003460 271.30414 278.97672
271.0 0.00369 271.32974 278.59067
254.0 0.00394 271.35446 278.34467
280.0 0.00357 271.37830 278.19135
268.0 0.00373 271.40094 278.12527
227.0 0.00441 271.42291 278.13345
282.0 0.00355 271.44370 278.21494
286.0 0.003497 271.46365 278.37268
233.0 0.00429 271.48254 278.61398
276.0 0.00362 271.50052 278.95184
276.0 0.00362 271.51743 279.40842
280.0 0.00357 271.53336 280.02576
293.0 0.003413 271.54822 280.89322
293.0 0.003413 271.56223 282.20770
280.0 0.00357 271.57507 284.38602
287.0 0.003484 271.58707 288.22235
276.0 0.00362 271.59799 294.24933
256.0 0.00391 271.60776 305.81207
288.0 0.003472 271.61667 323.90668
321.0 0.003115 271.62439 349.48468
371.0 0.002695 271.63104 381.56924
418.0 0.002392 271.63690 416.43042
438.0 0.002283 271.64148 447.04822
429.0 0.002331 271.64520 466.09982
462.0 0.002165 271.64777 469.86353
455.0 0.002198 271.64932 462.79974
454.0 0.002203 271.64987 451.60480
400.0 0.002500 271.64926 439.73767
376.0 0.002660 271.64764 426.91501
376.0 0.002660 271.64499 411.83551
379.0 0.002639 271.64130 394.03323
373.0 0.002681 271.63654 375.11465
351.0 0.002849 271.63062 357.82333
330.0 0.003030 271.62375 344.25439
322.0 0.003106 271.61591 335.59106
311.0 0.003215 271.60690 333.16232
361.0 0.002770 271.59686 338.54211
361.0 0.002770 271.58588 352.50299
386.0 0.002591 271.57367 373.93649
415.0 0.002410 271.56058 399.13660
415.0 0.002410 271.54645 421.75778
404.0 0.002475 271.53104 433.48285
435.0 0.002299 271.51483 430.05865
481.0 0.002079 271.49750 415.27496
446.0 0.002242 271.47919 396.35928
383.0 0.002611 271.45987 379.50934
379.0 0.002639 271.43945 366.62836
336.0 0.002976 271.41806 356.45547
348.0 0.002874 271.39566 345.68631
355.0 0.002817 271.37228 332.99850
336.0 0.002976 271.34787 319.64008
304.0 0.003289 271.32242 307.14584
318.0 0.003145 271.29596 296.82990
290.0 0.003448 271.26865 289.12534
256.0 0.00391 271.24023 283.94708
262.0 0.00382 271.21094 280.71170
271.0 0.00369 271.18051 278.75055
274.0 0.00365 271.14926 277.55551
258.0 0.00388 271.11703 276.78119
282.0 0.00355 271.08389 276.23322
271.0 0.00369 271.04968 275.81421
262.0 0.00382 271.01480 275.47708
266.0 0.00376 270.97873 275.19870
272.0 0.00368 270.94189 274.96637
253.0 0.00395 270.90402 274.77155
265.0 0.00377 270.86533 274.60837
287.0 0.003484 270.82587 274.47296
271.0 0.00369 270.78531 274.36179
260.0 0.00385 270.74399 274.27255
289.0 0.003460 270.70178 274.20346
279.0 0.00358 270.65869 274.15338
270.0 0.00370 270.61490 274.12140
272.0 0.00368 270.57001 274.10718
271.0 0.00369 270.52460 274.11075
249.0 0.00402 270.47815 274.13254
254.0 0.00394 270.43112 274.17307
250.0 0.00400 270.38306 274.23386
292.0 0.003425 270.33435 274.31598
288.0 0.003472 270.28491 274.42163
277.0 0.00361 270.23468 274.55322
264.0 0.00379 270.18353 274.71396
268.0 0.00373 270.13190 274.90753
299.0 0.003344 270.07938 275.13885
273.0 0.00366 270.02631 275.41373
277.0 0.00361 269.97247 275.73981
266.0 0.00376 269.91788 276.12601
295.0 0.003390 269.86270 276.43768
241.0 0.00415 269.80679 276.98608
292.0 0.003425 269.75031 277.63947
261.0 0.00383 269.69308 278.42303
270.0 0.00370 269.63544 279.32654
271.0 0.00369 269.57697 280.49829
261.0 0.00383 269.51797 281.93546
277.0 0.00361 269.45844 284.15045
300.0 0.003333 269.39838 287.11002
264.0 0.00379 269.33777 291.82294
284.0 0.00352 269.27652 299.74991
326.0 0.003067 269.21475 313.16431
326.0 0.003067 269.15262 335.15253
359.0 0.002786 269.08981 368.95392
389.0 0.002571 269.02661 416.94928
441.0 0.002268 268.96292 478.76865
552.0 0.001812 268.89877 549.94202
624.0 0.001603 268.83429 620.65814
593.0 0.001686 268.76926 678.51941
673.0 0.001486 268.70386 715.33630
718.0 0.001393 268.63806 727.00220
716.0 0.001397 268.57190 713.17896
644.0 0.001553 268.50531 681.71576
618.0 0.001618 268.43857 644.77063
609.0 0.001642 268.37131 609.30804
540.0 0.001852 268.30377 575.68280
539.0 0.001855 268.23593 541.57538
469.0 0.002132 268.16785 504.29816
482.0 0.002075 268.09952 463.73593
443.0 0.002257 268.03085 423.45175
421.0 0.002375 267.96201 387.65222
338.0 0.002959 267.89294 358.50519
341.0 0.002933 267.82370 335.97906
355.0 0.002817 267.75415 318.92343
271.0 0.00369 267.68457 306.15152
302.0 0.003311 267.61472 296.71582
299.0 0.003344 267.54480 289.83694
285.0 0.00351 267.47458 284.89236
282.0 0.00355 267.40448 281.39484
273.0 0.00366 267.33417 278.94705
271.0 0.00369 267.26373 277.22202
266.0 0.00376 267.19339 275.96982
281.0 0.00356 267.12299 275.01755
284.0 0.00352 267.05237 274.25748
275.0 0.00364 266.98190 273.62729
281.0 0.00356 266.91129 273.09204
281.0 0.00356 266.84079 272.63104
269.0 0.00372 266.77036 272.23068
260.0 0.00385 266.69995 271.88184
274.0 0.00365 266.62952 271.57742
270.0 0.00370 266.55917 271.31244
304.0 0.003289 266.48895 271.08289
321.0 0.003115 266.41895 270.88525
272.0 0.00368 266.34891 271.12201
270.0 0.00370 266.27914 270.99335
287.0 0.003484 266.20944 270.89236
281.0 0.00356 266.14001 270.81879
248.0 0.00403 266.07074 270.77264
289.0 0.003460 266.00162 270.75485
250.0 0.00400 265.93268 270.95026
272.0 0.00368 265.86398 270.99927
275.0 0.00364 265.79568 271.08337
268.0 0.00373 265.72739 271.20670
264.0 0.00379 265.65958 271.37439
256.0 0.00391 265.59195 271.59326
285.0 0.00351 265.52466 271.87213
244.0 0.00410 265.45779 272.23511
298.0 0.003356 265.39120 272.67236
320.0 0.003125 265.32483 273.21576
273.0 0.00366 265.25894 273.89581
327.0 0.003058 265.19336 274.76166
318.0 0.003145 265.12827 275.90753
288.0 0.003472 265.06357 277.53217
293.0 0.003413 264.99911 280.05801
295.0 0.003390 264.93524 284.32434
269.0 0.00372 264.87192 291.82440
297.0 0.003367 264.80890 304.82889
341.0 0.002933 264.74640 326.14594
379.0 0.002639 264.68436 358.25183
443.0 0.002257 264.62296 401.79440
494.0 0.002024 264.56189 453.98532
495.0 0.002020 264.50140 507.25580
533.0 0.001876 264.44153 549.95032
538.0 0.001859 264.38205 568.40570
588.0 0.001701 264.32321 558.33264
572.0 0.001748 264.26501 528.47961
558.0 0.001792 264.20724 493.22507
479.0 0.002088 264.15024 462.77417
418.0 0.002392 264.09369 440.66837
394.0 0.002538 264.03784 423.88654
404.0 0.002475 263.98267 406.44495
398.0 0.002513 263.92810 385.06195
342.0 0.002924 263.87421 360.98633
343.0 0.002915 263.82083 337.47653
352.0 0.002841 263.76831 317.18716
323.0 0.003096 263.71637 301.45456
271.0 0.00369 263.66516 290.42148
282.0 0.00355 263.61472 283.31030
287.0 0.003484 263.56482 279.01474
274.0 0.00365 263.51584 276.50510
292.0 0.003425 263.46738 275.02637
267.0 0.00375 263.41980 274.11295
291.0 0.003436 263.37299 273.51660
312.0 0.003205 263.32672 273.12238
266.0 0.00376 263.28149 272.88281
258.0 0.00388 263.23697 272.77780
263.0 0.00380 263.19305 272.79721
283.0 0.00353 263.15012 272.93561
275.0 0.00364 263.10800 273.19153
238.0 0.00420 263.06647 273.56976
271.0 0.00369 263.02597 274.08295
273.0 0.00366 262.98615 274.75131
283.0 0.00353 262.94733 275.60172
276.0 0.00362 262.90915 276.67230
319.0 0.003135 262.87189 278.01703
276.0 0.00362 262.83542 279.72708
307.0 0.003257 262.79984 281.97421
309.0 0.003236 262.76508 285.11807
284.0 0.00352 262.73114 289.91830
303.0 0.003300 262.69821 297.88071
335.0 0.002985 262.66605 311.69168
307.0 0.003257 262.63480 335.47638
366.0 0.002732 262.60431 374.44687
459.0 0.002179 262.57471 433.44501
552.0 0.001812 262.54608 514.31256
638.0 0.001567 262.51837 612.93793
689.0 0.001451 262.49158 716.96936
748.0 0.001337 262.46555 805.32794
746.0 0.001340 262.44043 853.07678
795.0 0.001258 262.41629 847.01935
852.0 0.001174 262.39307 800.39618
801.0 0.001248 262.37061 740.09387
687.0 0.001456 262.34909 687.24310
635.0 0.001575 262.32849 649.87354
538.0 0.001859 262.30884 622.88104
504.0 0.001984 262.29010 593.73663
574.0 0.001742 262.27219 553.26587
488.0 0.002049 262.25531 503.34732
537.0 0.001862 262.23917 451.95059
428.0 0.002336 262.22397 406.10449
383.0 0.002611 262.20984 369.49744
351.0 0.002849 262.19653 342.49323
321.0 0.003115 262.18414 323.14651
294.0 0.003401 262.17255 309.16260
297.0 0.003367 262.16190 298.82074
315.0 0.003175 262.15213 291.06577
266.0 0.00376 262.14340 285.24493
296.0 0.003378 262.13531 280.93628
258.0 0.00388 262.12845 277.80609
277.0 0.00361 262.12225 275.54291
316.0 0.003165 262.11694 273.86908
285.0 0.00351 262.11255 272.57834
292.0 0.003425 262.10901 271.54236
254.0 0.00394 262.10641 270.68893
285.0 0.00351 262.10474 269.97672
259.0 0.00386 262.10385 269.37854
246.0 0.00407 262.10385 268.87292
278.0 0.00360 262.10468 268.43958
241.0 0.00415 262.10629 267.86124
317.0 0.003155 262.10886 267.53778
265.0 0.00377 262.11224 267.25565
282.0 0.00355 262.11649 267.01086
312.0 0.003205 262.12149 266.79968
292.0 0.003425 262.12732 266.61865
277.0 0.00361 262.13406 266.46521
270.0 0.00370 262.14163 266.26016
280.0 0.00357 262.14990 266.15536
266.0 0.00376 262.15900 266.07080
257.0 0.00389 262.16888 266.00494
288.0 0.003472 262.17960 265.95682
256.0 0.00391 262.19101 265.92575
255.0 0.00392 262.20322 265.91141
257.0 0.00389 262.21619 265.91364
264.0 0.00379 262.22995 265.93246
289.0 0.003460 262.24445 265.96848
260.0 0.00385 262.25961 266.02200
279.0 0.00358 262.27554 266.09409
294.0 0.003401 262.29214 266.37064
261.0 0.00383 262.30945 266.48907
289.0 0.003460 262.32748 266.63107
271.0 0.00369 262.34622 266.79907
286.0 0.003497 262.36566 266.99658
259.0 0.00386 262.38562 267.22726
279.0 0.00358 262.40634 267.49634
260.0 0.00385 262.42770 267.80984
259.0 0.00386 262.44952 268.24719
253.0 0.00395 262.47217 268.67712
303.0 0.003300 262.49542 269.18225
284.0 0.00352 262.51923 269.77991
280.0 0.00357 262.54355 270.49460
275.0 0.00364 262.56857 271.37344
280.0 0.00357 262.59402 272.47473
294.0 0.003401 262.62000 273.95264
256.0 0.00391 262.64664 276.10861
306.0 0.003268 262.67371 279.52441
295.0 0.003390 262.70132 285.21838
249.0 0.00402 262.72943 294.73550
301.0 0.003322 262.75797 310.02872
321.0 0.003115 262.78705 332.94754
377.0 0.002653 262.81650 364.35965
424.0 0.002358 262.84644 403.13846
382.0 0.002618 262.87680 445.38065
449.0 0.002227 262.90762 484.18054
449.0 0.002227 262.93878 510.94199
487.0 0.002053 262.97034 520.23907
511.0 0.001957 263.00229 516.86151
545.0 0.001835 263.03452 509.84650
514.0 0.001946 263.06714 506.28632
506.0 0.001976 263.10016 507.31046
463.0 0.002160 263.13342 508.31705
468.0 0.002137 263.16696 502.34634
454.0 0.002203 263.20084 485.16827
473.0 0.002114 263.23499 458.60706
436.0 0.002294 263.26929 428.21817
412.0 0.002427 263.30377 399.75922
422.0 0.002370 263.33868 376.30051
364.0 0.002747 263.37372 357.91519
347.0 0.002882 263.40884 342.92261
358.0 0.002793 263.44431 329.72607
296.0 0.003378 263.47974 317.51324
329.0 0.003040 263.51544 306.28986
297.0 0.003367 263.55115 296.51373
297.0 0.003367 263.58710 288.57632
299.0 0.003344 263.62305 282.57465
272.0 0.00368 263.65912 278.32855
252.0 0.00397 263.69519 275.48654
266.0 0.00376 263.73135 273.65625
270.0 0.00370 263.76749 272.49530
268.0 0.00373 263.80374 271.75320
277.0 0.00361 263.83978 271.27094
284.0 0.00352 263.87601 270.95718
289.0 0.003460 263.91211 270.76352
270.0 0.00370 263.94812 270.66620
268.0 0.00373 263.98410 270.68365
256.0 0.00391 264.02002 270.75485
279.0 0.00358 264.05576 271.13998
284.0 0.00352 264.09143 271.38947
275.0 0.00364 264.12686 271.73761
285.0 0.00351 264.16226 272.20087
279.0 0.00358 264.19739 272.80688
263.0 0.00380 264.23239 273.60632
273.0 0.00366 264.26709 274.71225
290.0 0.003448 264.30151 276.31558
283.0 0.00353 264.33591 278.94464
284.0 0.00352 264.36984 283.21762
281.0 0.00356 264.40366 290.52319
284.0 0.00352 264.43698 302.68240
335.0 0.002985 264.47018 321.74643
349.0 0.002865 264.50296 349.27740
368.0 0.002717 264.53552 385.27869
417.0 0.002398 264.56757 427.15182
463.0 0.002160 264.59921 468.97244
498.0 0.002008 264.63055 501.57956
480.0 0.002083 264.66159 515.27014
518.0 0.001931 264.69202 506.72629
522.0 0.001916 264.72205 482.69388
469.0 0.002132 264.75150 454.04977
439.0 0.002278 264.78064 429.05957
396.0 0.002525 264.80930 411.22778
371.0 0.002695 264.83737 399.43631
354.0 0.002825 264.86493 389.36887
363.0 0.002755 264.89200 376.85898
358.0 0.002793 264.91843 361.10773
317.0 0.003155 264.94431 344.07977
343.0 0.002915 264.96957 328.01062
306.0 0.003268 264.99429 314.24515
302.0 0.003311 265.01831 303.17703
298.0 0.003356 265.04178 294.66095
267.0 0.00375 265.06458 288.39618
301.0 0.003322 265.08682 284.01749
274.0 0.00365 265.10818 281.08044
286.0 0.003497 265.12894 279.17487
253.0 0.00395 265.14893 277.90561
277.0 0.00361 265.16821 276.91553
273.0 0.00366 265.18680 275.97577
271.0 0.00369 265.20459 275.09937
282.0 0.00355 265.22159 274.31927
272.0 0.00368 265.23785 273.82526
260.0 0.00385 265.25342 273.73776
258.0 0.00388 265.26801 273.97784
259.0 0.00386 265.28183 274.87708
290.0 0.003448 265.29486 276.16061
289.0 0.003460 265.30701 277.61526
293.0 0.003413 265.31833 278.86450
263.0 0.00380 265.32864 279.53140
285.0 0.00351 265.33820 279.34940
282.0 0.00355 265.34689 278.55887
270.0 0.00370 265.35446 277.58298
300.0 0.003333 265.36133 276.76001
262.0 0.00382 265.36703 276.29083
271.0 0.00369 265.37195 276.06256
280.0 0.00357 265.37592 276.24042
256.0 0.00391 265.37891 276.15387
270.0 0.00370 265.38080 276.02750
282.0 0.00355 265.38171 276.03156
289.0 0.003460 265.38159 276.03995
280.0 0.00357 265.38058 276.28171
290.0 0.003448 265.37842 276.87491
274.0 0.00365 265.37534 277.88742
278.0 0.00360 265.37112 279.62283
279.0 0.00358 265.36597 282.27386
254.0 0.00394 265.35953 286.65009
292.0 0.003425 265.35214 294.04379
309.0 0.003236 265.34366 306.21719
364.0 0.002747 265.33401 325.57437
376.0 0.002660 265.32339 354.42557
435.0 0.002299 265.31161 394.02118
437.0 0.002288 265.29858 443.28384
528.0 0.001894 265.28455 497.65695
535.0 0.001869 265.26929 548.70074
582.0 0.001718 265.25290 585.23920
581.0 0.001721 265.23547 597.10651
622.0 0.001608 265.21680 582.25171
589.0 0.001698 265.19696 549.73657
602.0 0.001661 265.17596 512.68799
548.0 0.001825 265.15369 480.67130
486.0 0.002058 265.13034 457.40005
393.0 0.002545 265.10580 441.11926
385.0 0.002597 265.08005 426.73447
383.0 0.002611 265.05295 409.18793
390.0 0.002564 265.02478 387.16864
386.0 0.002591 264.99539 363.04034
380.0 0.002632 264.96472 339.95636
335.0 0.002985 264.93292 320.18250
289.0 0.003460 264.89987 304.80170
269.0 0.00372 264.86548 293.79871
302.0 0.003311 264.83002 286.48743
311.0 0.003215 264.79312 281.88782
270.0 0.00370 264.75522 278.89246
262.0 0.00382 264.71597 277.19839
249.0 0.00402 264.67538 276.18292
290.0 0.003448 264.63367 275.62277
263.0 0.00380 264.59064 275.42465
304.0 0.003289 264.54630 275.56201
310.0 0.003226 264.50079 276.02469
282.0 0.00355 264.45398 276.78726
299.0 0.003344 264.40598 277.72110
259.0 0.00386 264.35666 278.87753
249.0 0.00402 264.30609 280.08923
290.0 0.003448 264.25439 281.35608
279.0 0.00358 264.20129 282.88129
298.0 0.003356 264.14700 284.99478
287.0 0.003484 264.09134 288.01096
272.0 0.00368 264.03448 292.07523
276.0 0.00362 263.97647 297.13800
244.0 0.00410 263.91708 302.96542
325.0 0.003077 263.85638 309.36191
315.0 0.003175 263.79462 316.17508
325.0 0.003077 263.73151 323.12491
337.0 0.002967 263.66711 329.22635
329.0 0.003040 263.60153 332.89102
328.0 0.003049 263.53473 332.90781
316.0 0.003165 263.46658 329.64798
322.0 0.003106 263.39731 324.85657
289.0 0.003460 263.32684 320.46600
320.0 0.003125 263.25500 317.93396
295.0 0.003390 263.18207 318.23688
286.0 0.003497 263.10791 321.99988
318.0 0.003145 263.03259 330.02344
334.0 0.002994 262.95602 344.01511
395.0 0.002532 262.87811 366.88104
399.0 0.002506 262.79919 401.54373
431.0 0.002320 262.71887 449.92340
507.0 0.001972 262.63760 511.16290
540.0 0.001852 262.55502 580.45502
623.0 0.001605 262.47134 648.80475
700.0 0.001429 262.38654 704.61871
750.0 0.001333 262.30048 737.41510
775.0 0.001290 262.21329 743.84290
802.0 0.001247 262.12500 728.71313
800.0 0.001250 262.03549 699.00922
721.0 0.001387 261.94492 661.08960
666.0 0.001502 261.85327 621.46851
632.0 0.001582 261.76053 584.68915
583.0 0.001715 261.66656 551.22125
533.0 0.001876 261.57162 518.95905
492.0 0.002033 261.47562 486.58847
464.0 0.002155 261.37854 454.16641
432.0 0.002315 261.28027 421.81662
426.0 0.002347 261.18103 390.29703
396.0 0.002525 261.08075 361.43320
359.0 0.002786 260.97955 337.00290
298.0 0.003356 260.87714 317.84253
272.0 0.00368 260.77386 303.93109
304.0 0.003289 260.66949 294.73099
282.0 0.00355 260.56421 289.60904
292.0 0.003425 260.45792 287.62695
279.0 0.00358 260.35059 288.66098
315.0 0.003175 260.24261 291.86646
281.0 0.00356 260.13339 296.48563
302.0 0.003311 260.02328 301.47650
286.0 0.003497 259.91232 305.40677
307.0 0.003257 259.80042 306.81152
341.0 0.002933 259.68771 305.07065
310.0 0.003226 259.57401 300.86697
312.0 0.003205 259.45956 295.89801
316.0 0.003165 259.34424 291.35556
273.0 0.00366 259.22809 287.89801
302.0 0.003311 259.11105 285.54565
263.0 0.00380 258.99326 283.77838
297.0 0.003367 258.87466 281.87894
262.0 0.00382 258.75522 279.42639
250.0 0.00400 258.63519 276.52982
283.0 0.00353 258.51419 273.55634
252.0 0.00397 258.39264 270.84125
250.0 0.00400 258.27026 268.59149
278.0 0.00360 258.14728 266.88171
252.0 0.00397 258.02350 265.68161
251.0 0.00398 257.89905 264.90192
238.0 0.00420 257.77405 264.44379
280.0 0.00357 257.64828 264.23413
289.0 0.003460 257.52194 264.25098
268.0 0.00373 257.39493 264.53598
258.0 0.00388 257.26740 265.20840
295.0 0.003390 257.13925 266.46268
264.0 0.00379 257.01056 268.56351
257.0 0.00389 256.88135 271.75992
280.0 0.00357 256.75153 276.20123
255.0 0.00392 256.62128 281.81018
298.0 0.003356 256.49042 288.17242
297.0 0.003367 256.35907 294.47272
312.0 0.003205 256.22739 299.53519
323.0 0.003096 256.09521 302.33713
354.0 0.002825 255.96260 302.79425
305.0 0.003279 255.82951 301.92712
320.0 0.003125 255.69604 301.00116
286.0 0.003497 255.56219 300.84039
309.0 0.003236 255.42802 302.00549
284.0 0.00352 255.29344 304.83548
300.0 0.003333 255.15852 309.68408
305.0 0.003279 255.02332 316.78094
312.0 0.003205 254.88779 326.32562
315.0 0.003175 254.75204 338.27179
343.0 0.002915 254.61607 351.70877
332.0 0.003012 254.47974 364.45660
378.0 0.002646 254.34326 373.53030
363.0 0.002755 254.20650 376.83069
372.0 0.002688 254.06961 375.38040
373.0 0.002681 253.93253 372.74777
347.0 0.002882 253.79524 372.36740
353.0 0.002833 253.65784 375.72058
363.0 0.002755 253.52029 382.09622
362.0 0.002762 253.38264 388.19284
394.0 0.002538 253.24496 391.01212
407.0 0.002457 253.10710 387.96942
360.0 0.002778 252.96930 378.79944
394.0 0.002538 252.83136 365.10120
401.0 0.002494 252.69351 350.08063
348.0 0.002874 252.55551 336.00708
320.0 0.003125 252.41765 324.29913
273.0 0.00366 252.27977 314.92200
307.0 0.003257 252.14194 307.24063
307.0 0.003257 252.00415 300.44376
307.0 0.003257 251.86653 293.79898
281.0 0.00356 251.72885 287.12881
266.0 0.00376 251.59142 280.64499
283.0 0.00353 251.45409 274.77393
270.0 0.00370 251.31688 269.94095
274.0 0.00365 251.17989 266.42844
256.0 0.00391 251.04295 264.26233
241.0 0.00415 250.90630 263.40897
270.0 0.00370 250.76988 263.67923
281.0 0.00356 250.63365 264.75037
261.0 0.00383 250.49767 266.19348
242.0 0.00413 250.36189 267.45700
271.0 0.00369 250.22650 267.95895
290.0 0.003448 250.09137 267.36642
247.0 0.00405 249.95654 265.85272
291.0 0.003436 249.82205 263.89612
273.0 0.00366 249.68782 262.04773
247.0 0.00405 249.55408 260.56616
235.0 0.00426 249.42059 259.51428
268.0 0.00373 249.28758 258.76108
282.0 0.00355 249.15495 258.05322
266.0 0.00376 249.02258 257.17532
276.0 0.00362 248.89084 256.07874
242.0 0.00413 248.75949 254.89659
275.0 0.00364 248.62856 253.74957
238.0 0.00420 248.49808 252.73381
271.0 0.00369 248.36812 251.89824
267.0 0.00375 248.23860 251.24896
244.0 0.00410 248.10966 250.76195
237.0 0.00422 247.98129 250.39951
269.0 0.00372 247.85336 250.12378
251.0 0.00398 247.72601 249.99336
268.0 0.00373 247.59918 249.81314
228.0 0.00439 247.47302 249.65707
255.0 0.00392 247.34747 249.51888
235.0 0.00426 247.22246 249.39491
262.0 0.00382 247.09810 249.28378
258.0 0.00388 246.97432 249.18512
248.0 0.00403 246.85126 249.09895
242.0 0.00413 246.72884 249.02560
271.0 0.00369 246.60698 248.99969
242.0 0.00413 246.48582 248.95477
298.0 0.003356 246.36543 248.92470
244.0 0.00410 246.24568 248.91093
222.0 0.00450 246.12669 248.88489
245.0 0.00408 246.00832 248.92361
265.0 0.00377 245.89075 248.98070
261.0 0.00383 245.77382 249.05801
264.0 0.00379 245.65773 249.16951
248.0 0.00403 245.54239 249.31422
259.0 0.00386 245.42778 249.52367
216.0 0.00463 245.31392 249.81061
274.0 0.00365 245.20093 250.20461
235.0 0.00426 245.08864 250.80305
264.0 0.00379 244.97723 251.77957
245.0 0.00408 244.86653 253.21031
244.0 0.00410 244.75671 255.44946
239.0 0.00418 244.64772 258.75162
281.0 0.00356 244.53954 263.44058
282.0 0.00355 244.43214 269.70084
269.0 0.00372 244.32561 277.51178
255.0 0.00392 244.21994 286.60690
284.0 0.00352 244.11514 296.44244
301.0 0.003322 244.01120 306.35580
361.0 0.002770 243.90820 316.05362
353.0 0.002833 243.80594 326.32373
356.0 0.002809 243.70464 338.58490
334.0 0.002994 243.60417 353.41345
367.0 0.002725 243.50461 369.95148
355.0 0.002817 243.40599 385.66138
363.0 0.002755 243.30824 397.59009
378.0 0.002646 243.21133 403.52985
389.0 0.002571 243.11534 402.03589
373.0 0.002681 243.02029 392.91763
360.0 0.002778 242.92612 378.46445
353.0 0.002833 242.83296 362.41733
316.0 0.003165 242.74060 347.83334
326.0 0.003067 242.64917 335.92758
298.0 0.003356 242.55867 326.57138
305.0 0.003279 242.46910 318.85260
306.0 0.003268 242.38046 311.72891
303.0 0.003300 242.29276 304.13449
297.0 0.003367 242.20593 295.70032
312.0 0.003205 242.12007 286.90952
293.0 0.003413 242.03516 278.47421
279.0 0.00358 241.95113 270.94382
279.0 0.00358 241.86804 264.73456
264.0 0.00379 241.78584 259.89255
257.0 0.00389 241.70454 256.40063
227.0 0.00441 241.62428 254.06451
284.0 0.00352 241.54489 252.59253
250.0 0.00400 241.46643 251.69910
275.0 0.00364 241.38884 251.13681
279.0 0.00358 241.31218 250.74275
278.0 0.00360 241.23648 250.47244
251.0 0.00398 241.16164 250.40123
227.0 0.00441 241.08777 250.64201
261.0 0.00383 241.01476 251.45061
248.0 0.00403 240.94269 253.17841
259.0 0.00386 240.87144 256.32422
272.0 0.00368 240.80115 261.49512
274.0 0.00365 240.73174 269.27286
307.0 0.003257 240.66316 279.98367
293.0 0.003413 240.59563 293.40433
319.0 0.003135 240.52888 308.50781
332.0 0.003012 240.46291 323.28992
353.0 0.002833 240.39795 334.75089
361.0 0.002770 240.33380 339.79196
312.0 0.003205 240.27048 337.18304
348.0 0.002874 240.20808 328.80099
331.0 0.003021 240.14647 318.15613
313.0 0.003195 240.08566 308.33630
282.0 0.00355 240.02576 301.16168
283.0 0.00353 239.96667 297.11301
310.0 0.003226 239.90834 295.46771
317.0 0.003155 239.85083 294.73956
272.0 0.00368 239.79416 293.52942
306.0 0.003268 239.73824 291.38934
310.0 0.003226 239.68312 288.67706
302.0 0.003311 239.62880 285.76086
264.0 0.00379 239.57524 282.60052
286.0 0.003497 239.52243 278.90140
294.0 0.003401 239.47046 274.60529
295.0 0.003390 239.41911 270.13403
293.0 0.003413 239.36856 266.09045
290.0 0.003448 239.31871 262.91153
272.0 0.00368 239.26953 260.76126
264.0 0.00379 239.22112 259.54019
251.0 0.00398 239.17334 258.93158
272.0 0.00368 239.12630 258.51703
259.0 0.00386 239.07990 257.97061
311.0 0.003215 239.03416 257.28119
277.0 0.00361 238.98911 256.69940
259.0 0.00386 238.94475 256.60873
256.0 0.00391 238.90085 257.48068
263.0 0.00380 238.85764 259.91782
237.0 0.00422 238.81506 264.70599
258.0 0.00388 238.77306 272.82315
260.0 0.00385 238.73175 285.34381
309.0 0.003236 238.69081 303.16742
326.0 0.003067 238.65056 326.79633
337.0 0.002967 238.61082 355.60626
362.0 0.002762 238.57161 387.49280
428.0 0.002336 238.53296 418.61536
429.0 0.002331 238.49474 444.24277
456.0 0.002193 238.45705 460.38498
471.0 0.002123 238.41982 464.88480
469.0 0.002132 238.38304 457.33203
478.0 0.002092 238.34683 440.26019
489.0 0.002045 238.31094 418.99338
425.0 0.002353 238.27551 398.54556
331.0 0.003021 238.24049 381.75586
341.0 0.002933 238.20593 368.91858
346.0 0.002890 238.17174 358.70889
385.0 0.002597 238.13791 349.34573
362.0 0.002762 238.10445 339.11865
318.0 0.003145 238.07124 327.19260
322.0 0.003106 238.03848 314.30936
335.0 0.002985 238.00600 302.15530
291.0 0.003436 237.97385 292.51141
292.0 0.003425 237.94199 286.71713
299.0 0.003344 237.91028 285.56519
303.0 0.003300 237.87891 289.20767
285.0 0.00351 237.84779 297.10504
276.0 0.00362 237.81697 307.97739
308.0 0.003247 237.78632 319.78448
362.0 0.002762 237.75578 329.82315
340.0 0.002941 237.72554 335.43195
370.0 0.002703 237.69545 335.60291
357.0 0.002801 237.66551 331.76730
357.0 0.002801 237.63576 326.89581
339.0 0.002950 237.60606 323.61218
347.0 0.002882 237.57648 323.27493
296.0 0.003378 237.54703 325.66248
302.0 0.003311 237.51765 329.01044
297.0 0.003367 237.48837 330.49496
339.0 0.002950 237.45915 327.62836
372.0 0.002688 237.42996 319.98590
322.0 0.003106 237.40080 309.33719
297.0 0.003367 237.37166 298.05621
286.0 0.003497 237.34251 287.98639
250.0 0.00400 237.31332 280.11734
294.0 0.003401 237.28413 274.53549
255.0 0.00392 237.25484 270.56738
267.0 0.00375 237.22556 267.44913
243.0 0.00412 237.19620 264.36337
266.0 0.00376 237.16672 261.24899
250.0 0.00400 237.13716 258.33820
257.0 0.00389 237.10742 256.07452
235.0 0.00426 237.07768 254.73788
252.0 0.00397 237.04765 254.40321
260.0 0.00385 237.01756 254.86337
264.0 0.00379 236.98727 255.79395
254.0 0.00394 236.95677 256.58249
266.0 0.00376 236.92610 256.64185
240.0 0.00417 236.89525 255.71924
245.0 0.00408 236.86411 253.98537
245.0 0.00408 236.83276 251.96294
238.0 0.00420 236.80116 250.09438
265.0 0.00377 236.76929 248.67354
252.0 0.00397 236.73720 247.68427
237.0 0.00422 236.70476 247.05286
237.0 0.00422 236.67200 246.53835
242.0 0.00413 236.63889 245.89194
250.0 0.00400 236.60550 245.00691
217.0 0.00461 236.57179 243.94330
273.0 0.00366 236.53777 242.86011
234.0 0.00427 236.50334 241.87727
263.0 0.00380 236.46852 241.10316
214.0 0.00467 236.43332 240.56531
235.0 0.00426 236.39772 240.31216
267.0 0.00375 236.36169 240.36171
240.0 0.00417 236.32530 240.72034
216.0 0.00463 236.28845 241.42659
223.0 0.00448 236.25114 242.33662
255.0 0.00392 236.21341 243.40492
235.0 0.00426 236.17519 244.47163
272.0 0.00368 236.13646 245.31067
272.0 0.00368 236.09732 245.69379
246.0 0.00407 236.05766 245.48105
251.0 0.00398 236.01753 244.79753
237.0 0.00422 235.97687 243.89757
248.0 0.00403 235.93568 243.03902
243.0 0.00412 235.89395 242.33426
240.0 0.00417 235.85164 241.85188
272.0 0.00368 235.80888 241.55276
238.0 0.00420 235.76550 241.41342
212.0 0.00472 235.72160 241.14922
248.0 0.00403 235.67706 240.76175
257.0 0.00389 235.63206 240.27417
262.0 0.00382 235.58640 239.75221
248.0 0.00403 235.54012 239.25928
247.0 0.00405 235.49327 238.83781
230.0 0.00435 235.44583 238.45079
221.0 0.00452 235.39781 238.21689
235.0 0.00426 235.34915 238.07137
237.0 0.00422 235.29985 237.91180
218.0 0.00459 235.24989 237.88853
235.0 0.00426 235.19939 237.90729
236.0 0.00424 235.14816 237.96069
213.0 0.00469 235.09630 238.04617
237.0 0.00422 235.04385 238.14296
251.0 0.00398 234.99068 238.30199
257.0 0.00389 234.93694 238.50310
239.0 0.00418 234.88248 238.79330
242.0 0.00413 234.82735 239.18045
245.0 0.00408 234.77158 239.81308
230.0 0.00435 234.71513 240.80611
210.0 0.00476 234.65805 242.37827
230.0 0.00435 234.60019 244.81961
221.0 0.00452 234.54178 248.45250
243.0 0.00412 234.48256 253.54445
251.0 0.00398 234.42274 260.18564
269.0 0.00372 234.36221 268.15164
269.0 0.00372 234.30106 276.79654
278.0 0.00360 234.23923 284.97864
275.0 0.00364 234.17664 291.07584
303.0 0.003300 234.11337 293.75992
336.0 0.002976 234.04947 292.65906
325.0 0.003077 233.98488 288.92120
301.0 0.003322 233.91959 284.29736
269.0 0.00372 233.85367 280.27759
306.0 0.003268 233.78697 277.72794
289.0 0.003460 233.71965 276.87637
286.0 0.003497 233.65170 277.39487
272.0 0.00368 233.58301 278.62674
271.0 0.00369 233.51375 280.20358
285.0 0.00351 233.44365 282.08829
308.0 0.003247 233.37300 284.74811
295.0 0.003390 233.30168 288.67957
275.0 0.00364 233.22969 294.06418
287.0 0.003484 233.15706 300.74667
313.0 0.003195 233.08379 308.27979
305.0 0.003279 233.00978 315.68561
291.0 0.003436 232.93524 321.34546
335.0 0.002985 232.86000 323.34830
329.0 0.003040 232.78415 320.82239
366.0 0.002732 232.70767 314.55991
283.0 0.00353 232.63063 306.73904
320.0 0.003125 232.55289 299.47733
302.0 0.003311 232.47459 294.32999
272.0 0.00368 232.39571 292.18384
273.0 0.00366 232.31624 293.16989
277.0 0.00361 232.23610 296.60910
318.0 0.003145 232.15541 301.27109
313.0 0.003195 232.07416 305.82040
319.0 0.003135 231.99242 309.22177
331.0 0.003021 231.91003 310.45370
324.0 0.003086 231.82712 308.58847
329.0 0.003040 231.74370 303.36911
319.0 0.003135 231.65973 295.83502
301.0 0.003322 231.57518 287.80634
285.0 0.00351 231.49017 280.93939
270.0 0.00370 231.40471 276.33719
252.0 0.00397 231.31876 274.52325
281.0 0.00356 231.23225 275.50009
262.0 0.00382 231.14523 278.89853
289.0 0.003460 231.05779 284.09845
326.0 0.003067 230.97000 290.53842
280.0 0.00357 230.88171 297.87180
306.0 0.003268 230.79295 305.65317
269.0 0.00372 230.70384 312.89050
354.0 0.002825 230.61435 318.01111
306.0 0.003268 230.52434 319.60541
324.0 0.003086 230.43410 317.60468
311.0 0.003215 230.34338 313.47586
343.0 0.002915 230.25230 309.15820
293.0 0.003413 230.16096 306.27881
304.0 0.003289 230.06923 306.14700
274.0 0.00365 229.97722 309.71933
292.0 0.003425 229.88492 317.27289
300.0 0.003333 229.79221 328.07501
337.0 0.002967 229.69931 340.48694
322.0 0.003106 229.60617 352.34274
316.0 0.003165 229.51273 361.07584
343.0 0.002915 229.41910 363.85977
356.0 0.002809 229.32529 358.93271
325.0 0.003077 229.23119 347.28619
346.0 0.002890 229.13683 332.18170
336.0 0.002976 229.04242 317.10196
265.0 0.00377 228.94777 304.46542
277.0 0.00361 228.85300 295.36249
259.0 0.00386 228.75810 289.64044
247.0 0.00405 228.66312 286.12094
248.0 0.00403 228.56799 283.02756
245.0 0.00408 228.47282 278.80597
270.0 0.00370 228.37752 272.96033
293.0 0.003413 228.28212 266.03186
259.0 0.00386 228.18677 258.90485
258.0 0.00388 228.09135 252.31190
225.0 0.00444 227.99597 246.70755
231.0 0.00433 227.90050 242.27864
227.0 0.00441 227.80511 238.99193
230.0 0.00435 227.70981 236.67453
251.0 0.00398 227.61450 235.09787
233.0 0.00429 227.51927 234.04622
240.0 0.00417 227.42406 233.35371
219.0 0.00457 227.32903 232.91501
233.0 0.00429 227.23412 232.67966
228.0 0.00439 227.13934 232.64046
246.0 0.00407 227.04472 232.81949
268.0 0.00373 226.95018 233.25301
252.0 0.00397 226.85587 233.97354
240.0 0.00417 226.76181 234.99098
211.0 0.00474 226.66792 236.27083
217.0 0.00461 226.57425 237.71220
255.0 0.00392 226.48087 239.09990
220.0 0.00455 226.38766 240.42160
248.0 0.00403 226.29486 241.22247
244.0 0.00410 226.20232 241.51541
230.0 0.00435 226.11005 241.27281
229.0 0.00437 226.01814 240.59337
261.0 0.00383 225.92650 239.73117
243.0 0.00412 225.83525 238.98491
244.0 0.00410 225.74442 238.63820
238.0 0.00420 225.65401 238.83626
210.0 0.00476 225.56392 239.81723
223.0 0.00448 225.47432 241.85243
224.0 0.00446 225.38507 245.17125
243.0 0.00412 225.29643 250.12112
247.0 0.00405 225.20816 256.99240
255.0 0.00392 225.12039 265.81186
301.0 0.003322 225.03305 276.20575
297.0 0.003367 224.94630 287.20432
315.0 0.003175 224.86017 297.08795
344.0 0.002907 224.77444 303.77881
330.0 0.003030 224.68925 305.33002
337.0 0.002967 224.60478 301.50085
367.0 0.002725 224.52080 293.97568
323.0 0.003096 224.43744 285.18317
314.0 0.003185 224.35477 277.12701
268.0 0.00373 224.27260 270.99530
269.0 0.00372 224.19115 267.12930
283.0 0.00353 224.11031 265.10336
275.0 0.00364 224.03026 263.98218
296.0 0.003378 223.95081 262.60214
293.0 0.003413 223.87206 260.28467
310.0 0.003226 223.79401 257.10333
270.0 0.00370 223.71672 253.73915
262.0 0.00382 223.64014 250.72353
254.0 0.00394 223.56436 248.36273
231.0 0.00433 223.48929 246.64810
303.0 0.003300 223.41501 245.28568
240.0 0.00417 223.34157 243.84650
266.0 0.00376 223.26875 242.04799
253.0 0.00395 223.19691 239.94225
251.0 0.00398 223.12582 237.78551
244.0 0.00410 223.05560 235.88675
228.0 0.00439 222.98625 234.40932
205.0 0.00488 222.91762 233.40742
243.0 0.00412 222.84995 232.81255
225.0 0.00444 222.78313 232.44858
237.0 0.00422 222.71713 232.02899
215.0 0.00465 222.65211 231.46016
246.0 0.00407 222.58791 230.63596
253.0 0.00395 222.52469 229.63901
236.0 0.00424 222.46240 228.64484
242.0 0.00413 222.40096 227.67690
227.0 0.00441 222.34041 226.84935
211.0 0.00474 222.28090 226.19234
235.0 0.00426 222.22231 225.70258
231.0 0.00433 222.16461 225.33437
223.0 0.00448 222.10791 225.08902
227.0 0.00441 222.05220 224.91002
219.0 0.00457 221.99747 224.77122
226.0 0.00442 221.94357 224.57289
245.0 0.00408 221.89078 224.50816
222.0 0.00450 221.83896 224.44473
243.0 0.00412 221.78807 224.40468
214.0 0.00467 221.73830 224.38869
227.0 0.00441 221.68942 224.39711
210.0 0.00476 221.64157 224.43001
215.0 0.00465 221.59471 224.48755
201.0 0.00498 221.54890 224.62753
228.0 0.00439 221.50404 224.70625
237.0 0.00422 221.46022 224.84523
219.0 0.00457 221.41740 225.01610
229.0 0.00437 221.37558 225.22316
225.0 0.00444 221.33482 225.47252
236.0 0.00424 221.29503 225.77261
215.0 0.00465 221.25633 226.13528
237.0 0.00422 221.21860 226.57878
224.0 0.00446 221.18188 227.13406
226.0 0.00442 221.14624 227.87825
240.0 0.00417 221.11156 228.86839
260.0 0.00385 221.07784 230.30363
262.0 0.00382 221.04526 232.47847
225.0 0.00444 221.01358 235.84300
240.0 0.00417 220.98297 241.01312
234.0 0.00427 220.95331 248.72369
238.0 0.00420 220.92476 259.69196
247.0 0.00405 220.89709 274.38055
259.0 0.00386 220.87041 292.71967
334.0 0.002994 220.84485 313.82800
326.0 0.003067 220.82016 335.81079
349.0 0.002865 220.79646 355.64679
354.0 0.002825 220.77374 369.49588
396.0 0.002525 220.75208 374.30206
395.0 0.002532 220.73128 369.97220
393.0 0.002545 220.71144 359.63736
353.0 0.002833 220.69257 347.47156
314.0 0.003185 220.67467 336.77780
306.0 0.003268 220.65767 328.97223
300.0 0.003333 220.64160 324.24365
295.0 0.003390 220.62650 321.60309
308.0 0.003247 220.61223 319.46362
324.0 0.003086 220.59889 316.01395
305.0 0.003279 220.58646 309.96228
311.0 0.003215 220.57494 301.31638
288.0 0.003472 220.56425 291.18161
271.0 0.00369 220.55441 280.86179
253.0 0.00395 220.54539 271.38669
268.0 0.00373 220.53728 262.98367
249.0 0.00402 220.52997 255.88133
222.0 0.00450 220.52350 250.04466
264.0 0.00379 220.51784 245.30969
253.0 0.00395 220.51291 241.61317
235.0 0.00426 220.50882 238.64149
239.0 0.00418 220.50548 236.17825
228.0 0.00439 220.50293 234.09393
235.0 0.00426 220.50105 232.31683
226.0 0.00442 220.49994 230.82506
242.0 0.00413 220.49951 229.53458
237.0 0.00422 220.49979 228.46402
217.0 0.00461 220.50075 227.58398
247.0 0.00405 220.50237 226.92938
232.0 0.00431 220.50464 226.47607
218.0 0.00459 220.50764 226.15916
236.0 0.00424 220.51112 225.97601
210.0 0.00476 220.51530 225.91023
225.0 0.00444 220.52000 225.94684
232.0 0.00431 220.52530 226.09314
225.0 0.00444 220.53120 226.35353
235.0 0.00426 220.53760 226.80463
229.0 0.00437 220.54449 227.53152
232.0 0.00431 220.55190 228.69215
254.0 0.00394 220.55983 230.52478
217.0 0.00461 220.56818 233.31032
240.0 0.00417 220.57709 237.37785
231.0 0.00433 220.58623 242.99709
256.0 0.00391 220.59589 250.26930
274.0 0.00365 220.60596 259.00415
262.0 0.00382 220.61635 268.60101
301.0 0.003322 220.62714 277.99146
297.0 0.003367 220.63820 285.61533
296.0 0.003378 220.64957 289.76035
339.0 0.002950 220.66129 289.44107
324.0 0.003086 220.67326 285.20044
294.0 0.003401 220.68549 278.76321
301.0 0.003322 220.69795 272.00903
255.0 0.00392 220.71059 266.36502
278.0 0.00360 220.72343 262.62317
263.0 0.00380 220.73653 261.05069
237.0 0.00422 220.74968 261.42862
274.0 0.00365 220.76297 263.21207
296.0 0.003378 220.77641 265.75974
299.0 0.003344 220.78986 268.77884
277.0 0.00361 220.80344 272.44348
298.0 0.003356 220.81702 277.06317
313.0 0.003195 220.83063 282.61484
306.0 0.003268 220.84425 288.48560
246.0 0.00407 220.85788 293.40195
319.0 0.003135 220.87137 295.72739
271.0 0.00369 220.88490 294.27295
293.0 0.003413 220.89833 289.22562
299.0 0.003344 220.91156 282.02243
259.0 0.00386 220.92477 274.42133
257.0 0.00389 220.93777 267.79330
258.0 0.00388 220.95056 262.87695
264.0 0.00379 220.96323 259.93451
248.0 0.00403 220.97563 258.44611
233.0 0.00429 220.98779 257.71378
274.0 0.00365 220.99977 256.79346
289.0 0.003460 221.01143 255.01103
263.0 0.00380 221.02277 252.30579
226.0 0.00442 221.03374 249.11577
235.0 0.00426 221.04446 246.02077
244.0 0.00410 221.05470 243.53246
219.0 0.00457 221.06462 242.03827
243.0 0.00412 221.07413 241.88458
254.0 0.00394 221.08318 243.28174
236.0 0.00424 221.09180 246.52701
234.0 0.00427 221.09996 251.89215
275.0 0.00364 221.10760 259.61142
281.0 0.00356 221.11475 269.80930
285.0 0.00351 221.12132 282.41418
320.0 0.003125 221.12740 296.86182
309.0 0.003236 221.13286 312.36533
275.0 0.00364 221.13770 327.00281
345.0 0.002899 221.14201 338.34409
374.0 0.002674 221.14563 344.16257
357.0 0.002801 221.14865 343.93671
338.0 0.002959 221.15096 339.46521
309.0 0.003236 221.15254 333.83731
332.0 0.003012 221.15349 329.88657
269.0 0.00372 221.15366 329.45386
336.0 0.002976 221.15309 333.21970
342.0 0.002924 221.15176 340.32700
348.0 0.002874 221.14970 348.51141
392.0 0.002551 221.14677 354.46613
352.0 0.002841 221.14305 354.90115
394.0 0.002538 221.13853 348.39655
413.0 0.002421 221.13310 336.27051
360.0 0.002778 221.12683 321.37375
294.0 0.003401 221.11971 306.56058
285.0 0.00351 221.11168 293.87234
282.0 0.00355 221.10277 284.40976
253.0 0.00395 221.09290 278.39133
304.0 0.003289 221.08209 275.27118
274.0 0.00365 221.07034 273.97025
253.0 0.00395 221.05760 273.27161
277.0 0.00361 221.04388 272.36142
298.0 0.003356 221.02914 271.06458
263.0 0.00380 221.01347 269.53696
239.0 0.00418 220.99673 267.82709
257.0 0.00389 220.97899 265.72708
262.0 0.00382 220.96019 263.01489
244.0 0.00410 220.94034 259.54605
257.0 0.00389 220.91942 255.67471
230.0 0.00435 220.89746 251.80659
241.0 0.00415 220.87444 248.27486
254.0 0.00394 220.85025 245.30835
256.0 0.00391 220.82495 243.02921
222.0 0.00450 220.79857 241.42723
202.0 0.00495 220.77107 240.33881
233.0 0.00429 220.74246 239.48456
229.0 0.00437 220.71269 238.60559
223.0 0.00448 220.68184 237.52246
220.0 0.00455 220.64981 236.30449
245.0 0.00408 220.61662 235.10037
199.0 0.00503 220.58231 234.08330
245.0 0.00408 220.54677 233.42650
235.0 0.00426 220.51012 233.28755
247.0 0.00405 220.47223 233.78023
235.0 0.00426 220.43327 234.88826
252.0 0.00397 220.39305 236.67882
224.0 0.00446 220.35173 238.93642
265.0 0.00377 220.30914 241.38753
259.0 0.00386 220.26546 243.65826
242.0 0.00413 220.22054 245.38820
264.0 0.00379 220.17448 246.40070
263.0 0.00380 220.12723 246.73370
245.0 0.00408 220.07870 246.49394
260.0 0.00385 220.02913 245.77621
259.0 0.00386 219.97832 244.73474
231.0 0.00433 219.92638 243.74405
219.0 0.00457 219.87318 243.18834
217.0 0.00461 219.81888 243.44052
246.0 0.00407 219.76338 244.81584
259.0 0.00386 219.70674 247.61623
220.0 0.00455 219.64899 252.17746
252.0 0.00397 219.59000 258.81921
262.0 0.00382 219.52989 267.61743
265.0 0.00377 219.46867 278.48807
287.0 0.003484 219.40640 290.64716
306.0 0.003268 219.34288 302.93399
313.0 0.003195 219.27824 313.50061
335.0 0.002985 219.21260 320.26483
314.0 0.003185 219.14583 321.49835
337.0 0.002967 219.07796 316.92047
305.0 0.003279 219.00900 308.06830
302.0 0.003311 218.93895 297.38278
314.0 0.003185 218.86790 287.14279
258.0 0.00388 218.79575 278.80054
234.0 0.00427 218.72263 273.00217
252.0 0.00397 218.64857 269.60400
250.0 0.00400 218.57336 267.88443
286.0 0.003497 218.49722 266.60773
234.0 0.00427 218.42015 264.62042
262.0 0.00382 218.34207 261.22202
258.0 0.00388 218.26306 256.46939
250.0 0.00400 218.18314 250.93709
281.0 0.00356 218.10223 245.29347
230.0 0.00435 218.02054 240.01195
224.0 0.00446 217.93796 235.44223
209.0 0.00478 217.85440 231.73668
217.0 0.00461 217.77014 228.91115
224.0 0.00446 217.68500 226.88889
247.0 0.00405 217.59900 225.52107
205.0 0.00488 217.51233 224.59180
232.0 0.00431 217.42482 224.18985
232.0 0.00431 217.33661 224.16386
228.0 0.00439 217.24768 224.52882
231.0 0.00433 217.15804 225.32620
219.0 0.00457 217.06773 226.61835
256.0 0.00391 216.97676 228.46709
242.0 0.00413 216.88518 230.87074
234.0 0.00427 216.79301 233.72749
241.0 0.00415 216.70021 236.79764
219.0 0.00457 216.60692 239.57713
238.0 0.00420 216.51294 241.74809
230.0 0.00435 216.41856 242.65929
279.0 0.00358 216.32373 242.07516
270.0 0.00370 216.22838 240.24457
263.0 0.00380 216.13260 237.74394
223.0 0.00448 216.03639 235.16270
237.0 0.00422 215.93987 232.93282
213.0 0.00469 215.84296 231.28995
250.0 0.00400 215.74571 230.28203
222.0 0.00450 215.64821 229.76230
225.0 0.00444 215.55045 229.53667
219.0 0.00457 215.45232 229.26695
227.0 0.00441 215.35400 228.71130
243.0 0.00412 215.25555 227.81618
255.0 0.00392 215.15692 226.70488
252.0 0.00397 215.05821 225.54956
229.0 0.00437 214.95929 224.57875
209.0 0.00478 214.86040 223.93477
222.0 0.00450 214.76146 223.78331
244.0 0.00410 214.66248 224.30035
194.0 0.00515 214.56354 225.71541
230.0 0.00435 214.46458 228.29886
249.0 0.00402 214.36569 232.35106
202.0 0.00495 214.26703 238.13472
260.0 0.00385 214.16850 245.77759
224.0 0.00446 214.07002 255.14456
257.0 0.00389 213.97177 265.75024
250.0 0.00400 213.87381 276.62186
259.0 0.00386 213.77606 286.28040
305.0 0.003279 213.67871 292.87524
280.0 0.00357 213.58154 294.82300
300.0 0.003333 213.48473 291.79840
336.0 0.002976 213.38832 285.05426
298.0 0.003356 213.29240 276.61041
256.0 0.00391 213.19693 268.30429
248.0 0.00403 213.10185 261.38879
232.0 0.00431 213.00735 256.47891
261.0 0.00383 212.91327 253.58829
249.0 0.00402 212.81993 252.19429
230.0 0.00435 212.72717 251.41887
260.0 0.00385 212.63493 250.21800
248.0 0.00403 212.54344 247.87103
244.0 0.00410 212.45256 244.28749
244.0 0.00410 212.36250 239.92192
259.0 0.00386 212.27316 235.33438
234.0 0.00427 212.18459 230.99223
234.0 0.00427 212.09680 227.20271
236.0 0.00424 212.00986 224.11789
221.0 0.00452 211.92384 221.77061
241.0 0.00415 211.83868 220.07834
239.0 0.00418 211.75453 218.93533
253.0 0.00395 211.67122 218.22330
227.0 0.00441 211.58905 217.82768
246.0 0.00407 211.50775 217.69054
204.0 0.00490 211.42754 217.78200
249.0 0.00402 211.34848 218.12964
193.0 0.00518 211.27037 218.79556
203.0 0.00493 211.19350 219.83769
214.0 0.00467 211.11774 221.63399
221.0 0.00452 211.04315 224.30486
230.0 0.00435 210.96979 228.13226
227.0 0.00441 210.89763 233.39294
244.0 0.00410 210.82672 240.15770
219.0 0.00457 210.75713 248.39102
269.0 0.00372 210.68887 257.73868
259.0 0.00386 210.62190 267.47794
306.0 0.003268 210.55629 276.53595
314.0 0.003185 210.49197 283.59097
344.0 0.002907 210.42918 287.63464
320.0 0.003125 210.36772 288.09561
310.0 0.003226 210.30774 285.17392
302.0 0.003311 210.24918 279.98492
275.0 0.00364 210.19209 274.16626
256.0 0.00391 210.13660 269.21359
242.0 0.00413 210.08252 266.15640
265.0 0.00377 210.03008 265.39984
255.0 0.00392 209.97914 266.75552
247.0 0.00405 209.92973 269.53302
261.0 0.00383 209.88197 272.69336
281.0 0.00356 209.83582 275.08566
261.0 0.00383 209.79126 275.75162
312.0 0.003205 209.74835 274.30399
269.0 0.00372 209.70709 271.14716
283.0 0.00353 209.66751 267.12631
228.0 0.00439 209.62962 262.97226
234.0 0.00427 209.59341 259.02008
254.0 0.00394 209.55887 255.25667
276.0 0.00362 209.52605 251.57239
269.0 0.00372 209.49507 247.98355
289.0 0.003460 209.46574 244.59172
217.0 0.00461 209.43817 241.44669
251.0 0.00398 209.41234 238.43378
235.0 0.00426 209.38828 235.55592
222.0 0.00450 209.36601 232.89201
222.0 0.00450 209.34550 230.53687
216.0 0.00463 209.32677 228.49382
235.0 0.00426 209.30980 226.65457
232.0 0.00431 209.29462 224.86497
227.0 0.00441 209.28128 223.03596
237.0 0.00422 209.26967 221.19295
241.0 0.00415 209.25996 219.42342
223.0 0.00448 209.25198 217.84325
210.0 0.00476 209.24574 216.43143
202.0 0.00495 209.24139 215.24350
235.0 0.00426 209.23875 214.28023
226.0 0.00442 209.23799 213.52565
214.0 0.00467 209.23901 212.95209
204.0 0.00490 209.24178 212.52519
233.0 0.00429 209.24635 212.21115
229.0 0.00437 209.25273 211.98053
207.0 0.00483 209.26077 211.81007
240.0 0.00417 209.27071 211.68275
200.0 0.00500 209.28230 211.59608
238.0 0.00420 209.29567 211.52385
228.0 0.00439 209.31078 211.47003
211.0 0.00474 209.32759 211.41090
212.0 0.00472 209.34613 211.38506
198.0 0.00505 209.36639 211.37067
215.0 0.00465 209.38837 211.36652
226.0 0.00442 209.41199 211.37189
199.0 0.00503 209.43727 211.38641
216.0 0.00463 209.46419 211.40988
203.0 0.00493 209.49277 211.44188
264.0 0.00379 209.52293 211.48242
223.0 0.00448 209.55470 211.53146
196.0 0.00510 209.58807 211.58919
191.0 0.00524 209.62302 211.65587
211.0 0.00474 209.65945 211.73174
190.0 0.00526 209.69742 211.81729
207.0 0.00483 209.73697 211.91321
197.0 0.00508 209.77789 212.02010
249.0 0.00402 209.82031 212.13902
220.0 0.00455 209.86412 212.27109
206.0 0.00485 209.90938 212.41772
250.0 0.00400 209.95601 212.52403
206.0 0.00485 210.00398 212.70743
207.0 0.00483 210.05333 212.91350
229.0 0.00437 210.10396 213.14783
207.0 0.00483 210.15584 213.41928
200.0 0.00500 210.20900 213.74205
241.0 0.00415 210.26335 214.14532
221.0 0.00452 210.31892 214.65138
231.0 0.00433 210.37564 215.31697
228.0 0.00439 210.43344 216.20972
238.0 0.00420 210.49237 217.39087
213.0 0.00469 210.55240 218.99525
214.0 0.00467 210.61339 221.08432
222.0 0.00450 210.67538 223.71872
207.0 0.00483 210.73843 226.91666
246.0 0.00407 210.80231 230.64070
244.0 0.00410 210.86713 234.78329
234.0 0.00427 210.93286 239.16466
246.0 0.00407 210.99931 243.57231
223.0 0.00448 211.06657 247.91107
283.0 0.00353 211.13463 252.33714
251.0 0.00398 211.20338 257.22433
284.0 0.00352 211.27280 262.97644
257.0 0.00389 211.34293 269.82187
311.0 0.003215 211.41350 277.67590
267.0 0.00375 211.48474 286.09286
272.0 0.00368 211.55650 294.40140
265.0 0.00377 211.62877 301.89594
320.0 0.003125 211.70134 307.93491
312.0 0.003205 211.77446 311.83334
334.0 0.002994 211.84785 313.25967
297.0 0.003367 211.92160 312.10434
277.0 0.00361 211.99564 308.74582
300.0 0.003333 212.06992 303.95044
341.0 0.002933 212.14433 298.61682
259.0 0.00386 212.21896 293.36566
278.0 0.00360 212.29369 288.42993
272.0 0.00368 212.36850 283.81113
286.0 0.003497 212.44333 279.52451
292.0 0.003425 212.51807 275.44818
255.0 0.00392 212.59285 271.45905
260.0 0.00385 212.66751 267.43726
304.0 0.003289 212.74194 263.35571
240.0 0.00417 212.81635 259.23129
283.0 0.00353 212.89046 255.20670
238.0 0.00420 212.96422 251.43564
251.0 0.00398 213.03783 247.97649
239.0 0.00418 213.11098 244.77716
241.0 0.00415 213.18375 241.80956
238.0 0.00420 213.25612 239.12616
223.0 0.00448 213.32794 236.86119
206.0 0.00485 213.39926 235.30626
230.0 0.00435 213.47008 234.64467
234.0 0.00427 213.54022 235.08112
223.0 0.00448 213.60976 236.67230
223.0 0.00448 213.67859 239.41623
281.0 0.00356 213.74672 243.10428
254.0 0.00394 213.81407 247.31200
267.0 0.00375 213.88066 251.49069
237.0 0.00422 213.94633 254.91722
258.0 0.00388 214.01117 256.90762
245.0 0.00408 214.07506 257.15356
248.0 0.00403 214.13800 256.00824
266.0 0.00376 214.19995 254.27612
246.0 0.00407 214.26080 252.83685
262.0 0.00382 214.32068 252.34802
251.0 0.00398 214.37936 253.10747
228.0 0.00439 214.43701 255.08308
226.0 0.00442 214.49333 257.80756
230.0 0.00435 214.54858 260.52716
237.0 0.00422 214.60243 262.25085
295.0 0.003390 214.65508 262.12753
278.0 0.00360 214.70639 259.87332
258.0 0.00388 214.75638 255.92020
267.0 0.00375 214.80498 251.08429
239.0 0.00418 214.85217 246.19106
253.0 0.00395 214.89786 241.83905
219.0 0.00457 214.94220 238.37016
216.0 0.00463 214.98491 235.89017
198.0 0.00505 215.02612 234.28703
228.0 0.00439 215.06578 233.26152
239.0 0.00418 215.10387 232.43671
238.0 0.00420 215.14043 231.46016
212.0 0.00472 215.17528 230.15590
204.0 0.00490 215.20844 228.55598
214.0 0.00467 215.23991 226.81628
201.0 0.00498 215.26971 225.09840
223.0 0.00448 215.29781 223.52524
232.0 0.00431 215.32411 222.17609
206.0 0.00485 215.34880 221.08154
231.0 0.00433 215.37154 220.24031
223.0 0.00448 215.39255 219.62656
205.0 0.00488 215.41171 219.19344
211.0 0.00474 215.42903 218.90219
241.0 0.00415 215.44453 218.71524
202.0 0.00495 215.45818 218.60498
209.0 0.00478 215.46996 218.55429
200.0 0.00500 215.47980 218.55635
225.0 0.00444 215.48778 218.61476
246.0 0.00407 215.49388 218.74037
210.0 0.00476 215.49803 218.95322
252.0 0.00397 215.50034 219.27873
211.0 0.00474 215.50060 219.74350
228.0 0.00439 215.49901 220.36748
211.0 0.00474 215.49547 221.15833
217.0 0.00461 215.48999 222.09834
225.0 0.00444 215.48257 223.14105
251.0 0.00398 215.47321 224.20271
241.0 0.00415 215.46198 225.15582
196.0 0.00510 215.44867 225.84872
225.0 0.00444 215.43350 226.15036
231.0 0.00433 215.41643 226.03099
239.0 0.00418 215.39742 225.58960
238.0 0.00420 215.37646 224.99858
248.0 0.00403 215.35353 224.42773
236.0 0.00424 215.32877 224.01163
208.0 0.00481 215.30212 223.84021
256.0 0.00391 215.27357 223.96680
210.0 0.00476 215.24312 224.42972
216.0 0.00463 215.21085 225.21986
238.0 0.00420 215.17668 226.32658
219.0 0.00457 215.14073 227.79723
242.0 0.00413 215.10292 229.70563
234.0 0.00427 215.06337 232.24696
245.0 0.00408 215.02194 235.62723
248.0 0.00403 214.97885 240.05522
241.0 0.00415 214.93399 245.65068
233.0 0.00429 214.88742 252.46309
260.0 0.00385 214.83907 260.33966
252.0 0.00397 214.78911 268.86652
294.0 0.003401 214.73747 277.32297
305.0 0.003279 214.68428 284.63290
298.0 0.003356 214.62943 289.65793
313.0 0.003195 214.57301 291.69629
302.0 0.003311 214.51500 290.64392
306.0 0.003268 214.45557 287.01578
292.0 0.003425 214.39459 281.90387
271.0 0.00369 214.33214 276.48337
262.0 0.00382 214.26833 271.77841
278.0 0.00360 214.20306 268.41696
257.0 0.00389 214.13651 266.55771
248.0 0.00403 214.06865 265.96201
273.0 0.00366 213.99936 265.96750
261.0 0.00383 213.92892 265.74356
282.0 0.00355 213.85727 264.65948
288.0 0.003472 213.78453 262.48087
264.0 0.00379 213.71049 259.42361
270.0 0.00370 213.63542 256.05185
275.0 0.00364 213.55931 253.06717
254.0 0.00394 213.48215 251.18776
249.0 0.00402 213.40405 251.03101
247.0 0.00405 213.32498 253.06752
259.0 0.00386 213.24503 257.42804
252.0 0.00397 213.16426 264.08606
281.0 0.00356 213.08255 272.66296
297.0 0.003367 213.00024 282.43048
281.0 0.00356 212.91713 292.36603
317.0 0.003155 212.83331 301.20996
337.0 0.002967 212.74896 307.59198
320.0 0.003125 212.66393 310.31927
350.0 0.002857 212.57843 308.71350
370.0 0.002703 212.49240 303.07437
355.0 0.002817 212.40590 294.68588
278.0 0.00360 212.31911 285.29822
248.0 0.00403 212.23183 276.35394
247.0 0.00405 212.14429 268.95322
265.0 0.00377 212.05652 263.53098
236.0 0.00424 211.96844 260.06393
243.0 0.00412 211.88031 258.12881
237.0 0.00422 211.79196 257.02042
262.0 0.00382 211.70361 255.94199
258.0 0.00388 211.61533 254.18739
246.0 0.00407 211.52684 251.35881
258.0 0.00388 211.43860 247.52272
269.0 0.00372 211.35039 243.09991
228.0 0.00439 211.26236 238.59099
228.0 0.00439 211.17459 234.51100
246.0 0.00407 211.08704 231.11699
213.0 0.00469 210.99982 228.55580
208.0 0.00481 210.91289 226.82399
213.0 0.00469 210.82643 225.80908
224.0 0.00446 210.74045 225.29663
241.0 0.00415 210.65483 225.01778
250.0 0.00400 210.56987 224.68037
222.0 0.00450 210.48541 224.07280
238.0 0.00420 210.40158 223.13628
227.0 0.00441 210.31853 221.95276
233.0 0.00429 210.23608 220.69600
227.0 0.00441 210.15437 219.50841
217.0 0.00461 210.07350 218.49483
207.0 0.00483 209.99350 217.71515
223.0 0.00448 209.91446 217.18002
216.0 0.00463 209.83615 216.85789
207.0 0.00483 209.75894 216.68248
253.0 0.00395 209.68266 216.56119
238.0 0.00420 209.60747 216.39828
240.0 0.00417 209.53340 216.13409
240.0 0.00417 209.46030 215.76372
200.0 0.00500 209.38844 215.34267
229.0 0.00437 209.31778 214.88924
215.0 0.00465 209.24832 214.45209
206.0 0.00485 209.18021 214.05304
232.0 0.00431 209.11330 213.69798
213.0 0.00469 209.04773 213.39008
214.0 0.00467 208.98351 213.13974
174.0 0.00575 208.92064 212.94713
229.0 0.00437 208.85928 212.82918
215.0 0.00465 208.79932 212.79990
222.0 0.00450 208.74089 212.87872
225.0 0.00444 208.68391 213.09497
221.0 0.00452 208.62846 213.49797
189.0 0.00529 208.57460 214.13754
221.0 0.00452 208.52234 215.10382
217.0 0.00461 208.47157 216.49057
226.0 0.00442 208.42250 218.39905
237.0 0.00422 208.37515 220.93179
239.0 0.00418 208.32944 224.14238
226.0 0.00442 208.28531 228.02089
211.0 0.00474 208.24301 232.45294
220.0 0.00455 208.20238 237.20781
247.0 0.00405 208.16353 241.88910
251.0 0.00398 208.12643 245.98840
246.0 0.00407 208.09109 248.99600
233.0 0.00429 208.05756 250.61292
217.0 0.00461 208.02589 250.91202
253.0 0.00395 207.99596 250.26837
240.0 0.00417 207.96790 249.12653
257.0 0.00389 207.94167 247.83368
262.0 0.00382 207.91727 246.52840
230.0 0.00435 207.89470 245.19250
252.0 0.00397 207.87410 243.67815
221.0 0.00452 207.85532 242.00243
238.0 0.00420 207.83844 240.21411
269.0 0.00372 207.82344 238.34323
252.0 0.00397 207.81030 236.36224
251.0 0.00398 207.79909 234.26726
202.0 0.00495 207.78976 232.08955
203.0 0.00493 207.78235 230.02211
200.0 0.00500 207.77684 228.12022
209.0 0.00478 207.77325 226.49072
225.0 0.00444 207.77155 225.09386
216.0 0.00463 207.77174 223.87953
225.0 0.00444 207.77388 222.83592
228.0 0.00439 207.77792 222.04103
196.0 0.00510 207.78381 221.65292
228.0 0.00439 207.79169 221.86919
209.0 0.00478 207.80142 222.88289
196.0 0.00510 207.81303 224.83282
229.0 0.00437 207.82657 227.86180
207.0 0.00483 207.84201 231.94475
239.0 0.00418 207.85930 236.91759
271.0 0.00369 207.87845 242.48340
244.0 0.00410 207.89955 248.11169
220.0 0.00455 207.92253 253.05154
248.0 0.00403 207.94727 256.43146
246.0 0.00407 207.97392 257.50504
289.0 0.003460 208.00246 256.07462
244.0 0.00410 208.03282 252.62366
254.0 0.00394 208.06502 248.05128
252.0 0.00397 208.09906 243.24704
217.0 0.00461 208.13489 238.91859
246.0 0.00407 208.17259 235.47363
219.0 0.00457 208.21217 233.13365
238.0 0.00420 208.25342 231.82727
259.0 0.00386 208.29659 231.31331
223.0 0.00448 208.34152 231.27298
242.0 0.00413 208.38823 231.18764
252.0 0.00397 208.43674 230.63609
269.0 0.00372 208.48706 229.41930
234.0 0.00427 208.53914 227.61629
218.0 0.00459 208.59299 225.48361
216.0 0.00463 208.64856 223.29799
179.0 0.00559 208.70595 221.27721
197.0 0.00508 208.76508 219.56834
239.0 0.00418 208.82602 218.23889
230.0 0.00435 208.88866 217.27469
252.0 0.00397 208.95297 216.68016
234.0 0.00427 209.01915 216.35709
237.0 0.00422 209.08699 216.23773
215.0 0.00465 209.15663 216.24847
218.0 0.00459 209.22792 216.37268
188.0 0.00532 209.30096 216.59671
212.0 0.00472 209.37578 216.91409
226.0 0.00442 209.45229 217.24651
231.0 0.00433 209.53059 217.54581
226.0 0.00442 209.61050 217.74387
225.0 0.00444 209.69218 217.78960
231.0 0.00433 209.77559 217.68228
260.0 0.00385 209.86069 217.49434
236.0 0.00424 209.94754 217.30034
219.0 0.00457 210.03610 217.18967
204.0 0.00490 210.12627 217.25629
200.0 0.00500 210.21834 217.58447
225.0 0.00444 210.31195 218.26117
204.0 0.00490 210.40736 219.35812
215.0 0.00465 210.50444 220.92139
220.0 0.00455 210.60315 222.88741
231.0 0.00433 210.70370 225.22289
234.0 0.00427 210.80582 227.80493
212.0 0.00472 210.90974 230.45772
222.0 0.00450 211.01524 232.93806
256.0 0.00391 211.12244 234.94119
236.0 0.00424 211.23138 236.17789
278.0 0.00360 211.34192 236.50699
232.0 0.00431 211.45415 236.02150
225.0 0.00444 211.56798 234.97624
253.0 0.00395 211.68341 233.64238
235.0 0.00426 211.80054 232.22102
204.0 0.00490 211.91919 230.85266
219.0 0.00457 212.03954 229.60924
212.0 0.00472 212.16133 228.58714
222.0 0.00450 212.28465 227.82881
246.0 0.00407 212.40967 227.30698
218.0 0.00459 212.53600 226.92342
223.0 0.00448 212.66396 226.54265
208.0 0.00481 212.79326 226.05984
231.0 0.00433 212.92384 225.44810
233.0 0.00429 213.05600 224.75333
242.0 0.00413 213.18938 224.05109
244.0 0.00410 213.32417 223.42328
224.0 0.00446 213.45998 222.90955
212.0 0.00472 213.59702 222.58197
216.0 0.00463 213.73534 222.54306
227.0 0.00441 213.87454 222.90378
212.0 0.00472 214.01488 223.77150
262.0 0.00382 214.15604 225.22620
224.0 0.00446 214.29811 227.29225
204.0 0.00490 214.44102 229.96361
227.0 0.00441 214.58456 233.14185
240.0 0.00417 214.72881 236.60968
241.0 0.00415 214.87332 240.04863
254.0 0.00394 215.01842 243.03085
240.0 0.00417 215.16382 245.04826
252.0 0.00397 215.30943 245.68446
289.0 0.003460 215.45511 244.87283
260.0 0.00385 215.60065 242.89458
262.0 0.00382 215.74596 240.26315
239.0 0.00418 215.89111 237.48648
227.0 0.00441 216.03564 234.98029
254.0 0.00394 216.17973 232.98480
213.0 0.00469 216.32283 231.63036
215.0 0.00465 216.46506 230.89865
243.0 0.00412 216.60617 230.67513
219.0 0.00457 216.74588 230.74426
220.0 0.00455 216.88429 230.84222
228.0 0.00439 217.02081 230.70149
250.0 0.00400 217.15549 230.17038
231.0 0.00433 217.28815 229.23604
221.0 0.00452 217.41824 228.01901
224.0 0.00446 217.54602 226.67667
243.0 0.00412 217.67082 225.37967
225.0 0.00444 217.79266 224.16866
241.0 0.00415 217.91122 223.13141
236.0 0.00424 218.02618 222.29546
234.0 0.00427 218.13741 221.65779
196.0 0.00510 218.24451 221.20058
201.0 0.00498 218.34718 220.88985
220.0 0.00455 218.44545 220.69331
206.0 0.00485 218.53864 220.57986
232.0 0.00431 218.62674 220.48030
209.0 0.00478 218.70932 220.46233
233.0 0.00429 218.78609 220.46815
247.0 0.00405 218.85687 220.48846
207.0 0.00483 218.92125 220.52910
229.0 0.00437 218.97900 220.56387
214.0 0.00467 219.02975 220.60194
233.0 0.00429 219.07326 220.64172
233.0 0.00429 219.10933 220.69788
228.0 0.00439 219.13745 220.73950
200.0 0.00500 219.15749 220.78136
204.0 0.00490 219.16914 220.82314
218.0 0.00459 219.17223 220.84880
213.0 0.00469 219.16634 220.89180
240.0 0.00417 219.15137 220.93631
225.0 0.00444 219.12700 220.98982
229.0 0.00437 219.09303 221.04230
222.0 0.00450 219.04933 221.11150
223.0 0.00448 218.99576 221.18744
200.0 0.00500 218.93201 221.28656
222.0 0.00450 218.85806 221.42174
218.0 0.00459 218.77390 221.61801
226.0 0.00442 218.67932 221.88567
204.0 0.00490 218.57436 222.26001
230.0 0.00435 218.45909 222.78168
239.0 0.00418 218.33353 223.48511
212.0 0.00472 218.19783 224.40744
243.0 0.00412 218.05211 225.58278
228.0 0.00439 217.89661 227.02983
234.0 0.00427 217.73164 228.74525
228.0 0.00439 217.55742 230.72177
202.0 0.00495 217.37469 232.90257
230.0 0.00435 217.18369 235.22920
260.0 0.00385 216.98495 237.61775
256.0 0.00391 216.77936 240.00761
250.0 0.00400 216.56752 242.40576
237.0 0.00422 216.35057 244.84845
222.0 0.00450 216.12924 247.32664
220.0 0.00455 215.90460 249.72389
255.0 0.00392 215.67824 251.83177
280.0 0.00357 215.45108 253.43790
276.0 0.00362 215.22511 254.35771
247.0 0.00405 215.00180 254.45686
239.0 0.00418 214.78276 253.68655
242.0 0.00413 214.57059 252.19974
231.0 0.00433 214.36674 250.35603
270.0 0.00370 214.17435 248.62468
234.0 0.00427 213.99562 247.42944
244.0 0.00410 213.83340 247.15103
201.0 0.00498 213.69113 247.99295
268.0 0.00373 213.57169 249.99324
258.0 0.00388 213.47896 252.99275
246.0 0.00407 213.41673 256.65475
270.0 0.00370 213.38928 260.48065
249.0 0.00402 213.40096 263.83258
308.0 0.003247 213.45679 265.97675
279.0 0.00358 213.56172 266.27560
295.0 0.003390 213.72150 264.50272
279.0 0.00358 213.94203 260.98187
311.0 0.003215 214.22952 256.42554
260.0 0.00385 214.59117 251.62019
227.0 0.00441 215.03366 247.21051
259.0 0.00386 215.56474 243.63469
253.0 0.00395 216.19377 241.13812
218.0 0.00459 216.92769 239.79753
255.0 0.00392 217.77756 239.53278
241.0 0.00415 218.75195 240.15199
253.0 0.00395 219.86143 241.37056
244.0 0.00410 221.11880 242.87762
229.0 0.00437 222.53400 244.41942
249.0 0.00402 224.12138 245.91667
230.0 0.00435 225.89203 247.48833
272.0 0.00368 227.86053 249.37137
261.0 0.00383 230.04448 251.81146
219.0 0.00457 232.45609 254.96835
236.0 . . .
loop_
_refln_index_h
_refln_index_k
_refln_index_l
_pd_refln_wavelength_id
_refln_observed_status
_refln_F_squared_meas
_refln_F_squared_calc
_refln_phase_calc
_refln_d_spacing
_gsas_i100_meas
1 0 0 1 o 245.915 238.352 0.00 8.22105 39.55
1 0 0 2 o 249.673 238.352 0.00 8.22105 15.17
1 1 0 1 o 8.641 9.927 180.00 4.84678 0.85
1 1 0 2 o 8.730 9.927 180.00 4.84678 0.33
0 0 1 1 o 10.298 7.644 0.00 4.54669 0.45
0 0 1 2 o 14.193 7.644 0.00 4.54669 0.24
2 0 0 1 o 169.648 152.875 180.00 4.11053 6.47
1 0 -1 1 o 181.383 165.094 0.00 4.10405 6.50
2 0 0 2 o 168.353 152.875 180.00 4.11053 2.43
1 0 -1 2 o 177.401 165.094 0.00 4.10405 2.40
1 0 1 1 o 1220.078 1202.563 180.00 3.86425 45.00
1 0 1 2 o 1232.193 1202.563 180.00 3.86425 17.17
0 1 1 1 o -1.487 0.675 0.00 3.62389 0.00
0 1 1 2 o -1.487 0.675 0.00 3.62389 0.00
2 1 0 1 o 493.667 473.752 0.00 3.39115 29.64
1 1 -1 1 o 1770.457 1727.778 180.00 3.38751 100.00
2 1 0 2 o 480.215 473.752 0.00 3.39115 10.92
1 1 -1 2 o 1721.895 1727.778 180.00 3.38751 36.80
1 1 1 1 o 406.082 398.531 180.00 3.24886 22.31
1 1 1 2 o 399.151 398.531 180.00 3.24886 8.29
2 0 -1 1 o 392.778 428.265 0.00 3.16290 8.24
2 0 -1 2 o 373.259 428.265 0.00 3.16290 2.97
0 2 0 1 o 2536.348 2519.662 180.00 3.00026 50.61
0 2 0 2 o 2457.968 2519.662 180.00 3.00026 18.56
2 0 1 1 o 273.403 250.941 180.00 2.94686 5.18
2 0 1 2 o 270.981 250.941 180.00 2.94686 1.94
1 2 0 1 o 173.594 160.731 180.00 2.81844 6.62
1 2 0 2 o 180.323 160.731 180.00 2.81844 2.59
2 1 -1 1 o 34.620 30.581 180.00 2.79800 1.32
2 1 -1 2 o 32.462 30.581 180.00 2.79800 0.47
3 0 0 1 o 829.040 815.437 180.00 2.74035 13.30
3 0 0 2 o 746.838 815.437 180.00 2.74035 4.55
2 1 1 1 o 908.161 898.137 180.00 2.64510 30.54
2 1 1 2 o 841.414 898.137 180.00 2.64510 10.73
0 2 1 1 o -1.355 0.166 0.00 2.50419 0.00
0 2 1 2 o -1.355 0.166 0.00 2.50419 0.00
3 1 0 1 o 0.376 4.442 180.00 2.49271 0.00
3 1 0 2 o 8.539 4.442 180.00 2.49271 0.08
3 0 -1 1 o 1098.417 1064.951 0.00 2.42434 12.66
2 2 0 1 o 72.170 70.512 0.00 2.42339 2.10
1 2 -1 1 o 69.390 68.287 180.00 2.42206 1.90
3 0 -1 2 o 1078.588 1064.951 0.00 2.42434 4.70
2 2 0 2 o 71.444 70.512 0.00 2.42339 0.79
1 2 -1 2 o 69.152 68.287 180.00 2.42206 0.72
1 2 1 1 o 635.532 640.953 0.00 2.36983 17.77
1 2 1 2 o 619.356 640.953 0.00 2.36983 6.55
3 0 1 1 o 1.579 12.705 180.00 2.27665 0.00
0 0 2 1 o 0.069 1.162 0.00 2.27335 0.00
3 0 1 2 o 5.211 12.705 180.00 2.27665 0.01
0 0 2 2 o -0.149 1.162 0.00 2.27335 0.00
3 1 -1 1 o 5.376 10.928 0.00 2.24781 0.15
3 1 -1 2 o 9.225 10.928 0.00 2.24781 0.09
1 0 -2 1 o 115.777 112.001 180.00 2.23220 1.24
1 0 -2 2 o 140.475 112.001 180.00 2.23220 0.56
2 2 -1 1 o 295.523 285.061 180.00 2.17673 6.61
2 2 -1 2 o 304.114 285.061 180.00 2.17673 2.56
1 0 2 1 o 263.891 256.841 0.00 2.15222 2.82
1 0 2 2 o 272.635 256.841 0.00 2.15222 1.10
3 1 1 1 o 90.452 88.900 180.00 2.12859 1.87
0 1 2 1 o 722.605 718.229 180.00 2.12589 15.07
3 1 1 2 o 89.510 88.900 180.00 2.12859 0.70
0 1 2 2 o 712.596 718.229 180.00 2.12589 5.62
2 2 1 2 o 104.286 104.619 0.00 2.10237 0.84
1 1 -2 1 o 170.374 167.927 0.00 2.09213 3.28
2 2 1 1 o 109.869 104.619 0.00 2.10237 2.33
1 1 -2 2 o 176.191 167.927 0.00 2.09213 1.28
4 0 0 1 o 312.958 285.006 180.00 2.05526 2.62
2 0 -2 1 o 389.578 366.890 180.00 2.05202 3.15
4 0 0 2 o 298.057 285.006 180.00 2.05526 0.94
2 0 -2 2 o 372.306 366.890 180.00 2.05202 1.14
1 1 2 1 o 107.777 102.482 180.00 2.02585 2.05
3 2 0 1 o 460.420 457.514 0.00 2.02338 8.89
1 1 2 2 o 99.730 102.482 180.00 2.02585 0.72
3 2 0 2 o 423.369 457.514 0.00 2.02338 3.10
4 1 0 1 o 98.269 93.535 180.00 1.94437 1.58
1 3 0 1 o 33.055 31.517 180.00 1.94348 0.58
2 1 -2 1 o 1.038 1.027 0.00 1.94163 0.01
4 1 0 2 o 87.420 93.535 180.00 1.94437 0.54
1 3 0 2 o 27.655 31.517 180.00 1.94348 0.19
2 1 -2 2 o 0.836 1.027 0.00 1.94163 0.00
2 0 2 1 o 22.906 48.493 0.00 1.93213 0.23
2 0 2 2 o 45.452 48.493 0.00 1.93213 0.15
4 0 -1 1 o 5.283 4.670 180.00 1.92480 0.03
4 0 -1 2 o 3.150 4.670 180.00 1.92480 0.01
3 2 -1 1 o 456.828 463.727 180.00 1.88567 7.14
3 2 -1 2 o 484.766 463.727 180.00 1.88567 2.85
2 1 2 1 o 18.947 13.231 0.00 1.83914 0.30
2 1 2 2 o 12.983 13.231 0.00 1.83914 0.08
4 1 -1 1 o 59.798 63.555 0.00 1.83282 0.87
0 3 1 1 o 18.603 19.427 180.00 1.83084 0.30
4 1 -1 2 o 64.444 63.555 0.00 1.83282 0.35
0 3 1 2 o 20.457 19.427 180.00 1.83084 0.12
4 0 1 1 o 585.182 540.862 0.00 1.82482 3.61
4 0 1 2 o 609.676 540.862 0.00 1.82482 1.42
3 0 -2 1 o 52.410 40.723 0.00 1.81409 0.28
3 2 1 1 o 1.721 1.037 180.00 1.81361 0.04
0 2 2 1 o 21.347 14.763 180.00 1.81194 0.31
3 0 -2 2 o 62.950 40.723 0.00 1.81409 0.13
3 2 1 2 o 2.286 1.037 180.00 1.81361 0.02
0 2 2 2 o 24.510 14.763 180.00 1.81194 0.13
2 3 0 1 o 214.017 195.387 180.00 1.79855 3.01
1 3 -1 1 o 628.262 566.783 0.00 1.79800 8.48
2 3 0 2 o 223.505 195.387 180.00 1.79855 1.18
1 3 -1 2 o 643.117 566.783 0.00 1.79800 3.27
1 2 -2 1 o 58.712 54.531 0.00 1.79090 0.87
1 2 -2 2 o 34.824 54.531 0.00 1.79090 0.21
1 3 1 1 o 128.813 121.037 0.00 1.77632 1.71
1 3 1 2 o 124.265 121.037 0.00 1.77632 0.62
1 2 2 1 o 106.289 132.914 180.00 1.74880 1.56
4 1 1 1 o 42.993 51.702 0.00 1.74587 0.49
1 2 2 2 o 108.553 132.914 180.00 1.74880 0.60
4 1 1 2 o 45.794 51.702 0.00 1.74587 0.20
3 1 -2 1 o 157.824 151.582 180.00 1.73647 1.81
3 1 -2 2 o 153.986 151.582 180.00 1.73647 0.67
4 2 0 1 o 164.626 183.463 0.00 1.69558 2.06
2 2 -2 1 o 250.804 270.802 0.00 1.69376 3.01
3 0 2 1 o 15.955 16.660 180.00 1.69164 0.08
4 2 0 2 o 175.806 183.463 0.00 1.69558 0.83
2 3 -1 1 o 39.650 40.598 0.00 1.69051 0.49
2 2 -2 2 o 271.297 270.802 0.00 1.69376 1.22
3 0 2 2 o 17.444 16.660 180.00 1.69164 0.03
2 3 -1 2 o 42.787 40.598 0.00 1.69051 0.20
2 3 1 1 o 329.708 294.013 0.00 1.65496 3.90
2 3 1 2 o 315.695 294.013 0.00 1.65496 1.41
5 0 0 1 o 0.711 0.494 180.00 1.64421 0.00
5 0 0 2 o 0.409 0.494 180.00 1.64421 0.00
3 1 2 1 o 665.920 658.109 0.00 1.62817 6.95
2 2 2 1 o 47.688 46.563 180.00 1.62443 0.59
3 1 2 2 o 677.402 658.109 0.00 1.62817 2.67
2 2 2 2 o 52.258 46.563 180.00 1.62443 0.24
4 2 -1 1 o 1.309 1.186 0.00 1.62007 0.01
4 2 -1 2 o 1.811 1.186 0.00 1.62007 0.01
3 3 0 1 o 0.209 0.086 180.00 1.61559 0.00
3 3 0 2 o 0.251 0.086 180.00 1.61559 0.00
5 1 0 1 o 274.874 288.833 180.00 1.58576 2.61
5 0 -1 1 o 240.939 241.624 180.00 1.58256 1.06
5 1 0 2 o 292.451 288.833 180.00 1.58576 1.05
4 0 -2 1 o 126.919 123.645 0.00 1.58145 0.53
5 0 -1 2 o 272.813 241.624 180.00 1.58256 0.45
4 0 -2 2 o 139.431 123.645 0.00 1.58145 0.22
4 2 1 1 o 300.501 304.970 180.00 1.55909 2.99
4 2 1 2 o 274.953 304.970 180.00 1.55909 1.04
3 2 -2 1 o 13.326 14.755 180.00 1.55238 0.11
3 2 -2 2 o 10.639 14.755 180.00 1.55238 0.03
3 3 -1 1 o 11.073 10.801 180.00 1.54285 0.12
3 3 -1 2 o 9.366 10.801 180.00 1.54285 0.04
5 1 -1 1 o 57.140 52.624 0.00 1.53024 0.50
4 1 -2 1 o 500.832 462.608 180.00 1.52923 3.99
5 1 -1 2 o 55.458 52.624 0.00 1.53024 0.18
4 1 -2 2 o 477.802 462.608 180.00 1.52923 1.44
0 0 3 1 o 13.519 13.399 0.00 1.51556 0.07
5 0 1 1 o 30.600 41.772 0.00 1.51226 0.13
0 0 3 2 o 9.928 13.399 0.00 1.51556 0.02
1 0 -3 1 o 123.809 143.831 0.00 1.50968 0.54
5 0 1 2 o 34.629 41.772 0.00 1.51226 0.05
1 0 -3 2 o 119.661 143.831 0.00 1.50968 0.20
3 3 1 1 o 91.600 92.762 0.00 1.50263 0.89
0 3 2 1 o 417.517 406.052 0.00 1.50168 3.91
0 4 0 1 o 576.029 529.691 0.00 1.50013 2.31
3 3 1 2 o 102.307 92.762 0.00 1.50263 0.37
0 3 2 2 o 444.337 406.052 0.00 1.50168 1.56
0 4 0 2 o 570.912 529.691 0.00 1.50013 0.87
1 3 -2 1 o 56.625 51.500 180.00 1.48964 0.53
1 3 -2 2 o 38.287 51.500 180.00 1.48964 0.14
1 4 0 1 o 65.562 55.739 0.00 1.47576 0.53
3 2 2 1 o 13.819 13.325 0.00 1.47355 0.11
4 0 2 1 o 5.927 5.738 180.00 1.47343 0.03
1 4 0 2 o 50.111 55.739 0.00 1.47576 0.16
1 0 3 1 o 12.992 14.685 180.00 1.47193 0.06
3 2 2 2 o 11.868 13.325 0.00 1.47355 0.04
4 0 2 2 o 4.859 5.738 180.00 1.47343 0.01
0 1 3 1 o 129.620 145.291 0.00 1.46942 1.12
1 0 3 2 o 13.299 14.685 180.00 1.47193 0.02
5 1 1 1 o 74.474 77.325 0.00 1.46641 0.60
0 1 3 2 o 144.704 145.291 0.00 1.46942 0.47
1 3 2 1 o 70.094 68.231 0.00 1.46514 0.63
1 1 -3 1 o 7.619 7.333 0.00 1.46406 0.06
5 1 1 2 o 77.703 77.325 0.00 1.46641 0.23
1 3 2 2 o 67.051 68.231 0.00 1.46514 0.23
1 1 -3 2 o 7.058 7.333 0.00 1.46406 0.02
2 0 -3 1 o 53.691 49.118 0.00 1.45593 0.20
2 0 -3 2 o 87.713 49.118 0.00 1.45593 0.12
5 2 0 1 o 0.045 0.013 0.00 1.44189 0.00
5 2 0 2 o 0.016 0.013 0.00 1.44189 0.00
4 3 0 1 o 61.545 60.633 0.00 1.43342 0.53
2 3 -2 1 o 0.353 0.339 0.00 1.43232 0.00
4 1 2 1 o 109.589 114.349 0.00 1.43092 0.82
4 3 0 2 o 55.487 60.633 0.00 1.43342 0.18
1 1 3 1 o 131.018 144.288 0.00 1.42955 1.09
2 3 -2 2 o 0.292 0.339 0.00 1.43232 0.00
4 1 2 2 o 106.820 114.349 0.00 1.43092 0.30
1 1 3 2 o 153.911 144.288 0.00 1.42955 0.48
0 4 1 1 o 8.759 6.684 180.00 1.42459 0.08
0 4 1 2 o 14.209 6.684 180.00 1.42459 0.04
2 1 -3 1 o 206.896 181.470 0.00 1.41488 1.45
2 1 -3 2 o 206.245 181.470 0.00 1.41488 0.55
2 4 0 1 o 34.950 25.780 180.00 1.40922 0.26
1 4 -1 1 o 22.099 16.029 0.00 1.40896 0.16
2 4 0 2 o 40.613 25.780 180.00 1.40922 0.11
1 4 -1 2 o 24.901 16.029 0.00 1.40896 0.07
5 2 -1 1 o 151.477 154.074 0.00 1.39977 1.12
4 2 -2 1 o 77.570 75.839 180.00 1.39900 0.56
1 4 1 1 o 222.089 212.759 180.00 1.39845 1.65
5 2 -1 2 o 162.057 154.074 0.00 1.39977 0.45
4 2 -2 2 o 81.201 75.839 180.00 1.39900 0.22
1 4 1 2 o 231.799 212.759 180.00 1.39845 0.65
2 0 3 1 o 320.152 291.862 180.00 1.39031 1.18
2 3 2 1 o 14.238 12.717 180.00 1.38965 0.12
4 3 -1 1 o 84.717 83.386 180.00 1.38692 0.67
2 0 3 2 o 296.244 291.862 180.00 1.39031 0.41
2 3 2 2 o 12.763 12.717 180.00 1.38965 0.04
4 3 -1 2 o 68.430 83.386 180.00 1.38692 0.21
5 0 -2 1 o 55.244 65.621 0.00 1.37959 0.18
5 0 -2 2 o 54.071 65.621 0.00 1.37959 0.07
6 0 0 1 o 44.061 30.583 0.00 1.37018 0.15
3 0 -3 1 o 0.601 0.415 0.00 1.36802 0.00
6 0 0 2 o 52.301 30.583 0.00 1.37018 0.06
3 0 -3 2 o 0.289 0.415 0.00 1.36802 0.00
2 4 -1 1 o 103.252 105.506 0.00 1.35541 0.73
2 1 3 1 o 4.802 4.212 0.00 1.35443 0.04
0 2 3 1 o 12.249 10.866 180.00 1.35277 0.10
2 4 -1 2 o 113.279 105.506 0.00 1.35541 0.30
2 1 3 2 o 4.296 4.212 0.00 1.35443 0.01
5 2 1 1 o 29.305 29.621 180.00 1.35042 0.21
0 2 3 2 o 10.635 10.866 180.00 1.35277 0.03
1 2 -3 1 o 133.415 132.983 180.00 1.34858 0.95
4 3 1 1 o 13.156 12.966 180.00 1.34808 0.09
5 2 1 2 o 29.918 29.621 180.00 1.35042 0.08
1 2 -3 2 o 137.543 132.983 180.00 1.34858 0.37
4 3 1 2 o 13.811 12.966 180.00 1.34808 0.04
5 1 -2 1 o 3.619 3.349 180.00 1.34451 0.02
3 3 -2 1 o 117.856 105.398 0.00 1.34374 0.83
5 1 -2 2 o 3.316 3.349 180.00 1.34451 0.01
3 3 -2 2 o 103.266 105.398 0.00 1.34374 0.28
6 0 -1 1 o 311.531 318.708 180.00 1.33841 0.92
2 4 1 1 o 30.818 33.377 180.00 1.33688 0.21
6 1 0 1 o 0.242 0.283 0.00 1.33579 0.00
6 0 -1 2 o 265.480 318.708 180.00 1.33841 0.30
3 1 -3 1 o 215.105 258.360 0.00 1.33379 1.29
2 4 1 2 o 27.747 33.377 180.00 1.33688 0.07
6 1 0 2 o 0.226 0.283 0.00 1.33579 0.00
3 1 -3 2 o 187.122 258.360 0.00 1.33379 0.43
4 2 2 1 o 8.403 8.520 0.00 1.32255 0.07
1 2 3 1 o 13.493 14.928 0.00 1.32147 0.10
4 2 2 2 o 5.251 8.520 0.00 1.32255 0.02
1 2 3 2 o 10.676 14.928 0.00 1.32147 0.03
3 4 0 1 o 223.273 167.653 180.00 1.31587 1.48
3 4 0 2 o 266.564 167.653 180.00 1.31587 0.66
2 2 -3 1 o 48.397 30.619 180.00 1.30985 0.30
2 2 -3 2 o 42.663 30.619 180.00 1.30985 0.10
6 1 -1 1 o 2.320 1.495 180.00 1.30631 0.01
6 1 -1 2 o 2.673 1.495 180.00 1.30631 0.01
3 3 2 1 o 316.472 320.720 180.00 1.29163 2.12
5 0 2 1 o 103.256 109.823 180.00 1.28951 0.29
3 3 2 2 o 300.900 320.720 180.00 1.29163 0.76
3 0 3 1 o 46.887 49.989 180.00 1.28808 0.15
6 0 1 1 o 19.260 20.339 180.00 1.28690 0.05
5 0 2 2 o 106.208 109.823 180.00 1.28951 0.11
3 0 3 2 o 54.496 49.989 180.00 1.28808 0.06
6 0 1 2 o 25.201 20.339 180.00 1.28690 0.03
3 4 -1 1 o 199.776 158.165 0.00 1.27566 1.23
3 4 -1 2 o 191.952 158.165 0.00 1.27566 0.45
5 3 0 1 o 161.516 154.901 0.00 1.27015 1.03
5 3 0 2 o 149.283 154.901 0.00 1.27015 0.36
4 0 -3 1 o 30.982 31.907 180.00 1.26338 0.09
2 2 3 1 o 246.638 250.604 0.00 1.26145 1.55
5 1 2 1 o 20.467 21.086 180.00 1.26073 0.11
4 0 -3 2 o 30.833 31.907 180.00 1.26338 0.03
3 1 3 1 o 0.583 0.574 180.00 1.25939 0.01
2 2 3 2 o 271.678 250.604 0.00 1.26145 0.64
6 1 1 1 o 250.232 230.082 0.00 1.25829 1.33
5 1 2 2 o 23.158 21.086 180.00 1.26073 0.05
3 1 3 2 o 0.604 0.574 180.00 1.25939 0.00
6 1 1 2 o 221.150 230.082 0.00 1.25829 0.45
5 2 -2 1 o 49.102 60.247 180.00 1.25343 0.29
3 4 1 1 o 3.747 5.217 0.00 1.25264 0.03
0 4 2 1 o 5.733 8.063 0.00 1.25209 0.03
5 2 -2 2 o 29.887 60.247 180.00 1.25343 0.07
3 4 1 2 o 2.856 5.217 0.00 1.25264 0.01
0 4 2 2 o 6.167 8.063 0.00 1.25209 0.01
6 2 0 1 o 43.041 34.106 180.00 1.24635 0.26
1 4 -2 1 o 27.867 26.172 180.00 1.24509 0.18
3 2 -3 1 o 1.272 1.296 180.00 1.24473 0.01
6 2 0 2 o 26.241 34.106 180.00 1.24635 0.06
1 4 -2 2 o 22.352 26.172 180.00 1.24509 0.05
3 2 -3 2 o 1.188 1.296 180.00 1.24473 0.00
5 3 -1 1 o 31.373 33.318 180.00 1.24107 0.19
4 3 -2 1 o 222.851 231.500 0.00 1.24054 1.28
5 3 -1 2 o 28.878 33.318 180.00 1.24107 0.07
4 3 -2 2 o 204.834 231.500 0.00 1.24054 0.45
4 1 -3 1 o 3.989 4.519 180.00 1.23627 0.02
4 1 -3 2 o 5.863 4.519 180.00 1.23627 0.01
1 4 2 2 o 79.558 59.530 0.00 1.23068 0.18
1 4 2 1 o 76.988 59.530 0.00 1.23068 0.47
6 2 -1 1 o 225.324 232.983 0.00 1.22230 1.22
6 2 -1 2 o 276.721 232.983 0.00 1.22230 0.56
6 0 -2 1 o 16.336 14.393 0.00 1.21217 0.04
4 4 0 1 o 93.861 78.939 180.00 1.21170 0.54
2 4 -2 1 o 156.975 131.002 180.00 1.21103 0.88
6 0 -2 2 o 14.475 14.393 0.00 1.21217 0.01
4 4 0 2 o 78.946 78.939 180.00 1.21170 0.17
2 4 -2 2 o 134.534 131.002 180.00 1.21103 0.29
0 3 3 1 o 75.167 72.784 180.00 1.20796 0.45
5 3 1 1 o 63.325 54.602 180.00 1.20629 0.37
0 3 3 2 o 87.885 72.784 180.00 1.20796 0.20
1 3 -3 1 o 3.366 2.823 180.00 1.20498 0.02
5 3 1 2 o 82.186 54.602 180.00 1.20629 0.18
1 3 -3 2 o 5.548 2.823 180.00 1.20498 0.01
6 1 -2 1 o 66.085 57.300 0.00 1.18817 0.31
1 5 0 1 o 14.898 13.237 0.00 1.18752 0.08
4 3 2 1 o 73.183 70.642 180.00 1.18630 0.41
1 3 3 1 o 84.395 84.180 180.00 1.18552 0.49
6 1 -2 2 o 57.115 57.300 0.00 1.18817 0.10
2 4 2 1 o 28.026 28.266 0.00 1.18491 0.17
5 2 2 1 o 96.945 97.909 0.00 1.18472 0.51
1 5 0 2 o 13.081 13.237 0.00 1.18752 0.03
3 2 3 1 o 42.753 42.976 0.00 1.18361 0.24
4 3 2 2 o 70.602 70.642 180.00 1.18630 0.15
4 4 -1 1 o 0.220 0.219 180.00 1.18322 0.00
6 2 1 1 o 19.028 18.703 0.00 1.18270 0.10
1 3 3 2 o 85.817 84.180 180.00 1.18552 0.19
2 4 2 2 o 28.867 28.266 0.00 1.18491 0.07
5 2 2 2 o 99.233 97.909 0.00 1.18472 0.20
3 2 3 2 o 38.633 42.976 0.00 1.18361 0.08
4 0 3 1 o 34.907 40.293 0.00 1.18041 0.08
4 4 -1 2 o 0.191 0.219 180.00 1.18322 0.00
6 2 1 2 o 14.951 18.703 0.00 1.18270 0.03
4 0 3 2 o 38.658 40.293 0.00 1.18041 0.04
2 3 -3 1 o 101.594 107.241 180.00 1.17711 0.55
7 0 0 1 o 185.695 218.260 0.00 1.17444 0.43
2 3 -3 2 o 91.378 107.241 180.00 1.17711 0.19
7 0 0 2 o 90.400 218.260 0.00 1.17444 0.08
4 2 -3 1 o 39.738 24.862 0.00 1.16436 0.19
4 2 -3 2 o 31.539 24.862 0.00 1.16436 0.06
0 5 1 1 o 11.245 9.938 0.00 1.16036 0.06
4 4 1 1 o 143.612 129.808 0.00 1.15882 0.78
4 1 3 1 o 120.809 109.370 180.00 1.15822 0.60
0 5 1 2 o 10.816 9.938 0.00 1.16036 0.02
7 0 -1 1 o 2.535 2.346 180.00 1.15718 0.01
3 4 -2 1 o 2.827 2.587 0.00 1.15606 0.01
5 0 -3 1 o 111.005 99.713 180.00 1.15602 0.23
4 4 1 2 o 145.039 129.808 0.00 1.15882 0.30
4 1 3 2 o 125.657 109.370 180.00 1.15822 0.24
7 0 -1 2 o 2.672 2.346 180.00 1.15718 0.00
3 4 -2 2 o 2.836 2.587 0.00 1.15606 0.00
5 0 -3 2 o 111.315 99.713 180.00 1.15602 0.09
7 1 0 1 o 91.728 80.124 0.00 1.15257 0.41
2 5 0 1 o 88.234 76.016 0.00 1.15201 0.43
1 5 -1 1 o 210.021 182.248 180.00 1.15187 1.00
7 1 0 2 o 76.778 80.124 0.00 1.15257 0.13
2 5 0 2 o 74.614 76.016 0.00 1.15201 0.14
1 5 -1 2 o 180.309 182.248 180.00 1.15187 0.33
1 5 1 1 o 46.022 33.337 180.00 1.14610 0.21
1 5 1 2 o 72.822 33.337 180.00 1.14610 0.13
2 3 3 1 o 3.420 2.332 180.00 1.14161 0.02
2 3 3 2 o 2.876 2.332 180.00 1.14161 0.01
6 0 2 1 o 1.144 0.967 180.00 1.13832 0.00
1 0 -4 1 o 114.528 122.568 180.00 1.13697 0.27
0 0 4 1 o 101.157 110.484 180.00 1.13667 0.25
7 1 -1 1 o 9.580 10.673 180.00 1.13624 0.05
5 3 -2 1 o 1.826 1.944 0.00 1.13566 0.01
6 0 2 2 o 0.898 0.967 180.00 1.13832 0.00
5 1 -3 1 o 64.071 67.768 180.00 1.13515 0.27
1 0 -4 2 o 104.851 122.568 180.00 1.13697 0.09
0 0 4 2 o 87.069 110.484 180.00 1.13667 0.08
7 1 -1 2 o 6.715 10.673 180.00 1.13624 0.02
5 3 -2 2 o 1.198 1.944 0.00 1.13566 0.00
5 1 -3 2 o 38.863 67.768 180.00 1.13515 0.07
6 3 0 1 o 0.259 0.464 0.00 1.13038 0.00
3 3 -3 1 o 160.392 171.640 180.00 1.12917 0.78
6 3 0 2 o 0.574 0.464 0.00 1.13038 0.00
3 3 -3 2 o 216.838 171.640 180.00 1.12917 0.39
6 2 -2 1 o 15.214 8.329 180.00 1.12391 0.07
3 4 2 1 o 8.764 5.057 180.00 1.12238 0.04
2 5 -1 1 o 22.559 11.976 180.00 1.12205 0.11
6 2 -2 2 o 13.472 8.329 180.00 1.12391 0.02
3 4 2 2 o 4.804 5.057 180.00 1.12238 0.01
2 5 -1 2 o 11.517 11.976 180.00 1.12205 0.02
6 1 2 1 o 72.250 68.413 180.00 1.11838 0.32
7 0 1 1 o 21.036 19.912 180.00 1.11806 0.05
1 1 -4 1 o 19.265 20.978 180.00 1.11709 0.09
0 1 4 1 o 1.371 1.501 0.00 1.11681 0.01
2 0 -4 1 o 0.017 0.018 0.00 1.11610 0.00
6 1 2 2 o 70.850 68.413 180.00 1.11838 0.12
7 0 1 2 o 22.370 19.912 180.00 1.11806 0.02
1 0 4 1 o 1.171 1.023 180.00 1.11527 0.00
1 1 -4 2 o 25.526 20.978 180.00 1.11709 0.05
0 1 4 2 o 1.737 1.501 0.00 1.11681 0.00
2 0 -4 2 o 0.022 0.018 0.00 1.11610 0.00
6 3 -1 2 o 1.202 1.146 0.00 1.11235 0.00
1 0 4 2 o 1.164 1.023 180.00 1.11527 0.00
6 3 -1 1 o 1.308 1.146 0.00 1.11235 0.01
2 5 1 2 o 121.213 107.247 180.00 1.11147 0.22
5 4 0 1 o 0.085 0.065 0.00 1.10820 0.00
2 5 1 1 o 131.655 107.247 180.00 1.11147 0.63
5 4 0 2 o 0.116 0.065 0.00 1.10820 0.00
3 5 0 1 o 0.192 0.192 0.00 1.09931 0.00
7 1 1 1 o 2.864 2.864 0.00 1.09914 0.01
4 2 3 1 o 36.743 37.404 180.00 1.09845 0.17
2 1 -4 1 o 46.268 49.260 180.00 1.09728 0.21
3 5 0 2 o 0.171 0.192 0.00 1.09931 0.00
1 1 4 1 o 75.463 82.021 180.00 1.09649 0.37
7 1 1 2 o 2.626 2.864 0.00 1.09914 0.00
4 2 3 2 o 33.995 37.404 180.00 1.09845 0.06
2 1 -4 2 o 51.001 49.260 180.00 1.09728 0.09
1 1 4 2 o 97.658 82.021 180.00 1.09649 0.18
7 2 0 1 o 188.782 156.013 180.00 1.09363 0.84
7 2 0 2 o 157.345 156.013 180.00 1.09363 0.27
