#------------------------------------------------------------------------------
#$Date: 2016-02-18 17:37:37 +0200 (Thu, 18 Feb 2016) $
#$Revision: 176729 $
#$URL: svn://www.crystallography.net/cod/cif/1/50/16/1501693.cif $
#------------------------------------------------------------------------------
#
# This file is available in the Crystallography Open Database (COD),
# http://www.crystallography.net/
#
# All data on this site have been placed in the public domain by the
# contributors.
#
data_1501693
loop_
_publ_author_name
'Migliorati, Valentina'
'Ballirano, Paolo'
'Gontrani, Lorenzo'
'Triolo, Alessandro'
'Caminiti, Ruggero'
_publ_section_title
;
 Thermal and structural properties of ethylammonium chloride and its
 mixture with water.
;
_journal_issue                   17
_journal_name_full               'The journal of physical chemistry. B'
_journal_page_first              4887
_journal_page_last               4899
_journal_paper_doi               10.1021/jp2010138
_journal_volume                  115
_journal_year                    2011
_chemical_formula_sum            'C2 H8 Cl N'
_chemical_formula_weight         81.55
_chemical_name_systematic        ' ?'
_space_group_IT_number           11
_symmetry_cell_setting           monoclinic
_symmetry_space_group_name_Hall  '-P 2yb'
_symmetry_space_group_name_H-M   'P 1 21/m 1'
_audit_creation_date             2010-05-18T16:43
_audit_creation_method           'from EXP file using GSAS2CIF'
_audit_update_record
' 2010-05-18T16:43  Initial CIF as created by GSAS2CIF'
_cell_angle_alpha                90.0
_cell_angle_beta                 94.1741(14)
_cell_angle_gamma                90.0
_cell_formula_units_Z            2
_cell_length_a                   8.25578(14)
_cell_length_b                   6.00157(8)
_cell_length_c                   4.56351(7)
_cell_volume                     225.511(6)
_computing_structure_refinement  GSAS
_diffrn_radiation_probe          x-ray
_exptl_absorpt_correction_T_max  0.77480
_exptl_absorpt_correction_T_min  0.76997
_exptl_absorpt_process_details
;   GSAS Absorption/surface roughness correction: function number 0
 Debye-Scherrer absorption correction
Term (= MU.r/wave) =     0.10041    
Correction is not refined.
;
_pd_block_id
2010-05-18T16:43|70_OPT|paolo|Bruker_AXS_D8_Advance
_pd_calc_method                  'Rietveld Refinement'
_pd_instr_location               ' ?'
_pd_meas_2theta_range_inc        0.022
_pd_meas_2theta_range_max        89.994
_pd_meas_2theta_range_min        8.0
_pd_meas_number_of_points        3728
_pd_phase_name                   ethyl
_pd_proc_2theta_range_inc        0.022
_pd_proc_2theta_range_max        89.994
_pd_proc_2theta_range_min        8.0
_pd_proc_info_datetime           2010-05-18T16:43:21
_pd_proc_info_excluded_regions   ' ?'
_pd_proc_ls_background_function
;   GSAS Background function number 1 with 30 terms.
 Shifted Chebyshev function of 1st kind
      1:    482.989     2:   -418.257     3:    221.120     4:   -97.8577    
      5:    68.0676     6:   -68.3993     7:    86.0600     8:   -62.7898    
      9:    21.4908    10:    9.51561    11:   -9.33046    12:   -1.52979    
     13:    17.0951    14:   -21.5507    15:    19.1430    16:   -8.04753    
     17:    6.39285    18:   -8.51085    19:    12.4248    20:   -12.1511    
     21:    12.0595    22:   -7.51422    23:    7.55279    24:   -2.97759    
     25:    1.64990    26:    1.42311    27:    1.96192    28:   -1.12446    
     29:   -1.43072    30:    4.30161    
;
_pd_proc_ls_peak_cutoff          0.00100
_pd_proc_ls_profile_function
;
 CW Profile function number 3 with  19 terms
 Pseudovoigt profile coefficients as parameterized in
 P. Thompson, D.E. Cox & J.B. Hastings (1987). J. Appl. Cryst.,20,79-83.
 Asymmetry correction of L.W. Finger, D.E. Cox & A. P. Jephcoat (1994).
 J. Appl. Cryst.,27,892-900.
 Peak tails are ignored  where the intensity is below 0.0010 times the peak
   Aniso. broadening axis   0.0   1.0   0.0
;
_pd_proc_ls_prof_R_factor        0.0462
_pd_proc_ls_prof_wR_expected     0.0426
_pd_proc_ls_prof_wR_factor       0.0605
_pd_proc_number_of_points        3728
_pd_spec_mounting                ' ?'
_refine_ls_goodness_of_fit_all   1.43
_refine_ls_matrix_type           full
_refine_ls_number_parameters     63
_refine_ls_number_restraints     27
_refine_ls_R_Fsqd_factor         0.07069
_refine_ls_shift/su_max          0.07
_refine_ls_shift/su_mean         0.00
_reflns_d_resolution_high        1.090
_reflns_d_resolution_low         8.234
_reflns_limit_h_max              7
_reflns_limit_h_min              0
_reflns_limit_k_max              5
_reflns_limit_k_min              0
_reflns_limit_l_max              4
_reflns_limit_l_min              -4
_reflns_number_total             409
_cod_data_source_file            jp2010138_si_009.cif
_cod_data_source_block           70_OPT_publ
_cod_depositor_comments
;
The following automatic conversions were performed:

'_geom_bond_publ_flag' value 'N' changed to 'n' according to
/home/saulius/struct/CIF-dictionaries/cif_core.dic dictionary named
'cif_core.dic' version 2.4.1 from 2010-06-29 (47
times).

'_geom_angle_publ_flag' value 'N' changed to 'n' according
to /home/saulius/struct/CIF-dictionaries/cif_core.dic dictionary
named 'cif_core.dic' version 2.4.1 from 2010-06-29 (23 times).

Automatic conversion script
Id: cif_fix_values 1715 2011-07-08 13:25:40Z adriana 
;
_cod_original_sg_symbol_H-M      'p 21/m'
_cod_database_code               1501693
#BEGIN Tags that were not found in dictionaries:
_gsas_exptl_extinct_corr_t_min   1.00000
_gsas_exptl_extinct_corr_t_max   1.00000
#END Tags that were not found in dictionaries
loop_
_symmetry_equiv_pos_site_id
_symmetry_equiv_pos_as_xyz
1 +x,+y,+z
2 -x,+y+1/2,-z
-1 -x,-y,-z
-2 +x,-y+1/2,+z
loop_
_atom_site_type_symbol
_atom_site_label
_atom_site_fract_x
_atom_site_fract_y
_atom_site_fract_z
_atom_site_occupancy
_atom_site_thermal_displace_type
_atom_site_U_iso_or_equiv
_atom_site_symmetry_multiplicity
Cl Cl 0.15404(20) 0.75 0.3863(4) 1.0 Uiso 0.0342(4) 2
N N 0.12529(33) 0.25 0.1437(6) 1.0 Uiso 0.0410(12) 2
C C1 0.26584(31) 0.25 -0.0346(6) 1.0 Uiso 0.0410(12) 2
C C2 0.4215(4) 0.25 0.1716(7) 1.0 Uiso 0.0410(12) 2
H H1 0.0243(5) 0.25 0.0169(14) 1.0 Uiso 0.0615(18) 2
H H2 0.5159(5) 0.25 0.0535(12) 1.0 Uiso 0.0615(18) 2
H H3 0.1285(9) 0.1167(5) 0.2684(9) 1.0 Uiso 0.0615(18) 4
H H4 0.2648(8) 0.1159(5) -0.1570(9) 1.0 Uiso 0.0615(18) 4
H H5 0.4227(9) 0.1158(5) 0.2941(9) 1.0 Uiso 0.0615(18) 4
loop_
_atom_type_symbol
_atom_type_number_in_cell
_atom_type_scat_dispersion_real
_atom_type_scat_dispersion_imag
_atom_type_scat_Cromer_Mann_a1
_atom_type_scat_Cromer_Mann_a2
_atom_type_scat_Cromer_Mann_a3
_atom_type_scat_Cromer_Mann_a4
_atom_type_scat_Cromer_Mann_b1
_atom_type_scat_Cromer_Mann_b2
_atom_type_scat_Cromer_Mann_b3
_atom_type_scat_Cromer_Mann_b4
_atom_type_scat_Cromer_Mann_c
_atom_type_scat_source
Cl 2.0 0.000 0.000 11.4604 0.01040 7.19640 1.16620 6.25560 18.5194 1.64550
47.7784 -9.5574 International_Tables_Vol_C
N 2.0 0.000 0.000 12.2126 0.00570 3.13220 9.89330 2.01250 28.9975 1.16630
0.58260 -11.529 International_Tables_Vol_C
C 4.0 0.000 0.000 2.31000 20.8439 1.02000 10.2075 1.58860 0.56870 0.86500
51.6512 0.21560 International_Tables_Vol_C
H 16.0 0.000 0.000 0.49300 10.5109 0.32291 26.1257 0.14019 3.14236 0.04081
57.7997 0.00304 International_Tables_Vol_C
loop_
_diffrn_radiation_wavelength
_diffrn_radiation_wavelength_wt
_diffrn_radiation_type
_diffrn_radiation_wavelength_id
1.540598 1.000 K\a~1~ 1
1.544390 0.380 K\a~2~ 2
loop_
_geom_angle_atom_site_label_1
_geom_angle_atom_site_label_2
_geom_angle_atom_site_label_3
_geom_angle
_geom_angle_site_symmetry_1
_geom_angle_site_symmetry_3
_geom_angle_publ_flag
H1 Cl H3 76.39(14) 2_555 1_565 n
H1 Cl H3 76.39(14) 2_555 -2_565 n
H3 Cl H3 151.29(24) 1_565 -2_565 n
C1 N H1 110.3(4) 1_555 1_555 n
C1 N H3 109.5(4) 1_555 1_555 n
C1 N H3 109.5(4) 1_555 -2_565 n
H1 N H3 109.2(5) 1_555 1_555 n
H1 N H3 109.2(5) 1_555 -2_565 n
H3 N H3 109.2(5) 1_555 -2_565 n
N C1 C2 108.72(24) 1_555 1_555 n
N C1 H4 110.0(4) 1_555 1_555 n
N C1 H4 110.0(4) 1_555 -2_565 n
C2 C1 H4 108.8(4) 1_555 1_555 n
C2 C1 H4 108.8(4) 1_555 -2_565 n
H4 C1 H4 110.5(5) 1_555 -2_565 n
C1 C2 H2 109.1(4) 1_555 1_555 n
C1 C2 H5 108.8(4) 1_555 1_555 n
C1 C2 H5 108.8(4) 1_555 -2_565 n
H2 C2 H5 109.8(5) 1_555 1_555 n
H2 C2 H5 109.8(5) 1_555 -2_565 n
H5 C2 H5 110.5(5) 1_555 -2_565 n
Cl H1 N 162.2(5) 2_545 1_555 n
Cl H3 N 157.7(4) 1_545 1_555 n
loop_
_geom_bond_atom_site_label_1
_geom_bond_atom_site_label_2
_geom_bond_distance
_geom_bond_site_symmetry_2
_geom_bond_publ_flag
Cl H1 2.271(6) 2_555 n
Cl H3 2.2720(30) 1_565 n
Cl H3 2.2720(30) -2_555 n
N C1 1.465(4) 1_555 n
N H1 0.979(6) 1_555 n
N H3 0.981(4) 1_555 n
N H3 0.981(4) -2_555 n
N H4 2.021(6) 1_555 n
N H4 2.021(6) -2_555 n
C1 N 1.465(4) 1_555 n
C1 C2 1.536(4) 1_555 n
C1 H1 2.025(5) 1_555 n
C1 H2 2.075(5) 1_555 n
C1 H3 2.016(6) 1_555 n
C1 H3 2.016(6) -2_555 n
C1 H4 0.979(4) 1_555 n
C1 H4 0.979(4) -2_555 n
C1 H5 2.072(6) 1_555 n
C1 H5 2.072(6) -2_555 n
C2 C1 1.536(4) 1_555 n
C2 H2 0.979(6) 1_555 n
C2 H4 2.071(6) 1_555 n
C2 H4 2.071(6) -2_555 n
C2 H5 0.980(4) 1_555 n
C2 H5 0.980(4) -2_555 n
H1 Cl 2.271(6) 2_545 n
H1 N 0.979(6) 1_555 n
H1 C1 2.025(5) 1_555 n
H1 H3 1.598(7) 1_555 n
H1 H3 1.598(7) -2_555 n
H2 C1 2.075(5) 1_555 n
H2 C2 0.979(6) 1_555 n
H2 H5 1.603(7) 1_555 n
H2 H5 1.603(7) -2_555 n
H3 Cl 2.2720(30) 1_545 n
H3 N 0.981(4) 1_555 n
H3 C1 2.016(6) 1_555 n
H3 H1 1.598(7) 1_555 n
H3 H3 1.599(6) -2_555 n
H4 N 2.021(6) 1_555 n
H4 C1 0.979(4) 1_555 n
H4 C2 2.071(6) 1_555 n
H4 H4 1.609(6) -2_555 n
H5 C1 2.072(6) 1_555 n
H5 C2 0.980(4) 1_555 n
H5 H2 1.603(7) 1_555 n
H5 H5 1.611(6) -2_555 n
loop_
_pd_meas_counts_total
_pd_proc_ls_weight
_pd_proc_intensity_bkg_calc
_pd_calc_intensity_total
1638.0 0.000611 1642.71545 1642.71436
1590.0 0.000629 1618.48462 1618.48328
1556.0 0.000643 1595.18372 1595.18262
1584.0 0.000631 1572.79468 1572.79297
1543.0 0.000648 1551.29138 1551.29016
1515.0 0.000660 1530.65259 1530.65149
1443.0 0.000693 1510.85535 1510.85449
1504.0 0.000665 1491.87817 1491.87695
1515.0 0.000660 1473.69824 1473.69714
1434.0 0.000697 1456.29297 1456.29236
1425.0 0.000702 1439.63867 1439.63806
1466.0 0.000682 1423.71533 1423.71436
1370.0 0.000730 1408.49927 1408.49841
1378.0 0.000726 1393.96924 1393.96863
1470.0 0.000680 1380.10254 1380.10156
1426.0 0.000701 1366.87878 1366.87744
1383.0 0.000723 1354.27576 1354.27515
1305.0 0.000766 1342.27148 1342.27087
1413.0 0.000708 1330.84741 1330.84668
1338.0 0.000747 1319.98132 1319.98108
1308.0 0.000765 1309.65417 1309.65344
1311.0 0.000763 1299.84387 1299.84363
1338.0 0.000747 1290.53271 1290.53235
1349.0 0.000741 1281.70068 1281.70007
1268.0 0.000789 1273.32922 1273.32849
1252.0 0.000799 1265.39832 1265.39783
1287.0 0.000777 1257.89209 1257.89124
1253.0 0.000798 1250.79016 1250.78931
1213.0 0.000824 1244.07629 1244.07556
1239.0 0.000807 1237.73340 1237.73303
1179.0 0.000848 1231.74438 1231.74377
1232.0 0.000812 1226.09277 1226.09216
1234.0 0.000810 1220.76318 1220.76245
1193.0 0.000838 1215.73877 1215.73828
1216.0 0.000822 1211.00647 1211.00574
1173.0 0.000853 1206.54822 1206.54785
1206.0 0.000829 1202.35278 1202.35217
1225.0 0.000816 1198.40417 1198.40369
1175.0 0.000851 1194.68994 1194.68970
1190.0 0.000840 1191.19568 1191.19531
1259.0 0.000794 1187.90906 1187.90881
1159.0 0.000863 1184.81836 1184.81787
1135.0 0.000881 1181.91016 1181.90967
1156.0 0.000865 1179.17310 1179.17273
1136.0 0.000880 1176.59668 1176.59644
1173.0 0.000853 1174.16992 1174.16895
1193.0 0.000838 1171.88049 1171.87988
1152.0 0.000868 1169.71985 1169.71924
1241.0 0.000806 1167.67786 1167.67725
1212.0 0.000825 1165.74463 1165.74390
1116.0 0.000896 1163.91138 1163.91101
1133.0 0.000883 1162.16895 1162.16797
1189.0 0.000841 1160.50916 1160.50830
1206.0 0.000829 1158.92371 1158.92310
1183.0 0.000845 1157.40479 1157.40442
1133.0 0.000883 1155.94519 1155.94470
1141.0 0.000876 1154.53809 1154.53748
1123.0 0.000890 1153.17554 1153.17480
1169.0 0.000855 1151.85205 1151.85144
1164.0 0.000859 1150.56079 1150.56018
1074.0 0.000931 1149.29626 1149.29541
1103.0 0.000907 1148.05237 1148.05164
1173.0 0.000853 1146.82385 1146.82336
1096.0 0.000912 1145.60608 1145.60522
1113.0 0.000898 1144.39368 1144.39294
1095.0 0.000913 1143.18237 1143.18188
1113.0 0.000898 1141.96765 1141.96692
1105.0 0.000905 1140.74609 1140.74500
1127.0 0.000887 1139.51282 1139.51221
1085.0 0.000922 1138.26477 1138.26404
1118.0 0.000894 1136.99866 1136.99792
1173.0 0.000853 1135.71167 1135.71094
1106.0 0.000904 1134.40015 1134.39929
1092.0 0.000916 1133.06189 1133.06116
1136.0 0.000880 1131.69421 1131.69385
1141.0 0.000876 1130.29541 1130.29468
1070.0 0.000935 1128.86145 1128.86096
1110.0 0.000901 1127.39294 1127.39172
1146.0 0.000873 1125.88635 1125.88550
1100.0 0.000909 1124.34082 1124.34009
1163.0 0.000860 1122.75427 1122.75366
1125.0 0.000889 1121.12646 1121.12610
1126.0 0.000888 1119.45581 1119.45483
1127.0 0.000887 1117.74109 1117.74011
1086.0 0.000921 1115.98181 1115.98047
1150.0 0.000870 1114.17688 1114.17603
1164.0 0.000859 1112.32642 1112.32520
1108.0 0.000903 1110.42859 1110.42786
1078.0 0.000928 1108.48462 1108.48401
1088.0 0.000919 1106.49365 1106.49304
1126.0 0.000888 1104.45630 1104.45532
1202.0 0.000832 1102.37134 1102.37024
1095.0 0.000913 1100.23889 1100.23828
1168.0 0.000856 1098.06091 1100.64636
1046.0 0.000956 1095.83655 1099.56580
1116.0 0.000896 1093.56580 1097.55676
1036.0 0.000965 1091.24988 1095.53088
1017.0 0.000983 1088.88855 1093.49329
1081.0 0.000925 1086.48279 1091.44958
1044.0 0.000958 1084.03381 1089.40723
1058.0 0.000945 1081.54163 1087.37451
1129.0 0.000886 1079.00745 1085.36243
1105.0 0.000905 1076.43176 1083.38232
1131.0 0.000884 1073.81616 1081.45251
1114.0 0.000898 1071.16125 1079.59180
1148.0 0.000871 1068.46741 1077.82568
1036.0 0.000965 1065.73669 1076.18896
1106.0 0.000904 1062.96948 1074.72522
1119.0 0.000894 1060.16724 1073.49854
1171.0 0.000854 1057.33105 1072.61499
1165.0 0.000858 1054.46252 1072.32617
1213.0 0.000824 1051.56165 1073.39429
1285.0 0.000778 1048.63086 1078.06519
1281.0 0.000781 1045.67090 1091.75159
1196.0 0.000836 1042.68335 1124.49646
1253.0 0.000798 1039.66931 1190.18152
1324.0 0.000755 1036.63025 1302.61658
1495.0 0.000669 1033.56677 1471.65857
1763.0 0.000567 1030.48096 1704.55945
1994.0 0.000502 1027.37341 2013.90625
2403.0 0.000416 1024.24658 2430.26685
3032.0 0.0003298 1021.10101 3014.54419
3927.0 0.0002546 1017.93805 3847.26563
4772.0 0.0002096 1014.75861 4944.33740
5425.0 0.0001843 1011.56531 6096.63770
6230.0 0.0001605 1008.35858 6805.95605
7107.0 0.0001407 1005.13971 6558.23779
6195.0 0.0001614 1001.90991 5340.57471
4390.0 0.0002278 998.67108 3738.30103
2570.0 0.000389 995.42371 2401.08911
1624.0 0.000616 992.16992 1594.66931
1113.0 0.000898 988.91010 1223.53259
1080.0 0.000926 985.64624 1085.76086
1051.0 0.000951 982.37854 1038.88562
993.0 0.001007 979.10931 1019.70514
962.0 0.001040 975.83917 1008.18835
984.0 0.001016 972.56970 999.31305
944.0 0.001059 969.30164 991.82751
915.0 0.001093 966.03552 985.27417
939.0 0.001065 962.77393 979.39685
1021.0 0.000979 959.51697 974.02478
906.0 0.001104 956.26563 969.03876
919.0 0.001088 953.02118 964.35358
888.0 0.001126 949.78461 959.90753
892.0 0.001121 946.55701 955.65485
914.0 0.001094 943.33948 951.56049
907.0 0.001103 940.13239 947.59808
886.0 0.001129 936.93701 943.74677
923.0 0.001083 933.75391 939.99084
899.0 0.001112 930.58423 932.27704
948.0 0.001055 927.42932 928.98651
877.0 0.001140 924.28925 924.28851
932.0 0.001073 921.16443 921.16370
903.0 0.001107 918.05627 918.05566
881.0 0.001135 914.96545 914.96466
886.0 0.001129 911.89264 911.89191
890.0 0.001124 908.83844 908.83759
934.0 0.001071 905.80292 905.80231
918.0 0.001089 902.78778 902.78693
857.0 0.001167 899.79266 899.79211
823.0 0.001215 896.81848 896.81781
888.0 0.001126 893.86615 893.86554
886.0 0.001129 890.93555 890.93469
926.0 0.001080 888.02704 888.02625
852.0 0.001174 885.14172 885.14105
864.0 0.001157 882.27997 882.27917
851.0 0.001175 879.44141 879.44098
877.0 0.001140 876.62732 876.62659
882.0 0.001134 873.83740 873.83679
872.0 0.001147 871.07227 871.07178
826.0 0.001211 868.33228 868.33185
846.0 0.001182 865.61786 865.61725
846.0 0.001182 862.92841 862.92780
858.0 0.001166 860.26489 860.26434
890.0 0.001124 857.62762 857.62683
889.0 0.001125 855.01599 855.01550
856.0 0.001168 852.43115 852.43048
830.0 0.001205 849.87280 849.87201
865.0 0.001156 847.34045 847.33978
873.0 0.001145 844.83521 844.83466
830.0 0.001205 842.35687 842.35626
817.0 0.001224 839.90515 839.90448
867.0 0.001153 837.47998 837.47955
830.0 0.001205 835.08191 835.08124
805.0 0.001242 832.71069 832.71021
836.0 0.001196 830.36652 830.36591
829.0 0.001206 828.04901 828.04822
837.0 0.001195 825.75781 825.75714
823.0 0.001215 823.49377 823.49292
834.0 0.001199 821.25616 821.25543
815.0 0.001227 819.04492 819.04443
790.0 0.001266 816.86023 816.85962
781.0 0.001280 814.70184 814.70129
781.0 0.001280 812.56921 812.56860
830.0 0.001205 810.46283 810.46222
810.0 0.001235 808.38226 808.38153
799.0 0.001252 806.32715 806.32672
807.0 0.001239 804.29730 804.29688
811.0 0.001233 802.29303 802.29236
799.0 0.001252 800.31342 800.31274
839.0 0.001192 798.35864 798.35809
811.0 0.001233 796.42834 796.42786
749.0 0.001335 794.52246 794.52179
810.0 0.001235 792.64056 792.63983
811.0 0.001233 790.78217 790.78156
805.0 0.001242 788.94757 788.94708
768.0 0.001302 787.13605 787.13544
825.0 0.001212 785.34766 785.34686
771.0 0.001297 783.58136 783.58087
798.0 0.001253 781.83783 781.83746
774.0 0.001292 780.11633 780.11578
794.0 0.001259 778.41656 778.41595
744.0 0.001344 776.73779 776.73724
799.0 0.001252 775.08051 775.07990
766.0 0.001305 773.44391 773.44330
802.0 0.001247 771.82770 771.82697
802.0 0.001247 770.23151 770.23096
769.0 0.001300 768.65527 768.65479
776.0 0.001289 767.09827 767.09766
780.0 0.001282 765.56055 765.55981
809.0 0.001236 764.04138 764.04065
781.0 0.001280 762.54071 762.54016
744.0 0.001344 761.05811 761.05731
754.0 0.001326 759.59308 759.59265
838.0 0.001193 758.14569 758.14514
737.0 0.001357 756.71533 756.71472
757.0 0.001321 755.30157 755.30096
741.0 0.001350 753.90411 753.90344
728.0 0.001374 752.52252 752.52191
735.0 0.001361 751.15692 751.15619
795.0 0.001258 749.80646 749.80566
752.0 0.001330 748.47107 748.47040
777.0 0.001287 747.15027 747.14960
743.0 0.001346 745.84344 745.84290
763.0 0.001311 744.55090 744.55035
787.0 0.001271 743.27209 743.27142
750.0 0.001333 742.00629 742.00549
739.0 0.001353 740.75354 740.75293
802.0 0.001247 739.51337 739.51263
755.0 0.001325 738.28595 738.28528
756.0 0.001323 737.07013 737.06958
734.0 0.001362 735.86603 735.86554
692.0 0.001445 734.67371 734.67285
716.0 0.001397 733.49213 733.49139
745.0 0.001342 732.32141 732.32068
746.0 0.001340 731.16101 731.16046
757.0 0.001321 730.01093 730.01044
754.0 0.001326 728.87091 728.87036
743.0 0.001346 727.74036 727.73956
739.0 0.001353 726.61920 726.61865
748.0 0.001337 725.50745 725.50677
772.0 0.001295 724.40405 724.40350
652.0 0.001534 723.30920 723.30841
747.0 0.001339 722.22278 722.22217
694.0 0.001441 721.14441 721.14368
731.0 0.001368 720.07391 720.07312
693.0 0.001443 719.01056 719.01007
719.0 0.001391 717.95483 717.95441
699.0 0.001431 716.90613 716.90570
711.0 0.001406 715.86456 715.86389
756.0 0.001323 714.82910 714.82855
672.0 0.001488 713.80035 713.79987
760.0 0.001316 712.77777 712.77716
679.0 0.001473 711.76117 711.76062
694.0 0.001441 710.75049 710.74982
698.0 0.001433 709.74530 709.74463
702.0 0.001425 708.74554 708.74493
719.0 0.001391 707.75092 707.75031
742.0 0.001348 706.76184 706.76111
697.0 0.001435 705.77734 705.77686
742.0 0.001348 704.79755 704.79700
704.0 0.001420 703.82245 703.82196
734.0 0.001362 702.85187 702.85132
715.0 0.001399 701.88556 701.88501
709.0 0.001410 700.92334 700.92279
717.0 0.001395 699.96527 699.96472
733.0 0.001364 699.01093 699.01038
672.0 0.001488 698.06061 698.06012
698.0 0.001433 697.11365 697.11298
681.0 0.001468 696.17053 696.16998
691.0 0.001447 695.23077 695.23029
715.0 0.001399 694.29431 694.29388
688.0 0.001453 693.36133 693.36072
655.0 0.001527 692.43146 692.43079
706.0 0.001416 691.50452 691.50415
703.0 0.001422 690.58075 690.58014
746.0 0.001340 689.65997 689.65918
660.0 0.001515 688.74176 688.74121
676.0 0.001479 687.82654 687.82593
691.0 0.001447 686.91425 686.91364
678.0 0.001475 686.00427 686.00385
669.0 0.001495 685.09723 685.09680
683.0 0.001464 684.19287 684.19226
665.0 0.001504 683.29102 683.29053
694.0 0.001441 682.39172 682.39111
660.0 0.001515 681.49481 681.49432
689.0 0.001451 680.60052 680.60016
643.0 0.001555 679.70862 679.70807
637.0 0.001570 678.81921 678.81860
692.0 0.001445 677.93225 677.93170
685.0 0.001460 677.04761 677.04718
664.0 0.001506 676.16553 676.16504
686.0 0.001458 675.28601 675.28534
649.0 0.001541 674.40851 674.40778
629.0 0.001590 673.53369 673.53296
637.0 0.001570 672.66132 672.66071
665.0 0.001504 671.79120 671.79077
697.0 0.001435 670.92383 670.92316
659.0 0.001517 670.05884 670.05829
690.0 0.001449 669.19623 669.19592
644.0 0.001553 668.33624 668.33594
673.0 0.001486 667.47919 667.47870
683.0 0.001464 666.62427 666.62384
666.0 0.001502 665.77222 665.77173
662.0 0.001511 664.92261 664.92218
680.0 0.001471 664.07599 664.07526
687.0 0.001456 663.23218 663.23163
607.0 0.001647 662.39093 662.39038
663.0 0.001508 661.55237 661.55200
628.0 0.001592 660.71680 660.71649
625.0 0.001600 659.88458 659.88397
684.0 0.001462 659.05518 659.05475
628.0 0.001592 658.22864 658.22815
660.0 0.001515 657.40521 657.40485
645.0 0.001550 656.58521 656.58484
638.0 0.001567 655.76837 655.76788
618.0 0.001618 654.95453 654.95416
624.0 0.001603 654.14447 654.14380
685.0 0.001460 653.33746 653.33691
655.0 0.001527 652.53412 652.53363
679.0 0.001473 651.73444 651.73389
677.0 0.001477 650.93829 650.93774
665.0 0.001504 650.14581 650.14532
643.0 0.001555 649.35687 649.35638
652.0 0.001534 648.57178 648.57153
632.0 0.001582 647.79095 647.79059
639.0 0.001565 647.01373 647.01337
629.0 0.001590 646.24072 646.24042
640.0 0.001563 645.47192 645.47150
646.0 0.001548 644.70721 644.70667
678.0 0.001475 643.94659 643.94611
658.0 0.001520 643.19043 643.18988
656.0 0.001524 642.43860 642.43823
612.0 0.001634 641.69135 641.69086
661.0 0.001513 640.94861 640.94812
627.0 0.001595 640.21057 640.21021
685.0 0.001460 639.47717 639.47687
628.0 0.001592 638.74866 638.74799
571.0 0.001751 638.02466 638.02423
668.0 0.001497 637.30585 637.30554
626.0 0.001597 636.59198 636.59149
631.0 0.001585 635.88312 635.88245
627.0 0.001595 635.17914 635.17871
623.0 0.001605 634.48077 634.48041
613.0 0.001631 633.78741 633.78717
674.0 0.001484 633.09961 633.09924
608.0 0.001645 632.41699 632.41681
598.0 0.001672 631.74017 631.73969
635.0 0.001575 631.06842 631.06805
631.0 0.001585 630.40265 630.40234
633.0 0.001580 629.74243 629.74213
701.0 0.001427 629.08795 629.08765
639.0 0.001565 628.43939 628.43890
618.0 0.001618 627.79669 627.79633
601.0 0.001664 627.15973 627.15930
612.0 0.001634 626.52899 626.52850
663.0 0.001508 625.90424 625.90387
663.0 0.001508 625.28503 625.28510
647.0 0.001546 624.67261 624.67224
655.0 0.001527 624.06641 624.06604
616.0 0.001623 623.46631 623.46613
638.0 0.001567 622.87268 622.87225
605.0 0.001653 622.28516 622.28479
655.0 0.001527 621.70453 621.70398
659.0 0.001517 621.12988 621.12946
614.0 0.001629 620.56201 620.56140
608.0 0.001645 620.00061 620.00018
623.0 0.001605 619.44568 619.44550
611.0 0.001637 618.89752 618.89740
633.0 0.001580 618.35620 618.35614
628.0 0.001592 617.82159 617.82147
603.0 0.001658 617.29407 617.29364
577.0 0.001733 616.77301 616.77264
576.0 0.001736 616.25873 616.25836
619.0 0.001616 615.75159 615.75122
581.0 0.001721 615.25140 615.25079
581.0 0.001721 614.75763 614.75732
640.0 0.001563 614.27136 614.27106
651.0 0.001536 613.79211 613.79175
609.0 0.001642 613.31970 613.31927
595.0 0.001681 612.85449 612.85419
599.0 0.001669 612.39624 612.39600
602.0 0.001661 611.94543 611.94507
587.0 0.001704 611.50159 611.50122
616.0 0.001623 611.06494 611.06451
582.0 0.001718 610.63519 610.63501
586.0 0.001706 610.21295 610.21271
602.0 0.001661 609.79797 609.79761
636.0 0.001572 609.39001 609.38971
620.0 0.001613 608.98944 608.98895
592.0 0.001689 608.59595 608.59570
648.0 0.001543 608.20990 608.20972
648.0 0.001543 607.83087 607.83051
621.0 0.001610 607.45941 607.45917
632.0 0.001582 607.09515 607.09473
627.0 0.001595 606.73828 606.73785
558.0 0.001792 606.38849 606.38824
596.0 0.001678 606.04608 606.04578
663.0 0.001508 605.71082 605.71051
613.0 0.001631 605.38318 605.38281
610.0 0.001639 605.06268 605.06226
589.0 0.001698 604.74939 604.74902
609.0 0.001642 604.44330 604.44324
612.0 0.001634 604.14471 604.14441
636.0 0.001572 603.85303 603.85284
683.0 0.001464 603.56915 603.56885
574.0 0.001742 603.29205 603.29187
592.0 0.001689 603.02264 603.02197
564.0 0.001773 602.75995 602.75970
629.0 0.001590 602.50470 602.50439
592.0 0.001689 602.25659 602.25629
591.0 0.001692 602.01593 602.01544
603.0 0.001658 601.78198 601.78174
620.0 0.001613 601.55536 601.55505
636.0 0.001572 601.33594 601.33557
670.0 0.001493 601.12354 601.12311
648.0 0.001543 600.91827 600.91809
604.0 0.001656 600.72021 600.71979
627.0 0.001595 600.52887 600.52856
589.0 0.001698 600.34467 600.34436
578.0 0.001730 600.16791 600.16736
631.0 0.001585 599.99738 599.99707
638.0 0.001567 599.83411 599.83368
583.0 0.001715 599.67767 599.67761
615.0 0.001626 599.52814 599.52789
570.0 0.001754 599.38568 599.38519
631.0 0.001585 599.24976 599.36646
606.0 0.001650 599.12079 599.24524
595.0 0.001681 598.99841 599.17566
580.0 0.001724 598.88312 599.07239
559.0 0.001789 598.77423 598.97736
597.0 0.001675 598.67206 598.89063
649.0 0.001541 598.57642 598.81207
575.0 0.001739 598.48743 598.74213
588.0 0.001701 598.40515 598.68152
616.0 0.001623 598.32928 598.63007
620.0 0.001613 598.25995 598.58844
659.0 0.001517 598.19702 598.55762
607.0 0.001647 598.14056 598.53772
610.0 0.001639 598.09033 598.53015
597.0 0.001675 598.04681 598.53644
617.0 0.001621 598.00928 598.55804
617.0 0.001621 597.97815 598.59711
628.0 0.001592 597.95325 598.65710
590.0 0.001695 597.93445 598.74188
616.0 0.001623 597.92200 598.85840
613.0 0.001631 597.91528 599.01672
598.0 0.001672 597.91504 599.24213
610.0 0.001639 597.92065 599.60052
610.0 0.001639 597.93243 600.27039
572.0 0.001748 597.94995 601.67487
630.0 0.001587 597.97333 604.66791
597.0 0.001675 598.00275 610.71875
576.0 0.001736 598.03802 621.99487
618.0 0.001618 598.07904 641.07764
612.0 0.001634 598.12573 669.68433
704.0 0.001420 598.17822 705.87988
698.0 0.001433 598.23657 741.28290
679.0 0.001473 598.30005 762.25085
661.0 0.001513 598.36945 757.85602
703.0 0.001422 598.44440 730.09955
640.0 0.001563 598.52484 691.49939
633.0 0.001580 598.61072 655.09808
611.0 0.001637 598.70190 628.70844
604.0 0.001656 598.79858 613.25348
631.0 0.001585 598.90070 605.73822
589.0 0.001698 599.00800 602.61670
617.0 0.001621 599.12073 601.43475
620.0 0.001613 599.23853 600.97223
603.0 0.001658 599.36176 600.76270
626.0 0.001597 599.48969 600.65924
619.0 0.001616 599.62311 600.61572
590.0 0.001695 599.76123 600.61505
589.0 0.001698 599.90466 600.64679
600.0 0.001667 600.05322 600.70367
583.0 0.001715 600.20648 600.78168
620.0 0.001613 600.36469 600.87677
598.0 0.001672 600.52795 600.98688
613.0 0.001631 600.69598 601.10950
621.0 0.001610 600.86859 601.24347
599.0 0.001669 601.04614 601.38708
584.0 0.001712 601.22839 601.57458
648.0 0.001543 601.41522 601.73804
598.0 0.001672 601.60669 601.92218
606.0 0.001650 601.80298 602.10205
602.0 0.001661 602.00385 602.28888
607.0 0.001647 602.20898 602.48236
598.0 0.001672 602.41876 602.68304
592.0 0.001689 602.63306 602.89001
587.0 0.001704 602.85175 603.10327
599.0 0.001669 603.07483 603.21100
588.0 0.001701 603.30219 603.44354
588.0 0.001701 603.53400 603.63922
620.0 0.001613 603.77008 603.88611
605.0 0.001653 604.01074 604.13892
616.0 0.001623 604.25500 604.39783
592.0 0.001689 604.50391 604.66364
598.0 0.001672 604.75702 604.93695
586.0 0.001706 605.01385 605.21863
587.0 0.001704 605.27502 605.50946
605.0 0.001653 605.54028 605.81140
607.0 0.001647 605.80951 606.12762
625.0 0.001600 606.08282 606.46375
603.0 0.001658 606.36017 606.83429
632.0 0.001582 606.64124 607.27979
561.0 0.001783 606.92651 607.90283
612.0 0.001634 607.21552 608.92322
628.0 0.001592 607.50830 610.74615
640.0 0.001563 607.80511 614.00116
612.0 0.001634 608.10553 619.45190
648.0 0.001543 608.40967 627.59937
685.0 0.001460 608.71777 637.90027
657.0 0.001522 609.02936 648.04742
680.0 0.001471 609.34460 654.33649
727.0 0.001376 609.66388 653.80573
682.0 0.001466 609.98669 646.94727
615.0 0.001626 610.31287 637.01086
623.0 0.001605 610.64264 627.36523
610.0 0.001639 610.97620 620.17914
603.0 0.001658 611.31311 615.89954
630.0 0.001587 611.65338 613.86414
604.0 0.001656 611.99744 613.15234
658.0 0.001520 612.34473 613.06512
614.0 0.001629 612.69531 613.22412
626.0 0.001597 613.04962 613.47327
628.0 0.001592 613.40723 613.75946
630.0 0.001587 613.76794 614.06647
570.0 0.001754 614.13220 614.38855
621.0 0.001610 614.49957 614.72223
613.0 0.001631 614.87036 615.06531
614.0 0.001629 615.24438 615.41669
611.0 0.001637 615.62146 615.77448
583.0 0.001715 616.00195 616.13892
564.0 0.001773 616.38538 616.50897
601.0 0.001664 616.77222 616.88409
600.0 0.001667 617.16193 617.26367
586.0 0.001706 617.55493 617.64771
581.0 0.001721 617.95087 618.03601
559.0 0.001789 618.34985 618.42816
617.0 0.001621 618.75214 618.82440
635.0 0.001575 619.15698 619.22394
601.0 0.001664 619.56519 619.62726
626.0 0.001597 619.97620 620.03394
624.0 0.001603 620.39014 620.44391
590.0 0.001695 620.80688 620.85754
567.0 0.001764 621.22656 621.24060
600.0 0.001667 621.64905 621.66241
568.0 0.001761 622.07434 622.08679
576.0 0.001736 622.50269 622.50244
636.0 0.001572 622.93365 622.93323
653.0 0.001531 623.36749 623.36700
594.0 0.001684 623.80389 623.80353
590.0 0.001695 624.24304 624.24261
670.0 0.001493 624.68506 624.68469
586.0 0.001706 625.12952 625.12909
603.0 0.001658 625.57666 625.57611
591.0 0.001692 626.02637 626.02594
610.0 0.001639 626.47882 626.47839
630.0 0.001587 626.93353 626.93304
651.0 0.001536 627.39124 627.39081
662.0 0.001511 627.85101 627.85052
617.0 0.001621 628.31335 628.31299
581.0 0.001721 628.77820 628.77783
600.0 0.001667 629.24548 629.24518
660.0 0.001515 629.71497 629.71472
612.0 0.001634 630.18732 630.18677
628.0 0.001592 630.66180 631.09119
640.0 0.001563 631.13837 632.01025
653.0 0.001531 631.61737 632.53345
617.0 0.001621 632.09845 633.22980
657.0 0.001522 632.58191 633.93701
686.0 0.001458 633.06775 634.49585
732.0 0.001366 633.55542 635.06281
674.0 0.001484 634.04535 635.63879
690.0 0.001449 634.53754 636.22461
647.0 0.001546 635.03143 636.82068
697.0 0.001435 635.52783 637.42853
721.0 0.001387 636.02588 638.04901
688.0 0.001453 636.52625 638.68372
694.0 0.001441 637.02844 639.33459
710.0 0.001408 637.53247 640.00299
660.0 0.001515 638.03827 640.69153
715.0 0.001399 638.54584 641.40289
696.0 0.001437 639.05560 642.14069
671.0 0.001490 639.56689 642.90863
618.0 0.001618 640.08008 643.71173
686.0 0.001458 640.59509 644.55597
620.0 0.001613 641.11115 645.44873
644.0 0.001553 641.62952 646.39978
676.0 0.001479 642.14929 647.42084
638.0 0.001567 642.67035 648.52661
609.0 0.001642 643.19330 649.73712
666.0 0.001502 643.71735 651.07770
674.0 0.001484 644.24323 652.58331
638.0 0.001567 644.77051 654.30023
681.0 0.001468 645.29913 656.29492
625.0 0.001600 645.82867 658.67145
645.0 0.001550 646.35999 661.62555
677.0 0.001477 646.89240 665.63037
689.0 0.001451 647.42609 671.94482
696.0 0.001437 647.96063 683.79565
745.0 0.001342 648.49664 708.54272
859.0 0.001164 649.03357 760.53632
855.0 0.001170 649.57147 862.98511
1074.0 0.000931 650.11060 1044.01025
1252.0 0.000799 650.65021 1321.10608
1686.0 0.000593 651.19122 1675.02856
2033.0 0.000492 651.73285 2028.95203
2254.0 0.000444 652.27545 2263.26367
2318.0 0.000431 652.81866 2281.37256
2333.0 0.000429 653.36249 2082.23389
1929.0 0.000518 653.90710 1752.79407
1445.0 0.000692 654.45215 1401.14490
1130.0 0.000885 654.99811 1106.16418
862.0 0.001160 655.54431 901.90741
731.0 0.001368 656.09100 782.21198
674.0 0.001484 656.63824 721.70428
648.0 0.001543 657.18549 694.56555
681.0 0.001468 657.73352 682.95734
674.0 0.001484 658.28162 677.58142
654.0 0.001529 658.82977 674.58752
663.0 0.001508 659.37811 672.63086
644.0 0.001553 659.92645 671.25653
669.0 0.001495 660.47522 670.27661
667.0 0.001499 661.02393 669.58698
667.0 0.001499 661.57227 669.11829
638.0 0.001567 662.12073 668.82025
644.0 0.001553 662.66882 668.65698
678.0 0.001475 663.21674 668.60126
704.0 0.001420 663.76434 668.63196
703.0 0.001422 664.31158 668.73358
641.0 0.001560 664.85858 672.38208
673.0 0.001486 665.40479 672.76691
638.0 0.001567 665.95093 674.48956
649.0 0.001541 666.49622 675.04156
699.0 0.001431 667.04065 675.64410
672.0 0.001488 667.58484 676.29572
663.0 0.001508 668.12775 676.99518
661.0 0.001513 668.67035 677.74237
675.0 0.001481 669.21161 678.53925
683.0 0.001464 669.75189 679.38727
726.0 0.001377 670.29150 680.28986
713.0 0.001403 670.82971 681.25073
709.0 0.001410 671.36700 682.27618
673.0 0.001486 671.90308 683.37195
717.0 0.001395 672.43774 684.54694
730.0 0.001370 672.97119 685.81091
714.0 0.001401 673.50317 687.17657
711.0 0.001406 674.03369 688.65985
699.0 0.001431 674.56274 689.85547
730.0 0.001370 675.09009 691.23193
721.0 0.001387 675.61584 693.07373
734.0 0.001362 676.13971 695.30963
716.0 0.001397 676.66187 697.65924
744.0 0.001344 677.18243 700.50031
753.0 0.001328 677.70050 703.74536
693.0 0.001443 678.21716 707.49713
752.0 0.001330 678.73126 711.88794
774.0 0.001292 679.24359 717.10199
714.0 0.001401 679.75348 723.39203
736.0 0.001359 680.26129 731.13629
766.0 0.001305 680.76660 741.00488
773.0 0.001294 681.26953 754.48749
825.0 0.001212 681.76990 775.57990
866.0 0.001155 682.26819 815.01813
933.0 0.001072 682.76355 898.83948
1122.0 0.000891 683.25604 1081.18982
1475.0 0.000678 683.74579 1454.01440
2200.0 0.000455 684.23322 2134.31055
3174.0 0.0003151 684.71741 3198.94507
4308.0 0.0002321 685.19836 4571.25781
5823.0 0.0001717 685.67676 5938.61133
6704.0 0.0001492 686.15204 6813.40918
6824.0 0.0001465 686.62390 6811.79346
6253.0 0.0001599 687.09265 5991.96338
4998.0 0.0002001 687.55780 4742.43555
3396.0 0.0002945 688.02020 3437.49487
2382.0 0.000420 688.47852 2350.70605
1551.0 0.000645 688.93359 1599.63879
1001.0 0.000999 689.38531 1158.35034
831.0 0.001203 689.83307 934.60510
731.0 0.001368 690.27722 833.42133
676.0 0.001479 690.71753 788.98145
715.0 0.001399 691.15393 767.09644
720.0 0.001389 691.58636 753.86469
710.0 0.001408 692.01495 744.49762
662.0 0.001511 692.43970 737.35760
680.0 0.001471 692.85992 731.75183
627.0 0.001595 693.27612 727.27783
660.0 0.001515 693.68799 723.66663
649.0 0.001541 694.09546 720.72546
643.0 0.001555 694.49884 718.31067
678.0 0.001475 694.89746 716.31653
687.0 0.001456 695.29156 714.66064
630.0 0.001587 695.68115 713.28119
644.0 0.001553 696.06622 712.12921
654.0 0.001529 696.44635 711.16486
695.0 0.001439 696.82172 710.35797
677.0 0.001477 697.19226 709.68317
728.0 0.001374 697.55786 709.12006
746.0 0.001340 697.91833 708.65155
703.0 0.001422 698.27405 708.27777
851.0 0.001175 698.62433 707.96051
800.0 0.001250 698.96948 707.70789
751.0 0.001332 699.30975 707.50220
783.0 0.001277 699.64441 707.34137
739.0 0.001353 699.97382 707.21912
739.0 0.001353 700.29755 707.13031
744.0 0.001344 700.61615 707.07074
772.0 0.001295 700.92889 707.03662
763.0 0.001311 701.23615 707.02484
808.0 0.001238 701.53778 707.03198
837.0 0.001195 701.83380 707.05621
802.0 0.001247 702.12378 707.09485
768.0 0.001302 702.40826 703.86005
834.0 0.001199 702.68646 704.07214
789.0 0.001267 702.95917 703.00177
788.0 0.001269 703.22528 703.27167
757.0 0.001321 703.48578 703.53589
729.0 0.001372 703.74005 703.79456
682.0 0.001466 703.98804 704.04779
697.0 0.001435 704.22992 704.29510
696.0 0.001437 704.46552 704.53717
644.0 0.001553 704.69476 704.77393
664.0 0.001506 704.91754 705.00519
672.0 0.001488 705.13422 705.23218
657.0 0.001522 705.34424 705.45410
673.0 0.001486 705.54755 705.67212
655.0 0.001527 705.74457 705.88678
660.0 0.001515 705.93494 706.09869
626.0 0.001597 706.11835 706.30914
657.0 0.001522 706.29535 706.52051
628.0 0.001592 706.46539 706.73730
656.0 0.001524 706.62891 706.97314
675.0 0.001481 706.78540 707.26166
633.0 0.001580 706.93506 707.68994
582.0 0.001718 707.07782 708.44269
674.0 0.001484 707.21356 709.84314
616.0 0.001623 707.34222 712.30841
654.0 0.001529 707.46411 716.12256
652.0 0.001534 707.57867 721.03473
650.0 0.001538 707.68628 725.97571
664.0 0.001506 707.78644 729.27002
680.0 0.001471 707.87976 729.57617
623.0 0.001605 707.96570 727.05225
684.0 0.001462 708.04449 722.99487
673.0 0.001486 708.11584 718.61029
655.0 0.001527 708.17993 714.79059
646.0 0.001548 708.23682 712.01520
677.0 0.001477 708.28619 710.29926
649.0 0.001541 708.32825 709.38849
662.0 0.001511 708.36273 708.96869
649.0 0.001541 708.38965 708.79120
651.0 0.001536 708.40936 708.71204
633.0 0.001580 708.42139 708.66699
678.0 0.001475 708.42590 708.63177
706.0 0.001416 708.42303 708.59888
634.0 0.001577 708.41254 708.56433
639.0 0.001565 708.39423 708.52692
731.0 0.001368 708.36853 708.48511
726.0 0.001377 708.33508 708.43872
729.0 0.001372 708.29407 708.38654
688.0 0.001453 708.24530 708.32837
705.0 0.001418 708.18878 708.26373
737.0 0.001357 708.12469 708.19287
715.0 0.001399 708.05273 708.11487
759.0 0.001318 707.97321 708.02985
717.0 0.001395 707.88611 707.93805
710.0 0.001408 707.79102 707.83893
732.0 0.001366 707.68823 707.73254
677.0 0.001477 707.57739 707.61859
726.0 0.001377 707.45905 707.49731
731.0 0.001368 707.33307 707.36853
744.0 0.001344 707.19910 707.23230
738.0 0.001355 707.05713 707.08850
723.0 0.001383 706.90784 706.93713
699.0 0.001431 706.75049 706.77820
737.0 0.001357 706.58533 706.61127
763.0 0.001311 706.41248 708.93555
781.0 0.001280 706.23181 717.42279
722.0 0.001385 706.04333 717.79529
758.0 0.001319 705.84698 719.15106
765.0 0.001307 705.64288 722.88586
749.0 0.001335 705.43140 723.59399
744.0 0.001344 705.21149 724.35718
745.0 0.001342 704.98431 725.21039
854.0 0.001171 704.74902 726.14514
783.0 0.001277 704.50641 727.18256
775.0 0.001290 704.25568 728.33105
860.0 0.001163 703.99725 729.60541
805.0 0.001242 703.73114 731.02283
842.0 0.001188 703.45728 732.60474
866.0 0.001155 703.17603 734.37433
845.0 0.001183 702.88708 736.36108
833.0 0.001200 702.59003 738.59851
853.0 0.001172 702.28589 741.12701
828.0 0.001208 701.97382 743.99677
810.0 0.001235 701.65430 747.26514
824.0 0.001214 701.32703 751.00702
883.0 0.001133 700.99219 755.31104
861.0 0.001161 700.64984 760.28766
836.0 0.001196 700.30035 766.07941
875.0 0.001143 699.94305 772.86115
863.0 0.001159 699.57813 780.86548
875.0 0.001143 699.20605 790.38910
857.0 0.001167 698.82635 801.82428
868.0 0.001152 698.43933 815.70728
865.0 0.001156 698.04523 832.76654
945.0 0.001058 697.64362 854.08508
988.0 0.001012 697.23456 881.45581
1047.0 0.000955 696.81848 918.61591
1078.0 0.000928 696.39514 975.10461
1241.0 0.000806 695.96448 1076.39551
1541.0 0.000649 695.52655 1285.87866
1959.0 0.000510 695.08179 1738.97485
2960.0 0.0003378 694.62988 2670.76782
4580.0 0.0002183 694.17065 4384.78857
7228.0 0.0001384 693.70502 7090.61963
10243.0 0.0000976 693.23187 10629.12012
13695.0 0.0000730 692.75201 14261.53027
16562.0 0.0000604 692.26526 16813.87695
17272.0 0.0000579 691.77167 17304.34570
16131.0 0.0000620 691.27112 15705.84766
13155.0 0.0000760 690.76392 12860.63867
9639.0 0.0001037 690.24982 9637.84180
6412.0 0.0001560 689.72937 6652.37109
4290.0 0.0002331 689.20197 4305.24023
2473.0 0.000404 688.66821 2717.88672
1475.0 0.000678 688.12775 1783.43274
1123.0 0.000890 687.58093 1299.59802
947.0 0.001056 687.02771 1070.71045
909.0 0.001100 686.46808 962.31366
912.0 0.001096 685.90204 906.04297
853.0 0.001172 685.32965 868.49005
781.0 0.001280 684.75092 840.80731
826.0 0.001211 684.16620 819.80933
771.0 0.001297 683.57520 802.26965
749.0 0.001335 682.97827 787.85468
760.0 0.001316 682.37512 775.84351
691.0 0.001447 681.76587 765.72205
733.0 0.001364 681.15100 757.10876
745.0 0.001342 680.53021 749.71045
771.0 0.001297 679.90369 743.30920
712.0 0.001404 679.27100 737.73114
753.0 0.001328 678.63293 732.84467
786.0 0.001272 677.98926 728.54492
750.0 0.001333 677.33972 724.74774
718.0 0.001393 676.68506 721.38892
759.0 0.001318 676.02454 718.41614
785.0 0.001274 675.35864 715.78979
751.0 0.001332 674.68750 713.48047
725.0 0.001379 674.01117 711.46558
687.0 0.001456 673.32947 709.73285
783.0 0.001277 672.64282 708.27551
712.0 0.001404 671.95062 707.09619
744.0 0.001344 671.25366 706.20685
775.0 0.001290 670.55151 705.62769
718.0 0.001393 669.84460 705.39368
754.0 0.001326 669.13281 705.55548
786.0 0.001272 668.41620 706.18463
719.0 0.001391 667.69495 707.38434
712.0 0.001404 666.96869 706.84027
714.0 0.001401 666.23853 701.41937
693.0 0.001443 665.50317 706.16217
766.0 0.001305 664.76349 713.11676
755.0 0.001325 664.01953 722.07977
761.0 0.001314 663.27100 746.45007
776.0 0.001289 662.51843 799.91180
880.0 0.001136 661.76141 914.75928
1100.0 0.000909 661.00043 1141.26062
1464.0 0.000683 660.23511 1529.19055
2066.0 0.000484 659.46606 2085.57544
2781.0 0.000360 658.69299 2725.61060
3426.0 0.0002919 657.91595 3267.52856
3484.0 0.0002870 657.13489 3505.88574
3666.0 0.0002728 656.35052 3362.42407
3217.0 0.0003108 655.56213 2951.73950
2512.0 0.000398 654.77020 2431.51489
1900.0 0.000526 653.97479 1907.62659
1520.0 0.000658 653.17572 1458.35681
1162.0 0.000861 652.37341 1127.52917
829.0 0.001206 651.56763 915.72028
774.0 0.001292 650.75867 797.22540
678.0 0.001475 649.94617 738.06561
690.0 0.001449 649.13062 710.02185
648.0 0.001543 648.31238 695.85736
639.0 0.001565 647.49048 687.40509
622.0 0.001608 646.66614 681.48962
600.0 0.001667 645.83905 676.97742
593.0 0.001686 645.00854 673.43396
611.0 0.001637 644.17578 670.64825
625.0 0.001600 643.34009 668.50110
668.0 0.001497 642.50183 666.93073
572.0 0.001748 641.66095 665.92029
617.0 0.001621 640.81750 665.50586
606.0 0.001650 639.97198 665.80988
647.0 0.001546 639.12378 667.17743
625.0 0.001600 638.27344 670.58936
651.0 0.001536 637.42053 678.72119
704.0 0.001420 636.56592 697.98468
682.0 0.001466 635.70911 741.12543
840.0 0.001190 634.85010 827.85187
927.0 0.001079 633.98920 978.32312
1218.0 0.000821 633.12640 1196.71753
1479.0 0.000676 632.26160 1451.52783
1719.0 0.000582 631.39532 1671.95276
1827.0 0.000547 630.52716 1775.71973
1862.0 0.000537 629.65747 1727.69958
1585.0 0.000631 628.78595 1570.61719
1398.0 0.000715 627.91296 1367.41028
1140.0 0.000877 627.03876 1159.28223
946.0 0.001057 626.16284 975.96503
795.0 0.001258 625.28577 836.75049
683.0 0.001464 624.40729 744.54333
599.0 0.001669 623.52765 690.96222
612.0 0.001634 622.64685 661.13593
650.0 0.001538 621.76501 647.43872
622.0 0.001608 620.88208 640.23688
584.0 0.001712 619.99817 634.98785
593.0 0.001686 619.11316 631.68536
597.0 0.001675 618.22760 628.97949
613.0 0.001631 617.34100 626.65204
545.0 0.001835 616.45392 624.59711
591.0 0.001692 615.56555 622.74823
596.0 0.001678 614.67712 621.05945
626.0 0.001597 613.78784 619.49707
613.0 0.001631 612.89819 618.03479
615.0 0.001626 612.00818 616.65466
551.0 0.001815 611.11743 615.34082
612.0 0.001634 610.22644 614.08191
607.0 0.001647 609.33484 612.86896
664.0 0.001506 608.44354 611.69421
629.0 0.001590 607.55182 610.55212
626.0 0.001597 606.65985 609.43768
630.0 0.001587 605.76776 608.34692
602.0 0.001661 604.87573 607.27698
615.0 0.001626 603.98358 606.22455
664.0 0.001506 603.09161 605.18787
609.0 0.001642 602.19965 609.08783
622.0 0.001608 601.30768 608.32245
614.0 0.001629 600.41626 607.58667
561.0 0.001783 599.52478 608.71027
560.0 0.001786 598.63397 608.12720
599.0 0.001669 597.74304 607.58386
611.0 0.001637 596.85254 607.08374
569.0 0.001757 595.96265 606.63019
581.0 0.001721 595.07306 606.22723
614.0 0.001629 594.18396 605.05780
655.0 0.001527 593.29572 604.81073
670.0 0.001493 592.40753 604.62946
635.0 0.001575 591.52026 604.20789
614.0 0.001629 590.63373 604.20093
609.0 0.001642 589.74811 604.28876
624.0 0.001603 588.86285 604.48633
596.0 0.001678 587.97852 604.81018
590.0 0.001695 587.09503 605.28052
612.0 0.001634 586.21222 605.92188
668.0 0.001497 585.33087 606.76385
603.0 0.001658 584.44977 607.84302
598.0 0.001672 583.56995 609.20483
580.0 0.001724 582.69122 610.90527
625.0 0.001600 581.81335 613.01617
646.0 0.001548 580.93677 615.62878
668.0 0.001497 580.06097 619.35199
698.0 0.001433 579.18658 623.38391
679.0 0.001473 578.31342 628.39746
701.0 0.001427 577.44116 634.85785
646.0 0.001548 576.57031 642.80414
686.0 0.001458 575.70068 653.02515
725.0 0.001379 574.83246 666.65430
711.0 0.001406 573.96533 686.34998
766.0 0.001305 573.09973 719.25555
907.0 0.001103 572.23566 783.97754
989.0 0.001011 571.37262 923.17999
1203.0 0.000831 570.51105 1216.76697
1840.0 0.000543 569.65112 1777.76221
2629.0 0.000380 568.79254 2704.33447
3862.0 0.0002589 567.93549 3979.49292
5269.0 0.0001898 567.08002 5379.09180
6305.0 0.0001586 566.22589 6484.83936
6788.0 0.0001473 565.37347 6880.23486
6655.0 0.0001503 564.52246 6481.72559
5709.0 0.0001752 563.67346 5588.22949
4430.0 0.0002257 562.82568 4512.41895
3159.0 0.0003166 561.97968 3429.21484
2372.0 0.000422 561.13544 2470.79004
1615.0 0.000619 560.29254 1731.85815
1079.0 0.000927 559.45154 1233.56873
811.0 0.001233 558.61212 938.84998
710.0 0.001408 557.77466 784.23053
666.0 0.001502 556.93866 708.89478
629.0 0.001590 556.10455 671.43475
658.0 0.001520 555.27234 650.31183
550.0 0.001818 554.44141 636.43311
623.0 0.001605 553.61279 626.51886
640.0 0.001563 552.78589 619.61523
585.0 0.001709 551.96063 616.08691
609.0 0.001642 551.13721 618.05304
631.0 0.001585 550.31555 630.56622
653.0 0.001531 549.49548 662.44092
712.0 0.001404 548.67773 724.45929
876.0 0.001142 547.86151 822.80518
973.0 0.001028 547.04736 948.85132
1062.0 0.000942 546.23511 1073.39624
1145.0 0.000873 545.42480 1153.78552
1253.0 0.000798 544.61591 1159.15442
1209.0 0.000827 543.80920 1097.95459
1070.0 0.000935 543.00427 1003.24878
875.0 0.001143 542.20111 898.96246
889.0 0.001125 541.40009 798.14026
706.0 0.001416 540.60065 712.09509
681.0 0.001468 539.80341 647.66467
633.0 0.001580 539.00787 605.11597
592.0 0.001689 538.21448 580.10791
537.0 0.001862 537.42249 566.60022
576.0 0.001736 536.63287 559.33765
544.0 0.001838 535.84485 554.98523
549.0 0.001821 535.05884 552.31866
534.0 0.001873 534.27454 549.83533
572.0 0.001748 533.49225 547.68628
530.0 0.001887 532.71185 545.76654
541.0 0.001848 531.93323 539.29260
587.0 0.001704 531.15674 537.91565
553.0 0.001808 530.38171 536.63458
507.0 0.001972 529.60864 533.54279
521.0 0.001919 528.83759 532.49316
580.0 0.001724 528.06842 531.57837
580.0 0.001724 527.30096 530.62030
559.0 0.001789 526.53534 529.69714
535.0 0.001869 525.77136 528.83588
525.0 0.001905 525.00958 527.97064
443.0 0.002257 524.24921 527.12872
486.0 0.002058 523.49091 526.30878
506.0 0.001976 522.73450 525.50861
505.0 0.001980 521.97943 524.72693
496.0 0.002016 521.22650 523.96332
485.0 0.002062 520.47516 523.21704
515.0 0.001942 519.72577 522.48792
492.0 0.002033 518.97809 521.77594
525.0 0.001905 518.23175 521.08148
514.0 0.001946 517.48749 520.40558
539.0 0.001855 516.74493 519.74854
479.0 0.002088 516.00378 519.11255
524.0 0.001908 515.26453 518.49860
517.0 0.001934 514.52667 517.90942
509.0 0.001965 513.79102 517.34827
531.0 0.001883 513.05676 516.34741
529.0 0.001890 512.32385 515.87427
499.0 0.002004 511.59283 515.44141
558.0 0.001792 510.86319 514.87280
537.0 0.001862 510.13559 514.55121
489.0 0.002045 509.40903 514.29669
503.0 0.001988 508.68433 514.12451
506.0 0.001976 507.96109 514.05353
515.0 0.001942 507.23901 514.10999
487.0 0.002053 506.51907 514.32849
459.0 0.002179 505.80042 514.75757
518.0 0.001931 505.08307 516.36414
505.0 0.001980 504.36716 517.52344
506.0 0.001976 503.65259 519.38422
511.0 0.001957 502.93994 522.69629
533.0 0.001876 502.22842 529.76239
570.0 0.001754 501.51819 544.45288
625.0 0.001600 500.80930 575.83069
647.0 0.001546 500.10193 636.76117
797.0 0.001255 499.39584 739.50854
980.0 0.001020 498.69104 885.21021
1150.0 0.000870 497.98785 1052.18896
1251.0 0.000799 497.28549 1194.86511
1261.0 0.000793 496.58444 1261.90588
1346.0 0.000743 495.88489 1234.75537
1303.0 0.000767 495.18652 1144.81567
1100.0 0.000909 494.48944 1033.98901
959.0 0.001043 493.79324 925.55237
865.0 0.001156 493.09833 833.06982
825.0 0.001212 492.40479 767.13379
746.0 0.001340 491.71222 727.95087
734.0 0.001362 491.02084 704.66522
664.0 0.001506 490.33057 683.16370
679.0 0.001473 489.64117 656.91504
673.0 0.001486 488.95319 628.10010
601.0 0.001664 488.26599 599.57361
554.0 0.001805 487.58011 572.46454
575.0 0.001739 486.89493 548.36194
545.0 0.001835 486.21088 529.14624
500.0 0.002000 485.52786 515.49286
487.0 0.002053 484.84589 506.81555
494.0 0.002024 484.16479 501.80219
509.0 0.001965 483.48444 499.04449
498.0 0.002008 482.80521 497.50571
519.0 0.001927 482.12689 496.60660
506.0 0.001976 481.44940 496.09329
470.0 0.002128 480.77274 495.88113
497.0 0.002012 480.09671 495.95883
443.0 0.002257 479.42181 496.35052
488.0 0.002049 478.74768 497.10532
505.0 0.001980 478.07428 498.30188
493.0 0.002028 477.40170 500.06171
537.0 0.001862 476.72986 502.59613
507.0 0.001972 476.05865 506.35101
507.0 0.001972 475.38852 512.46039
516.0 0.001938 474.71875 523.93219
536.0 0.001866 474.04990 548.03815
653.0 0.001531 473.38162 599.66913
788.0 0.001269 472.71384 702.82935
1019.0 0.000981 472.04709 884.63135
1347.0 0.000742 471.38058 1157.50781
1546.0 0.000647 470.71518 1494.26587
1817.0 0.000550 470.05002 1816.33398
1927.0 0.000519 469.38535 2015.28003
1943.0 0.000515 468.72177 2020.75928
1843.0 0.000543 468.05817 1865.65027
1604.0 0.000623 467.39545 1636.77625
1278.0 0.000782 466.73318 1389.25903
1016.0 0.000984 466.07147 1147.81445
862.0 0.001160 465.41040 930.39893
736.0 0.001359 464.74960 758.85291
597.0 0.001675 464.08954 639.55811
540.0 0.001852 463.42963 567.19513
509.0 0.001965 462.77051 527.15363
495.0 0.002020 462.11169 506.25534
538.0 0.001859 461.45337 495.57486
517.0 0.001934 460.79559 489.26987
502.0 0.001992 460.13797 484.91168
464.0 0.002155 459.48087 481.38904
453.0 0.002208 458.82434 478.65121
502.0 0.001992 458.16812 476.35693
502.0 0.001992 457.51227 474.40448
496.0 0.002016 456.85684 472.72327
498.0 0.002008 456.20163 471.17773
469.0 0.002132 455.54678 469.90524
459.0 0.002179 454.89249 468.78894
445.0 0.002247 454.23853 467.80902
460.0 0.002174 453.58478 466.91833
480.0 0.002083 452.93143 466.17139
497.0 0.002012 452.27850 465.52850
489.0 0.002045 451.62564 464.98499
471.0 0.002123 450.97345 464.54016
457.0 0.002188 450.32120 464.19461
473.0 0.002114 449.66943 463.95233
482.0 0.002075 449.01807 463.81949
515.0 0.001942 448.36679 463.80478
456.0 0.002193 447.71619 463.92075
464.0 0.002155 447.06555 464.18280
513.0 0.001949 446.41519 464.61169
507.0 0.001972 445.76544 465.23322
476.0 0.002101 445.11563 466.08072
498.0 0.002008 444.46631 467.19629
467.0 0.002141 443.81714 468.63455
462.0 0.002165 443.16830 470.46628
522.0 0.001916 442.51987 472.78311
504.0 0.001984 441.87146 475.70856
471.0 0.002123 441.22369 479.40744
537.0 0.001862 440.57593 484.11307
534.0 0.001873 439.92856 490.17590
556.0 0.001799 439.28140 498.22049
536.0 0.001866 438.63458 509.65897
544.0 0.001838 437.98816 528.13019
658.0 0.001520 437.34195 562.98853
684.0 0.001462 436.69595 635.46619
728.0 0.001374 436.05048 785.36963
1092.0 0.000916 435.40500 1069.24731
1569.0 0.000637 434.76007 1542.14758
2252.0 0.000444 434.11545 2206.61255
3064.0 0.0003264 433.47092 2966.40430
3550.0 0.0002817 432.82709 3618.99365
3817.0 0.0002620 432.18314 3934.61719
3787.0 0.0002641 431.54001 3822.80835
3526.0 0.0002836 430.89679 3418.84351
2981.0 0.0003355 430.25397 2907.68018
2082.0 0.000480 429.61194 2378.49707
1679.0 0.000596 428.96985 1863.13416
1373.0 0.000728 428.32834 1405.57947
956.0 0.001046 427.68716 1045.63586
671.0 0.001490 427.04620 795.65857
546.0 0.001832 426.40585 642.45807
520.0 0.001923 425.76584 558.38702
460.0 0.002174 425.12634 515.16895
479.0 0.002088 424.48724 492.43661
477.0 0.002096 423.84839 478.96048
515.0 0.001942 423.21017 469.66428
474.0 0.002110 422.57230 462.51926
465.0 0.002151 421.93521 456.71689
432.0 0.002315 421.29837 451.86850
460.0 0.002174 420.66205 447.74527
444.0 0.002252 420.02631 444.18900
442.0 0.002262 419.39108 441.08200
454.0 0.002203 418.75638 438.33755
466.0 0.002146 418.12213 435.88718
430.0 0.002326 417.48853 433.67941
486.0 0.002058 416.85556 431.67331
452.0 0.002212 416.22324 429.83533
458.0 0.002183 415.59131 428.13977
418.0 0.002392 414.96036 426.56485
433.0 0.002309 414.32965 425.09320
386.0 0.002591 413.70004 423.71100
408.0 0.002451 413.07077 422.40540
391.0 0.002558 412.44238 421.16714
417.0 0.002398 411.81464 419.98730
414.0 0.002415 411.18759 418.85910
401.0 0.002494 410.56149 417.77664
413.0 0.002421 409.93579 416.73419
402.0 0.002488 409.31140 415.72812
403.0 0.002481 408.68735 414.75366
402.0 0.002488 408.06427 413.81165
432.0 0.002315 407.44211 412.89233
394.0 0.002538 406.82071 411.99619
408.0 0.002451 406.20041 411.12149
378.0 0.002646 405.58069 410.26721
366.0 0.002732 404.96201 409.42914
375.0 0.002667 404.34445 408.61368
407.0 0.002457 403.72772 407.80649
403.0 0.002481 403.11215 407.01340
392.0 0.002551 402.49722 406.23242
393.0 0.002545 401.88354 405.46558
376.0 0.002660 401.27106 404.70715
398.0 0.002513 400.65948 403.95868
400.0 0.002500 400.04904 401.03677
383.0 0.002611 399.43958 400.38876
397.0 0.002519 398.83136 399.74448
354.0 0.002825 398.22443 399.10361
399.0 0.002506 397.61862 397.64206
381.0 0.002625 397.01401 397.03873
383.0 0.002611 396.41055 396.43668
411.0 0.002433 395.80835 395.83603
382.0 0.002618 395.20764 395.23697
400.0 0.002500 394.60791 394.63904
400.0 0.002500 394.00980 394.04276
404.0 0.002475 393.41287 393.44815
379.0 0.002639 392.81723 392.85489
351.0 0.002849 392.22324 392.26358
365.0 0.002740 391.63052 391.67365
405.0 0.002469 391.03940 391.08569
402.0 0.002488 390.44952 390.49948
394.0 0.002538 389.86127 389.91522
377.0 0.002653 389.27460 389.33319
345.0 0.002899 388.68939 388.75314
390.0 0.002564 388.10590 388.17554
371.0 0.002695 387.52374 387.60034
405.0 0.002469 386.94321 387.02768
386.0 0.002591 386.36469 386.45847
354.0 0.002825 385.78760 385.89212
379.0 0.002639 385.21225 385.32974
383.0 0.002611 384.63864 384.77151
376.0 0.002660 384.06656 384.21890
425.0 0.002353 383.49658 383.67349
344.0 0.002907 382.92816 383.13937
349.0 0.002865 382.36182 382.62766
365.0 0.002740 381.79712 382.16266
369.0 0.002710 381.23428 381.79327
377.0 0.002653 380.67346 381.59589
384.0 0.002604 380.11459 381.65674
371.0 0.002695 379.55750 382.02057
369.0 0.002710 379.00259 382.62311
352.0 0.002841 378.44943 383.26215
383.0 0.002611 377.89847 383.66983
380.0 0.002632 377.34946 384.69653
389.0 0.002571 376.80264 384.66382
389.0 0.002571 376.25784 384.89688
374.0 0.002674 375.71527 385.67593
411.0 0.002433 375.17496 386.90250
421.0 0.002375 374.63647 387.18457
380.0 0.002632 374.10043 386.55545
365.0 0.002740 373.56650 385.04828
349.0 0.002865 373.03485 383.25964
390.0 0.002564 372.50558 381.36041
384.0 0.002604 371.97839 379.55872
393.0 0.002545 371.45364 377.84821
404.0 0.002475 370.93121 376.29718
359.0 0.002786 370.41113 374.99356
404.0 0.002475 369.89352 373.97141
362.0 0.002762 369.37814 373.20474
381.0 0.002625 368.86560 372.63168
389.0 0.002571 368.35516 372.18393
393.0 0.002545 367.84726 371.81122
411.0 0.002433 367.34192 371.48605
394.0 0.002538 366.83905 371.19583
355.0 0.002817 366.33887 370.93762
405.0 0.002469 365.84113 370.71176
359.0 0.002786 365.34601 370.52075
401.0 0.002494 364.85342 370.36758
376.0 0.002660 364.36365 370.25711
385.0 0.002597 363.87643 370.19415
402.0 0.002488 363.39197 370.18567
393.0 0.002545 362.91000 370.23941
376.0 0.002660 362.43106 370.36493
379.0 0.002639 361.95462 370.57471
361.0 0.002770 361.48105 370.88287
375.0 0.002667 361.01025 371.30850
369.0 0.002710 360.54211 371.87421
394.0 0.002538 360.07700 372.60925
372.0 0.002688 359.61456 373.55145
413.0 0.002421 359.15509 374.74936
386.0 0.002591 358.69836 376.26749
364.0 0.002747 358.24463 378.19308
412.0 0.002427 357.79379 380.64813
407.0 0.002457 357.34579 383.82654
418.0 0.002392 356.90079 388.09253
390.0 0.002564 356.45883 394.29666
457.0 0.002188 356.01965 404.57492
451.0 0.002217 355.58371 425.48694
464.0 0.002155 355.15051 464.76447
550.0 0.001818 354.72067 541.65479
770.0 0.001299 354.29355 678.81677
964.0 0.001037 353.86957 893.68732
1217.0 0.000822 353.44867 1179.29895
1490.0 0.000671 353.03088 1493.67969
1590.0 0.000629 352.61612 1760.43872
1808.0 0.000553 352.20444 1904.54504
1902.0 0.000526 351.79590 1912.67126
1806.0 0.000554 351.39063 1835.43469
1758.0 0.000569 350.98846 1712.15112
1471.0 0.000680 350.58926 1544.06409
1347.0 0.000742 350.19327 1333.73035
1143.0 0.000875 349.80054 1112.48279
942.0 0.001062 349.41095 914.27673
730.0 0.001370 349.02454 753.36060
645.0 0.001550 348.64148 629.71393
537.0 0.001862 348.26147 538.98004
476.0 0.002101 347.88461 475.71252
466.0 0.002146 347.51126 433.88239
413.0 0.002421 347.14093 407.74332
409.0 0.002445 346.77390 392.21323
424.0 0.002358 346.41006 383.14160
412.0 0.002427 346.04947 377.64279
372.0 0.002688 345.69226 374.02579
383.0 0.002611 345.33820 371.43964
385.0 0.002597 344.98746 369.50003
388.0 0.002577 344.64008 368.03195
382.0 0.002618 344.29587 366.95065
379.0 0.002639 343.95499 366.20935
412.0 0.002427 343.61743 365.78302
356.0 0.002809 343.28314 365.66324
385.0 0.002597 342.95209 365.85553
362.0 0.002762 342.62436 366.38071
400.0 0.002500 342.29999 367.27487
360.0 0.002778 341.97885 368.59473
343.0 0.002915 341.66113 370.42209
388.0 0.002577 341.34662 372.87674
398.0 0.002513 341.03540 376.13971
358.0 0.002793 340.72742 380.52478
385.0 0.002597 340.42291 386.70410
404.0 0.002475 340.12152 396.33264
410.0 0.002439 339.82364 413.57617
490.0 0.002041 339.52884 447.89606
509.0 0.001965 339.23740 517.42389
640.0 0.001563 338.94931 649.72498
803.0 0.001245 338.66443 874.01251
1229.0 0.000814 338.38287 1202.17334
1600.0 0.000625 338.10452 1603.76782
1940.0 0.000515 337.82956 1992.60315
2171.0 0.000461 337.55762 2246.18042
2321.0 0.000431 337.28922 2276.81348
2206.0 0.000453 337.02393 2115.15796
2022.0 0.000495 336.76178 1868.88855
1586.0 0.000631 336.50299 1612.90747
1202.0 0.000832 336.24747 1361.90894
1108.0 0.000903 335.99518 1113.95251
910.0 0.001099 335.74591 885.36591
710.0 0.001408 335.49994 696.60339
492.0 0.002033 335.25726 559.94135
415.0 0.002410 335.01770 471.76593
418.0 0.002392 334.78137 420.77850
393.0 0.002545 334.54791 393.02640
376.0 0.002660 334.31775 377.92780
347.0 0.002882 334.09085 369.30844
359.0 0.002786 333.86697 363.53253
361.0 0.002770 333.64630 359.14136
370.0 0.002703 333.42868 355.62451
359.0 0.002786 333.21393 352.76547
352.0 0.002841 333.00247 350.35999
352.0 0.002841 332.79385 348.30865
364.0 0.002747 332.58847 346.55103
362.0 0.002762 332.38602 345.01144
390.0 0.002564 332.18658 343.66010
341.0 0.002933 331.99002 342.46268
344.0 0.002907 331.79666 341.39417
375.0 0.002667 331.60617 340.43869
370.0 0.002703 331.41843 339.57159
355.0 0.002817 331.23386 338.78369
364.0 0.002747 331.05206 338.06357
326.0 0.003067 330.87308 337.40240
323.0 0.003096 330.69705 336.79279
342.0 0.002924 330.52377 336.22818
339.0 0.002950 330.35327 335.70334
338.0 0.002959 330.18582 335.21399
324.0 0.003086 330.02087 334.75583
336.0 0.002976 329.85876 334.32614
309.0 0.003236 329.69934 333.92154
328.0 0.003049 329.54266 333.53998
310.0 0.003226 329.38873 333.17914
321.0 0.003115 329.23730 332.83719
293.0 0.003413 329.08865 332.51273
341.0 0.002933 328.94254 332.20392
342.0 0.002924 328.79901 331.93185
317.0 0.003155 328.65817 331.65219
323.0 0.003096 328.51968 331.38513
319.0 0.003135 328.38385 331.13007
357.0 0.002801 328.25043 330.89401
327.0 0.003058 328.11942 330.66061
330.0 0.003030 327.99094 330.43698
355.0 0.002817 327.86484 330.22290
325.0 0.003077 327.74106 330.01785
332.0 0.003012 327.61969 328.39575
311.0 0.003215 327.50058 328.26102
334.0 0.002994 327.38391 328.13168
322.0 0.003106 327.26935 328.00775
298.0 0.003356 327.15714 327.34073
295.0 0.003390 327.04706 327.35364
302.0 0.003311 326.93924 327.27176
286.0 0.003497 326.83350 327.19623
308.0 0.003247 326.73001 327.12845
310.0 0.003226 326.62848 327.10864
309.0 0.003236 326.52896 327.06458
296.0 0.003378 326.43146 327.04092
322.0 0.003106 326.33624 327.05624
317.0 0.003155 326.24268 327.15439
299.0 0.003344 326.15118 327.42752
337.0 0.002967 326.06158 328.03448
323.0 0.003096 325.97388 329.18646
322.0 0.003106 325.88809 331.06345
338.0 0.002959 325.80386 333.66321
330.0 0.003030 325.72165 336.64203
363.0 0.002755 325.64096 339.28073
353.0 0.002833 325.56223 340.72501
359.0 0.002786 325.48483 340.56934
348.0 0.002874 325.40942 339.23026
339.0 0.002950 325.33551 337.41910
338.0 0.002959 325.26318 335.55267
335.0 0.002985 325.19232 333.70389
331.0 0.003021 325.12311 331.87582
370.0 0.002703 325.05524 330.18942
324.0 0.003086 324.98889 328.78836
326.0 0.003067 324.92386 327.75418
345.0 0.002899 324.86035 327.08859
382.0 0.002618 324.79800 326.73331
333.0 0.003003 324.73694 326.62018
328.0 0.003049 324.67722 326.72665
301.0 0.003322 324.61884 327.12558
340.0 0.002941 324.56143 328.02533
317.0 0.003155 324.50543 329.77121
322.0 0.003106 324.45053 332.74936
303.0 0.003300 324.39661 337.14359
298.0 0.003356 324.34372 342.62701
323.0 0.003096 324.29184 348.14822
300.0 0.003333 324.24100 352.10559
338.0 0.002959 324.19107 353.18344
311.0 0.003215 324.14209 351.52243
331.0 0.003021 324.09399 348.56470
330.0 0.003030 324.04672 345.55798
312.0 0.003205 324.00027 342.93088
326.0 0.003067 323.95447 340.77481
288.0 0.003472 323.90955 339.67584
336.0 0.002976 323.86530 340.97586
341.0 0.002933 323.82166 346.53714
359.0 0.002786 323.77884 358.25879
376.0 0.002660 323.73627 377.07437
408.0 0.002451 323.69437 402.10172
409.0 0.002445 323.65314 427.55075
442.0 0.002262 323.61224 446.47299
411.0 0.002433 323.57187 452.20264
464.0 0.002155 323.53186 444.46948
426.0 0.002347 323.49219 429.81406
424.0 0.002358 323.45300 413.85880
416.0 0.002404 323.41397 398.77353
415.0 0.002410 323.37527 383.88934
384.0 0.002604 323.33682 369.11786
370.0 0.002703 323.29858 355.75992
344.0 0.002907 323.26031 345.02682
357.0 0.002801 323.22244 337.38226
345.0 0.002899 323.18445 332.54242
348.0 0.002874 323.14673 329.77243
326.0 0.003067 323.10876 328.28287
310.0 0.003226 323.07101 327.47818
322.0 0.003106 323.03320 327.00977
306.0 0.003268 322.99518 326.70728
323.0 0.003096 322.95706 326.48669
336.0 0.002976 322.91891 326.33875
313.0 0.003195 322.88052 326.23755
353.0 0.002833 322.84198 326.17719
341.0 0.002933 322.80307 326.14825
312.0 0.003205 322.76398 326.40009
313.0 0.003195 322.72440 326.44830
317.0 0.003155 322.68469 326.52847
318.0 0.003145 322.64441 326.64127
332.0 0.003012 322.60391 326.78839
314.0 0.003185 322.56281 327.06583
302.0 0.003311 322.52130 327.29572
318.0 0.003145 322.47922 327.57312
344.0 0.002907 322.43689 327.90527
338.0 0.002959 322.39374 328.30188
346.0 0.002890 322.34991 328.77499
334.0 0.002994 322.30560 329.34039
342.0 0.002924 322.26068 330.01859
331.0 0.003021 322.21484 330.83743
351.0 0.002849 322.16846 331.83325
350.0 0.002857 322.12115 333.05783
323.0 0.003096 322.07339 334.56915
345.0 0.002899 322.02460 336.56061
343.0 0.002915 321.97498 339.34241
318.0 0.003145 321.92453 343.72583
368.0 0.002717 321.87308 351.61551
383.0 0.002611 321.82086 366.93747
401.0 0.002494 321.76764 396.64517
462.0 0.002165 321.71341 449.41089
572.0 0.001748 321.65814 534.53320
698.0 0.001433 321.60202 649.61401
785.0 0.001274 321.54468 781.90900
846.0 0.001182 321.48633 901.02612
963.0 0.001038 321.42688 968.62329
978.0 0.001022 321.36615 964.15570
1040.0 0.000962 321.30441 903.91992
927.0 0.001079 321.24142 824.55524
771.0 0.001297 321.17734 747.91522
644.0 0.001553 321.11191 675.84991
619.0 0.001616 321.04538 603.20776
550.0 0.001818 320.97745 531.86328
506.0 0.001976 320.90826 469.07968
442.0 0.002262 320.83759 420.23965
417.0 0.002398 320.76581 386.44424
364.0 0.002747 320.69257 365.81265
377.0 0.002653 320.61792 354.58795
377.0 0.002653 320.54196 349.15533
353.0 0.002833 320.46451 347.16486
331.0 0.003021 320.38556 347.57730
344.0 0.002907 320.30536 351.14856
359.0 0.002786 320.22351 359.46515
394.0 0.002538 320.14023 376.05164
410.0 0.002439 320.05545 404.68311
454.0 0.002203 319.96912 447.39499
535.0 0.001869 319.88110 501.57419
598.0 0.001672 319.79175 557.51331
552.0 0.001812 319.70065 599.73102
629.0 0.001590 319.60803 613.82544
608.0 0.001645 319.51367 598.58649
632.0 0.001582 319.41769 567.41547
574.0 0.001742 319.32025 534.03949
460.0 0.002174 319.22110 503.51212
463.0 0.002160 319.12021 474.12534
519.0 0.001927 319.01764 444.40997
422.0 0.002370 318.91339 416.57568
368.0 0.002717 318.80740 393.69101
377.0 0.002653 318.69980 377.48996
366.0 0.002732 318.59030 368.07147
398.0 0.002513 318.47919 364.38901
384.0 0.002604 318.36627 365.14496
383.0 0.002611 318.25153 369.71628
393.0 0.002545 318.13522 379.02277
426.0 0.002347 318.01706 396.67902
408.0 0.002451 317.89694 430.69186
482.0 0.002075 317.77521 495.08682
631.0 0.001585 317.65158 609.46143
816.0 0.001225 317.52621 793.35760
1157.0 0.000864 317.39902 1054.14136
1448.0 0.000691 317.26993 1371.64587
1652.0 0.000605 317.13916 1689.23315
1891.0 0.000529 317.00635 1923.63525
1859.0 0.000538 316.87180 2000.87769
1986.0 0.000504 316.73553 1912.11060
2018.0 0.000496 316.59729 1726.80261
1604.0 0.000623 316.45718 1522.68542
1234.0 0.000810 316.31528 1332.33215
1007.0 0.000993 316.17151 1151.52344
921.0 0.001086 316.02585 969.35614
838.0 0.001193 315.87836 795.20624
697.0 0.001435 315.72897 646.35455
549.0 0.001821 315.57782 532.58691
430.0 0.002326 315.42471 455.52997
397.0 0.002519 315.26990 408.48941
373.0 0.002681 315.11301 382.16010
365.0 0.002740 314.95441 368.21698
355.0 0.002817 314.79398 360.94098
352.0 0.002841 314.63171 357.68268
332.0 0.003012 314.46759 357.94904
363.0 0.002755 314.30151 362.96686
349.0 0.002865 314.13367 375.25311
414.0 0.002415 313.96402 397.71225
454.0 0.002203 313.79251 431.84579
523.0 0.001912 313.61923 475.49408
566.0 0.001767 313.44424 521.27704
609.0 0.001642 313.26721 557.46265
600.0 0.001667 313.08850 573.98511
606.0 0.001650 312.90799 572.59442
579.0 0.001727 312.72562 568.13367
624.0 0.001603 312.54153 575.86627
615.0 0.001626 312.35577 602.42737
652.0 0.001534 312.16800 642.10846
661.0 0.001513 311.97885 681.20624
697.0 0.001435 311.78769 702.81134
673.0 0.001486 311.59467 693.67365
660.0 0.001515 311.40021 656.22217
659.0 0.001517 311.20392 607.03748
572.0 0.001748 311.00595 560.76184
519.0 0.001927 310.80637 521.30518
442.0 0.002262 310.60507 484.86914
433.0 0.002309 310.40213 448.39786
442.0 0.002262 310.19745 413.36050
390.0 0.002564 309.99118 383.82120
363.0 0.002755 309.78333 360.74268
332.0 0.003012 309.57394 344.90320
343.0 0.002915 309.36279 335.10571
342.0 0.002924 309.15024 329.39014
372.0 0.002688 308.93600 326.33029
306.0 0.003268 308.72040 324.36221
335.0 0.002985 308.50311 323.06293
350.0 0.002857 308.28445 322.13559
312.0 0.003205 308.06415 321.45239
308.0 0.003247 307.84253 320.79153
305.0 0.003279 307.61938 319.11612
298.0 0.003356 307.39487 319.01047
302.0 0.003311 307.16882 319.06570
351.0 0.002849 306.94147 319.29434
331.0 0.003021 306.71268 319.65640
315.0 0.003175 306.48257 319.81073
350.0 0.002857 306.25116 320.81851
334.0 0.002994 306.01840 322.31775
303.0 0.003300 305.78433 324.70450
293.0 0.003413 305.54907 328.86551
281.0 0.00356 305.31262 336.60043
354.0 0.002825 305.07489 351.05829
410.0 0.002439 304.83572 376.77579
436.0 0.002294 304.59561 418.77957
488.0 0.002049 304.35443 480.40546
648.0 0.001543 304.11197 560.23755
611.0 0.001637 303.86838 649.16998
744.0 0.001344 303.62375 730.38666
786.0 0.001272 303.37802 786.23132
796.0 0.001256 303.13126 806.98651
805.0 0.001242 302.88367 791.43768
783.0 0.001277 302.63480 747.40240
718.0 0.001393 302.38507 689.87646
640.0 0.001563 302.13446 630.49219
563.0 0.001776 301.88290 574.08917
538.0 0.001859 301.63058 520.91266
449.0 0.002227 301.37723 470.50787
424.0 0.002358 301.12314 425.29178
366.0 0.002732 300.86804 388.42816
340.0 0.002941 300.61246 361.24277
335.0 0.002985 300.35602 343.07739
324.0 0.003086 300.09888 332.03827
298.0 0.003356 299.84103 325.87320
327.0 0.003058 299.58231 322.66449
301.0 0.003322 299.32333 321.12781
338.0 0.002959 299.06342 320.55786
314.0 0.003185 298.80319 320.49991
300.0 0.003333 298.54221 321.13129
348.0 0.002874 298.28070 322.32840
348.0 0.002874 298.01880 324.21161
306.0 0.003268 297.75641 327.07904
343.0 0.002915 297.49359 331.57956
329.0 0.003040 297.23022 339.40942
346.0 0.002890 296.96658 353.83942
374.0 0.002674 296.70264 380.76651
462.0 0.002165 296.43839 430.03485
543.0 0.001842 296.17383 512.99182
650.0 0.001538 295.90878 638.86292
862.0 0.001160 295.64380 807.06561
995.0 0.001005 295.37842 999.33691
1179.0 0.000848 295.11310 1178.23792
1236.0 0.000809 294.84744 1296.38293
1382.0 0.000724 294.58167 1318.90808
1338.0 0.000747 294.31589 1250.78284
1239.0 0.000807 294.05014 1135.72119
1043.0 0.000959 293.78430 1015.88074
846.0 0.001182 293.51840 907.36633
685.0 0.001460 293.25269 805.25482
703.0 0.001422 292.98685 701.46948
650.0 0.001538 292.72147 599.22992
560.0 0.001786 292.45590 508.49408
413.0 0.002421 292.19061 436.56284
351.0 0.002849 291.92542 385.45862
346.0 0.002890 291.66052 352.63620
320.0 0.003125 291.39600 333.15564
296.0 0.003378 291.13162 321.98898
318.0 0.003145 290.86758 315.39337
334.0 0.002994 290.60403 311.12424
311.0 0.003215 290.34061 308.03491
286.0 0.003497 290.07779 305.59927
292.0 0.003425 289.81540 303.57919
302.0 0.003311 289.55353 301.85706
289.0 0.003460 289.29202 300.36401
294.0 0.003401 289.03110 299.05307
302.0 0.003311 288.77072 297.88977
317.0 0.003155 288.51114 296.94171
312.0 0.003205 288.25201 296.00229
313.0 0.003195 287.99350 295.14795
281.0 0.00356 287.73575 294.39880
275.0 0.00364 287.47879 293.67581
279.0 0.00358 287.22241 292.88440
302.0 0.003311 286.96695 292.26337
268.0 0.00373 286.71222 291.68094
308.0 0.003247 286.45828 290.94833
346.0 0.002890 286.20523 290.44861
249.0 0.00402 285.95334 289.90253
263.0 0.00380 285.70203 289.44043
277.0 0.00361 285.45181 288.99872
316.0 0.003165 285.20245 288.50522
259.0 0.00386 284.95425 288.10095
296.0 0.003378 284.70721 287.71167
303.0 0.003300 284.46103 287.36636
276.0 0.00362 284.21603 287.00409
295.0 0.003390 283.97198 286.65369
315.0 0.003175 283.72934 286.31415
303.0 0.003300 283.48773 285.98468
307.0 0.003257 283.24744 285.67731
283.0 0.00353 283.00824 285.36673
296.0 0.003378 282.77026 285.06470
311.0 0.003215 282.53375 284.77078
299.0 0.003344 282.29852 284.48489
263.0 0.00380 282.06458 284.20712
317.0 0.003155 281.83188 283.93640
260.0 0.00385 281.60068 283.67291
256.0 0.00391 281.37097 283.41696
295.0 0.003390 281.14270 283.16864
277.0 0.00361 280.91574 282.92758
259.0 0.00386 280.69040 282.69418
276.0 0.00362 280.46661 282.46893
260.0 0.00385 280.24426 282.25165
278.0 0.00360 280.02359 282.04330
265.0 0.00377 279.80435 281.84393
258.0 0.00388 279.58685 281.65442
301.0 0.003322 279.37097 281.35364
264.0 0.00379 279.15677 281.19055
280.0 0.00357 278.94431 280.48581
244.0 0.00410 278.73331 280.36685
284.0 0.00352 278.52423 280.26358
284.0 0.00352 278.31671 280.13138
271.0 0.00369 278.11121 280.06848
275.0 0.00364 277.90741 279.81860
266.0 0.00376 277.70541 279.81665
273.0 0.00366 277.50516 279.85040
294.0 0.003401 277.30682 279.92789
266.0 0.00376 277.11041 280.06049
277.0 0.00361 276.91577 280.26398
279.0 0.00358 276.72318 280.56549
315.0 0.003175 276.53235 281.01797
279.0 0.00358 276.34357 281.73975
263.0 0.00380 276.15674 282.99725
264.0 0.00379 275.97192 285.34573
287.0 0.003484 275.78909 289.79233
294.0 0.003401 275.60818 297.84708
309.0 0.003236 275.42938 311.25339
338.0 0.002959 275.25259 331.24185
372.0 0.002688 275.07788 357.48355
399.0 0.002506 274.90530 387.14081
404.0 0.002475 274.73465 414.57529
399.0 0.002506 274.56616 433.00311
439.0 0.002278 274.39993 439.07477
452.0 0.002212 274.23578 435.50650
414.0 0.002415 274.07361 426.64566
421.0 0.002375 273.91379 414.41034
363.0 0.002755 273.75616 399.13177
379.0 0.002639 273.60065 381.87585
376.0 0.002660 273.44730 363.25946
359.0 0.002786 273.29617 345.92270
313.0 0.003195 273.14734 331.27155
341.0 0.002933 273.00058 319.94711
312.0 0.003205 272.85620 312.60413
304.0 0.003289 272.71411 309.91843
282.0 0.00355 272.57397 311.20471
263.0 0.00380 272.43649 315.26593
303.0 0.003300 272.30099 319.70520
284.0 0.00352 272.16797 321.70157
308.0 0.003247 272.03720 319.80743
333.0 0.003003 271.90872 315.17279
312.0 0.003205 271.78253 309.92178
301.0 0.003322 271.65860 305.30304
295.0 0.003390 271.53705 301.28726
297.0 0.003367 271.41779 297.15475
299.0 0.003344 271.30090 292.59476
295.0 0.003390 271.18628 288.01114
274.0 0.00365 271.07401 283.93549
265.0 0.00377 270.96423 280.67349
267.0 0.00375 270.85657 278.27414
260.0 0.00385 270.75140 276.61993
265.0 0.00377 270.64856 275.52615
287.0 0.003484 270.54797 274.81006
278.0 0.00360 270.44980 274.33389
279.0 0.00358 270.35406 274.00879
278.0 0.00360 270.26059 273.78189
282.0 0.00355 270.16946 273.62119
269.0 0.00372 270.08078 273.50775
288.0 0.003472 269.99435 273.43048
297.0 0.003367 269.91040 273.38354
251.0 0.00398 269.82861 273.36414
298.0 0.003356 269.74942 273.37112
283.0 0.00353 269.67239 273.40451
262.0 0.00382 269.59778 273.46530
266.0 0.00376 269.52551 273.55457
276.0 0.00362 269.45547 273.67480
293.0 0.003413 269.38785 273.82855
267.0 0.00375 269.32251 274.01971
265.0 0.00377 269.25958 274.25250
293.0 0.003413 269.19907 274.53308
281.0 0.00356 269.14066 274.86816
247.0 0.00405 269.08463 275.26706
268.0 0.00373 269.03091 275.74084
296.0 0.003378 268.97955 276.30353
277.0 0.00361 268.93048 276.97305
254.0 0.00394 268.88358 277.77292
317.0 0.003155 268.83896 278.73312
284.0 0.00352 268.79675 279.89389
313.0 0.003195 268.75668 281.31128
289.0 0.003460 268.71890 283.07297
301.0 0.003322 268.68335 285.33951
274.0 0.00365 268.64996 288.45502
305.0 0.003279 268.61893 293.21170
302.0 0.003311 268.58990 301.36148
285.0 0.00351 268.56326 316.37155
345.0 0.002899 268.53864 343.96878
361.0 0.002770 268.51636 392.13565
438.0 0.002283 268.49615 468.11612
577.0 0.001733 268.47806 574.09515
728.0 0.001374 268.46213 701.82935
755.0 0.001325 268.44843 829.35010
800.0 0.001250 268.43658 922.01428
830.0 0.001205 268.42709 947.62958
924.0 0.001082 268.41946 905.95264
954.0 0.001048 268.41409 829.58105
854.0 0.001171 268.41068 751.66693
692.0 0.001445 268.40924 687.33142
507.0 0.001972 268.40988 632.59662
583.0 0.001715 268.41251 575.69464
540.0 0.001852 268.41705 513.07086
477.0 0.002096 268.42361 450.87909
426.0 0.002347 268.43213 396.36194
375.0 0.002667 268.44266 353.89874
320.0 0.003125 268.45496 324.28940
323.0 0.003096 268.46918 305.56345
315.0 0.003175 268.48535 294.53513
310.0 0.003226 268.50333 288.20560
288.0 0.003472 268.52313 284.43869
291.0 0.003436 268.54480 282.23096
273.0 0.00366 268.56827 280.48026
254.0 0.00394 268.59344 279.12518
283.0 0.00353 268.62051 278.03076
284.0 0.00352 268.64923 277.12827
276.0 0.00362 268.67969 276.37494
278.0 0.00360 268.71176 275.83170
277.0 0.00361 268.74557 275.29922
307.0 0.003257 268.78107 274.84802
269.0 0.00372 268.81808 274.46515
283.0 0.00353 268.85684 274.14029
289.0 0.003460 268.89719 273.87955
245.0 0.00408 268.93890 273.64731
304.0 0.003289 268.98242 273.45245
262.0 0.00382 269.02719 273.29068
271.0 0.00369 269.07370 273.15820
265.0 0.00377 269.12143 273.05359
294.0 0.003401 269.17078 272.99197
290.0 0.003448 269.22156 272.93250
268.0 0.00373 269.27368 272.89386
273.0 0.00366 269.32709 272.87433
294.0 0.003401 269.38199 272.87360
254.0 0.00394 269.43814 272.89130
309.0 0.003236 269.49564 272.93170
268.0 0.00373 269.55447 272.98450
296.0 0.003378 269.61441 273.05542
258.0 0.00388 269.67563 273.14505
275.0 0.00364 269.73807 273.25427
268.0 0.00373 269.80151 273.38480
290.0 0.003448 269.86646 273.53845
285.0 0.00351 269.93216 273.71799
275.0 0.00364 269.99915 273.92685
276.0 0.00362 270.06717 274.17001
306.0 0.003268 270.13614 274.45444
270.0 0.00370 270.20621 274.79184
263.0 0.00380 270.27725 275.20401
252.0 0.00397 270.34915 275.93219
305.0 0.003279 270.42221 277.22516
291.0 0.003436 270.49603 278.33163
286.0 0.003497 270.57071 280.02258
267.0 0.00375 270.64639 282.61276
282.0 0.00355 270.72263 286.46939
316.0 0.003165 270.79984 292.04419
275.0 0.00364 270.87784 299.73199
279.0 0.00358 270.95657 309.38141
310.0 0.003226 271.03589 321.15405
347.0 0.002882 271.11600 334.63947
331.0 0.003021 271.19681 348.87262
365.0 0.002740 271.27817 363.23279
336.0 0.002976 271.36011 373.96219
357.0 0.002801 271.44269 377.77753
358.0 0.002793 271.52567 374.87680
349.0 0.002865 271.60938 368.97858
360.0 0.002778 271.69348 364.73398
339.0 0.002950 271.77795 364.14774
405.0 0.002469 271.86285 367.21188
327.0 0.003058 271.94836 373.23593
411.0 0.002433 272.03409 383.63876
434.0 0.002304 272.12033 402.78073
455.0 0.002198 272.20670 434.80026
527.0 0.001898 272.29340 479.59717
534.0 0.001873 272.38040 530.53967
526.0 0.001901 272.46768 574.18451
583.0 0.001715 272.55518 594.26984
639.0 0.001565 272.64279 583.56342
652.0 0.001534 272.73059 551.52985
575.0 0.001739 272.81842 514.15509
533.0 0.001876 272.90652 482.17010
455.0 0.002198 272.99466 457.95795
464.0 0.002155 273.08279 436.99008
442.0 0.002262 273.17096 414.70901
410.0 0.002439 273.25897 391.12866
438.0 0.002283 273.34714 369.01056
411.0 0.002433 273.43515 350.53949
317.0 0.003155 273.52313 336.46805
324.0 0.003086 273.61096 326.53357
325.0 0.003077 273.69867 320.50906
312.0 0.003205 273.78632 317.96347
352.0 0.002841 273.87350 317.98978
300.0 0.003333 273.96066 319.18179
346.0 0.002890 274.04755 319.86505
336.0 0.002976 274.13409 318.83038
335.0 0.002985 274.22028 316.20477
343.0 0.002915 274.30634 313.11990
332.0 0.003012 274.39197 310.63635
341.0 0.002933 274.47717 309.24481
307.0 0.003257 274.56195 308.88885
328.0 0.003049 274.64639 309.29175
365.0 0.002740 274.73035 310.45850
320.0 0.003125 274.81393 312.95581
324.0 0.003086 274.89688 318.04739
332.0 0.003012 274.97928 328.19388
350.0 0.002857 275.06122 347.91202
359.0 0.002786 275.14252 384.47226
373.0 0.002681 275.22324 447.45096
556.0 0.001799 275.30344 545.91479
771.0 0.001297 275.38287 683.12103
924.0 0.001082 275.46179 850.26379
1058.0 0.000945 275.53983 1021.94611
1121.0 0.000892 275.61722 1156.70313
1197.0 0.000835 275.69391 1211.41211
1338.0 0.000747 275.76984 1175.39771
1368.0 0.000731 275.84512 1083.28699
1268.0 0.000789 275.91946 981.92719
1059.0 0.000944 275.99295 899.86029
832.0 0.001202 276.06567 840.12805
738.0 0.001355 276.13760 787.18378
796.0 0.001256 276.20853 725.45038
748.0 0.001337 276.27866 652.39264
639.0 0.001565 276.34775 575.06891
528.0 0.001894 276.41595 502.78583
443.0 0.002257 276.48315 443.31894
406.0 0.002463 276.54956 400.02505
338.0 0.002959 276.61484 371.42285
330.0 0.003030 276.67908 353.11331
305.0 0.003279 276.74237 340.20978
311.0 0.003215 276.80450 329.58795
324.0 0.003086 276.86563 320.32535
304.0 0.003289 276.92575 312.47824
317.0 0.003155 276.98468 306.26929
288.0 0.003472 277.04245 301.91690
323.0 0.003096 277.09915 299.48392
304.0 0.003289 277.15475 298.73578
280.0 0.00357 277.20914 300.12500
271.0 0.00369 277.26239 304.47079
311.0 0.003215 277.31436 313.02747
322.0 0.003106 277.36517 326.84802
370.0 0.002703 277.41467 346.91714
397.0 0.002519 277.46307 371.58017
410.0 0.002439 277.51007 397.13034
422.0 0.002370 277.55603 417.34854
441.0 0.002268 277.60059 425.54129
411.0 0.002433 277.64368 419.63870
478.0 0.002092 277.68579 404.87985
443.0 0.002257 277.72644 388.23984
408.0 0.002451 277.76563 374.13953
366.0 0.002732 277.80380 363.26016
355.0 0.002817 277.84036 353.44421
321.0 0.003115 277.87570 342.44598
364.0 0.002747 277.90948 330.19473
331.0 0.003021 277.94211 318.13443
317.0 0.003155 277.97318 307.64136
282.0 0.00355 278.00302 299.47809
289.0 0.003460 278.03140 293.75333
264.0 0.00379 278.05835 290.08209
249.0 0.00402 278.08392 287.90201
277.0 0.00361 278.10800 286.64645
266.0 0.00376 278.13074 285.91882
281.0 0.00356 278.15195 285.48218
293.0 0.003413 278.17175 285.21524
285.0 0.00351 278.19006 285.05511
263.0 0.00380 278.20697 284.98846
274.0 0.00365 278.22238 285.00024
246.0 0.00407 278.23642 285.08899
278.0 0.00360 278.24887 285.25714
271.0 0.00369 278.25983 285.51303
255.0 0.00392 278.26941 285.87036
292.0 0.003425 278.27731 286.35458
325.0 0.003077 278.28400 287.01468
309.0 0.003236 278.28906 287.95609
305.0 0.003279 278.29272 289.40933
275.0 0.00364 278.29474 291.84894
301.0 0.003322 278.29532 295.94904
304.0 0.003289 278.29453 302.95370
286.0 0.003497 278.29208 315.56146
332.0 0.003012 278.28821 334.88074
374.0 0.002674 278.28293 361.59915
402.0 0.002488 278.27597 394.39658
407.0 0.002457 278.26755 429.15125
444.0 0.002252 278.25784 458.57190
430.0 0.002326 278.24643 475.66739
422.0 0.002370 278.23367 477.81586
477.0 0.002096 278.21936 469.48190
468.0 0.002137 278.20349 456.39719
407.0 0.002457 278.18625 441.77863
417.0 0.002398 278.16745 427.37637
404.0 0.002475 278.14719 413.83170
360.0 0.002778 278.12555 401.74893
366.0 0.002732 278.10242 393.37613
371.0 0.002695 278.07779 391.48254
441.0 0.002268 278.05170 397.23630
431.0 0.002320 278.02414 409.78336
428.0 0.002336 277.99518 425.87436
424.0 0.002358 277.96484 439.41638
384.0 0.002604 277.93292 443.17593
430.0 0.002326 277.89972 434.29565
429.0 0.002331 277.86499 416.66742
411.0 0.002433 277.82895 397.40494
393.0 0.002545 277.79147 381.42670
373.0 0.002681 277.75250 369.22491
357.0 0.002801 277.71234 358.96820
353.0 0.002833 277.67059 347.85669
351.0 0.002849 277.62772 335.22849
334.0 0.002994 277.58340 322.23468
326.0 0.003067 277.53763 310.49588
310.0 0.003226 277.49057 300.99225
285.0 0.00351 277.44223 294.04068
279.0 0.00358 277.39258 289.38330
297.0 0.003367 277.34161 286.45874
270.0 0.00370 277.28946 284.66968
254.0 0.00394 277.23587 283.50574
293.0 0.003413 277.18094 282.76596
252.0 0.00397 277.12500 282.21097
284.0 0.00352 277.06769 281.77200
273.0 0.00366 277.00903 281.40869
271.0 0.00369 276.94937 281.10077
285.0 0.00351 276.88843 280.83673
293.0 0.003413 276.82629 280.60828
296.0 0.003378 276.76300 280.41028
265.0 0.00377 276.69858 280.23849
299.0 0.003344 276.63290 280.08975
283.0 0.00353 276.56628 279.96136
286.0 0.003497 276.49838 279.85178
277.0 0.00361 276.42947 279.75937
297.0 0.003367 276.35941 279.68344
271.0 0.00369 276.28833 279.62347
276.0 0.00362 276.21609 279.57895
249.0 0.00402 276.14304 279.55026
278.0 0.00360 276.06882 279.53763
261.0 0.00383 275.99350 279.54172
276.0 0.00362 275.91739 279.56335
277.0 0.00361 275.84027 279.60403
268.0 0.00373 275.76215 279.66559
277.0 0.00361 275.68314 279.74991
246.0 0.00407 275.60321 279.85989
261.0 0.00383 275.52246 279.99878
246.0 0.00407 275.44080 280.17041
298.0 0.003356 275.35822 280.37997
281.0 0.00356 275.27469 280.63382
288.0 0.003472 275.19046 280.93936
261.0 0.00383 275.10553 281.30600
253.0 0.00395 275.01968 281.74606
301.0 0.003322 274.93320 282.27441
278.0 0.00360 274.84586 282.77002
264.0 0.00379 274.75784 283.54510
250.0 0.00400 274.66913 284.49115
289.0 0.003460 274.57983 285.62100
283.0 0.00353 274.48972 287.13278
305.0 0.003279 274.39893 289.19177
290.0 0.003448 274.30762 292.18661
307.0 0.003257 274.21576 297.10568
300.0 0.003333 274.12317 305.68549
319.0 0.003135 274.03021 320.09201
322.0 0.003106 273.93668 343.92999
331.0 0.003021 273.84244 380.89139
416.0 0.002404 273.74789 433.41055
466.0 0.002146 273.65286 500.77600
555.0 0.001802 273.55737 576.99725
637.0 0.001570 273.46133 650.04242
639.0 0.001565 273.36496 704.53998
631.0 0.001585 273.26828 729.23181
704.0 0.001420 273.17120 721.51599
670.0 0.001493 273.07376 689.41974
634.0 0.001577 272.97604 648.62653
610.0 0.001639 272.87787 612.03339
528.0 0.001894 272.77951 583.18658
484.0 0.002066 272.68097 558.22577
492.0 0.002033 272.58212 530.60986
458.0 0.002183 272.48300 495.85684
494.0 0.002024 272.38385 455.51401
466.0 0.002146 272.28439 415.41010
365.0 0.002740 272.18500 380.72650
342.0 0.002924 272.08536 353.89191
345.0 0.002899 271.98557 334.65741
328.0 0.003049 271.88568 321.03580
315.0 0.003175 271.78583 310.82220
313.0 0.003195 271.68582 302.67038
272.0 0.00368 271.58603 296.03372
292.0 0.003425 271.48618 290.71552
288.0 0.003472 271.38620 286.60733
316.0 0.003165 271.28647 283.56857
277.0 0.00361 271.18661 281.39282
286.0 0.003497 271.08701 279.84738
237.0 0.00422 270.98761 278.72409
277.0 0.00361 270.88821 277.86893
298.0 0.003356 270.78897 277.18286
292.0 0.003425 270.68994 276.60855
265.0 0.00377 270.59113 276.11426
258.0 0.00388 270.49261 275.68198
281.0 0.00356 270.39435 275.30045
278.0 0.00360 270.29623 274.96228
259.0 0.00386 270.19849 274.66171
297.0 0.003367 270.10107 274.39438
300.0 0.003333 270.00397 274.15689
250.0 0.00400 269.90723 273.94662
264.0 0.00379 269.81097 274.13974
254.0 0.00394 269.71494 273.98911
272.0 0.00368 269.61948 273.86212
289.0 0.003460 269.52432 273.75833
278.0 0.00360 269.42978 273.67783
292.0 0.003425 269.33569 273.62125
278.0 0.00360 269.24210 273.58936
288.0 0.003472 269.14890 273.76160
275.0 0.00364 269.05637 273.78961
265.0 0.00377 268.96439 273.84933
260.0 0.00385 268.87302 273.94446
287.0 0.003484 268.78232 274.08029
257.0 0.00389 268.69211 274.26233
275.0 0.00364 268.60245 274.49875
291.0 0.003436 268.51361 274.81284
270.0 0.00370 268.42557 275.19272
313.0 0.003195 268.33801 275.66861
316.0 0.003165 268.25122 276.26685
255.0 0.00392 268.16522 277.02942
285.0 0.00351 268.07993 278.03397
308.0 0.003247 267.99539 279.44165
291.0 0.003436 267.91165 281.59528
288.0 0.003472 267.82880 285.18512
303.0 0.003300 267.74667 291.46469
307.0 0.003257 267.66544 302.40540
298.0 0.003356 267.58502 320.55991
358.0 0.002793 267.50540 348.40555
419.0 0.002387 267.42682 386.91223
448.0 0.002232 267.34918 434.72827
515.0 0.001942 267.27234 485.66611
546.0 0.001832 267.19647 530.02502
549.0 0.001821 267.12152 554.89960
570.0 0.001754 267.04761 552.73383
578.0 0.001730 266.97458 528.59674
573.0 0.001745 266.90262 495.67868
498.0 0.002008 266.83170 464.88528
449.0 0.002227 266.76175 441.52274
422.0 0.002370 266.69281 424.27750
392.0 0.002551 266.62488 408.02823
436.0 0.002294 266.55811 388.54337
398.0 0.002513 266.49243 365.99173
378.0 0.002646 266.42773 343.19431
363.0 0.002755 266.36429 322.84293
318.0 0.003145 266.30185 306.57336
284.0 0.00352 266.24054 294.78308
320.0 0.003125 266.18036 286.95685
288.0 0.003472 266.12137 282.10663
283.0 0.00353 266.06342 279.21924
315.0 0.003175 266.00681 277.50882
289.0 0.003460 265.95132 276.46664
274.0 0.00365 265.89697 275.80838
278.0 0.00360 265.84387 275.38855
278.0 0.00360 265.79193 275.13657
277.0 0.00361 265.74130 275.01822
301.0 0.003322 265.69177 275.01880
282.0 0.00355 265.64359 275.13449
265.0 0.00377 265.59662 275.36816
294.0 0.003401 265.55081 275.72687
270.0 0.00370 265.50626 276.22302
284.0 0.00352 265.46323 276.87399
308.0 0.003247 265.42120 277.70441
270.0 0.00370 265.38043 278.75064
283.0 0.00353 265.34103 280.06845
322.0 0.003106 265.30298 281.75357
290.0 0.003448 265.26608 283.99371
309.0 0.003236 265.23050 287.18073
290.0 0.003448 265.19632 292.13165
292.0 0.003425 265.16339 300.43210
306.0 0.003268 265.13174 314.81915
328.0 0.003049 265.10144 339.35266
387.0 0.002584 265.07245 378.90921
445.0 0.002247 265.04477 437.66644
528.0 0.001894 265.01843 516.77710
630.0 0.001587 264.99341 611.03986
649.0 0.001541 264.96973 708.00482
677.0 0.001477 264.94727 787.22656
787.0 0.001271 264.92627 826.10590
814.0 0.001229 264.90649 815.42029
884.0 0.001131 264.88818 769.79980
811.0 0.001233 264.87109 714.00977
737.0 0.001357 264.85547 666.39105
590.0 0.001695 264.84094 632.75757
548.0 0.001825 264.82782 607.45874
515.0 0.001942 264.81616 578.64423
519.0 0.001927 264.80566 538.94336
525.0 0.001905 264.79663 491.08084
480.0 0.002083 264.78879 442.57660
408.0 0.002451 264.78238 399.69830
349.0 0.002865 264.77722 365.62082
324.0 0.003086 264.77344 340.47830
318.0 0.003145 264.77078 322.44742
302.0 0.003311 264.76950 309.36664
321.0 0.003115 264.76971 299.67264
319.0 0.003135 264.77103 292.37985
299.0 0.003344 264.77365 286.87534
281.0 0.00356 264.77762 282.76984
284.0 0.00352 264.78278 279.76288
284.0 0.00352 264.78928 277.57983
277.0 0.00361 264.79703 275.97690
305.0 0.003279 264.80597 274.76617
269.0 0.00372 264.81628 273.82187
272.0 0.00368 264.82779 273.06415
248.0 0.00403 264.84052 272.44269
265.0 0.00377 264.85443 271.92337
279.0 0.00358 264.86966 271.47992
291.0 0.003436 264.88611 271.09509
274.0 0.00365 264.90359 270.75815
281.0 0.00356 264.92245 270.27377
315.0 0.003175 264.94244 270.02649
277.0 0.00361 264.96353 269.81741
294.0 0.003401 264.98584 269.64359
263.0 0.00380 265.00922 269.50162
236.0 0.00424 265.03394 269.38846
250.0 0.00400 265.05960 269.30081
245.0 0.00408 265.08652 269.16473
274.0 0.00365 265.11441 269.12402
267.0 0.00375 265.14334 269.10391
282.0 0.00355 265.17355 269.10336
284.0 0.00352 265.20465 269.12253
227.0 0.00441 265.23700 269.16122
257.0 0.00389 265.27023 269.22015
274.0 0.00365 265.30453 269.29977
273.0 0.00366 265.33984 269.40146
291.0 0.003436 265.37619 269.52686
274.0 0.00365 265.41336 269.85461
260.0 0.00385 265.45178 270.03839
260.0 0.00385 265.49100 270.25354
285.0 0.00351 265.53122 270.50455
279.0 0.00358 265.57227 270.79642
281.0 0.00356 265.61423 271.13593
297.0 0.003367 265.65717 271.53094
282.0 0.00355 265.70084 271.99225
280.0 0.00357 265.74554 272.60199
254.0 0.00394 265.79099 273.24420
298.0 0.003356 265.83737 274.01950
305.0 0.003279 265.88443 274.96051
301.0 0.003322 265.93231 276.16071
284.0 0.00352 265.98102 277.79477
294.0 0.003401 266.03043 280.21298
289.0 0.003460 266.08063 284.07385
269.0 0.00372 266.13147 290.48657
296.0 0.003378 266.18307 301.07538
309.0 0.003236 266.23538 317.81381
320.0 0.003125 266.28836 342.48260
389.0 0.002571 266.34186 375.85318
407.0 0.002457 266.39606 416.74918
439.0 0.002278 266.45096 461.33530
483.0 0.002070 266.50620 502.79327
456.0 0.002193 266.56219 532.82056
540.0 0.001852 266.61874 546.89911
548.0 0.001825 266.67581 547.92926
533.0 0.001876 266.73328 541.65631
504.0 0.001984 266.79135 530.73047
491.0 0.002037 266.84979 516.27350
411.0 0.002433 266.90866 497.78348
449.0 0.002227 266.96808 475.30997
427.0 0.002342 267.02789 449.70374
449.0 0.002227 267.08792 423.31918
377.0 0.002653 267.14853 398.47778
353.0 0.002833 267.20926 376.44516
354.0 0.002825 267.27042 356.66949
360.0 0.002778 267.33182 338.79947
309.0 0.003236 267.39352 322.99985
296.0 0.003378 267.45541 309.65881
295.0 0.003390 267.51767 299.00418
269.0 0.00372 267.58002 290.95303
262.0 0.00382 267.64267 285.21478
279.0 0.00358 267.70532 281.31830
321.0 0.003115 267.76819 278.77103
271.0 0.00369 267.83118 277.13281
267.0 0.00375 267.89429 276.06921
263.0 0.00380 267.95734 275.35568
265.0 0.00377 268.02060 274.85773
272.0 0.00368 268.08374 274.50076
249.0 0.00402 268.14703 274.24548
248.0 0.00403 268.21017 274.07028
303.0 0.003300 268.27335 273.99301
271.0 0.00369 268.33652 273.94830
305.0 0.003279 268.39938 274.18921
265.0 0.00377 268.46231 274.26462
284.0 0.00352 268.52502 274.39697
274.0 0.00365 268.58762 274.58926
295.0 0.003390 268.65005 274.84671
284.0 0.00352 268.71231 275.17630
264.0 0.00379 268.77423 275.60178
280.0 0.00357 268.83600 276.20157
293.0 0.003413 268.89737 276.84647
302.0 0.003311 268.95862 277.66803
301.0 0.003322 269.01941 278.76306
311.0 0.003215 269.07990 280.33035
297.0 0.003367 269.14008 282.76669
296.0 0.003378 269.19977 286.80341
295.0 0.003390 269.25919 293.63834
275.0 0.00364 269.31815 304.94846
338.0 0.002959 269.37656 322.63287
376.0 0.002660 269.43466 348.16470
391.0 0.002558 269.49197 381.65735
394.0 0.002538 269.54901 420.90021
452.0 0.002212 269.60541 460.66849
480.0 0.002083 269.66135 492.72464
463.0 0.002160 269.71655 507.96271
474.0 0.002110 269.77127 502.47098
497.0 0.002012 269.82520 481.59308
462.0 0.002165 269.87866 455.30161
448.0 0.002232 269.93130 431.69974
407.0 0.002457 269.98337 414.57736
377.0 0.002653 270.03461 403.32367
406.0 0.002463 270.08524 394.08255
377.0 0.002653 270.13498 382.63605
368.0 0.002717 270.18402 367.57596
408.0 0.002451 270.23227 350.29590
334.0 0.002994 270.27960 333.02335
324.0 0.003086 270.32617 317.67957
302.0 0.003311 270.37186 305.43552
333.0 0.003003 270.41663 296.56998
311.0 0.003215 270.46054 290.66602
267.0 0.00375 270.50351 286.95135
280.0 0.00357 270.54547 284.55930
298.0 0.003356 270.58667 282.85236
279.0 0.00358 270.62674 281.48672
297.0 0.003367 270.66580 280.39932
285.0 0.00351 270.70389 279.52484
298.0 0.003356 270.74091 278.95056
281.0 0.00356 270.77692 278.74033
296.0 0.003378 270.81189 278.77771
276.0 0.00362 270.84561 279.40616
291.0 0.003436 270.87827 280.43634
296.0 0.003378 270.90982 281.77762
281.0 0.00356 270.94034 283.13925
282.0 0.00355 270.96954 284.32568
282.0 0.00355 270.99774 285.00388
300.0 0.003333 271.02463 284.92932
252.0 0.00397 271.05023 284.39694
296.0 0.003378 271.07468 283.69989
255.0 0.00392 271.09790 283.13956
303.0 0.003300 271.11984 282.84821
315.0 0.003175 271.14053 282.86557
289.0 0.003460 271.15985 283.13940
285.0 0.00351 271.17798 283.42093
297.0 0.003367 271.19473 283.98383
291.0 0.003436 271.21008 284.48352
279.0 0.00358 271.22424 285.37076
282.0 0.00355 271.23691 286.98450
304.0 0.003289 271.24820 290.02188
286.0 0.003497 271.25821 295.17908
300.0 0.003333 271.26672 304.11426
291.0 0.003436 271.27383 318.96219
352.0 0.002841 271.27960 341.95120
356.0 0.002809 271.28378 375.07730
452.0 0.002212 271.28662 418.64859
469.0 0.002132 271.28799 470.12985
500.0 0.002000 271.28790 523.34973
530.0 0.001887 271.28622 568.30182
579.0 0.001727 271.28311 593.61530
614.0 0.001629 271.27856 592.36823
660.0 0.001515 271.27246 568.31989
575.0 0.001739 271.26474 533.31311
558.0 0.001792 271.25565 498.88455
501.0 0.001996 271.24487 471.61667
450.0 0.002222 271.23273 452.44510
423.0 0.002364 271.21881 437.76541
428.0 0.002336 271.20331 422.16263
401.0 0.002494 271.18652 402.39481
410.0 0.002439 271.16785 379.33032
398.0 0.002513 271.14783 355.83447
335.0 0.002985 271.12604 334.60632
311.0 0.003215 271.10272 317.23929
305.0 0.003279 271.07779 304.23093
295.0 0.003390 271.05127 295.21967
290.0 0.003448 271.02307 289.35605
261.0 0.00383 270.99335 285.68808
279.0 0.00358 270.96185 283.42123
320.0 0.003125 270.92880 281.96716
307.0 0.003257 270.89410 280.99463
284.0 0.00352 270.85782 280.31934
283.0 0.00353 270.81989 279.85727
292.0 0.003425 270.78033 279.40472
277.0 0.00361 270.73901 279.32715
258.0 0.00388 270.69611 279.46716
272.0 0.00368 270.65164 279.85056
297.0 0.003367 270.60541 280.48929
272.0 0.00368 270.55753 281.37042
275.0 0.00364 270.50803 282.45255
259.0 0.00386 270.45688 283.60800
231.0 0.00433 270.40411 284.93768
270.0 0.00370 270.34961 286.46060
314.0 0.003185 270.29355 288.49948
276.0 0.00362 270.23575 291.47610
276.0 0.00362 270.17627 295.75333
282.0 0.00355 270.11536 301.47906
299.0 0.003344 270.05255 308.45102
292.0 0.003425 269.98825 316.06750
269.0 0.00372 269.92221 323.52344
314.0 0.003185 269.85449 330.04630
320.0 0.003125 269.78534 334.75977
305.0 0.003279 269.71451 336.47528
335.0 0.002985 269.64194 334.70987
312.0 0.003205 269.56784 330.37680
323.0 0.003096 269.49207 325.16028
338.0 0.002959 269.41476 320.43878
327.0 0.003058 269.33575 316.94821
302.0 0.003311 269.25528 314.90878
303.0 0.003300 269.17307 314.09015
314.0 0.003185 269.08932 314.19269
293.0 0.003413 269.00406 315.63123
303.0 0.003300 268.91714 319.90912
326.0 0.003067 268.82877 329.48013
315.0 0.003175 268.73880 347.03418
352.0 0.002841 268.64725 375.35687
410.0 0.002439 268.55411 416.18817
481.0 0.002079 268.45947 469.17105
522.0 0.001916 268.36331 530.87164
525.0 0.001905 268.26569 594.15308
636.0 0.001572 268.16663 648.77875
693.0 0.001443 268.06598 684.60535
733.0 0.001364 267.96396 697.56799
762.0 0.001312 267.86041 692.67194
694.0 0.001441 267.75531 678.30457
658.0 0.001520 267.64880 659.05414
629.0 0.001590 267.54083 635.38397
680.0 0.001471 267.43155 607.29413
618.0 0.001618 267.32086 575.61407
584.0 0.001712 267.20868 541.05701
504.0 0.001984 267.09521 505.04712
467.0 0.002141 266.98026 470.25711
461.0 0.002169 266.86404 438.66907
424.0 0.002358 266.74649 410.21860
399.0 0.002506 266.62759 384.07803
396.0 0.002525 266.50735 360.29196
365.0 0.002740 266.38577 339.58255
343.0 0.002915 266.26300 323.13483
293.0 0.003413 266.13898 311.02393
319.0 0.003135 266.01361 303.21393
259.0 0.00386 265.88702 299.41342
297.0 0.003367 265.75919 299.03580
294.0 0.003401 265.63016 301.26071
304.0 0.003289 265.50009 304.93228
303.0 0.003300 265.36865 308.83762
301.0 0.003322 265.23627 311.31296
304.0 0.003289 265.10254 311.11502
289.0 0.003460 264.96765 308.17761
290.0 0.003448 264.83188 303.62961
314.0 0.003185 264.69495 298.84439
314.0 0.003185 264.55688 294.78403
281.0 0.00356 264.41769 291.80298
289.0 0.003460 264.27771 289.69012
289.0 0.003460 264.13657 287.84122
289.0 0.003460 263.99445 285.66003
288.0 0.003472 263.85129 282.97778
281.0 0.00356 263.70721 280.03781
266.0 0.00376 263.56229 277.18390
272.0 0.00368 263.41641 274.67654
273.0 0.00366 263.26956 272.65356
277.0 0.00361 263.12186 271.14056
278.0 0.00360 262.97330 270.07962
248.0 0.00403 262.82391 269.37476
279.0 0.00358 262.67374 268.92914
289.0 0.003460 262.52271 268.67087
284.0 0.00352 262.37100 268.56393
260.0 0.00385 262.21838 268.61337
288.0 0.003472 262.06519 268.86893
282.0 0.00355 261.91122 269.45068
245.0 0.00408 261.75659 270.53442
282.0 0.00355 261.60126 272.35770
256.0 0.00391 261.44519 275.17322
266.0 0.00376 261.28860 279.16513
297.0 0.003367 261.13144 284.34384
309.0 0.003236 260.97363 290.43024
321.0 0.003115 260.81516 296.83426
280.0 0.00357 260.65631 302.57571
295.0 0.003390 260.49692 306.62567
365.0 0.002740 260.33704 308.60181
338.0 0.002959 260.17661 309.38388
335.0 0.002985 260.01575 310.33276
284.0 0.00352 259.85440 312.69614
334.0 0.002994 259.69278 317.37350
329.0 0.003040 259.53082 324.87622
320.0 0.003125 259.36826 335.13394
339.0 0.002950 259.20551 347.29312
327.0 0.003058 259.04236 359.86810
360.0 0.002778 258.87900 370.68942
373.0 0.002681 258.71539 377.18298
356.0 0.002809 258.55151 377.80801
385.0 0.002597 258.38721 373.85376
356.0 0.002809 258.22290 368.72403
353.0 0.002833 258.05835 365.56760
358.0 0.002793 257.89368 365.89572
349.0 0.002865 257.72885 369.29199
337.0 0.002967 257.56384 373.49237
360.0 0.002778 257.39880 376.00009
374.0 0.002674 257.23373 375.02338
365.0 0.002740 257.06854 371.01868
346.0 0.002890 256.90329 364.15430
365.0 0.002740 256.73807 354.76132
354.0 0.002825 256.57285 343.63577
348.0 0.002874 256.40775 332.34705
312.0 0.003205 256.24261 321.93530
332.0 0.003012 256.07755 312.72083
313.0 0.003195 255.91267 305.15305
316.0 0.003165 255.74782 299.04025
287.0 0.003484 255.58322 293.88550
309.0 0.003236 255.41876 289.11169
311.0 0.003215 255.25441 284.53656
286.0 0.003497 255.09039 280.52570
261.0 0.00383 254.92650 277.43234
282.0 0.00355 254.76288 275.46762
265.0 0.00377 254.59956 274.47403
258.0 0.00388 254.43663 274.11203
277.0 0.00361 254.27391 273.80298
296.0 0.003378 254.11145 272.97787
247.0 0.00405 253.94951 271.43341
292.0 0.003425 253.78786 269.41205
287.0 0.003484 253.62663 267.34048
271.0 0.00369 253.46581 265.54758
298.0 0.003356 253.30556 264.14676
309.0 0.003236 253.14561 263.15726
264.0 0.00379 252.98616 262.35110
234.0 0.00427 252.82718 261.48776
287.0 0.003484 252.66872 260.44263
255.0 0.00392 252.51083 259.25494
281.0 0.00356 252.35352 258.04773
254.0 0.00394 252.19681 256.92892
237.0 0.00422 252.04066 255.95468
258.0 0.00388 251.88504 255.19763
277.0 0.00361 251.73012 254.58986
244.0 0.00410 251.57582 254.12421
236.0 0.00424 251.42229 253.76306
214.0 0.00467 251.26926 253.47301
259.0 0.00386 251.11696 253.31511
240.0 0.00417 250.96542 253.10339
266.0 0.00376 250.81471 252.91209
234.0 0.00427 250.66466 252.73621
235.0 0.00426 250.51532 252.58218
254.0 0.00394 250.36685 252.43591
277.0 0.00361 250.21909 252.29515
244.0 0.00410 250.07220 252.16501
227.0 0.00441 249.92618 252.04573
252.0 0.00397 249.78085 251.93726
248.0 0.00403 249.63655 251.84021
262.0 0.00382 249.49298 251.75490
269.0 0.00372 249.35043 251.68187
260.0 0.00385 249.20863 251.62737
237.0 0.00422 249.06787 251.58130
265.0 0.00377 248.92798 251.55063
267.0 0.00375 248.78902 251.53784
267.0 0.00375 248.65100 251.54623
275.0 0.00364 248.51407 251.55110
267.0 0.00375 248.37799 251.61526
244.0 0.00410 248.24289 251.71600
251.0 0.00398 248.10883 251.86432
271.0 0.00369 247.97578 252.06975
250.0 0.00400 247.84384 252.43840
275.0 0.00364 247.71281 252.93707
286.0 0.003497 247.58279 253.66891
254.0 0.00394 247.45393 254.83932
276.0 0.00362 247.32610 256.65649
271.0 0.00369 247.19939 259.37570
234.0 0.00427 247.07376 263.14972
244.0 0.00410 246.94910 268.26123
293.0 0.003413 246.82561 274.67181
277.0 0.00361 246.70322 281.90128
281.0 0.00356 246.58203 289.51407
323.0 0.003096 246.46184 296.90945
292.0 0.003425 246.34283 303.85483
341.0 0.002933 246.22495 311.11111
327.0 0.003058 246.10823 320.38950
335.0 0.002985 245.99265 333.18094
353.0 0.002833 245.87828 349.79153
355.0 0.002817 245.76503 368.75388
374.0 0.002674 245.65298 387.08691
375.0 0.002667 245.54210 400.71927
370.0 0.002703 245.43234 406.36038
379.0 0.002639 245.32379 402.70331
373.0 0.002681 245.21645 391.05170
374.0 0.002674 245.11024 375.00107
312.0 0.003205 245.00533 358.69025
321.0 0.003115 244.90152 344.87244
314.0 0.003185 244.79900 334.39410
311.0 0.003215 244.69757 326.53177
290.0 0.003448 244.59735 319.72223
321.0 0.003115 244.49843 312.66290
299.0 0.003344 244.40068 304.60287
274.0 0.00365 244.30414 295.74893
294.0 0.003401 244.20876 286.91623
285.0 0.00351 244.11459 278.87970
282.0 0.00355 244.02168 272.00067
276.0 0.00362 243.93001 266.42880
266.0 0.00376 243.83943 262.10248
276.0 0.00362 243.75015 258.94269
247.0 0.00405 243.66206 256.78854
271.0 0.00369 243.57513 255.44928
266.0 0.00376 243.48946 254.76195
238.0 0.00420 243.40489 254.61198
239.0 0.00418 243.32159 255.00339
261.0 0.00383 243.23946 256.04050
260.0 0.00385 243.15855 258.07767
243.0 0.00412 243.07880 261.64825
257.0 0.00389 243.00023 267.35880
272.0 0.00368 242.92290 275.68896
281.0 0.00356 242.84665 286.75232
295.0 0.003390 242.77159 299.99582
306.0 0.003268 242.69774 314.07361
322.0 0.003106 242.62506 326.71176
314.0 0.003185 242.55353 334.98001
341.0 0.002933 242.48297 336.54953
353.0 0.002833 242.41371 331.50726
347.0 0.002882 242.34558 322.40436
329.0 0.003040 242.27861 312.38599
296.0 0.003378 242.21263 303.74741
292.0 0.003425 242.14781 297.55630
277.0 0.00361 242.08414 293.68024
272.0 0.00368 242.02155 291.03177
281.0 0.00356 241.95999 288.16934
286.0 0.003497 241.89961 284.24673
299.0 0.003344 241.84021 279.50867
305.0 0.003279 241.78186 274.82727
266.0 0.00376 241.72464 271.05014
267.0 0.00375 241.66838 268.70905
261.0 0.00383 241.61314 267.93317
280.0 0.00357 241.55898 268.43463
293.0 0.003413 241.50581 269.55942
293.0 0.003413 241.45367 270.42938
298.0 0.003356 241.40247 270.28186
281.0 0.00356 241.35225 268.92065
294.0 0.003401 241.30295 266.78268
303.0 0.003300 241.25464 264.53970
296.0 0.003378 241.20729 262.71854
300.0 0.003333 241.16086 261.61758
264.0 0.00379 241.11533 261.29855
243.0 0.00412 241.07069 261.66199
288.0 0.003472 241.02699 262.60782
255.0 0.00392 240.98412 264.28204
311.0 0.003215 240.94202 267.23004
293.0 0.003413 240.90096 272.27774
281.0 0.00356 240.86058 280.25461
285.0 0.00351 240.82103 291.68726
341.0 0.002933 240.78233 306.53204
333.0 0.003003 240.74443 323.92392
340.0 0.002941 240.70732 341.99496
350.0 0.002857 240.67091 358.11960
340.0 0.002941 240.63530 369.53281
374.0 0.002674 240.60043 375.17657
399.0 0.002506 240.56618 376.70679
368.0 0.002717 240.53273 377.52524
366.0 0.002732 240.49991 380.75891
358.0 0.002793 240.46776 387.64886
389.0 0.002571 240.43628 397.15845
360.0 0.002778 240.40543 405.73306
413.0 0.002421 240.37515 408.51788
430.0 0.002326 240.34554 402.45770
447.0 0.002237 240.31650 388.22403
413.0 0.002421 240.28804 369.60370
346.0 0.002890 240.26013 350.77472
321.0 0.003115 240.23274 334.67865
333.0 0.003003 240.20584 322.64771
299.0 0.003344 240.17953 314.35181
307.0 0.003257 240.15363 308.29227
319.0 0.003135 240.12819 302.85062
332.0 0.003012 240.10318 297.28223
306.0 0.003268 240.07869 292.16208
310.0 0.003226 240.05467 288.68243
254.0 0.00394 240.03093 287.96884
320.0 0.003125 240.00761 290.75995
317.0 0.003155 239.98463 297.17453
302.0 0.003311 239.96198 306.59921
322.0 0.003106 239.93968 317.63574
355.0 0.002817 239.91776 328.18625
338.0 0.002959 239.89607 335.96542
354.0 0.002825 239.87465 339.77243
339.0 0.002950 239.85347 340.19296
407.0 0.002457 239.83258 338.98087
359.0 0.002786 239.81187 337.49789
327.0 0.003058 239.79143 336.06436
310.0 0.003226 239.77109 333.95599
295.0 0.003390 239.75099 330.13571
345.0 0.002899 239.73102 324.13748
319.0 0.003135 239.71121 316.28098
309.0 0.003236 239.69142 307.39603
307.0 0.003257 239.67181 298.63287
291.0 0.003436 239.65227 290.93161
257.0 0.00389 239.63278 284.73431
282.0 0.00355 239.61334 279.90237
285.0 0.00351 239.59395 276.01382
240.0 0.00417 239.57449 272.72064
281.0 0.00356 239.55511 270.01923
265.0 0.00377 239.53568 267.85275
272.0 0.00368 239.51620 266.15561
264.0 0.00379 239.49670 264.61383
250.0 0.00400 239.47705 262.81940
255.0 0.00392 239.45734 260.58121
244.0 0.00410 239.43762 258.04889
259.0 0.00386 239.41768 255.57280
229.0 0.00437 239.39763 253.44566
232.0 0.00431 239.37737 251.83891
248.0 0.00403 239.35701 250.71559
246.0 0.00407 239.33638 249.95462
222.0 0.00450 239.31558 249.36156
256.0 0.00391 239.29456 248.63210
244.0 0.00410 239.27328 247.71109
258.0 0.00388 239.25175 246.65582
266.0 0.00376 239.22993 245.58466
259.0 0.00386 239.20792 244.52498
268.0 0.00373 239.18550 243.69662
232.0 0.00431 239.16281 243.05664
250.0 0.00400 239.13980 242.61270
268.0 0.00373 239.11641 242.37442
231.0 0.00433 239.09276 242.31042
232.0 0.00431 239.06860 242.44127
257.0 0.00389 239.04413 242.83037
217.0 0.00461 239.01927 243.39380
222.0 0.00450 238.99400 244.16948
277.0 0.00361 238.96831 245.09384
252.0 0.00397 238.94208 246.09294
234.0 0.00427 238.91547 246.98567
266.0 0.00376 238.88837 247.56157
277.0 0.00361 238.86084 247.65132
267.0 0.00375 238.83281 247.25192
250.0 0.00400 238.80426 246.55516
261.0 0.00383 238.77512 245.74957
251.0 0.00398 238.74542 245.03503
258.0 0.00388 238.71538 244.48283
238.0 0.00420 238.68463 244.19324
249.0 0.00402 238.65346 243.94626
255.0 0.00392 238.62163 243.71388
233.0 0.00429 238.58914 243.40500
237.0 0.00422 238.55615 242.99745
234.0 0.00427 238.52255 242.53107
210.0 0.00476 238.48831 242.06277
241.0 0.00415 238.45349 241.64279
254.0 0.00394 238.41808 241.23544
234.0 0.00427 238.38194 240.96956
248.0 0.00403 238.34515 240.78058
227.0 0.00441 238.30777 240.65952
242.0 0.00413 238.26970 240.59163
227.0 0.00441 238.23096 240.56377
204.0 0.00490 238.19156 240.56577
234.0 0.00427 238.15149 240.59113
237.0 0.00422 238.11060 240.53882
226.0 0.00442 238.06915 240.60596
229.0 0.00437 238.02696 240.68387
243.0 0.00412 237.98405 240.79506
206.0 0.00485 237.94040 240.93440
251.0 0.00398 237.89609 241.10970
250.0 0.00400 237.85101 241.33588
219.0 0.00457 237.80522 241.63957
245.0 0.00408 237.75868 242.06995
226.0 0.00442 237.71147 242.68454
254.0 0.00394 237.66341 243.68176
246.0 0.00407 237.61465 245.23723
242.0 0.00413 237.56516 247.61490
238.0 0.00420 237.51489 251.09824
237.0 0.00422 237.46384 255.91492
262.0 0.00382 237.41214 262.12814
272.0 0.00368 237.35959 269.52060
286.0 0.003497 237.30632 277.50427
300.0 0.003333 237.25224 285.06265
306.0 0.003268 237.19745 290.77917
291.0 0.003436 237.14189 293.51617
338.0 0.002959 237.08556 292.95010
315.0 0.003175 237.02847 290.05032
307.0 0.003257 236.97066 286.36166
285.0 0.00351 236.91205 283.18817
287.0 0.003484 236.85271 281.34247
259.0 0.00386 236.79253 281.25095
300.0 0.003333 236.73172 282.87366
312.0 0.003205 236.67010 285.94412
323.0 0.003096 236.60771 290.18100
297.0 0.003367 236.54465 295.38889
313.0 0.003195 236.48073 301.49277
321.0 0.003115 236.41617 308.20291
310.0 0.003226 236.35080 314.88803
268.0 0.00373 236.28468 320.65460
328.0 0.003049 236.21793 324.35532
342.0 0.002924 236.15036 324.77478
313.0 0.003195 236.08218 321.59964
320.0 0.003125 236.01324 315.94034
323.0 0.003096 235.94360 309.60983
287.0 0.003484 235.87318 304.23688
287.0 0.003484 235.80217 300.76486
325.0 0.003077 235.73036 299.74475
308.0 0.003247 235.65791 301.12430
278.0 0.00360 235.58487 304.25992
311.0 0.003215 235.51106 308.06174
308.0 0.003247 235.43658 311.37030
294.0 0.003401 235.36157 313.17249
314.0 0.003185 235.28583 312.53683
326.0 0.003067 235.20946 308.97604
323.0 0.003096 235.13245 303.06467
298.0 0.003356 235.05487 296.47235
306.0 0.003268 234.97665 291.03702
307.0 0.003257 234.89777 288.17004
293.0 0.003413 234.81841 288.60834
294.0 0.003401 234.73845 292.40857
311.0 0.003215 234.65788 298.85922
284.0 0.00352 234.57678 306.56366
262.0 0.00382 234.49519 313.71774
337.0 0.002967 234.41302 318.50598
299.0 0.003344 234.33026 319.47992
348.0 0.002874 234.24699 316.23535
315.0 0.003175 234.16327 309.98407
333.0 0.003003 234.07912 303.02045
295.0 0.003390 233.99443 297.63528
273.0 0.00366 233.90930 295.56226
275.0 0.00364 233.82373 297.80634
286.0 0.003497 233.73770 304.57126
299.0 0.003344 233.65125 315.21939
333.0 0.003003 233.56442 328.30304
310.0 0.003226 233.47720 341.88843
326.0 0.003067 233.38953 353.89120
327.0 0.003058 233.30153 362.16245
347.0 0.002882 233.21318 364.60281
335.0 0.002985 233.12451 360.04800
318.0 0.003145 233.03549 349.49506
317.0 0.003155 232.94618 335.83994
305.0 0.003279 232.85657 322.20193
302.0 0.003311 232.76668 310.72165
267.0 0.00375 232.67650 302.28452
285.0 0.00351 232.58609 296.65485
262.0 0.00382 232.49545 292.76123
292.0 0.003425 232.40460 289.10669
270.0 0.00370 232.31348 284.39648
278.0 0.00360 232.22231 278.20477
293.0 0.003413 232.13086 271.02112
287.0 0.003484 232.03929 263.68002
234.0 0.00427 231.94753 256.88931
245.0 0.00408 231.85577 251.09309
228.0 0.00439 231.76378 246.47328
219.0 0.00457 231.67183 243.00279
226.0 0.00442 231.57970 240.51770
225.0 0.00444 231.48752 238.79332
247.0 0.00405 231.39539 237.60852
199.0 0.00503 231.30315 236.78201
221.0 0.00452 231.21097 236.18416
255.0 0.00392 231.11882 235.73209
204.0 0.00490 231.02658 235.37814
247.0 0.00405 230.93448 235.09874
246.0 0.00407 230.84250 234.88660
213.0 0.00469 230.75043 234.74768
233.0 0.00429 230.65862 234.70036
234.0 0.00427 230.56680 234.77484
245.0 0.00408 230.47520 235.01204
218.0 0.00459 230.38379 235.45758
231.0 0.00433 230.29245 236.15140
229.0 0.00437 230.20135 237.11118
232.0 0.00431 230.11038 238.31352
248.0 0.00403 230.01973 239.67543
240.0 0.00417 229.92926 241.00681
269.0 0.00372 229.83902 242.17490
240.0 0.00417 229.74907 243.05016
252.0 0.00397 229.65942 243.27611
237.0 0.00422 229.57013 242.96638
264.0 0.00379 229.48106 242.27603
246.0 0.00407 229.39230 241.46808
262.0 0.00382 229.30402 240.82394
239.0 0.00418 229.21599 240.57440
263.0 0.00380 229.12845 240.84088
223.0 0.00448 229.04129 241.82332
233.0 0.00429 228.95450 243.69713
271.0 0.00369 228.86812 246.75514
241.0 0.00415 228.78223 251.21564
251.0 0.00398 228.69688 257.37473
315.0 0.003175 228.61195 265.29700
288.0 0.003472 228.52751 274.64792
281.0 0.00356 228.44357 284.71970
289.0 0.003460 228.36018 294.05450
330.0 0.003030 228.27734 300.77417
340.0 0.002941 228.19508 303.12213
353.0 0.002833 228.11334 300.60452
350.0 0.002857 228.03223 294.46930
315.0 0.003175 227.95168 286.81985
301.0 0.003322 227.87180 279.56790
256.0 0.00391 227.79259 273.92969
280.0 0.00357 227.71396 270.44000
274.0 0.00365 227.63593 268.88959
329.0 0.003040 227.55872 268.51111
271.0 0.00369 227.48203 268.21039
290.0 0.003448 227.40616 267.22867
268.0 0.00373 227.33093 265.27325
273.0 0.00366 227.25644 262.50864
281.0 0.00356 227.18274 259.13739
265.0 0.00377 227.10968 255.30069
251.0 0.00398 227.03755 251.22861
254.0 0.00394 226.96603 247.29060
253.0 0.00395 226.89542 243.84505
227.0 0.00441 226.82549 241.08792
256.0 0.00391 226.75639 239.09409
244.0 0.00410 226.68816 237.71239
252.0 0.00397 226.62074 236.85588
254.0 0.00394 226.55417 236.22862
227.0 0.00441 226.48834 235.58794
222.0 0.00450 226.42346 234.78896
237.0 0.00422 226.35944 233.82973
252.0 0.00397 226.29626 232.79944
226.0 0.00442 226.23399 231.79918
262.0 0.00382 226.17256 230.90340
222.0 0.00450 226.11209 230.18819
224.0 0.00446 226.05247 229.59123
222.0 0.00450 225.99379 229.11958
237.0 0.00422 225.93597 228.77129
231.0 0.00433 225.87915 228.50610
256.0 0.00391 225.82327 228.22339
225.0 0.00444 225.76825 228.06566
229.0 0.00437 225.71423 227.94183
214.0 0.00467 225.66112 227.84477
231.0 0.00433 225.60896 227.77022
212.0 0.00472 225.55777 227.73604
243.0 0.00412 225.50758 227.69441
207.0 0.00483 225.45833 227.67378
246.0 0.00407 225.40997 227.66835
239.0 0.00418 225.36267 227.64798
243.0 0.00412 225.31631 227.67325
239.0 0.00418 225.27092 227.76839
225.0 0.00444 225.22649 227.82704
220.0 0.00455 225.18303 227.90382
228.0 0.00439 225.14063 228.00072
229.0 0.00437 225.09914 228.12027
222.0 0.00450 225.05867 228.26556
248.0 0.00403 225.01912 228.44069
221.0 0.00452 224.98061 228.65031
262.0 0.00382 224.94301 228.90121
215.0 0.00465 224.90645 229.20200
232.0 0.00431 224.87083 229.58656
255.0 0.00392 224.83617 230.03487
222.0 0.00450 224.80252 230.60368
239.0 0.00418 224.76987 231.35800
252.0 0.00397 224.73808 232.41418
252.0 0.00397 224.70734 233.97041
224.0 0.00446 224.67751 236.34283
248.0 0.00403 224.64865 239.99431
220.0 0.00455 224.62085 245.50879
245.0 0.00408 224.59386 253.54834
252.0 0.00397 224.56781 264.69223
293.0 0.003413 224.54274 279.22638
313.0 0.003195 224.51859 296.89441
297.0 0.003367 224.49532 316.68982
325.0 0.003077 224.47295 336.68622
342.0 0.002924 224.45157 354.01428
421.0 0.002375 224.43098 365.35849
373.0 0.002681 224.41141 368.48438
422.0 0.002370 224.39265 363.92175
400.0 0.002500 224.37482 354.63589
325.0 0.003077 224.35782 344.08435
308.0 0.003247 224.34161 334.49670
335.0 0.002985 224.32639 327.12494
282.0 0.00355 224.31184 322.13022
292.0 0.003425 224.29814 318.91336
319.0 0.003135 224.28532 316.13852
273.0 0.00366 224.27332 312.13242
348.0 0.002874 224.26202 305.79944
322.0 0.003106 224.25157 297.35101
295.0 0.003390 224.24191 287.66238
239.0 0.00418 224.23291 277.93933
293.0 0.003413 224.22473 268.90094
263.0 0.00380 224.21727 261.01947
235.0 0.00426 224.21053 254.48685
220.0 0.00455 224.20447 249.25793
253.0 0.00395 224.19905 245.27672
227.0 0.00441 224.19438 242.18100
249.0 0.00402 224.19031 239.66516
215.0 0.00465 224.18689 237.54980
239.0 0.00418 224.18413 235.69661
249.0 0.00402 224.18196 234.13034
229.0 0.00437 224.18039 232.81099
253.0 0.00395 224.17938 231.75296
235.0 0.00426 224.17897 230.91817
215.0 0.00465 224.17909 230.32732
222.0 0.00450 224.17970 229.92621
252.0 0.00397 224.18088 229.68292
243.0 0.00412 224.18251 229.57066
237.0 0.00422 224.18459 229.56155
219.0 0.00457 224.18716 229.67773
214.0 0.00467 224.19019 229.93367
241.0 0.00415 224.19363 230.36150
228.0 0.00439 224.19745 231.06456
242.0 0.00413 224.20164 232.19353
243.0 0.00412 224.20624 233.96233
223.0 0.00448 224.21114 236.63989
223.0 0.00448 224.21635 240.51091
244.0 0.00410 224.22189 245.79863
238.0 0.00420 224.22781 252.58119
274.0 0.00365 224.23387 260.66089
304.0 0.003289 224.24020 269.49319
266.0 0.00376 224.24678 278.11652
284.0 0.00352 224.25351 285.15820
273.0 0.00366 224.26053 289.11887
302.0 0.003311 224.26759 289.11511
339.0 0.002950 224.27490 285.58353
331.0 0.003021 224.28224 279.98685
277.0 0.00361 224.28970 274.02817
254.0 0.00394 224.29726 269.03845
264.0 0.00379 224.30486 265.84521
254.0 0.00394 224.31253 264.78802
271.0 0.00369 224.32013 265.77698
255.0 0.00392 224.32779 268.38791
275.0 0.00364 224.33543 272.01779
276.0 0.00362 224.34302 276.24396
306.0 0.003268 224.35045 280.92883
281.0 0.00356 224.35785 285.95679
278.0 0.00360 224.36510 290.88397
284.0 0.00352 224.37224 294.75748
274.0 0.00365 224.37923 296.30621
262.0 0.00382 224.38602 294.54764
340.0 0.002941 224.39265 289.66861
276.0 0.00362 224.39896 282.92056
298.0 0.003356 224.40511 275.79764
280.0 0.00357 224.41093 269.59641
268.0 0.00373 224.41652 264.85318
248.0 0.00403 224.42175 261.82422
272.0 0.00368 224.42668 260.23193
223.0 0.00448 224.43118 259.43222
241.0 0.00415 224.43535 258.62378
251.0 0.00398 224.43915 257.20862
266.0 0.00376 224.44249 255.07988
278.0 0.00360 224.44540 252.53653
250.0 0.00400 224.44789 249.97542
253.0 0.00395 224.44989 247.69452
251.0 0.00398 224.45134 245.84836
278.0 0.00360 224.45224 244.49301
230.0 0.00435 224.45268 243.68976
245.0 0.00408 224.45255 243.60951
224.0 0.00446 224.45180 244.56111
252.0 0.00397 224.45045 246.95276
272.0 0.00368 224.44850 251.23970
283.0 0.00353 224.44594 257.84311
262.0 0.00382 224.44269 267.03183
279.0 0.00358 224.43871 278.77380
249.0 0.00402 224.43407 292.60764
294.0 0.003401 224.42865 307.43277
302.0 0.003311 224.42259 321.93787
317.0 0.003155 224.41576 333.98868
330.0 0.003030 224.40814 341.80026
368.0 0.002717 224.39980 344.89569
374.0 0.002674 224.39052 344.61646
366.0 0.002732 224.38052 343.31577
342.0 0.002924 224.36963 342.97498
334.0 0.002994 224.35786 344.52863
324.0 0.003086 224.34531 347.55737
347.0 0.002882 224.33183 350.54440
322.0 0.003106 224.31744 351.24570
327.0 0.003058 224.30211 347.95700
401.0 0.002494 224.28592 340.46381
400.0 0.002500 224.26871 329.98373
316.0 0.003165 224.25056 318.46072
285.0 0.00351 224.23146 307.81155
312.0 0.003205 224.21135 299.34689
289.0 0.003460 224.19028 293.58316
263.0 0.00380 224.16820 290.21405
264.0 0.00379 224.14496 288.26224
272.0 0.00368 224.12086 286.39819
293.0 0.003413 224.09564 283.49139
296.0 0.003378 224.06935 279.03738
259.0 0.00386 224.04204 273.29916
253.0 0.00395 224.01360 266.87143
285.0 0.00351 223.98412 260.63852
227.0 0.00441 223.95355 255.25864
245.0 0.00408 223.92183 251.10182
230.0 0.00435 223.88899 248.23961
265.0 0.00377 223.85506 246.48796
225.0 0.00444 223.82004 245.46503
233.0 0.00429 223.78383 244.68373
243.0 0.00412 223.74651 243.70676
282.0 0.00355 223.70804 242.34113
244.0 0.00410 223.66840 240.61035
238.0 0.00420 223.62759 238.76120
252.0 0.00397 223.58568 237.03763
234.0 0.00427 223.54250 235.63261
227.0 0.00441 223.49825 234.67360
246.0 0.00407 223.45285 234.22511
243.0 0.00412 223.40616 234.29565
223.0 0.00448 223.35838 234.84731
260.0 0.00385 223.30943 235.81300
245.0 0.00408 223.25929 237.11000
240.0 0.00417 223.20795 238.63831
213.0 0.00469 223.15541 240.25723
237.0 0.00422 223.10173 241.71469
249.0 0.00402 223.04689 242.89969
226.0 0.00442 222.99083 243.63474
262.0 0.00382 222.93365 244.00412
253.0 0.00395 222.87531 244.24678
227.0 0.00441 222.81575 244.59836
242.0 0.00413 222.75504 245.18932
239.0 0.00418 222.69321 246.03275
237.0 0.00422 222.63022 247.07936
278.0 0.00360 222.56606 248.32149
265.0 0.00377 222.50078 250.01305
261.0 0.00383 222.43434 252.54312
231.0 0.00433 222.36681 256.42691
261.0 0.00383 222.29811 262.15363
280.0 0.00357 222.22824 270.02713
265.0 0.00377 222.15742 279.97876
322.0 0.003106 222.08548 291.35294
293.0 0.003413 222.01236 303.04486
290.0 0.003448 221.93823 313.20621
320.0 0.003125 221.86305 319.67462
314.0 0.003185 221.78679 320.86465
330.0 0.003030 221.70949 316.53238
350.0 0.002857 221.63116 308.19769
314.0 0.003185 221.55185 298.13248
288.0 0.003472 221.47145 288.39011
263.0 0.00380 221.39012 280.31857
235.0 0.00426 221.30779 274.57263
228.0 0.00439 221.22455 271.03345
247.0 0.00405 221.14038 269.00937
251.0 0.00398 221.05515 267.43079
274.0 0.00365 220.96904 265.20703
279.0 0.00358 220.88211 261.71741
263.0 0.00380 220.79430 256.99448
243.0 0.00412 220.70560 251.58868
266.0 0.00376 220.61604 246.10361
253.0 0.00395 220.52562 241.02180
231.0 0.00433 220.43451 236.64742
226.0 0.00442 220.34253 233.12631
213.0 0.00469 220.24982 230.42482
226.0 0.00442 220.15625 228.45584
250.0 0.00400 220.06204 227.06992
238.0 0.00420 219.96715 226.11078
245.0 0.00408 219.87158 225.44713
225.0 0.00444 219.77528 224.97203
204.0 0.00490 219.67831 224.63664
209.0 0.00478 219.58078 224.33810
237.0 0.00422 219.48267 224.26311
230.0 0.00435 219.38403 224.35611
229.0 0.00437 219.28471 224.69698
241.0 0.00415 219.18492 225.34900
238.0 0.00420 219.08464 226.40326
248.0 0.00403 218.98389 227.93118
216.0 0.00463 218.88272 229.96153
231.0 0.00433 218.78099 232.38440
231.0 0.00433 218.67900 235.19260
236.0 0.00424 218.57661 238.01837
295.0 0.003390 218.47377 240.53065
247.0 0.00405 218.37068 242.21263
245.0 0.00408 218.26727 242.67305
262.0 0.00382 218.16368 241.84744
241.0 0.00415 218.05971 240.07388
254.0 0.00394 217.95564 237.87926
249.0 0.00402 217.85132 235.74211
232.0 0.00431 217.74672 233.96576
208.0 0.00481 217.64218 232.76726
245.0 0.00408 217.53745 232.11349
234.0 0.00427 217.43266 231.93068
234.0 0.00427 217.32779 232.00545
243.0 0.00412 217.22292 232.15498
228.0 0.00439 217.11809 232.33711
215.0 0.00465 217.01323 232.73238
262.0 0.00382 216.90851 233.70119
233.0 0.00429 216.80380 235.67482
212.0 0.00472 216.69931 239.05873
224.0 0.00446 216.59492 244.14186
243.0 0.00412 216.49069 251.00047
243.0 0.00412 216.38664 259.43152
262.0 0.00382 216.28290 268.82901
256.0 0.00391 216.17943 278.16644
249.0 0.00402 216.07617 285.98840
267.0 0.00375 215.97325 290.65939
295.0 0.003390 215.87076 291.04608
304.0 0.003289 215.76863 287.27582
294.0 0.003401 215.66687 280.68863
261.0 0.00383 215.56560 273.03799
242.0 0.00413 215.46478 265.80035
239.0 0.00418 215.36443 259.92737
239.0 0.00418 215.26468 255.81665
223.0 0.00448 215.16541 253.36006
259.0 0.00386 215.06671 252.01700
243.0 0.00412 214.96866 250.95290
258.0 0.00388 214.87126 249.31418
249.0 0.00402 214.77454 246.65480
245.0 0.00408 214.67850 243.04015
246.0 0.00407 214.58315 238.89313
230.0 0.00435 214.48854 234.68242
226.0 0.00442 214.39476 230.77457
219.0 0.00457 214.30180 227.41042
223.0 0.00448 214.20959 224.66103
213.0 0.00469 214.11830 222.56093
236.0 0.00424 214.02785 221.03279
233.0 0.00429 213.93831 219.96939
229.0 0.00437 213.84976 219.27113
215.0 0.00465 213.76208 218.84114
241.0 0.00415 213.67540 218.61241
210.0 0.00476 213.58977 218.54359
214.0 0.00467 213.50516 218.61511
221.0 0.00452 213.42160 218.82343
236.0 0.00424 213.33910 219.18607
230.0 0.00435 213.25766 219.70815
221.0 0.00452 213.17741 220.43510
203.0 0.00493 213.09825 221.42751
258.0 0.00388 213.02036 222.79958
211.0 0.00474 212.94353 224.65527
245.0 0.00408 212.86797 227.23654
246.0 0.00407 212.79356 230.75491
222.0 0.00450 212.72047 235.49323
252.0 0.00397 212.64867 241.65404
234.0 0.00427 212.57808 249.15584
266.0 0.00376 212.50887 257.72189
247.0 0.00405 212.44089 266.69205
275.0 0.00364 212.37425 275.04248
270.0 0.00370 212.30901 281.52621
301.0 0.003322 212.24513 284.99277
316.0 0.003165 212.18263 284.90018
322.0 0.003106 212.12155 281.68216
310.0 0.003226 212.06184 276.57114
276.0 0.00362 212.00360 271.12555
253.0 0.00395 211.94681 266.67865
254.0 0.00394 211.89137 264.04782
266.0 0.00376 211.83746 263.53973
293.0 0.003413 211.78508 264.92017
285.0 0.00351 211.73413 267.49335
243.0 0.00412 211.68465 270.25006
304.0 0.003289 211.63669 272.09497
288.0 0.003472 211.59026 272.26147
293.0 0.003413 211.54529 270.49014
270.0 0.00370 211.50195 267.36197
249.0 0.00402 211.46010 263.58774
262.0 0.00382 211.41975 259.80185
254.0 0.00394 211.38098 256.29584
262.0 0.00382 211.34381 253.04977
243.0 0.00412 211.30814 249.92287
250.0 0.00400 211.27405 246.87674
243.0 0.00412 211.24147 243.88539
235.0 0.00426 211.21042 240.98335
256.0 0.00391 211.18109 238.14236
227.0 0.00441 211.15321 235.39055
233.0 0.00429 211.12691 232.83194
224.0 0.00446 211.10217 230.57011
220.0 0.00455 211.07899 228.62184
218.0 0.00459 211.05745 226.90291
234.0 0.00427 211.03734 225.30128
252.0 0.00397 211.01894 223.67490
237.0 0.00422 211.00194 222.05106
258.0 0.00388 210.98648 220.46812
227.0 0.00441 210.97270 219.00223
233.0 0.00429 210.96034 217.70084
244.0 0.00410 210.94949 216.59126
209.0 0.00478 210.94022 215.68167
226.0 0.00442 210.93245 214.96260
217.0 0.00461 210.92609 214.41182
201.0 0.00498 210.92131 213.98433
212.0 0.00472 210.91803 213.68968
222.0 0.00450 210.91617 213.46707
195.0 0.00513 210.91580 213.30293
223.0 0.00448 210.91681 213.18021
214.0 0.00467 210.91928 213.08725
202.0 0.00495 210.92320 213.01628
223.0 0.00448 210.92842 212.96211
231.0 0.00433 210.93507 212.92192
210.0 0.00476 210.94312 212.89359
227.0 0.00441 210.95251 212.86986
223.0 0.00448 210.96320 212.86201
228.0 0.00439 210.97531 212.86342
205.0 0.00488 210.98862 212.87379
213.0 0.00469 211.00319 212.89291
192.0 0.00521 211.01917 212.92081
189.0 0.00529 211.03625 212.95763
213.0 0.00469 211.05457 213.00357
201.0 0.00498 211.07408 213.05925
205.0 0.00488 211.09483 213.12514
205.0 0.00488 211.11668 213.20236
228.0 0.00439 211.13972 213.29219
224.0 0.00446 211.16380 213.34259
235.0 0.00426 211.18901 213.46713
230.0 0.00435 211.21524 213.61642
234.0 0.00427 211.24255 213.80103
220.0 0.00455 211.27090 214.03748
219.0 0.00457 211.30020 214.35724
193.0 0.00518 211.33046 214.78516
221.0 0.00452 211.36160 215.37454
236.0 0.00424 211.39377 216.18114
218.0 0.00459 211.42671 217.26091
233.0 0.00429 211.46049 218.65614
244.0 0.00410 211.49515 220.35892
224.0 0.00446 211.53061 222.37511
241.0 0.00415 211.56682 224.58736
225.0 0.00444 211.60378 226.82564
210.0 0.00476 211.64143 228.84306
232.0 0.00431 211.67975 230.35008
248.0 0.00403 211.71878 231.12589
236.0 0.00424 211.75836 231.16078
236.0 0.00424 211.79858 230.71301
220.0 0.00455 211.83937 230.18477
234.0 0.00427 211.88063 229.98592
232.0 0.00431 211.92241 230.46890
227.0 0.00441 211.96463 231.91351
212.0 0.00472 212.00735 234.52222
243.0 0.00412 212.05046 238.40607
227.0 0.00441 212.09393 243.56839
257.0 0.00389 212.13776 249.89355
241.0 0.00415 212.18182 257.17770
265.0 0.00377 212.22630 265.17020
277.0 0.00361 212.27097 273.53366
297.0 0.003367 212.31583 281.78119
292.0 0.003425 212.36090 289.27759
275.0 0.00364 212.40613 295.42007
329.0 0.003040 212.45151 299.84912
305.0 0.003279 212.49695 302.36472
287.0 0.003484 212.54248 303.08511
306.0 0.003268 212.58801 302.10684
316.0 0.003165 212.63356 299.69150
301.0 0.003322 212.67908 296.33331
273.0 0.00366 212.72458 292.59424
267.0 0.00375 212.77000 288.80615
252.0 0.00397 212.81522 284.96405
293.0 0.003413 212.86041 280.98077
298.0 0.003356 212.90535 276.75394
266.0 0.00376 212.95013 272.44720
241.0 0.00415 212.99466 268.14197
252.0 0.00397 213.03891 263.96454
256.0 0.00391 213.08292 259.97855
251.0 0.00398 213.12660 256.19431
234.0 0.00427 213.16989 252.71964
259.0 0.00386 213.21289 249.66833
266.0 0.00376 213.25548 247.08542
260.0 0.00385 213.29759 244.93289
223.0 0.00448 213.33932 243.22060
241.0 0.00415 213.38057 242.01486
230.0 0.00435 213.42125 241.55632
229.0 0.00437 213.46161 242.01453
217.0 0.00461 213.50128 243.46762
248.0 0.00403 213.54045 245.83258
241.0 0.00415 213.57898 248.84509
253.0 0.00395 213.61690 252.04597
264.0 0.00379 213.65425 254.94044
247.0 0.00405 213.69090 256.85730
244.0 0.00410 213.72696 257.63849
272.0 0.00368 213.76233 257.54462
248.0 0.00403 213.79701 257.13507
269.0 0.00372 213.83090 256.94595
264.0 0.00379 213.86412 257.27390
276.0 0.00362 213.89662 258.09503
248.0 0.00403 213.92831 259.06137
232.0 0.00431 213.95918 259.59567
265.0 0.00377 213.98930 259.12753
242.0 0.00413 214.01860 257.38977
288.0 0.003472 214.04709 254.49174
264.0 0.00379 214.07480 250.74934
248.0 0.00403 214.10162 246.67781
239.0 0.00418 214.12764 242.75763
233.0 0.00429 214.15274 239.35620
229.0 0.00437 214.17696 236.64366
217.0 0.00461 214.20042 234.60349
202.0 0.00495 214.22296 233.06415
254.0 0.00394 214.24464 231.74805
223.0 0.00448 214.26538 230.39250
215.0 0.00465 214.28529 228.85913
230.0 0.00435 214.30426 227.16747
225.0 0.00444 214.32228 225.43013
186.0 0.00538 214.33952 223.76996
202.0 0.00495 214.35580 222.26489
232.0 0.00431 214.37120 220.97563
224.0 0.00446 214.38573 219.92410
201.0 0.00498 214.39932 219.10703
206.0 0.00485 214.41208 218.49817
181.0 0.00552 214.42390 218.06364
212.0 0.00472 214.43484 217.76648
233.0 0.00429 214.44499 217.57477
241.0 0.00415 214.45415 217.46669
194.0 0.00515 214.46260 217.43027
209.0 0.00478 214.47012 217.46758
190.0 0.00526 214.47679 217.58211
208.0 0.00481 214.48271 217.79326
202.0 0.00495 214.48770 218.12090
247.0 0.00405 214.49194 218.58418
213.0 0.00469 214.49545 219.19244
199.0 0.00503 214.49811 219.94092
237.0 0.00422 214.50003 220.80028
203.0 0.00493 214.50119 221.71211
224.0 0.00446 214.50162 222.58752
205.0 0.00488 214.50125 223.30362
240.0 0.00417 214.50038 223.73254
235.0 0.00426 214.49863 223.79346
244.0 0.00410 214.49631 223.50525
218.0 0.00459 214.49339 222.97978
224.0 0.00446 214.48981 222.36235
234.0 0.00427 214.48560 221.77782
219.0 0.00457 214.48085 221.31293
216.0 0.00463 214.47549 221.01482
235.0 0.00426 214.46965 220.89072
218.0 0.00459 214.46329 220.91565
233.0 0.00429 214.45647 221.03836
238.0 0.00420 214.44913 221.21298
237.0 0.00422 214.44136 221.34398
259.0 0.00386 214.43323 221.47716
243.0 0.00412 214.42468 221.63153
240.0 0.00417 214.41580 221.87631
209.0 0.00478 214.40656 222.32935
242.0 0.00413 214.39702 223.11336
222.0 0.00450 214.38722 224.37440
230.0 0.00435 214.37720 226.27791
255.0 0.00392 214.36693 229.01006
237.0 0.00422 214.35648 232.75969
231.0 0.00433 214.34584 237.67947
258.0 0.00388 214.33507 243.83719
272.0 0.00368 214.32426 251.20795
286.0 0.003497 214.31331 259.60144
280.0 0.00357 214.30238 268.60968
259.0 0.00386 214.29140 277.49506
308.0 0.003247 214.28041 285.34644
303.0 0.003300 214.26950 291.06073
341.0 0.002933 214.25862 293.90170
331.0 0.003021 214.24788 293.54794
291.0 0.003436 214.23727 290.22897
297.0 0.003367 214.22685 284.79413
287.0 0.003484 214.21657 278.35373
267.0 0.00375 214.20660 272.02298
229.0 0.00437 214.19681 266.62595
258.0 0.00388 214.18732 262.61090
260.0 0.00385 214.17819 260.06592
238.0 0.00420 214.16930 258.77670
258.0 0.00388 214.16084 258.28387
228.0 0.00439 214.15274 258.12857
234.0 0.00427 214.14513 257.93875
253.0 0.00395 214.13785 257.56888
275.0 0.00364 214.13118 256.99866
292.0 0.003425 214.12486 256.46698
286.0 0.003497 214.11914 256.24677
251.0 0.00398 214.11398 256.53882
234.0 0.00427 214.10938 257.41809
238.0 0.00420 214.10536 258.90445
225.0 0.00444 214.10194 261.09241
262.0 0.00382 214.09917 264.18436
262.0 0.00382 214.09703 268.36606
263.0 0.00380 214.09566 273.62457
277.0 0.00361 214.09489 279.58636
284.0 0.00352 214.09482 285.51459
323.0 0.003096 214.09560 290.28009
293.0 0.003413 214.09698 292.69586
333.0 0.003003 214.09923 291.96988
383.0 0.002611 214.10219 288.24280
336.0 0.002976 214.10600 282.33133
279.0 0.00358 214.11055 275.36163
255.0 0.00392 214.11594 268.39020
272.0 0.00368 214.12215 262.21191
242.0 0.00413 214.12921 257.32349
233.0 0.00429 214.13704 253.86954
255.0 0.00392 214.14571 251.64696
242.0 0.00413 214.15533 250.25432
243.0 0.00412 214.16573 249.04842
261.0 0.00383 214.17702 247.43929
269.0 0.00372 214.18909 245.13878
286.0 0.003497 214.20212 242.20044
258.0 0.00388 214.21593 238.94235
224.0 0.00446 214.23059 235.72104
227.0 0.00441 214.24612 232.84015
257.0 0.00389 214.26244 230.49519
219.0 0.00457 214.27959 228.77621
214.0 0.00467 214.29762 227.68549
234.0 0.00427 214.31648 227.13008
227.0 0.00441 214.33609 226.94576
198.0 0.00505 214.35645 226.91696
249.0 0.00402 214.37767 226.82642
235.0 0.00426 214.39963 226.49529
235.0 0.00426 214.42229 225.87369
249.0 0.00402 214.44566 225.03114
200.0 0.00500 214.46976 224.09717
245.0 0.00408 214.49458 223.19910
198.0 0.00505 214.51999 222.43414
224.0 0.00446 214.54610 221.85699
220.0 0.00455 214.57277 221.48630
210.0 0.00476 214.59999 221.30466
207.0 0.00483 214.62785 221.25316
234.0 0.00427 214.65614 221.26230
235.0 0.00426 214.68503 221.25502
228.0 0.00439 214.71422 221.17432
235.0 0.00426 214.74399 221.01067
239.0 0.00418 214.77409 220.78925
220.0 0.00455 214.80458 220.54863
248.0 0.00403 214.83534 220.32211
235.0 0.00426 214.86638 220.13730
239.0 0.00418 214.89763 220.02127
207.0 0.00483 214.92912 220.01030
218.0 0.00459 214.96077 220.15138
217.0 0.00461 214.99257 220.50539
222.0 0.00450 215.02435 221.14113
233.0 0.00429 215.05618 222.16364
212.0 0.00472 215.08803 223.67520
237.0 0.00422 215.11977 225.78462
193.0 0.00518 215.15144 228.59319
207.0 0.00483 215.18289 232.15309
223.0 0.00448 215.21419 236.45102
259.0 0.00386 215.24521 241.39023
253.0 0.00395 215.27592 246.66531
249.0 0.00402 215.30630 251.89432
245.0 0.00408 215.33620 256.53568
241.0 0.00415 215.36572 260.04736
269.0 0.00372 215.39476 262.00159
279.0 0.00358 215.42308 262.17996
276.0 0.00362 215.45097 260.62552
241.0 0.00415 215.47804 257.69507
237.0 0.00422 215.50450 253.98322
246.0 0.00407 215.53018 250.13440
226.0 0.00442 215.55507 246.67572
244.0 0.00410 215.57912 243.91916
230.0 0.00435 215.60219 241.94820
250.0 0.00400 215.62431 240.66949
253.0 0.00395 215.64545 239.84683
215.0 0.00465 215.66551 239.18765
258.0 0.00388 215.68451 238.41544
261.0 0.00383 215.70239 237.34064
230.0 0.00435 215.71899 235.87982
236.0 0.00424 215.73438 234.09158
239.0 0.00418 215.74855 232.15141
238.0 0.00420 215.76134 230.24214
229.0 0.00437 215.77284 228.63867
232.0 0.00431 215.78290 227.45609
200.0 0.00500 215.79158 226.88359
208.0 0.00481 215.79874 227.04411
223.0 0.00448 215.80443 228.03606
241.0 0.00415 215.80858 229.93791
225.0 0.00444 215.81119 232.78723
228.0 0.00439 215.81219 236.54964
265.0 0.00377 215.81163 241.08115
230.0 0.00435 215.80939 246.12169
266.0 0.00376 215.80557 251.22987
244.0 0.00410 215.80008 255.85066
272.0 0.00368 215.79285 259.26385
266.0 0.00376 215.78403 260.79074
255.0 0.00392 215.77342 260.16263
275.0 0.00364 215.76118 257.62918
260.0 0.00385 215.74722 253.87346
224.0 0.00446 215.73158 249.67133
258.0 0.00388 215.71423 245.67949
229.0 0.00437 215.69521 242.31644
203.0 0.00493 215.67450 239.85114
237.0 0.00422 215.65219 238.29544
233.0 0.00429 215.62816 237.50653
220.0 0.00455 215.60258 237.19910
237.0 0.00422 215.57539 236.99385
244.0 0.00410 215.54666 236.51976
258.0 0.00388 215.51643 235.54938
214.0 0.00467 215.48465 234.01697
229.0 0.00437 215.45151 232.20689
202.0 0.00495 215.41685 230.26556
212.0 0.00472 215.38104 228.36742
227.0 0.00441 215.34384 226.61319
228.0 0.00439 215.30536 225.06082
224.0 0.00446 215.26581 223.71010
222.0 0.00450 215.22510 222.54623
211.0 0.00474 215.18349 221.57201
211.0 0.00474 215.14079 220.77615
223.0 0.00448 215.09732 220.15553
186.0 0.00538 215.05307 219.71765
237.0 0.00422 215.00807 219.43745
206.0 0.00485 214.96252 219.35582
235.0 0.00426 214.91653 219.44012
239.0 0.00418 214.87009 219.67311
218.0 0.00459 214.82338 220.03865
223.0 0.00448 214.77650 220.46362
229.0 0.00437 214.72954 220.90636
225.0 0.00444 214.68269 221.30524
249.0 0.00402 214.63603 221.59872
227.0 0.00441 214.58966 221.74075
239.0 0.00418 214.54376 221.70110
226.0 0.00442 214.49843 221.52132
204.0 0.00490 214.45386 221.29024
222.0 0.00450 214.41016 221.11761
238.0 0.00420 214.36737 221.16513
220.0 0.00455 214.32581 221.47968
230.0 0.00435 214.28555 222.18246
215.0 0.00465 214.24680 223.32465
221.0 0.00452 214.20963 224.93686
261.0 0.00383 214.17424 226.98837
249.0 0.00402 214.14079 229.39140
252.0 0.00397 214.10941 231.97986
230.0 0.00435 214.08035 234.52245
256.0 0.00391 214.05367 236.72717
212.0 0.00472 214.02969 238.27309
254.0 0.00394 214.00836 238.92198
255.0 0.00392 213.99002 238.59694
245.0 0.00408 213.97479 237.43735
230.0 0.00435 213.96283 235.68018
216.0 0.00463 213.95428 233.64369
217.0 0.00461 213.94934 231.61348
256.0 0.00391 213.94817 229.82417
237.0 0.00422 213.95097 228.41597
230.0 0.00435 213.95786 227.43649
206.0 0.00485 213.96901 226.84546
240.0 0.00417 213.98451 226.52428
190.0 0.00526 214.00462 226.30725
232.0 0.00431 214.02934 226.02687
245.0 0.00408 214.05905 225.57115
234.0 0.00427 214.09370 224.92569
241.0 0.00415 214.13350 224.11029
223.0 0.00448 214.17856 223.20471
229.0 0.00437 214.22893 222.30585
227.0 0.00441 214.28485 221.50371
212.0 0.00472 214.34631 220.87874
219.0 0.00457 214.41362 220.48230
232.0 0.00431 214.48654 220.39777
191.0 0.00524 214.56535 220.66840
224.0 0.00446 214.65025 221.33049
218.0 0.00459 214.74113 222.44470
241.0 0.00415 214.83806 224.06512
259.0 0.00386 214.94107 226.18478
194.0 0.00515 215.05020 228.77399
232.0 0.00431 215.16557 231.72803
238.0 0.00420 215.28702 234.86174
246.0 0.00407 215.41466 237.90904
231.0 0.00433 215.54832 240.49988
222.0 0.00450 215.68811 242.22522
257.0 0.00389 215.83401 242.78790
275.0 0.00364 215.98581 242.13170
282.0 0.00355 216.14354 240.50233
246.0 0.00407 216.30690 238.32814
223.0 0.00448 216.47592 236.03479
222.0 0.00450 216.65065 233.94510
222.0 0.00450 216.83054 232.27771
223.0 0.00448 217.01579 231.13083
239.0 0.00418 217.20583 230.50487
224.0 0.00446 217.40067 230.29715
237.0 0.00422 217.60016 230.33693
244.0 0.00410 217.80377 230.40446
243.0 0.00412 218.01167 230.28889
253.0 0.00395 218.22293 229.86279
231.0 0.00433 218.43768 229.15015
235.0 0.00426 218.65561 228.19093
258.0 0.00388 218.87598 227.13805
247.0 0.00405 219.09886 226.10149
209.0 0.00478 219.32358 225.16418
236.0 0.00424 219.54971 224.37596
191.0 0.00524 219.77708 223.71901
206.0 0.00485 220.00471 223.27892
204.0 0.00490 220.23265 222.99597
224.0 0.00446 220.46007 222.84738
231.0 0.00433 220.68639 222.80510
216.0 0.00463 220.91158 222.85681
238.0 0.00420 221.13432 222.95134
234.0 0.00427 221.35468 223.09531
200.0 0.00500 221.57158 223.25531
216.0 0.00463 221.78461 223.43283
237.0 0.00422 221.99345 223.62216
213.0 0.00469 222.19685 223.81892
237.0 0.00422 222.39467 224.00580
246.0 0.00407 222.58591 224.21776
237.0 0.00422 222.76997 224.42682
209.0 0.00478 222.94655 224.63814
211.0 0.00474 223.11447 224.85167
226.0 0.00442 223.27336 225.06792
208.0 0.00481 223.42236 225.29344
194.0 0.00515 223.56079 225.51947
216.0 0.00463 223.68828 225.75279
200.0 0.00500 223.80389 226.00304
232.0 0.00431 223.90717 226.28549
234.0 0.00427 223.99730 226.59325
245.0 0.00408 224.07378 226.95241
243.0 0.00412 224.13617 227.38777
262.0 0.00382 224.18382 227.92928
220.0 0.00455 224.21623 228.61336
260.0 0.00385 224.23300 229.48755
229.0 0.00437 224.23369 230.59784
238.0 0.00420 224.21800 231.99094
220.0 0.00455 224.18564 233.69638
227.0 0.00441 224.13631 235.73055
235.0 0.00426 224.07007 238.07782
222.0 0.00450 223.98665 240.69464
232.0 0.00431 223.88615 243.49438
252.0 0.00397 223.76891 246.31097
243.0 0.00412 223.63495 248.93887
252.0 0.00397 223.48491 251.14706
263.0 0.00380 223.31905 252.79802
276.0 0.00362 223.13806 253.92615
260.0 0.00385 222.94295 254.70850
268.0 0.00373 222.73448 255.35068
236.0 0.00424 222.51414 255.97554
222.0 0.00450 222.28304 256.58792
257.0 0.00389 222.04259 257.11142
255.0 0.00392 221.79503 257.48926
237.0 0.00422 221.54198 257.79196
268.0 0.00373 221.28624 258.21762
228.0 0.00439 221.03000 258.98386
264.0 0.00379 220.77608 260.21576
267.0 0.00375 220.52812 261.90082
288.0 0.003472 220.28893 263.91461
244.0 0.00410 220.06329 266.02237
278.0 0.00360 219.85484 267.86844
273.0 0.00366 219.66835 268.97845
297.0 0.003367 219.50912 268.87555
300.0 0.003333 219.38240 267.30161
298.0 0.003356 219.29457 264.36380
264.0 0.00379 219.25198 260.47141
275.0 0.00364 219.26173 256.16449
242.0 0.00413 219.33151 251.97112
228.0 0.00439 219.46960 248.29550
235.0 0.00426 219.68481 245.40738
233.0 0.00429 219.98672 243.41656
266.0 0.00376 220.38605 242.30334
268.0 0.00373 220.89285 241.93103
246.0 0.00407 221.52020 242.06769
230.0 0.00435 222.27966 242.48526
251.0 0.00398 223.18477 242.96213
253.0 0.00395 224.25188 243.44273
266.0 0.00376 225.49332 244.01831
237.0 0.00422 226.92842 244.88817
226.0 0.00442 228.57246 246.26239
250.0 0.00400 230.44409 248.30736
243.0 0.00412 232.56607 251.12544
259.0 0.00386 234.95576 254.72112
252.0 0.00397 237.63905 259.02032
260.0 0.00385 240.63570 263.83636
249.0 0.00402 243.97139 268.89603
266.0 0.00376 247.67758 273.88400
301.0 0.003322 251.77640 278.49481
285.0 . . .
loop_
_refln_index_h
_refln_index_k
_refln_index_l
_pd_refln_wavelength_id
_refln_observed_status
_refln_F_squared_meas
_refln_F_squared_calc
_refln_phase_calc
_refln_d_spacing
_gsas_i100_meas
1 0 0 1 o 250.568 243.833 0.00 8.23388 40.66
1 0 0 2 o 254.788 243.833 0.00 8.23388 15.62
1 1 0 1 o 9.435 10.905 180.00 4.84996 0.94
1 1 0 2 o 9.178 10.905 180.00 4.84996 0.34
0 0 1 1 o 6.289 7.421 0.00 4.55140 0.25
0 0 1 2 o 1.267 7.421 0.00 4.55140 0.00
2 0 0 1 o 171.369 154.413 180.00 4.11694 6.59
1 0 -1 1 o 179.781 162.319 0.00 4.11209 6.50
2 0 0 2 o 170.210 154.413 180.00 4.11694 2.48
1 0 -1 2 o 173.544 162.319 0.00 4.11209 2.38
1 0 1 1 o 1208.983 1196.484 180.00 3.86599 44.91
1 0 1 2 o 1212.215 1196.484 180.00 3.86599 17.02
0 1 1 1 o -1.542 0.814 0.00 3.62650 0.00
0 1 1 2 o -1.542 0.814 0.00 3.62650 0.00
2 1 0 1 o 488.730 471.909 0.00 3.39494 29.61
1 1 -1 1 o 1754.108 1713.345 180.00 3.39222 100.00
2 1 0 2 o 477.591 471.909 0.00 3.39494 10.95
1 1 -1 2 o 1712.237 1713.345 180.00 3.39222 36.93
1 1 1 1 o 400.610 392.661 180.00 3.25005 22.16
1 1 1 2 o 395.712 392.661 180.00 3.25005 8.27
2 0 -1 1 o 400.712 417.848 0.00 3.17014 8.48
2 0 -1 2 o 368.957 417.848 0.00 3.17014 2.97
0 2 0 1 o 2483.889 2489.867 180.00 3.00078 49.90
0 2 0 2 o 2391.497 2489.867 180.00 3.00078 18.18
2 0 1 1 o 266.292 251.263 180.00 2.94830 5.09
2 0 1 2 o 279.295 251.263 180.00 2.94830 2.01
1 2 0 1 o 179.967 161.717 180.00 2.81939 6.89
1 2 0 2 o 179.273 161.717 180.00 2.81939 2.59
2 1 -1 1 o 35.265 32.410 180.00 2.80312 1.36
2 1 -1 2 o 34.318 32.410 180.00 2.80312 0.50
3 0 0 1 o 827.984 806.309 180.00 2.74463 13.40
3 0 0 2 o 746.698 806.309 180.00 2.74463 4.59
2 1 1 1 o 886.533 880.221 180.00 2.64623 30.03
2 1 1 2 o 815.724 880.221 180.00 2.64623 10.48
0 2 1 1 o -1.367 0.196 0.00 2.50528 0.00
0 2 1 2 o -1.367 0.196 0.00 2.50528 0.00
3 1 0 1 o 0.325 3.254 180.00 2.49600 0.00
3 1 0 2 o 2.232 3.254 180.00 2.49600 0.02
3 0 -1 1 o 1091.433 1052.138 0.00 2.42987 12.72
2 2 0 1 o 71.180 69.173 0.00 2.42498 2.09
1 2 -1 1 o 68.125 66.015 180.00 2.42399 1.88
3 0 -1 2 o 1086.497 1052.138 0.00 2.42987 4.79
2 2 0 2 o 73.537 69.173 0.00 2.42498 0.81
1 2 -1 2 o 70.863 66.015 180.00 2.42399 0.74
1 2 1 1 o 634.299 629.733 0.00 2.37049 17.84
1 2 1 2 o 619.402 629.733 0.00 2.37049 6.59
3 0 1 1 o 5.384 14.453 180.00 2.27817 0.04
0 0 2 1 o 0.773 0.939 0.00 2.27570 0.01
3 0 1 2 o 22.109 14.453 180.00 2.27817 0.08
0 0 2 2 o 3.073 0.939 0.00 2.27570 0.01
3 1 -1 1 o -1.961 10.390 0.00 2.25227 0.00
3 1 -1 2 o -1.961 10.390 0.00 2.25227 0.00
1 0 -2 1 o 95.671 110.860 180.00 2.23565 1.05
1 0 -2 2 o 134.370 110.860 180.00 2.23565 0.54
2 2 -1 1 o 296.195 276.022 180.00 2.17929 6.67
2 2 -1 2 o 306.335 276.022 180.00 2.17929 2.60
1 0 2 1 o 270.517 251.589 0.00 2.15358 2.90
1 0 2 2 o 272.239 251.589 0.00 2.15358 1.10
3 1 1 1 o 94.425 91.048 180.00 2.12988 1.96
0 1 2 1 o 719.077 700.935 180.00 2.12786 15.11
3 1 1 2 o 92.155 91.048 180.00 2.12988 0.73
0 1 2 2 o 698.144 700.935 180.00 2.12786 5.55
2 2 1 1 o 119.254 105.523 0.00 2.10307 2.53
2 2 1 2 o 110.748 105.523 0.00 2.10307 0.89
1 1 -2 1 o 170.860 167.200 0.00 2.09501 3.32
1 1 -2 2 o 169.974 167.200 0.00 2.09501 1.25
4 0 0 1 o 295.971 287.623 180.00 2.05847 2.51
2 0 -2 1 o 365.890 359.400 180.00 2.05605 2.99
4 0 0 2 o 288.817 287.623 180.00 2.05847 0.93
2 0 -2 2 o 340.831 359.400 180.00 2.05605 1.06
1 1 2 1 o 102.256 99.161 180.00 2.02703 1.97
3 2 0 1 o 457.676 446.572 0.00 2.02526 8.90
1 1 2 2 o 99.051 99.161 180.00 2.02703 0.72
3 2 0 2 o 437.608 446.572 0.00 2.02526 3.22
4 1 0 1 o 77.648 85.098 180.00 1.94712 1.28
2 1 -2 1 o 1.205 1.288 0.00 1.94507 0.01
1 3 0 1 o 27.542 30.093 180.00 1.94397 0.50
4 1 0 2 o 79.476 85.098 180.00 1.94712 0.49
2 1 -2 2 o 1.221 1.288 0.00 1.94507 0.01
1 3 0 2 o 26.748 30.093 180.00 1.94397 0.18
2 0 2 1 o 31.939 51.091 0.00 1.93299 0.30
4 0 -1 1 o 3.173 3.613 180.00 1.92903 0.02
2 0 2 2 o 41.848 51.091 0.00 1.93299 0.14
4 0 -1 2 o 1.440 3.613 180.00 1.92903 0.00
3 2 -1 1 o 451.388 454.958 180.00 1.88840 7.12
3 2 -1 2 o 488.595 454.958 180.00 1.88840 2.90
2 1 2 1 o 9.955 11.715 0.00 1.83992 0.17
4 1 -1 1 o 53.432 61.791 0.00 1.83649 0.80
2 1 2 2 o 10.287 11.715 0.00 1.83992 0.07
4 1 -1 2 o 62.648 61.791 0.00 1.83649 0.35
0 3 1 1 o 20.019 19.250 180.00 1.83142 0.32
0 3 1 2 o 21.665 19.250 180.00 1.83142 0.13
4 0 1 1 o 589.803 524.789 0.00 1.82632 3.66
4 0 1 2 o 644.601 524.789 0.00 1.82632 1.51
3 0 -2 1 o 45.238 37.654 0.00 1.81807 0.24
3 2 1 1 o 1.049 0.646 180.00 1.81450 0.03
3 0 -2 2 o 49.228 37.654 0.00 1.81807 0.10
0 2 2 1 o 18.833 13.830 180.00 1.81325 0.28
3 2 1 2 o 1.406 0.646 180.00 1.81450 0.01
0 2 2 2 o 20.689 13.830 180.00 1.81325 0.11
2 3 0 1 o 211.391 190.687 180.00 1.79934 2.99
1 3 -1 1 o 614.456 549.288 0.00 1.79893 8.35
2 3 0 2 o 216.459 190.687 180.00 1.79934 1.16
1 3 -1 2 o 617.037 549.288 0.00 1.79893 3.17
1 2 -2 1 o 58.249 53.782 0.00 1.79279 0.86
1 2 -2 2 o 44.510 53.782 0.00 1.79279 0.26
1 3 1 1 o 130.081 116.866 0.00 1.77674 1.74
1 3 1 2 o 121.643 116.866 0.00 1.77674 0.62
1 2 2 1 o 112.417 128.894 180.00 1.74964 1.65
4 1 1 1 o 44.853 51.079 0.00 1.74721 0.52
1 2 2 2 o 112.106 128.894 180.00 1.74964 0.62
4 1 1 2 o 47.640 51.079 0.00 1.74721 0.21
3 1 -2 1 o 138.605 145.596 180.00 1.73999 1.62
3 1 -2 2 o 151.300 145.596 180.00 1.73999 0.66
4 2 0 1 o 154.757 182.712 0.00 1.69747 1.96
2 2 -2 1 o 228.655 262.796 0.00 1.69611 2.79
4 2 0 2 o 163.836 182.712 0.00 1.69747 0.78
3 0 2 1 o 14.977 16.222 180.00 1.69236 0.08
2 2 -2 2 o 244.664 262.796 0.00 1.69611 1.12
2 3 -1 1 o 37.603 40.239 0.00 1.69182 0.47
3 0 2 2 o 16.647 16.222 180.00 1.69236 0.03
2 3 -1 2 o 41.656 40.239 0.00 1.69182 0.19
2 3 1 1 o 329.087 282.852 0.00 1.65541 3.91
2 3 1 2 o 355.494 282.852 0.00 1.65541 1.59
5 0 0 1 o 0.676 0.416 180.00 1.64678 0.00
5 0 0 2 o 0.677 0.416 180.00 1.64678 0.00
3 1 2 1 o 647.818 628.038 0.00 1.62884 6.80
2 2 2 1 o 48.192 47.030 180.00 1.62503 0.60
3 1 2 2 o 641.839 628.038 0.00 1.62884 2.55
4 2 -1 1 o 0.818 0.785 0.00 1.62267 0.01
2 2 2 2 o 53.436 47.030 180.00 1.62503 0.25
4 2 -1 2 o 1.026 0.785 0.00 1.62267 0.00
3 3 0 1 o 0.332 0.201 180.00 1.61665 0.01
3 3 0 2 o 0.501 0.201 180.00 1.61665 0.00
5 1 0 1 o 259.470 276.662 180.00 1.58808 2.49
5 0 -1 1 o 210.167 229.276 180.00 1.58590 0.94
4 0 -2 1 o 106.623 117.385 0.00 1.58507 0.45
5 1 0 2 o 251.032 276.662 180.00 1.58808 0.91
5 0 -1 2 o 206.760 229.276 180.00 1.58590 0.35
4 0 -2 2 o 102.858 117.385 0.00 1.58507 0.17
4 2 1 1 o 301.545 292.815 180.00 1.56009 3.02
4 2 1 2 o 327.022 292.815 180.00 1.56009 1.23
3 2 -2 1 o 15.535 13.118 180.00 1.55494 0.13
3 2 -2 2 o 18.588 13.118 180.00 1.55494 0.06
3 3 -1 1 o 11.860 9.971 180.00 1.54443 0.12
3 3 -1 2 o 15.059 9.971 180.00 1.54443 0.06
5 1 -1 1 o 56.182 54.360 0.00 1.53328 0.50
4 1 -2 1 o 476.932 449.619 180.00 1.53252 3.84
5 1 -1 2 o 59.935 54.360 0.00 1.53328 0.20
4 1 -2 2 o 492.676 449.619 180.00 1.53252 1.50
0 0 3 1 o 1.001 12.312 0.00 1.51713 0.01
5 0 1 1 o 24.181 47.116 0.00 1.51368 0.11
0 0 3 2 o 6.202 12.312 0.00 1.51713 0.01
1 0 -3 1 o 96.712 136.931 0.00 1.51176 0.44
5 0 1 2 o 40.461 47.116 0.00 1.51368 0.06
1 0 -3 2 o 113.630 136.931 0.00 1.51176 0.19
3 3 1 1 o 86.693 90.399 0.00 1.50321 0.85
0 3 2 1 o 382.898 386.023 0.00 1.50250 3.62
0 4 0 1 o 534.726 506.735 0.00 1.50039 2.16
3 3 1 2 o 96.983 90.399 0.00 1.50321 0.36
0 3 2 2 o 416.735 386.023 0.00 1.50250 1.48
0 4 0 2 o 559.060 506.735 0.00 1.50039 0.85
1 3 -2 1 o 44.308 50.497 180.00 1.49080 0.43
1 3 -2 2 o 52.039 50.497 180.00 1.49080 0.19
1 4 0 1 o 64.812 54.069 0.00 1.47609 0.52
4 0 2 1 o 5.601 4.809 180.00 1.47415 0.03
3 2 2 1 o 13.967 12.615 0.00 1.47409 0.12
1 0 3 1 o 13.293 13.093 180.00 1.47303 0.06
1 4 0 2 o 52.543 54.069 0.00 1.47609 0.16
0 1 3 1 o 129.631 140.386 0.00 1.47086 1.13
4 0 2 2 o 4.294 4.809 180.00 1.47415 0.01
3 2 2 2 o 11.690 12.615 0.00 1.47409 0.04
1 0 3 2 o 11.905 13.093 180.00 1.47303 0.02
5 1 1 1 o 64.698 70.657 0.00 1.46772 0.53
0 1 3 2 o 130.964 140.386 0.00 1.47086 0.43
1 1 -3 1 o 7.114 7.098 0.00 1.46596 0.05
1 3 2 1 o 66.607 65.356 0.00 1.46571 0.60
5 1 1 2 o 79.929 70.657 0.00 1.46772 0.24
1 1 -3 2 o 8.373 7.098 0.00 1.46596 0.02
1 3 2 2 o 77.524 65.356 0.00 1.46571 0.26
2 0 -3 1 o 65.404 48.248 0.00 1.45841 0.24
2 0 -3 2 o 87.132 48.248 0.00 1.45841 0.12
5 2 0 1 o 0.076 0.023 0.00 1.44367 0.00
5 2 0 2 o 0.076 0.023 0.00 1.44367 0.00
4 3 0 1 o 62.600 55.156 0.00 1.43463 0.54
2 3 -2 1 o 0.266 0.230 0.00 1.43381 0.00
4 1 2 1 o 111.044 116.074 0.00 1.43159 0.84
4 3 0 2 o 51.034 55.156 0.00 1.43463 0.17
1 1 3 1 o 126.892 141.136 0.00 1.43057 1.06
2 3 -2 2 o 0.191 0.230 0.00 1.43381 0.00
4 1 2 2 o 101.777 116.074 0.00 1.43159 0.29
1 1 3 2 o 132.958 141.136 0.00 1.43057 0.42
0 4 1 1 o 7.985 6.562 180.00 1.42496 0.07
0 4 1 2 o 5.278 6.562 180.00 1.42496 0.02
2 1 -3 2 o 185.580 173.621 0.00 1.41717 0.50
2 1 -3 1 o 172.090 173.621 0.00 1.41717 1.23
2 4 0 1 o 40.947 24.266 180.00 1.40969 0.30
1 4 -1 1 o 25.325 14.894 0.00 1.40950 0.18
2 4 0 2 o 38.591 24.266 180.00 1.40969 0.11
1 4 -1 2 o 22.967 14.894 0.00 1.40950 0.06
5 2 -1 1 o 152.324 143.589 0.00 1.40213 1.14
4 2 -2 1 o 72.705 70.798 180.00 1.40156 0.53
1 4 1 1 o 211.116 202.134 180.00 1.39874 1.58
5 2 -1 2 o 150.313 143.589 0.00 1.40213 0.42
4 2 -2 2 o 75.791 70.798 180.00 1.40156 0.21
1 4 1 2 o 229.448 202.134 180.00 1.39874 0.64
2 0 3 1 o 308.929 273.105 180.00 1.39108 1.14
2 3 2 1 o 12.799 11.486 180.00 1.39009 0.11
4 3 -1 1 o 81.030 79.204 180.00 1.38862 0.65
2 0 3 2 o 268.053 273.105 180.00 1.39108 0.38
2 3 2 2 o 10.794 11.486 180.00 1.39009 0.04
4 3 -1 2 o 70.056 79.204 180.00 1.38862 0.22
5 0 -2 1 o 41.630 61.574 0.00 1.38277 0.14
5 0 -2 2 o 71.380 61.574 0.00 1.38277 0.09
6 0 0 1 o 56.100 28.098 0.00 1.37231 0.18
3 0 -3 1 o 0.875 0.533 0.00 1.37070 0.00
6 0 0 2 o 12.305 28.098 0.00 1.37231 0.02
3 0 -3 2 o 0.064 0.533 0.00 1.37070 0.00
2 4 -1 1 o 106.437 98.900 0.00 1.35617 0.75
2 1 3 1 o 4.435 3.852 0.00 1.35515 0.03
0 2 3 1 o 11.482 9.988 180.00 1.35393 0.09
2 4 -1 2 o 110.901 98.900 0.00 1.35617 0.30
2 1 3 2 o 4.091 3.852 0.00 1.35515 0.01
5 2 1 1 o 33.694 32.573 180.00 1.35148 0.24
0 2 3 2 o 9.821 9.988 180.00 1.35393 0.03
1 2 -3 1 o 121.513 124.904 180.00 1.35010 0.88
4 3 1 1 o 11.845 12.202 180.00 1.34879 0.08
5 2 1 2 o 31.559 32.573 180.00 1.35148 0.09
5 1 -2 1 o 3.846 3.958 180.00 1.34747 0.02
1 2 -3 2 o 122.125 124.904 180.00 1.35010 0.33
4 3 1 2 o 12.575 12.202 180.00 1.34879 0.03
3 3 -2 1 o 102.157 98.820 0.00 1.34546 0.73
5 1 -2 2 o 4.202 3.958 180.00 1.34747 0.01
3 3 -2 2 o 95.755 98.820 0.00 1.34546 0.26
6 0 -1 1 o 289.927 302.682 180.00 1.34115 0.87
6 0 -1 2 o 242.968 302.682 180.00 1.34115 0.28
6 1 0 1 o -0.023 0.010 0.00 1.33779 0.00
2 4 1 1 o 25.704 32.840 180.00 1.33720 0.18
3 1 -3 1 o 188.604 246.059 0.00 1.33629 1.15
6 1 0 2 o -0.031 0.010 0.00 1.33779 0.00
2 4 1 2 o 24.651 32.840 180.00 1.33720 0.07
3 1 -3 2 o 182.482 246.059 0.00 1.33629 0.42
4 2 2 1 o 9.206 7.320 0.00 1.32311 0.07
1 2 3 1 o 18.900 13.277 0.00 1.32231 0.13
4 2 2 2 o 10.202 7.320 0.00 1.32311 0.03
1 2 3 2 o 17.004 13.277 0.00 1.32231 0.05
3 4 0 1 o 219.876 158.147 180.00 1.31652 1.46
3 4 0 2 o 223.896 158.147 180.00 1.31652 0.56
2 2 -3 1 o 42.304 29.920 180.00 1.31170 0.27
6 1 -1 1 o 1.784 1.062 180.00 1.30886 0.01
2 2 -3 2 o 49.226 29.920 180.00 1.31170 0.12
6 1 -1 2 o 2.240 1.062 180.00 1.30886 0.01
3 3 2 1 o 327.700 300.406 180.00 1.29205 2.19
5 0 2 1 o 102.695 102.150 180.00 1.29025 0.29
3 3 2 2 o 294.359 300.406 180.00 1.29205 0.75
3 0 3 1 o 49.187 50.250 180.00 1.28866 0.16
6 0 1 1 o 18.020 18.545 180.00 1.28823 0.05
5 0 2 2 o 91.890 102.150 180.00 1.29025 0.10
3 0 3 2 o 46.822 50.250 180.00 1.28866 0.06
6 0 1 2 o 18.800 18.545 180.00 1.28823 0.02
3 4 -1 1 o 170.836 150.629 0.00 1.27663 1.06
3 4 -1 2 o 151.208 150.629 0.00 1.27663 0.36
5 3 0 1 o 146.316 145.901 0.00 1.27142 0.95
5 3 0 2 o 147.832 145.901 0.00 1.27142 0.36
4 0 -3 1 o 35.061 29.822 180.00 1.26608 0.09
4 0 -3 2 o 29.010 29.822 180.00 1.26608 0.03
2 2 3 1 o 226.496 231.270 0.00 1.26206 1.43
5 1 2 1 o 19.447 19.501 180.00 1.26143 0.11
3 1 3 1 o 0.539 0.521 180.00 1.25995 0.01
6 1 1 1 o 218.395 213.519 0.00 1.25954 1.18
2 2 3 2 o 238.316 231.270 0.00 1.26206 0.57
5 1 2 2 o 19.826 19.501 180.00 1.26143 0.04
3 1 3 2 o 0.439 0.521 180.00 1.25995 0.00
6 1 1 2 o 196.677 213.519 0.00 1.25954 0.40
5 2 -2 1 o 50.954 56.272 180.00 1.25585 0.30
3 4 1 1 o 4.731 4.384 0.00 1.25305 0.03
5 2 -2 2 o 63.432 56.272 180.00 1.25585 0.14
0 4 2 1 o 8.345 7.312 0.00 1.25264 0.05
3 4 1 2 o 5.525 4.384 0.00 1.25305 0.01
0 4 2 2 o 8.515 7.312 0.00 1.25264 0.02
6 2 0 1 o 30.206 31.027 180.00 1.24800 0.19
3 2 -3 1 o 1.360 1.376 180.00 1.24679 0.01
1 4 -2 1 o 26.097 25.053 180.00 1.24583 0.17
6 2 0 2 o 32.722 31.027 180.00 1.24800 0.08
5 3 -1 2 o 30.196 33.496 180.00 1.24277 0.07
4 3 -2 2 o 209.967 219.901 0.00 1.24237 0.46
3 2 -3 2 o 1.402 1.376 180.00 1.24679 0.00
4 1 -3 1 o 3.719 3.644 180.00 1.23881 0.02
1 4 -2 2 o 25.319 25.053 180.00 1.24583 0.06
5 3 -1 1 o 33.839 33.496 180.00 1.24277 0.21
4 3 -2 1 o 220.039 219.901 0.00 1.24237 1.27
4 1 -3 2 o 4.956 3.644 180.00 1.23881 0.01
1 4 2 1 o 81.589 56.075 0.00 1.23108 0.49
1 4 2 2 o 58.100 56.075 0.00 1.23108 0.14
6 2 -1 1 o 178.715 219.046 0.00 1.22442 0.99
6 2 -1 2 o 206.823 219.046 0.00 1.22442 0.43
6 0 -2 1 o 21.385 14.840 0.00 1.21493 0.05
4 4 0 1 o 87.930 75.990 180.00 1.21249 0.51
2 4 -2 1 o 144.563 122.946 180.00 1.21199 0.82
6 0 -2 2 o 17.592 14.840 0.00 1.21493 0.02
4 4 0 2 o 88.854 75.990 180.00 1.21249 0.20
2 4 -2 2 o 142.756 122.946 180.00 1.21199 0.31
0 3 3 1 o 80.130 69.197 180.00 1.20883 0.48
5 3 1 1 o 54.443 49.394 180.00 1.20709 0.32
1 3 -3 1 o 2.966 2.639 180.00 1.20611 0.02
0 3 3 2 o 80.335 69.197 180.00 1.20883 0.18
5 3 1 2 o 92.713 49.394 180.00 1.20709 0.20
1 3 -3 2 o 5.719 2.639 180.00 1.20611 0.01
6 1 -2 1 o 70.986 53.064 0.00 1.19078 0.33
6 1 -2 2 o 50.261 53.064 0.00 1.19078 0.09
1 5 0 1 o 11.597 12.253 0.00 1.18776 0.07
4 3 2 1 o 70.243 70.256 180.00 1.18675 0.40
1 3 3 1 o 81.248 80.728 180.00 1.18617 0.48
5 2 2 1 o 87.976 89.458 0.00 1.18533 0.47
2 4 2 1 o 26.728 27.318 0.00 1.18524 0.16
1 5 0 2 o 11.694 12.253 0.00 1.18776 0.03
4 4 -1 1 o 0.103 0.109 180.00 1.18433 0.00
3 2 3 1 o 39.532 42.781 0.00 1.18409 0.23
4 3 2 2 o 64.493 70.256 180.00 1.18675 0.14
6 2 1 1 o 15.320 16.732 0.00 1.18376 0.08
1 3 3 2 o 73.021 80.728 180.00 1.18617 0.16
5 2 2 2 o 80.946 89.458 0.00 1.18533 0.16
2 4 2 2 o 24.611 27.318 0.00 1.18524 0.06
4 4 -1 2 o 0.100 0.109 180.00 1.18433 0.00
3 2 3 2 o 38.039 42.781 0.00 1.18409 0.08
4 0 3 1 o 31.832 36.260 0.00 1.18091 0.08
6 2 1 2 o 14.527 16.732 0.00 1.18376 0.03
2 3 -3 1 o 90.810 100.161 180.00 1.17849 0.49
4 0 3 2 o 34.115 36.260 0.00 1.18091 0.03
7 0 0 1 o 192.462 204.234 0.00 1.17627 0.44
2 3 -3 2 o 89.357 100.161 180.00 1.17849 0.18
7 0 0 2 o 72.900 204.234 0.00 1.17627 0.07
4 2 -3 1 o 26.222 23.099 0.00 1.16650 0.14
4 2 -3 2 o 60.506 23.099 0.00 1.16650 0.11
0 5 1 1 o 14.300 9.474 0.00 1.16063 0.07
7 0 -1 1 o 4.117 3.167 180.00 1.15948 0.01
4 4 1 1 o 151.461 120.722 0.00 1.15933 0.82
4 1 3 1 o 117.119 100.608 180.00 1.15869 0.58
5 0 -3 1 o 109.553 95.381 180.00 1.15861 0.23
0 5 1 2 o 9.546 9.474 0.00 1.16063 0.02
3 4 -2 1 o 1.964 2.073 0.00 1.15721 0.01
7 0 -1 2 o 2.872 3.167 180.00 1.15948 0.00
4 4 1 2 o 110.770 120.722 0.00 1.15933 0.23
4 1 3 2 o 95.860 100.608 180.00 1.15869 0.18
5 0 -3 2 o 91.440 95.381 180.00 1.15861 0.07
3 4 -2 2 o 1.986 2.073 0.00 1.15721 0.00
7 1 0 1 o 69.409 73.095 0.00 1.15431 0.32
2 5 0 1 o 83.898 71.035 0.00 1.15234 0.41
1 5 -1 1 o 200.664 168.925 180.00 1.15223 0.96
7 1 0 2 o 87.228 73.095 0.00 1.15431 0.15
2 5 0 2 o 86.130 71.035 0.00 1.15234 0.16
1 5 -1 2 o 205.749 168.925 180.00 1.15223 0.37
1 5 1 1 o 34.985 30.566 180.00 1.14633 0.17
1 5 1 2 o 56.094 30.566 180.00 1.14633 0.10
2 3 3 1 o 4.514 2.099 180.00 1.14210 0.02
2 3 3 2 o 1.657 2.099 180.00 1.14210 0.00
6 0 2 1 o 1.174 1.485 180.00 1.13908 0.00
1 0 -4 1 o 100.891 114.953 180.00 1.13843 0.24
7 1 -1 1 o 7.894 9.255 180.00 1.13843 0.04
0 0 4 1 o 94.430 104.191 180.00 1.13785 0.24
5 1 -3 1 o 56.416 61.949 180.00 1.13761 0.24
5 3 -2 1 o 1.983 2.168 0.00 1.13749 0.01
6 0 2 2 o 1.420 1.485 180.00 1.13908 0.00
1 0 -4 2 o 118.303 114.953 180.00 1.13843 0.11
7 1 -1 2 o 9.581 9.255 180.00 1.13843 0.02
0 0 4 2 o 109.837 104.191 180.00 1.13785 0.10
5 1 -3 2 o 64.544 61.949 180.00 1.13761 0.10
5 3 -2 2 o 2.231 2.168 0.00 1.13749 0.00
6 3 0 1 o 0.780 0.877 0.00 1.13165 0.01
3 3 -3 1 o 149.829 159.340 180.00 1.13074 0.74
6 3 0 2 o 0.562 0.877 0.00 1.13165 0.00
3 3 -3 2 o 110.999 159.340 180.00 1.13074 0.21
6 2 -2 1 o 4.206 8.814 180.00 1.12613 0.02
3 4 2 2 o 6.494 4.536 180.00 1.12270 0.01
2 5 -1 2 o 16.810 11.501 180.00 1.12254 0.03
6 2 -2 2 o 16.900 8.814 180.00 1.12613 0.03
7 0 1 1 o 25.571 18.682 180.00 1.11929 0.06
6 1 2 1 o 82.654 63.680 180.00 1.11910 0.37
3 4 2 1 o 8.156 4.536 180.00 1.12270 0.04
2 5 -1 1 o 21.601 11.501 180.00 1.12254 0.10
1 1 -4 1 o 22.358 19.036 180.00 1.11849 0.11
0 1 4 1 o 1.660 1.531 0.00 1.11794 0.01
2 0 -4 1 o 0.014 0.012 0.00 1.11782 0.00
7 0 1 2 o 21.693 18.682 180.00 1.11929 0.02
6 1 2 2 o 74.861 63.680 180.00 1.11910 0.13
1 0 4 1 o 1.043 0.839 180.00 1.11618 0.00
1 1 -4 2 o 23.462 19.036 180.00 1.11849 0.04
0 1 4 2 o 1.740 1.531 0.00 1.11794 0.00
2 0 -4 2 o 0.015 0.012 0.00 1.11782 0.00
6 3 -1 1 o 0.837 0.853 0.00 1.11398 0.00
1 0 4 2 o 0.860 0.839 180.00 1.11618 0.00
2 5 1 1 o 113.647 98.629 180.00 1.11171 0.55
6 3 -1 2 o 1.003 0.853 0.00 1.11398 0.00
5 4 0 1 o 0.057 0.037 0.00 1.10909 0.00
2 5 1 2 o 134.843 98.629 180.00 1.11171 0.24
5 4 0 2 o 0.003 0.037 0.00 1.10909 0.00
7 1 1 1 o 5.057 3.566 0.00 1.10031 0.02
3 5 0 1 o 0.315 0.278 0.00 1.09974 0.00
2 1 -4 1 o 44.049 45.494 180.00 1.09892 0.20
4 2 3 1 o 32.403 33.430 180.00 1.09888 0.15
7 1 1 2 o 3.213 3.566 0.00 1.10031 0.01
1 1 4 1 o 66.548 74.136 180.00 1.09736 0.33
3 5 0 2 o 0.245 0.278 0.00 1.09974 0.00
2 1 -4 2 o 45.907 45.494 180.00 1.09892 0.08
4 2 3 2 o 33.928 33.430 180.00 1.09888 0.06
7 2 0 1 o 166.560 144.793 180.00 1.09514 0.75
1 1 4 2 o 86.266 74.136 180.00 1.09736 0.16
7 2 0 2 o 161.562 144.793 180.00 1.09514 0.28
5 4 -1 1 o 55.710 61.976 180.00 1.08991 0.28
