#------------------------------------------------------------------------------
#$Date: 2016-02-18 17:37:37 +0200 (Thu, 18 Feb 2016) $
#$Revision: 176729 $
#$URL: svn://www.crystallography.net/cod/cif/1/51/19/1511966.cif $
#------------------------------------------------------------------------------
#
# This file is available in the Crystallography Open Database (COD),
# http://www.crystallography.net/
#
# All data on this site have been placed in the public domain by the
# contributors.
#
data_1511966
loop_
_publ_author_name
'Coffman, Keith C.'
'Palazzo, Teresa A.'
'Hartley, Timothy P.'
'Fettinger, James C.'
'Tantillo, Dean J.'
'Kurth, Mark J.'
_publ_section_title
;
 Heterocycle-Heterocycle Strategies: (2-Nitrophenyl)isoxazole Precursors
 to 4-Aminoquinolines, 1H-Indoles, and Quinolin-4(1H)-ones.
;
_journal_issue                   8
_journal_name_full               'Organic letters'
_journal_page_first              2062
_journal_page_last               2065
_journal_paper_doi               10.1021/ol400787y
_journal_volume                  15
_journal_year                    2013
_chemical_formula_moiety         'C17 H15 N O2'
_chemical_formula_sum            'C17 H15 N O2'
_chemical_formula_weight         265.30
_chemical_name_systematic
; 
 ? 
;
_space_group_crystal_system      triclinic
_space_group_IT_number           2
_space_group_name_Hall           '-P 1'
_space_group_name_H-M_alt        'P -1'
_symmetry_space_group_name_Hall  '-P 1'
_symmetry_space_group_name_H-M   'P -1'
_atom_sites_solution_hydrogens   difmap
_audit_creation_method           SHELXL-2012
_cell_angle_alpha                94.2900(10)
_cell_angle_beta                 98.4570(10)
_cell_angle_gamma                96.9540(10)
_cell_formula_units_Z            2
_cell_length_a                   7.3367(2)
_cell_length_b                   8.3229(2)
_cell_length_c                   10.8176(2)
_cell_measurement_reflns_used    6849
_cell_measurement_temperature    90(2)
_cell_measurement_theta_max      72.23
_cell_measurement_theta_min      4.15
_cell_volume                     645.67(3)
_computing_cell_refinement       'SAINT (8.27b) (Bruker, 2012)'
_computing_data_collection       'Apex2 (2012.2-0) (Bruker, 2012)'
_computing_data_reduction        'SAINT (8.27b) (Bruker, 2012)'
_computing_molecular_graphics    'Bruker SHELXTL'
_computing_publication_material  'Bruker SHELXTL'
_computing_structure_refinement  'SHELXL-2012 (Sheldrick, 2012)'
_computing_structure_solution    'SHELXS-97 (Sheldrick, 2008)'
_diffrn_ambient_temperature      90(2)
_diffrn_measured_fraction_theta_full 0.963
_diffrn_measured_fraction_theta_max 0.955
_diffrn_measurement_device_type  'Bruker Duo APEX-II CCD'
_diffrn_measurement_method       '\f and \w'
_diffrn_radiation_type           CuK\a
_diffrn_radiation_wavelength     1.54178
_diffrn_reflns_av_R_equivalents  0.0385
_diffrn_reflns_av_unetI/netI     0.0257
_diffrn_reflns_Laue_measured_fraction_full 0.963
_diffrn_reflns_Laue_measured_fraction_max 0.955
_diffrn_reflns_limit_h_max       8
_diffrn_reflns_limit_h_min       -7
_diffrn_reflns_limit_k_max       10
_diffrn_reflns_limit_k_min       -10
_diffrn_reflns_limit_l_max       13
_diffrn_reflns_limit_l_min       -13
_diffrn_reflns_number            16562
_diffrn_reflns_point_group_measured_fraction_full 0.963
_diffrn_reflns_point_group_measured_fraction_max 0.955
_diffrn_reflns_theta_full        67.679
_diffrn_reflns_theta_max         72.231
_diffrn_reflns_theta_min         4.150
_exptl_absorpt_coefficient_mu    0.718
_exptl_absorpt_correction_T_max  0.7536
_exptl_absorpt_correction_T_min  0.5020
_exptl_absorpt_correction_type   multi-scan
_exptl_absorpt_process_details   'SADABS 2012/1 (Sheldrick, 2012)'
_exptl_crystal_colour            Colorless
_exptl_crystal_density_diffrn    1.365
_exptl_crystal_density_method    'not measured'
_exptl_crystal_description       Parallelepiped
_exptl_crystal_F_000             280
_exptl_crystal_size_max          0.088
_exptl_crystal_size_mid          0.075
_exptl_crystal_size_min          0.038
_refine_diff_density_max         0.267
_refine_diff_density_min         -0.189
_refine_diff_density_rms         0.036
_refine_ls_extinction_method     none
_refine_ls_goodness_of_fit_ref   1.062
_refine_ls_hydrogen_treatment    refall
_refine_ls_matrix_type           full
_refine_ls_number_parameters     241
_refine_ls_number_reflns         2430
_refine_ls_number_restraints     0
_refine_ls_restrained_S_all      1.062
_refine_ls_R_factor_all          0.0359
_refine_ls_R_factor_gt           0.0328
_refine_ls_shift/su_max          0.000
_refine_ls_shift/su_mean         0.000
_refine_ls_structure_factor_coef Fsqd
_refine_ls_weighting_details
; 
 w=1/[\s^2^(Fo^2^)+(0.0478P)^2^+0.2018P] 
 where P=(Fo^2^+2Fc^2^)/3 
;
_refine_ls_weighting_scheme      calc
_refine_ls_wR_factor_gt          0.0883
_refine_ls_wR_factor_ref         0.0911
_reflns_Friedel_coverage         0.000
_reflns_number_gt                2215
_reflns_number_total             2430
_reflns_threshold_expression     'I > 2\s(I)'
_cod_data_source_file            ol400787y_si_004.cif
_cod_data_source_block           TP3_1
_cod_depositor_comments
;
The following automatic conversions were performed:

'_exptl_absorpt_correction_type' value 'Multi-scan' changed to
'multi-scan' according to
/home/saulius/struct/CIF-dictionaries/cif_core.dic dictionary named
'cif_core.dic' version 2.4.2 from 2011-04-26.

Automatic conversion script
Id: cif_fix_values 1891 2012-01-12 08:04:46Z andrius 
;
_cod_database_code               1511966
#BEGIN Tags that were not found in dictionaries:
_shelx_space_group_comment
; 
The symmetry employed for this shelxl refinement is uniquely defined 
by the following loop, which should always be used as a source of 
symmetry information in preference to the above space-group names. 
They are only intended as comments. 
;
_shelx_estimated_absorpt_t_min   0.939
_shelx_estimated_absorpt_t_max   0.973
_shelxl_version_number           2012-9
_shelx_res_file
; 
TITL TP3 in P-1  26FEB2013 
CELL 1.54178   7.3367   8.3229  10.8176  94.290  98.457  96.954 
ZERR    2.00   0.0002   0.0002   0.0002   0.001   0.001   0.001 
LATT 1 
SFAC C  H  N  O 
UNIT 34  30  2  4 
L.S. 20 
ACTA 
BOND $H 
CONF 
HTAB 
WPDB -2 
FMAP 2 
PLAN 20 
SIZE 0.038 0.075 0.088 
TEMP -183.000 
WGHT    0.047800    0.201800 
FVAR       0.26539 
O1    4   -0.019187    0.291203    0.549131    11.00000    0.01367    0.02913 = 
         0.02261    0.00183    0.00196    0.00112 
O2    4    0.266451    0.212760    0.840926    11.00000    0.02374    0.02488 = 
         0.02052    0.00423    0.00235    0.00450 
N1    3    0.588764    0.267869    0.518728    11.00000    0.01329    0.02452 = 
         0.02117    0.00339    0.00247    0.00046 
C2    1    0.487437    0.335917    0.597944    11.00000    0.01706    0.02122 = 
         0.01960    0.00513    0.00298    0.00162 
C3    1    0.298216    0.281748    0.556335    11.00000    0.01617    0.02059 = 
         0.01900    0.00422    0.00210    0.00082 
C4    1    0.289089    0.172064    0.444054    11.00000    0.01700    0.01996 = 
         0.01891    0.00607    0.00334    0.00252 
C5    1    0.144552    0.076123    0.361796    11.00000    0.01526    0.02257 = 
         0.02223    0.00463    0.00186    0.00129 
C6    1    0.189204   -0.018639    0.262471    11.00000    0.02147    0.02200 = 
         0.02205    0.00198    0.00018    0.00025 
C7    1    0.373502   -0.020702    0.244084    11.00000    0.02520    0.02289 = 
         0.02038    0.00244    0.00518    0.00392 
C8    1    0.520050    0.070915    0.325180    11.00000    0.01763    0.02436 = 
         0.02357    0.00629    0.00608    0.00431 
C9    1    0.473500    0.166184    0.424100    11.00000    0.01569    0.02005 = 
         0.02008    0.00572    0.00206    0.00110 
C10   1    0.585972    0.449398    0.707268    11.00000    0.01635    0.02657 = 
         0.02275    0.00066    0.00124   -0.00111 
C11   1    0.140576    0.327907    0.607873    11.00000    0.01576    0.01943 = 
         0.01942    0.00569    0.00258    0.00029 
C12   1    0.163385    0.428650    0.732262    11.00000    0.01249    0.02411 = 
         0.02113    0.00206    0.00404   -0.00094 
C13   1    0.224533    0.369069    0.847220    11.00000    0.01314    0.02373 = 
         0.02359    0.00218    0.00379    0.00046 
C14   1    0.237252    0.466582    0.958951    11.00000    0.01945    0.03066 = 
         0.02002    0.00240    0.00201    0.00062 
C15   1    0.187989    0.622661    0.957102    11.00000    0.02170    0.02912 = 
         0.02410   -0.00408    0.00412   -0.00016 
C16   1    0.124459    0.681848    0.844811    11.00000    0.02074    0.02321 = 
         0.02937    0.00055    0.00514    0.00159 
C17   1    0.111548    0.583979    0.733034    11.00000    0.01667    0.02576 = 
         0.02378    0.00463    0.00381    0.00075 
C18   1    0.302601    0.142929    0.957296    11.00000    0.02589    0.02965 = 
         0.02323    0.00712    0.00254    0.00372 
H1    2    0.711218    0.280429    0.531762    11.00000    0.03072 
H7    2    0.403545   -0.088474    0.175020    11.00000    0.02271 
H5    2    0.018319    0.077202    0.374060    11.00000    0.02050 
H6    2    0.089627   -0.087054    0.204596    11.00000    0.02772 
H8    2    0.647400    0.064660    0.314284    11.00000    0.02239 
H10C  2    0.538713    0.549561    0.714559    11.00000    0.03266 
H10A  2    0.574203    0.400947    0.785306    11.00000    0.04121 
H10B  2    0.719399    0.474684    0.701779    11.00000    0.04610 
H16   2    0.089255    0.792148    0.846038    11.00000    0.02622 
H17   2    0.063548    0.623138    0.654397    11.00000    0.02591 
H15   2    0.194506    0.686902    1.037138    11.00000    0.02718 
H14   2    0.280307    0.424734    1.037954    11.00000    0.02859 
H18A  2    0.320487    0.031108    0.934940    11.00000    0.02833 
H18B  2    0.196730    0.144465    1.003110    11.00000    0.03202 
H18C  2    0.414141    0.199947    1.011089    11.00000    0.02749 
HKLF 4 
  
REM  TP3 in P-1  26FEB2013 
REM R1 =  0.0328 for    2215 Fo > 4sig(Fo)  and  0.0359 for all    2430 data 
REM    241 parameters refined using      0 restraints 
  
END 
  
WGHT      0.0464      0.2140 
  
REM Instructions for potential hydrogen bonds 
EQIV $1 x+1, y, z 
HTAB N1 O1_$1 
  
REM Highest difference peak  0.267,  deepest hole -0.189,  1-sigma level  0.036 
Q1    1   0.2691  0.2270  0.4993  11.00000  0.05    0.27 
Q2    1   0.5243  0.3994  0.6468  11.00000  0.05    0.27 
Q3    1   0.1665  0.3800  0.6776  11.00000  0.05    0.26 
Q4    1   0.3924  0.2839  0.6068  11.00000  0.05    0.23 
Q5    1   0.1836  0.4037  0.7873  11.00000  0.05    0.22 
Q6    1   0.3910  0.3495  0.5641  11.00000  0.05    0.21 
Q7    1   0.1259  0.4971  0.7394  11.00000  0.05    0.20 
Q8    1   0.2612  0.4308  0.9016  11.00000  0.05    0.19 
Q9    1   0.2087  0.1421  0.4051  11.00000  0.05    0.19 
Q10   1   0.0905  0.6265  0.7969  11.00000  0.05    0.18 
Q11   1   0.1264  0.6354  0.9011  11.00000  0.05    0.18 
Q12   1   0.4984  0.1573  0.3594  11.00000  0.05    0.17 
Q13   1   0.5012  0.1162  0.3801  11.00000  0.05    0.16 
Q14   1   0.4389  0.0560  0.2746  11.00000  0.05    0.16 
Q15   1   0.2364  0.3230  0.5766  11.00000  0.05    0.16 
Q16   1   0.2069  0.6709  0.9005  11.00000  0.05    0.16 
Q17   1   0.3741  0.2136  0.4069  11.00000  0.05    0.15 
Q18   1   0.3747  0.1295  0.4563  11.00000  0.05    0.15 
Q19   1   0.5383  0.2172  0.4596  11.00000  0.05    0.15 
Q20   1   0.1482  0.0709  0.2794  11.00000  0.05    0.14 
;
_shelx_res_checksum              41903
_shelx_hkl_file
; 
  -1   0   0    8.70    0.49 
  -1   0   0    9.80    0.45 
  -1   0   0    9.38    0.45 
   1   0   0    9.23    0.49 
  -2   0   0   39.66    1.96 
  -2   0   0   43.35    1.96 
  -2   0   0   39.43    2.14 
   2   0   0   40.70    2.14 
   2   0   0   41.31    1.96 
  -3   0   0   45.99    2.42 
  -3   0   0   43.65    2.22 
  -3   0   0   50.96    2.69 
   3   0   0   45.58    1.77 
   3   0   0   44.43    1.95 
  -4   0   0    6.50    0.40 
  -4   0   0    6.15    0.31 
   4   0   0    6.19    0.30 
   4   0   0    6.32    0.30 
   4   0   0    6.57    0.25 
  -5   0   0    0.47    0.09 
  -5   0   0    0.51    0.07 
   5   0   0    0.37    0.06 
   5   0   0    0.44    0.07 
   5   0   0    0.41    0.04 
   6   0   0    2.30    0.16 
   6   0   0    2.38    0.16 
   6   0   0    2.25    0.11 
   6   0   0    2.12    0.14 
   6   0   0    2.34    0.18 
   6   0   0    2.33    0.15 
   7   0   0   10.23    0.47 
   7   0   0   10.54    0.45 
   7   0   0   10.46    0.44 
   7   0   0    9.96    0.50 
   7   0   0   10.14    0.37 
   7   0   0   10.20    0.42 
   7   0   0    9.54    0.48 
   8   0   0    3.39    0.17 
   8   0   0    3.03    0.19 
   8   0   0    3.48    0.19 
   8   0   0    3.60    0.16 
   8  -1   0    0.08    0.05 
   8  -1   0    0.17    0.05 
   7  -1   0    0.04    0.08 
   7  -1   0    0.14    0.07 
   7  -1   0    0.14    0.08 
   7  -1   0    0.08    0.07 
   6  -1   0    3.80    0.16 
   6  -1   0    3.85    0.21 
   6  -1   0    3.58    0.23 
   5  -1   0    1.03    0.09 
   5  -1   0    1.12    0.09 
   5  -1   0    1.03    0.06 
  -5   1   0    1.14    0.11 
   4  -1   0    6.64    0.32 
   4  -1   0    7.03    0.27 
   4  -1   0    6.57    0.31 
  -4   1   0    7.01    0.38 
   3  -1   0   52.11    2.64 
   3  -1   0   48.00    2.13 
   3  -1   0   51.87    1.93 
   3  -1   0   48.92    2.30 
  -3   1   0   50.80    2.64 
   2  -1   0    1.73    0.09 
   2  -1   0    2.05    0.12 
  -2   1   0    1.79    0.09 
  -2   1   0    1.75    0.12 
  -1   1   0    6.69    0.42 
  -1   1   0    7.60    0.35 
   0  -1   0   16.29    0.76 
   0  -1   0   15.64    0.82 
   0  -1   0   15.99    0.76 
   0   1   0   15.92    0.76 
   0   1   0   15.77    0.76 
   0   1   0   14.75    0.92 
  -1  -1   0  223.78   11.10 
  -1  -1   0  215.19   12.05 
  -1  -1   0  249.83   11.10 
   1   1   0  242.99   11.11 
   1   1   0  223.08   11.09 
  -2  -1   0   13.60    0.66 
  -2  -1   0   14.23    0.66 
  -2  -1   0   13.47    0.71 
   2   1   0   12.43    0.65 
  -3  -1   0  201.55   10.72 
  -3  -1   0  175.31    8.39 
   3   1   0  188.83    7.06 
   3   1   0  173.07    8.00 
   3   1   0  184.78    7.77 
  -4  -1   0    3.76    0.25 
  -4  -1   0    3.67    0.20 
   4   1   0    3.84    0.20 
   4   1   0    3.77    0.16 
   4   1   0    3.44    0.19 
  -5  -1   0    7.07    0.36 
   5   1   0    7.36    0.34 
   5   1   0    6.76    0.34 
   5   1   0    7.47    0.29 
   6   1   0   32.86    1.35 
   6   1   0   34.23    1.43 
   6   1   0   32.72    1.49 
   6   1   0   31.39    1.27 
   6   1   0   32.93    1.42 
   6   1   0   32.78    1.41 
   7   1   0    2.25    0.16 
   7   1   0    2.28    0.18 
   7   1   0    2.19    0.17 
   7   1   0    2.31    0.18 
   7   1   0    2.27    0.15 
   7   1   0    2.10    0.11 
   7   1   0    2.22    0.16 
   7   1   0    2.51    0.16 
   7   1   0    2.38    0.14 
   8   1   0    0.16    0.06 
   8   1   0    0.23    0.05 
   8   1   0    0.19    0.06 
   8   1   0    0.19    0.07 
   8   1   0    0.22    0.05 
   7  -2   0    8.39    0.41 
   7  -2   0    8.27    0.40 
   6  -2   0    2.75    0.17 
   6  -2   0    2.54    0.19 
  -6   2   0    2.99    0.18 
   5  -2   0    9.58    0.38 
   5  -2   0    9.57    0.45 
   4  -2   0    3.00    0.20 
   4  -2   0    3.35    0.13 
   4  -2   0    3.20    0.19 
   4  -2   0    2.92    0.20 
   4  -2   0    2.98    0.16 
  -4   2   0    3.26    0.20 
   3  -2   0   10.40    0.39 
   3  -2   0   10.10    0.48 
   3  -2   0   10.69    0.55 
   3  -2   0   10.03    0.52 
  -3   2   0    8.42    0.61 
  -3   2   0   10.16    0.55 
   2  -2   0    2.18    0.09 
   2  -2   0    1.99    0.12 
  -2   2   0    1.90    0.14 
  -2   2   0    2.20    0.11 
   1  -2   0   22.35    1.11 
   1  -2   0   19.90    1.02 
   1  -2   0   20.59    1.02 
  -1   2   0   22.97    1.02 
  -1   2   0   19.34    1.23 
   0  -2   0   11.54    0.60 
   0  -2   0   11.20    0.56 
   0  -2   0   11.09    0.56 
   0   2   0   11.66    0.56 
   0   2   0   11.30    0.68 
  -1  -2   0   31.88    1.58 
  -1  -2   0   31.82    1.76 
  -1  -2   0   30.54    1.46 
  -1  -2   0   29.49    1.46 
   1   2   0   28.30    1.46 
   1   2   0   28.87    1.46 
  -2  -2   0    2.06    0.12 
  -2  -2   0    2.29    0.13 
  -2  -2   0    2.45    0.15 
   2   2   0    2.14    0.12 
   2   2   0    2.21    0.10 
  -3  -2   0   52.00    2.87 
  -3  -2   0   47.29    2.24 
   3   2   0   49.76    1.89 
   3   2   0   48.59    2.08 
   3   2   0   47.76    3.02 
  -4  -2   0   34.18    2.02 
  -4  -2   0   33.43    1.58 
   4   2   0   34.96    1.33 
   4   2   0   34.63    1.47 
   5   2   0    5.15    0.28 
   5   2   0    5.20    0.29 
   5   2   0    5.25    0.23 
   5   2   0    5.42    0.27 
  -6  -2   0    6.00    0.28 
   6   2   0    5.22    0.30 
   6   2   0    5.11    0.26 
   6   2   0    4.92    0.28 
   6   2   0    5.34    0.29 
   6   2   0    4.86    0.24 
   6   2   0    4.95    0.26 
   6   2   0    5.14    0.21 
   6   2   0    4.85    0.31 
   6   2   0    5.48    0.29 
   6   2   0    5.10    0.29 
   7   2   0    6.38    0.28 
   7   2   0    6.33    0.31 
   7   2   0    6.77    0.32 
   7   2   0    6.51    0.29 
   7   2   0    6.11    0.34 
   7   2   0    6.51    0.25 
   7   2   0    6.60    0.30 
   7   2   0    6.36    0.32 
   7   2   0    6.00    0.31 
   8   2   0    3.56    0.16 
   8   2   0    3.68    0.17 
   8   2   0    3.51    0.17 
   8   2   0    2.93    0.18 
   8   2   0    3.46    0.18 
   8   2   0    3.45    0.17 
   7  -3   0    0.24    0.07 
   6  -3   0   17.52    0.76 
   6  -3   0   18.09    0.78 
   5  -3   0    4.52    0.19 
   5  -3   0    4.53    0.25 
   5  -3   0    4.69    0.23 
   4  -3   0   23.58    1.21 
   4  -3   0   22.79    1.29 
   4  -3   0   24.52    1.13 
   4  -3   0   25.04    0.93 
  -4   3   0   24.34    1.29 
   3  -3   0   12.58    0.64 
   3  -3   0   12.16    0.48 
   3  -3   0   12.82    0.59 
   3  -3   0   12.69    0.67 
  -3   3   0   12.78    0.67 
  -3   3   0   10.75    0.76 
   2  -3   0   44.05    1.66 
   2  -3   0   43.89    2.12 
   2  -3   0   45.80    2.27 
   2  -3   0   43.37    1.97 
  -2   3   0   38.25    2.55 
   1  -3   0   21.47    0.85 
   1  -3   0   21.07    1.01 
   1  -3   0   21.95    1.16 
  -1   3   0   21.22    1.29 
  -1   3   0   23.91    1.07 
   0  -3   0   35.30    1.61 
   0  -3   0   32.83    1.70 
   0  -3   0   37.15    1.84 
   0  -3   0   34.53    1.35 
   0   3   0   36.85    1.70 
   0   3   0   33.66    2.08 
  -1  -3   0   30.58    1.40 
  -1  -3   0   28.60    1.48 
   1   3   0   30.21    1.81 
   1   3   0   31.94    1.18 
   1   3   0   31.22    1.89 
  -2  -3   0    0.01    0.04 
  -2  -3   0    0.01    0.05 
  -2  -3   0    0.05    0.04 
   2   3   0    0.03    0.03 
   2   3   0    0.11    0.04 
   2   3   0   -0.01    0.07 
  -3  -3   0   13.40    0.58 
  -3  -3   0   12.23    0.77 
  -3  -3   0   12.69    0.61 
   3   3   0   12.47    0.50 
   3   3   0   13.05    0.83 
   3   3   0   12.59    0.56 
  -4  -3   0    1.85    0.14 
  -4  -3   0    2.00    0.14 
   4   3   0    2.09    0.14 
   4   3   0    2.08    0.10 
   4   3   0    2.22    0.21 
   4   3   0    1.68    0.13 
  -5  -3   0   11.19    0.50 
   5   3   0   10.20    0.46 
   5   3   0   10.48    0.49 
   5   3   0   10.90    0.51 
   5   3   0    9.96    0.43 
   5   3   0   10.26    0.49 
  -6  -3   0    1.71    0.14 
   6   3   0    1.69    0.14 
   6   3   0    1.67    0.15 
   6   3   0    1.87    0.16 
   6   3   0    1.63    0.13 
   6   3   0    1.62    0.13 
   6   3   0    1.66    0.16 
   6   3   0    1.60    0.14 
   6   3   0    1.42    0.13 
   6   3   0    1.50    0.12 
   6   3   0    1.58    0.14 
   7   3   0    1.82    0.12 
   7   3   0    1.93    0.13 
   7   3   0    1.68    0.13 
   7   3   0    1.89    0.15 
   7   3   0    1.76    0.14 
   7   3   0    1.99    0.19 
   7   3   0    1.84    0.15 
   7   3   0    1.86    0.12 
   7   3   0    1.70    0.13 
   7   3   0    1.89    0.11 
   8   3   0   -0.05    0.03 
   8   3   0   -0.05    0.03 
   7  -4   0    0.04    0.07 
   7  -4   0    0.02    0.08 
   7  -4   0    0.03    0.07 
   7  -4   0    0.02    0.06 
   7  -4   0   -0.04    0.07 
   6  -4   0    5.63    0.31 
   6  -4   0    5.29    0.21 
   6  -4   0    5.70    0.29 
   6  -4   0    5.28    0.29 
   6  -4   0    5.61    0.31 
   6  -4   0    5.79    0.28 
   6  -4   0    5.76    0.29 
   6  -4   0    5.70    0.27 
   5  -4   0   -0.01    0.03 
   5  -4   0   -0.01    0.07 
   5  -4   0    0.01    0.07 
   5  -4   0    0.03    0.09 
  -5   4   0    0.02    0.08 
   4  -4   0    0.01    0.05 
   4  -4   0    0.03    0.07 
   4  -4   0    0.09    0.06 
   4  -4   0    0.11    0.03 
  -4   4   0    0.09    0.06 
  -4   4   0    0.01    0.09 
  -4   4   0    0.08    0.07 
   3  -4   0   65.10    3.09 
   3  -4   0   63.99    2.87 
   3  -4   0   62.44    3.30 
   3  -4   0   64.31    2.41 
  -3   4   0   61.98    3.30 
  -3   4   0   57.54    3.71 
   2  -4   0    3.62    0.23 
   2  -4   0    3.85    0.23 
   2  -4   0    3.79    0.20 
   2  -4   0    3.72    0.16 
  -2   4   0    3.52    0.27 
   1  -4   0   43.49    1.69 
   1  -4   0   44.77    2.31 
   1  -4   0   44.01    2.16 
   1  -4   0   45.49    2.02 
  -1   4   0   45.53    2.61 
  -1   4   0   40.07    2.71 
   0  -4   0   -0.02    0.04 
   0   4   0    0.05    0.08 
   0   4   0    0.05    0.07 
  -1  -4   0    8.17    0.40 
  -1  -4   0    8.78    0.42 
   1   4   0    8.46    0.54 
   1   4   0    9.39    0.58 
  -2  -4   0    3.41    0.19 
  -2  -4   0    3.11    0.17 
   2   4   0    3.33    0.29 
  -3  -4   0    5.14    0.26 
  -3  -4   0    4.86    0.27 
   3   4   0    5.05    0.25 
   3   4   0    5.32    0.39 
   3   4   0    5.08    0.22 
  -4  -4   0   -0.01    0.05 
   4   4   0   -0.09    0.04 
   4   4   0    0.03    0.04 
   4   4   0    0.05    0.09 
   4   4   0   -0.01    0.10 
   4   4   0   -0.05    0.06 
  -5  -4   0   22.51    0.98 
   5   4   0   22.04    0.91 
   5   4   0   21.27    0.95 
   5   4   0   21.39    0.79 
   5   4   0   20.67    0.95 
   5   4   0   21.11    1.02 
   5   4   0   22.02    0.96 
   5   4   0   22.58    1.00 
   5   4   0   21.01    0.89 
   5   4   0   21.56    0.85 
   5   4   0   22.08    0.96 
   5   4   0   21.64    1.04 
   5   4   0   21.72    0.96 
  -6  -4   0    1.50    0.14 
   6   4   0    1.32    0.11 
   6   4   0    1.46    0.13 
   6   4   0    1.56    0.13 
   6   4   0    1.52    0.13 
   6   4   0    1.51    0.13 
   6   4   0    1.61    0.14 
   6   4   0    1.62    0.16 
   6   4   0    1.69    0.15 
   6   4   0    1.78    0.17 
   6   4   0    1.47    0.12 
   6   4   0    1.64    0.13 
  -7  -4   0    4.29    0.22 
  -7  -4   0    4.15    0.22 
   7   4   0    4.38    0.19 
   7   4   0    3.67    0.21 
   7   4   0    4.30    0.19 
   7   4   0    4.13    0.17 
   7   4   0    4.10    0.20 
   7   4   0    4.22    0.21 
   7   4   0    3.95    0.25 
   7   4   0    4.46    0.21 
   7   4   0    3.99    0.22 
   7  -5   0    3.71    0.19 
   7  -5   0    3.65    0.18 
   7  -5   0    3.45    0.19 
   7  -5   0    3.61    0.21 
   7  -5   0    3.41    0.20 
   7  -5   0    3.61    0.21 
   6  -5   0    0.60    0.10 
   6  -5   0    0.58    0.05 
   6  -5   0    0.48    0.10 
   6  -5   0    0.63    0.09 
   6  -5   0    0.64    0.09 
   6  -5   0    0.48    0.10 
   6  -5   0    0.63    0.09 
   6  -5   0    0.73    0.12 
   6  -5   0    0.73    0.11 
   5  -5   0    1.19    0.11 
   5  -5   0    0.69    0.11 
   5  -5   0    0.95    0.14 
   5  -5   0    1.16    0.11 
   5  -5   0    0.90    0.07 
   5  -5   0    1.06    0.12 
  -5   5   0    0.92    0.13 
   4  -5   0    1.32    0.14 
   4  -5   0    1.00    0.13 
   4  -5   0    1.13    0.08 
   4  -5   0    1.07    0.09 
  -4   5   0    1.07    0.13 
  -4   5   0    1.25    0.16 
   3  -5   0   19.07    0.87 
   3  -5   0   18.93    0.73 
   3  -5   0   19.60    0.95 
   3  -5   0   16.64    1.00 
  -3   5   0   16.65    1.00 
  -3   5   0   18.51    1.14 
  -3   5   0   19.26    0.95 
   2  -5   0    0.05    0.06 
   2  -5   0    0.15    0.04 
   2  -5   0    0.15    0.06 
   2  -5   0    0.19    0.07 
  -2   5   0    0.06    0.05 
  -2   5   0    0.18    0.06 
  -2   5   0    0.24    0.09 
   1  -5   0    7.71    0.45 
   1  -5   0    8.01    0.44 
   1  -5   0    8.20    0.40 
   1  -5   0    8.51    0.33 
  -1   5   0    7.57    0.43 
  -1   5   0    8.34    0.52 
  -1   5   0    7.67    0.54 
   0  -5   0    0.03    0.05 
   0   5   0    0.06    0.08 
   0   5   0    0.00    0.08 
  -1  -5   0    0.76    0.09 
   1   5   0    0.73    0.13 
  -2  -5   0   60.43    2.79 
  -2  -5   0   55.49    2.66 
   2   5   0   66.71    3.77 
  -3  -5   0    3.54    0.21 
  -3  -5   0    3.04    0.19 
   3   5   0    3.26    0.22 
   3   5   0    3.76    0.31 
   3   5   0    3.38    0.21 
  -4  -5   0    1.15    0.12 
  -4  -5   0    1.01    0.11 
  -4  -5   0    1.16    0.12 
   4   5   0    1.09    0.14 
   4   5   0    1.05    0.12 
   4   5   0    1.00    0.16 
   4   5   0    1.19    0.12 
  -5  -5   0    4.62    0.27 
  -5  -5   0    5.46    0.29 
  -5  -5   0    5.44    0.30 
   5   5   0    5.52    0.32 
   5   5   0    5.19    0.27 
   5   5   0    5.20    0.30 
   5   5   0    5.31    0.28 
   5   5   0    5.87    0.30 
   5   5   0    5.33    0.27 
   5   5   0    5.27    0.25 
  -6  -5   0    2.37    0.17 
  -6  -5   0    2.21    0.16 
   6   5   0    2.09    0.15 
   6   5   0    1.95    0.15 
   6   5   0    2.29    0.18 
   6   5   0    1.98    0.14 
   6   5   0    2.11    0.13 
   6   5   0    1.98    0.12 
   6   5   0    2.30    0.16 
   6   5   0    2.01    0.14 
  -7  -5   0    1.76    0.10 
   7   5   0    1.81    0.09 
   7   5   0    1.68    0.12 
   7   5   0    1.89    0.10 
   7   5   0    1.89    0.09 
   7  -6   0    7.25    0.35 
   7  -6   0    7.65    0.30 
   7  -6   0    6.39    0.36 
   7  -6   0    7.65    0.34 
   7  -6   0    7.10    0.33 
   7  -6   0    7.22    0.34 
   7  -6   0    7.68    0.33 
   6  -6   0    1.18    0.08 
   6  -6   0    1.52    0.13 
   6  -6   0    1.47    0.14 
   6  -6   0    1.39    0.13 
   6  -6   0    1.37    0.13 
   6  -6   0    1.46    0.13 
   6  -6   0    1.17    0.10 
   6  -6   0    1.31    0.12 
   6  -6   0    1.04    0.10 
   5  -6   0    0.85    0.12 
   5  -6   0    0.63    0.08 
   5  -6   0    0.68    0.11 
   5  -6   0    0.91    0.12 
   5  -6   0    0.90    0.10 
   5  -6   0    0.84    0.07 
   5  -6   0    0.50    0.12 
   5  -6   0    0.67    0.09 
   5  -6   0    0.73    0.09 
   5  -6   0    0.84    0.15 
   5  -6   0    0.90    0.10 
   5  -6   0    0.81    0.12 
   5  -6   0    0.69    0.10 
  -5   6   0    0.66    0.12 
   4  -6   0    3.31    0.22 
   4  -6   0    3.20    0.16 
   4  -6   0    3.43    0.23 
   4  -6   0    3.63    0.21 
   4  -6   0    3.19    0.25 
   4  -6   0    3.44    0.20 
   4  -6   0    3.50    0.25 
  -4   6   0    3.64    0.26 
  -4   6   0    3.25    0.30 
   3  -6   0    1.27    0.12 
   3  -6   0    1.12    0.13 
   3  -6   0    1.15    0.14 
   3  -6   0    1.07    0.09 
  -3   6   0    0.85    0.12 
  -3   6   0    1.20    0.17 
   2  -6   0    2.70    0.18 
   2  -6   0    2.65    0.14 
   2  -6   0    2.57    0.20 
   2  -6   0    2.46    0.16 
   2  -6   0    2.17    0.21 
  -2   6   0    2.72    0.24 
  -2   6   0    2.52    0.19 
  -2   6   0    2.28    0.19 
   1  -6   0    2.09    0.16 
  -1   6   0    2.21    0.21 
  -1   6   0    2.26    0.23 
  -1   6   0    2.16    0.18 
   0  -6   0    1.22    0.13 
   0   6   0    1.48    0.16 
   0   6   0    1.48    0.20 
   0   6   0    1.46    0.13 
  -1  -6   0    0.14    0.07 
   1   6   0    0.04    0.11 
   1   6   0    0.10    0.13 
  -2  -6   0    0.10    0.08 
  -2  -6   0    0.04    0.07 
   2   6   0    0.13    0.07 
   2   6   0   -0.01    0.10 
   2   6   0    0.26    0.11 
  -3  -6   0    1.91    0.15 
  -3  -6   0    2.02    0.16 
   3   6   0    1.72    0.15 
   3   6   0    2.08    0.16 
   3   6   0    1.83    0.17 
   3   6   0    1.97    0.24 
   3   6   0    1.96    0.15 
   3   6   0    2.06    0.20 
  -4  -6   0    2.44    0.20 
  -4  -6   0    2.43    0.19 
  -4  -6   0    2.52    0.17 
   4   6   0    2.31    0.19 
   4   6   0    2.30    0.22 
   4   6   0    2.40    0.24 
   4   6   0    2.63    0.18 
  -5  -6   0    8.43    0.41 
  -5  -6   0    8.62    0.43 
  -5  -6   0    8.86    0.40 
   5   6   0    8.82    0.42 
   5   6   0    8.46    0.46 
   5   6   0    8.46    0.44 
   5   6   0    8.56    0.40 
  -6  -6   0    0.63    0.08 
  -6  -6   0    0.72    0.08 
   6   6   0    0.68    0.08 
   6   6   0    0.67    0.08 
   6   6   0    0.68    0.06 
   7  -7   0    3.80    0.22 
   7  -7   0    4.42    0.21 
   7  -7   0    4.40    0.18 
   7  -7   0    4.40    0.21 
   6  -7   0    2.02    0.16 
   6  -7   0    1.95    0.15 
   6  -7   0    1.91    0.14 
   6  -7   0    2.03    0.14 
   6  -7   0    1.49    0.19 
   6  -7   0    1.66    0.12 
   6  -7   0    1.87    0.16 
   6  -7   0    1.70    0.14 
   6  -7   0    1.96    0.09 
   5  -7   0    4.14    0.24 
   5  -7   0    4.44    0.25 
   5  -7   0    4.22    0.18 
   5  -7   0    4.60    0.28 
   5  -7   0    4.52    0.25 
   5  -7   0    4.28    0.21 
   5  -7   0    3.93    0.24 
   5  -7   0    4.43    0.23 
   5  -7   0    4.46    0.23 
   5  -7   0    3.90    0.36 
   5  -7   0    4.19    0.23 
   5  -7   0    4.19    0.22 
  -5   7   0    4.03    0.23 
   4  -7   0    3.23    0.22 
   4  -7   0    3.25    0.20 
   4  -7   0    2.88    0.26 
   4  -7   0    3.31    0.21 
   4  -7   0    3.27    0.18 
   4  -7   0    3.51    0.26 
   4  -7   0    3.04    0.16 
   4  -7   0    3.43    0.22 
   4  -7   0    3.47    0.19 
   4  -7   0    3.36    0.35 
   4  -7   0    3.14    0.22 
   4  -7   0    3.19    0.23 
   4  -7   0    3.16    0.25 
   4  -7   0    3.21    0.21 
  -4   7   0    3.40    0.25 
   3  -7   0    5.54    0.33 
   3  -7   0    5.29    0.41 
   3  -7   0    5.68    0.30 
   3  -7   0    5.50    0.38 
   3  -7   0    4.52    0.35 
   3  -7   0    5.22    0.30 
   3  -7   0    5.49    0.28 
   3  -7   0    5.70    0.30 
   3  -7   0    5.20    0.30 
   3  -7   0    5.43    0.24 
   3  -7   0    5.55    0.26 
   3  -7   0    5.21    0.30 
   3  -7   0    5.91    0.32 
   3  -7   0    5.26    0.28 
  -3   7   0    5.52    0.40 
  -3   7   0    5.46    0.34 
   2  -7   0    0.15    0.07 
   2  -7   0    0.31    0.07 
   2  -7   0    0.27    0.07 
   2  -7   0    0.28    0.15 
   2  -7   0    0.22    0.11 
  -2   7   0    0.21    0.11 
  -2   7   0    0.11    0.10 
  -2   7   0    0.21    0.12 
   1  -7   0    0.96    0.12 
   1  -7   0    1.57    0.15 
   1  -7   0    1.34    0.12 
   1  -7   0    1.28    0.11 
   1  -7   0    1.49    0.13 
  -1   7   0    1.29    0.18 
  -1   7   0    1.45    0.13 
  -1   7   0    1.42    0.18 
  -1   7   0    1.17    0.12 
   0  -7   0    3.38    0.22 
   0  -7   0    3.50    0.23 
   0   7   0    3.60    0.24 
   0   7   0    3.76    0.30 
   0   7   0    4.11    0.35 
   0   7   0    3.29    0.29 
  -1  -7   0    0.53    0.11 
  -1  -7   0    0.45    0.10 
  -1  -7   0    0.30    0.09 
   1   7   0    0.52    0.16 
   1   7   0    0.51    0.12 
   1   7   0    0.43    0.14 
  -2  -7   0    0.52    0.11 
  -2  -7   0    0.49    0.11 
  -2  -7   0    0.47    0.10 
  -2  -7   0    0.48    0.10 
   2   7   0    0.54    0.12 
   2   7   0    0.45    0.10 
   2   7   0    0.38    0.15 
   2   7   0    0.44    0.13 
  -3  -7   0    8.28    0.38 
  -3  -7   0    8.00    0.38 
  -3  -7   0    8.25    0.40 
   3   7   0    7.92    0.40 
   3   7   0    6.73    0.34 
   3   7   0    7.15    0.40 
  -4  -7   0    1.80    0.15 
  -4  -7   0    1.81    0.14 
  -4  -7   0    1.56    0.15 
   4   7   0    1.78    0.18 
   4   7   0    1.75    0.16 
  -5  -7   0    0.05    0.05 
  -5  -7   0   -0.01    0.05 
  -5  -7   0    0.11    0.05 
  -5  -7   0    0.05    0.06 
   5   7   0    0.07    0.08 
   5   7   0    0.05    0.08 
   6  -8   0    6.78    0.31 
   6  -8   0    7.28    0.29 
   6  -8   0    7.20    0.33 
   6  -8   0    6.88    0.35 
   6  -8   0    7.26    0.33 
   5  -8   0    5.95    0.32 
   5  -8   0    5.37    0.39 
   5  -8   0    5.35    0.27 
   5  -8   0    5.78    0.26 
   5  -8   0    5.78    0.22 
   5  -8   0    5.29    0.26 
   5  -8   0    5.68    0.25 
   5  -8   0    5.66    0.27 
   5  -8   0    4.69    0.29 
   5  -8   0    5.58    0.27 
   5  -8   0    5.75    0.28 
  -5   8   0    5.46    0.28 
   4  -8   0    2.33    0.15 
   4  -8   0    2.49    0.20 
   4  -8   0    2.20    0.20 
   4  -8   0    2.16    0.17 
   4  -8   0    2.21    0.16 
   4  -8   0    2.40    0.17 
   4  -8   0    2.24    0.15 
   4  -8   0    2.33    0.18 
   4  -8   0    2.49    0.18 
   4  -8   0    2.12    0.21 
   4  -8   0    2.36    0.26 
   4  -8   0    2.28    0.15 
  -4   8   0    2.01    0.17 
  -4   8   0    2.68    0.17 
   3  -8   0    0.74    0.15 
   3  -8   0    0.69    0.09 
   3  -8   0    0.74    0.12 
   3  -8   0    0.67    0.10 
   3  -8   0    0.78    0.18 
   3  -8   0    0.77    0.10 
   3  -8   0    0.53    0.07 
   3  -8   0    0.70    0.08 
  -3   8   0    0.59    0.09 
   2  -8   0   10.89    0.49 
   2  -8   0   10.53    0.59 
   2  -8   0    9.91    0.52 
   2  -8   0   10.41    0.46 
   2  -8   0    9.68    0.66 
   2  -8   0   10.24    0.48 
   2  -8   0   10.66    0.49 
   2  -8   0   11.09    0.50 
  -2   8   0   10.54    0.55 
  -2   8   0    9.92    0.59 
  -2   8   0   10.91    0.50 
   1  -8   0    3.78    0.22 
   1  -8   0    3.96    0.22 
   1  -8   0    3.72    0.26 
   1  -8   0    3.41    0.22 
   1  -8   0    3.61    0.32 
   1  -8   0    3.96    0.22 
   1  -8   0    3.54    0.23 
  -1   8   0    4.01    0.26 
  -1   8   0    3.95    0.29 
  -1   8   0    3.82    0.22 
  -1   8   0    3.84    0.26 
   0  -8   0    6.77    0.33 
   0  -8   0    6.38    0.34 
   0  -8   0    6.45    0.33 
   0  -8   0    6.09    0.34 
   0  -8   0    5.73    0.39 
   0   8   0    6.99    0.43 
   0   8   0    7.64    0.37 
   0   8   0    6.30    0.36 
  -1  -8   0    1.57    0.14 
  -1  -8   0    1.02    0.10 
  -1  -8   0    1.14    0.12 
  -1  -8   0    1.37    0.12 
   1   8   0    1.21    0.12 
   1   8   0    1.21    0.15 
  -2  -8   0    0.02    0.08 
  -2  -8   0   -0.02    0.06 
  -2  -8   0    0.02    0.06 
   2   8   0    0.00    0.07 
   2   8   0   -0.03    0.09 
   2   8   0    0.06    0.09 
   2   8   0   -0.04    0.11 
  -3  -8   0    3.95    0.21 
  -3  -8   0    3.20    0.19 
  -3  -8   0    3.42    0.19 
   3   8   0    3.40    0.21 
   3   8   0    3.42    0.21 
   3   8   0    3.27    0.17 
  -4  -8   0    0.50    0.07 
  -4  -8   0    0.39    0.06 
   4   8   0    0.55    0.09 
   5  -9   0    3.49    0.13 
   5  -9   0    3.35    0.17 
   5  -9   0    2.97    0.23 
   5  -9   0    3.11    0.19 
   5  -9   0    3.30    0.17 
  -5   9   0    3.89    0.22 
   4  -9   0    0.12    0.09 
   4  -9   0    0.04    0.06 
   4  -9   0    0.01    0.05 
   4  -9   0   -0.02    0.08 
   4  -9   0   -0.01    0.04 
   4  -9   0    0.00    0.09 
   4  -9   0    0.10    0.07 
   4  -9   0    0.01    0.04 
   4  -9   0    0.02    0.05 
  -4   9   0    0.11    0.06 
  -4   9   0    0.02    0.07 
   3  -9   0    1.94    0.15 
   3  -9   0    2.43    0.16 
   3  -9   0    1.98    0.19 
   3  -9   0    1.94    0.16 
   3  -9   0    2.15    0.13 
   3  -9   0    2.06    0.13 
   3  -9   0    2.10    0.14 
   3  -9   0    2.37    0.25 
  -3   9   0    2.30    0.14 
  -3   9   0    2.29    0.18 
   2  -9   0   -0.02    0.07 
   2  -9   0   -0.08    0.10 
   2  -9   0   -0.06    0.08 
   2  -9   0   -0.06    0.12 
   2  -9   0    0.02    0.05 
   2  -9   0   -0.05    0.05 
  -2   9   0    0.04    0.09 
  -2   9   0   -0.02    0.06 
  -2   9   0    0.08    0.10 
  -2   9   0    0.03    0.07 
  -2   9   0    0.02    0.05 
   1  -9   0    0.05    0.06 
   1  -9   0    0.06    0.12 
   1  -9   0    0.02    0.09 
   1  -9   0    0.02    0.07 
   1  -9   0    0.03    0.06 
  -1   9   0    0.04    0.06 
  -1   9   0    0.07    0.11 
  -1   9   0    0.03    0.09 
  -1   9   0    0.00    0.07 
   0  -9   0    0.26    0.07 
   0  -9   0    0.18    0.06 
   0  -9   0    0.10    0.08 
   0   9   0    0.14    0.07 
   0   9   0    0.10    0.10 
   0   9   0    0.24    0.07 
  -1  -9   0    1.61    0.13 
  -1  -9   0    1.32    0.12 
  -1  -9   0    1.34    0.12 
  -1  -9   0    1.26    0.12 
   1   9   0    1.61    0.13 
   1   9   0    1.49    0.15 
   1   9   0    1.39    0.15 
  -2  -9   0    0.39    0.06 
  -2  -9   0    0.36    0.06 
   2   9   0    0.27    0.09 
   2   9   0    0.24    0.06 
  -3  -9   0    0.84    0.08 
  -3  -9   0    0.79    0.07 
   3 -10   0    1.39    0.09 
  -3  10   0    1.60    0.10 
   2 -10   0    0.33    0.05 
   2 -10   0    0.26    0.04 
  -2  10   0    0.36    0.07 
   1 -10   0    0.24    0.05 
   1 -10   0    0.28    0.05 
  -1  10   0    0.37    0.09 
  -1  10   0    0.40    0.05 
  -1  10   0    0.34    0.07 
   0 -10   0    0.13    0.05 
   0  10   0    0.11    0.04 
   0  10   0    0.21    0.06 
   1  10  -1    0.69    0.06 
   0  10  -1    3.46    0.21 
   0  10  -1    3.62    0.16 
   0 -10   1    3.19    0.17 
   0 -10   1    3.08    0.16 
  -1  10  -1    0.41    0.05 
  -1  10  -1    0.53    0.09 
  -1  10  -1    0.47    0.07 
   1 -10   1    0.39    0.05 
   1 -10   1    0.42    0.06 
  -2  10  -1    0.01    0.05 
   2 -10   1   -0.04    0.04 
   2 -10   1    0.03    0.04 
  -3  10  -1    0.40    0.06 
   3   9  -1    6.45    0.27 
  -3  -9   1    6.87    0.30 
  -3  -9   1    6.42    0.30 
   2   9  -1    1.08    0.09 
   2   9  -1    1.20    0.13 
  -2  -9   1    1.01    0.10 
  -2  -9   1    1.11    0.10 
  -2  -9   1    1.19    0.10 
   1   9  -1    5.68    0.30 
   1   9  -1    5.79    0.25 
   1   9  -1    5.65    0.35 
  -1  -9   1    5.42    0.27 
  -1  -9   1    5.54    0.28 
  -1  -9   1    5.03    0.29 
   0   9  -1    0.13    0.07 
   0   9  -1    0.12    0.06 
   0   9  -1    0.33    0.12 
   0   9  -1    0.23    0.07 
   0  -9   1    0.18    0.07 
   0  -9   1    0.19    0.07 
   0  -9   1    0.27    0.08 
   0  -9   1    0.15    0.07 
  -1   9  -1    3.14    0.23 
  -1   9  -1    2.75    0.16 
  -1   9  -1    3.01    0.19 
  -1   9  -1    2.90    0.19 
   1  -9   1    2.42    0.16 
   1  -9   1    2.54    0.17 
   1  -9   1    2.45    0.23 
   1  -9   1    2.74    0.18 
   1  -9   1    3.00    0.18 
  -2   9  -1    0.95    0.13 
  -2   9  -1    0.79    0.12 
  -2   9  -1    1.01    0.10 
  -2   9  -1    0.98    0.10 
   2  -9   1    0.73    0.16 
   2  -9   1    0.92    0.09 
   2  -9   1    1.02    0.13 
   2  -9   1    0.63    0.13 
   2  -9   1    1.21    0.10 
   2  -9   1    1.12    0.10 
   2  -9   1    0.84    0.09 
  -3   9  -1    3.24    0.21 
  -3   9  -1    3.56    0.24 
  -3   9  -1    3.41    0.18 
   3  -9   1    3.05    0.20 
   3  -9   1    3.06    0.16 
   3  -9   1    3.19    0.18 
   3  -9   1    2.91    0.18 
   3  -9   1    2.59    0.28 
   3  -9   1    2.87    0.25 
  -4   9  -1    4.67    0.24 
  -4   9  -1    4.88    0.28 
  -4   9  -1    5.01    0.23 
   4  -9   1    4.35    0.21 
   4  -9   1    3.82    0.31 
   4  -9   1    3.87    0.26 
   4  -9   1    4.41    0.18 
   4  -9   1    3.75    0.24 
   4  -9   1    4.39    0.22 
   4  -9   1    4.32    0.22 
   4  -9   1    4.58    0.22 
   4  -9   1    4.22    0.25 
  -5   9  -1    1.02    0.11 
   5  -9   1    0.62    0.11 
   5  -9   1    0.91    0.05 
   5  -9   1    0.89    0.07 
   4   8  -1    3.77    0.21 
  -4  -8   1    3.55    0.20 
  -4  -8   1    3.67    0.19 
  -4  -8   1    3.63    0.20 
   3   8  -1    5.76    0.27 
   3   8  -1    5.72    0.31 
   3   8  -1    5.55    0.34 
   3   8  -1    5.97    0.31 
  -3  -8   1    6.27    0.30 
  -3  -8   1    6.03    0.31 
  -3  -8   1    6.42    0.30 
   2   8  -1   -0.02    0.08 
   2   8  -1   -0.03    0.12 
   2   8  -1    0.00    0.09 
  -2  -8   1    0.02    0.07 
  -2  -8   1    0.05    0.08 
  -2  -8   1    0.00    0.08 
   1   8  -1    1.44    0.18 
   1   8  -1    1.40    0.14 
  -1  -8   1    1.13    0.11 
  -1  -8   1    1.40    0.12 
  -1  -8   1    1.31    0.13 
   0   8  -1    7.40    0.39 
   0   8  -1    6.93    0.40 
   0   8  -1    7.36    0.45 
   0  -8   1    7.02    0.37 
   0  -8   1    7.30    0.35 
   0  -8   1    6.47    0.44 
   0  -8   1    7.12    0.35 
   0  -8   1    7.40    0.36 
  -1   8  -1    2.34    0.20 
  -1   8  -1    2.38    0.21 
  -1   8  -1    2.52    0.16 
  -1   8  -1    2.17    0.22 
   1  -8   1    2.55    0.18 
   1  -8   1    2.22    0.16 
   1  -8   1    2.24    0.18 
   1  -8   1    2.21    0.22 
   1  -8   1    2.19    0.20 
   1  -8   1    2.28    0.16 
  -2   8  -1    0.35    0.11 
  -2   8  -1    0.13    0.07 
  -2   8  -1    0.26    0.11 
   2  -8   1    0.14    0.16 
   2  -8   1    0.16    0.07 
   2  -8   1    0.10    0.08 
   2  -8   1    0.30    0.11 
   2  -8   1    0.03    0.08 
   2  -8   1    0.20    0.09 
   2  -8   1    0.19    0.08 
   2  -8   1    0.11    0.16 
  -3   8  -1    0.25    0.09 
  -3   8  -1    0.07    0.08 
   3  -8   1    0.13    0.07 
   3  -8   1    0.09    0.08 
   3  -8   1    0.09    0.11 
   3  -8   1    0.10    0.08 
   3  -8   1    0.08    0.07 
   3  -8   1    0.05    0.07 
   3  -8   1    0.12    0.12 
   3  -8   1    0.17    0.12 
   3  -8   1   -0.01    0.13 
   3  -8   1    0.09    0.09 
   3  -8   1   -0.02    0.08 
  -4   8  -1    3.08    0.21 
  -4   8  -1    3.55    0.20 
   4  -8   1    3.25    0.30 
   4  -8   1    3.39    0.16 
   4  -8   1    3.65    0.20 
   4  -8   1    3.39    0.21 
   4  -8   1    3.20    0.22 
   4  -8   1    3.53    0.18 
   4  -8   1    3.28    0.19 
   4  -8   1    3.49    0.21 
   4  -8   1    3.58    0.20 
   4  -8   1    3.21    0.24 
   4  -8   1    3.59    0.20 
  -5   8  -1    3.35    0.19 
   5  -8   1    3.68    0.23 
   5  -8   1    3.96    0.21 
   5  -8   1    3.86    0.15 
   5  -8   1    3.80    0.21 
   5  -8   1    3.86    0.21 
   5  -8   1    3.46    0.18 
   5  -8   1    3.37    0.28 
   5  -8   1    3.86    0.19 
   5  -8   1    3.81    0.19 
   5  -8   1    3.77    0.19 
   5  -8   1    2.81    0.21 
  -6   8  -1    1.64    0.13 
   6  -8   1    1.61    0.07 
   6  -8   1    1.69    0.11 
   6  -8   1    1.70    0.10 
   6  -8   1    1.64    0.10 
   6  -8   1    1.64    0.10 
   6  -8   1    1.68    0.10 
   6  -8   1    1.23    0.16 
   6  -8   1    1.78    0.14 
   5   7  -1    0.19    0.07 
   5   7  -1    0.17    0.07 
  -5  -7   1    0.13    0.06 
  -5  -7   1    0.14    0.06 
  -5  -7   1    0.14    0.06 
  -5  -7   1    0.24    0.07 
   4   7  -1    1.28    0.13 
  -4  -7   1    1.56    0.14 
  -4  -7   1    1.48    0.13 
  -4  -7   1    1.48    0.12 
  -4  -7   1    1.51    0.13 
   3   7  -1   -0.05    0.09 
   3   7  -1   -0.09    0.08 
   3   7  -1    0.03    0.10 
   3   7  -1    0.07    0.08 
  -3  -7   1   -0.13    0.07 
  -3  -7   1    0.02    0.07 
  -3  -7   1    0.16    0.08 
  -3  -7   1    0.13    0.09 
   2   7  -1    3.36    0.23 
   2   7  -1    3.56    0.29 
   2   7  -1    3.74    0.25 
   2   7  -1    3.74    0.35 
   2   7  -1    3.42    0.21 
  -2  -7   1    3.44    0.22 
  -2  -7   1    3.53    0.22 
  -2  -7   1    3.54    0.24 
   1   7  -1    1.97    0.24 
   1   7  -1    1.89    0.20 
   1   7  -1    1.79    0.16 
  -1  -7   1    1.75    0.15 
  -1  -7   1    1.88    0.15 
   0   7  -1   15.40    0.71 
   0   7  -1   16.45    0.99 
   0   7  -1   14.11    0.68 
   0   7  -1   15.81    0.95 
   0   7  -1   14.06    0.79 
   0  -7   1   14.06    0.72 
   0  -7   1   15.23    0.70 
   0  -7   1   13.86    0.71 
  -1   7  -1    4.22    0.31 
  -1   7  -1    3.28    0.21 
  -1   7  -1    3.88    0.24 
   1  -7   1    3.58    0.23 
   1  -7   1    3.87    0.24 
   1  -7   1    3.87    0.26 
  -2   7  -1    7.40    0.38 
  -2   7  -1    8.15    0.53 
   2  -7   1    7.80    0.36 
   2  -7   1    7.47    0.39 
   2  -7   1    7.54    0.36 
   2  -7   1    7.83    0.41 
   2  -7   1    7.50    0.40 
  -3   7  -1    2.68    0.20 
  -3   7  -1    2.91    0.23 
  -3   7  -1    2.74    0.27 
   3  -7   1    2.49    0.30 
   3  -7   1    2.95    0.24 
   3  -7   1    2.58    0.18 
   3  -7   1    2.40    0.20 
   3  -7   1    2.95    0.20 
   3  -7   1    2.76    0.18 
   3  -7   1    2.72    0.17 
   3  -7   1    3.01    0.26 
   3  -7   1    2.39    0.24 
   3  -7   1    2.71    0.19 
   3  -7   1    2.76    0.24 
   3  -7   1    2.88    0.20 
   3  -7   1    2.70    0.21 
  -4   7  -1    0.39    0.07 
   4  -7   1    0.39    0.08 
   4  -7   1    0.40    0.12 
   4  -7   1    0.52    0.10 
   4  -7   1    0.58    0.10 
   4  -7   1    0.48    0.09 
   4  -7   1    0.41    0.08 
   4  -7   1    0.61    0.10 
   4  -7   1    0.46    0.06 
   4  -7   1    0.53    0.11 
   4  -7   1    0.61    0.10 
   4  -7   1    0.41    0.08 
   4  -7   1    0.38    0.10 
   4  -7   1    0.42    0.19 
   4  -7   1    0.63    0.14 
  -5   7  -1   21.23    1.00 
   5  -7   1   23.28    1.00 
   5  -7   1   22.77    1.00 
   5  -7   1   22.76    0.97 
   5  -7   1   20.16    1.27 
   5  -7   1   22.49    0.81 
   5  -7   1   23.92    1.07 
   5  -7   1   23.34    0.95 
   5  -7   1   22.65    1.00 
   5  -7   1   22.57    0.87 
   5  -7   1   22.47    0.98 
   6  -7   1    1.87    0.13 
   6  -7   1    1.86    0.13 
   6  -7   1    1.75    0.15 
   6  -7   1    1.70    0.12 
   6  -7   1    1.84    0.15 
   6  -7   1    1.63    0.15 
   6  -7   1    1.87    0.13 
   6  -7   1    1.66    0.08 
   6  -7   1    1.59    0.13 
   7  -7   1    0.27    0.06 
   7  -7   1    0.18    0.05 
   7  -7   1    0.19    0.05 
   6   6  -1    1.16    0.11 
   6   6  -1    0.96    0.08 
   6   6  -1    1.16    0.08 
   6   6  -1    1.09    0.11 
  -6  -6   1    1.11    0.11 
  -6  -6   1    1.06    0.10 
  -6  -6   1    1.08    0.10 
   5   6  -1    3.13    0.24 
   5   6  -1    2.81    0.20 
   5   6  -1    2.96    0.19 
   5   6  -1    2.94    0.15 
   5   6  -1    2.84    0.18 
  -5  -6   1    2.98    0.19 
  -5  -6   1    3.30    0.21 
  -5  -6   1    3.00    0.19 
   4   6  -1    7.79    0.38 
   4   6  -1    7.71    0.33 
   4   6  -1    7.09    0.40 
   4   6  -1    7.70    0.36 
   4   6  -1    7.07    0.40 
  -4  -6   1    7.06    0.37 
  -4  -6   1    6.61    0.37 
  -4  -6   1    7.35    0.37 
  -4  -6   1    7.89    0.39 
   3   6  -1    1.40    0.18 
   3   6  -1    1.99    0.16 
   3   6  -1    1.82    0.16 
   3   6  -1    2.01    0.25 
   3   6  -1    1.61    0.15 
  -3  -6   1    2.06    0.16 
  -3  -6   1    1.73    0.15 
  -3  -6   1    1.74    0.14 
   2   6  -1    0.54    0.09 
   2   6  -1    0.68    0.15 
  -2  -6   1    0.37    0.09 
  -2  -6   1    0.54    0.09 
   1   6  -1    4.71    0.33 
   1   6  -1    5.11    0.38 
   1   6  -1    4.44    0.27 
  -1  -6   1    4.59    0.26 
  -1  -6   1    4.23    0.24 
   0   6  -1    0.17    0.09 
   0   6  -1    0.20    0.08 
   0   6  -1    0.12    0.09 
   0  -6   1    0.08    0.07 
  -1   6  -1    0.89    0.14 
  -1   6  -1    0.92    0.11 
   1  -6   1    0.92    0.11 
  -2   6  -1    4.85    0.34 
  -2   6  -1    4.29    0.28 
   2  -6   1    4.09    0.22 
   2  -6   1    4.05    0.29 
   2  -6   1    4.45    0.26 
  -3   6  -1    0.27    0.10 
  -3   6  -1    0.19    0.10 
   3  -6   1    0.27    0.08 
   3  -6   1    0.17    0.05 
   3  -6   1    0.15    0.12 
   3  -6   1    0.13    0.07 
   3  -6   1    0.25    0.08 
  -4   6  -1    1.68    0.19 
  -4   6  -1    1.82    0.20 
   4  -6   1    1.90    0.16 
   4  -6   1    1.73    0.11 
   4  -6   1    1.73    0.15 
   4  -6   1    1.81    0.17 
   4  -6   1    1.87    0.21 
   4  -6   1    1.92    0.17 
   4  -6   1    1.89    0.19 
   4  -6   1    1.80    0.17 
  -5   6  -1    0.20    0.09 
   5  -6   1    0.32    0.09 
   5  -6   1    0.28    0.08 
   5  -6   1    0.30    0.16 
   5  -6   1    0.55    0.11 
   5  -6   1    0.37    0.11 
   5  -6   1    0.40    0.09 
   5  -6   1    0.31    0.08 
   5  -6   1    0.10    0.09 
   5  -6   1    0.43    0.09 
   5  -6   1    0.31    0.11 
   5  -6   1    0.32    0.06 
   5  -6   1    0.33    0.08 
   6  -6   1    4.00    0.22 
   6  -6   1    3.89    0.16 
   6  -6   1    3.97    0.24 
   6  -6   1    3.74    0.21 
   6  -6   1    4.07    0.21 
   6  -6   1    3.77    0.23 
   6  -6   1    3.95    0.23 
   6  -6   1    3.81    0.26 
   6  -6   1    3.86    0.23 
   7  -6   1    0.08    0.06 
   7  -6   1    0.16    0.07 
   7  -6   1    0.19    0.06 
   7  -6   1    0.11    0.05 
   7  -6   1    0.11    0.06 
   7  -6   1    0.10    0.06 
   7  -6   1    0.22    0.06 
   7   5  -1    0.76    0.07 
   7   5  -1    0.79    0.07 
   7   5  -1    0.67    0.05 
   7   5  -1    0.49    0.07 
   7   5  -1    0.55    0.07 
  -7  -5   1    0.56    0.06 
   6   5  -1    3.26    0.19 
   6   5  -1    3.79    0.24 
   6   5  -1    3.39    0.22 
   6   5  -1    3.31    0.20 
   6   5  -1    3.70    0.20 
   6   5  -1    3.86    0.18 
   6   5  -1    3.77    0.21 
   6   5  -1    3.56    0.19 
   6   5  -1    3.79    0.16 
  -6  -5   1    3.69    0.22 
  -6  -5   1    3.46    0.21 
  -6  -5   1    4.11    0.21 
   5   5  -1    6.22    0.30 
   5   5  -1    6.02    0.31 
   5   5  -1    5.97    0.28 
   5   5  -1    6.22    0.26 
   5   5  -1    6.35    0.33 
   5   5  -1    5.91    0.30 
   5   5  -1    6.16    0.35 
   5   5  -1    5.95    0.31 
   5   5  -1    6.53    0.36 
  -5  -5   1    5.83    0.31 
  -5  -5   1    6.47    0.34 
  -5  -5   1    5.74    0.32 
   4   5  -1    9.38    0.53 
   4   5  -1   10.22    0.71 
   4   5  -1   10.33    0.50 
  -4  -5   1   10.41    0.50 
  -4  -5   1    9.97    0.48 
   3   5  -1    1.65    0.15 
   3   5  -1    1.73    0.17 
   3   5  -1    1.90    0.22 
  -3  -5   1    1.79    0.13 
  -3  -5   1    1.78    0.17 
   2   5  -1    0.14    0.11 
  -2  -5   1    0.24    0.06 
   1   5  -1    2.71    0.24 
   1   5  -1    2.67    0.21 
  -1  -5   1    2.67    0.16 
  -1  -5   1    2.48    0.15 
   0   5  -1    8.60    0.57 
   0   5  -1    8.92    0.54 
   0  -5   1    7.41    0.39 
   0  -5   1    8.69    0.41 
  -1   5  -1   22.23    1.35 
  -1   5  -1   23.05    1.31 
  -1   5  -1   21.12    1.08 
   1  -5   1   20.37    0.95 
   1  -5   1   21.00    1.00 
   1  -5   1   20.89    1.08 
  -2   5  -1   12.88    0.74 
  -2   5  -1   14.20    0.86 
  -2   5  -1   13.90    0.71 
   2  -5   1   13.81    0.72 
   2  -5   1   12.78    0.75 
   2  -5   1   13.50    0.54 
   2  -5   1   14.11    0.65 
  -3   5  -1    0.04    0.04 
  -3   5  -1    0.15    0.08 
  -3   5  -1    0.01    0.07 
   3  -5   1    0.02    0.05 
   3  -5   1    0.03    0.04 
   3  -5   1   -0.07    0.07 
   3  -5   1    0.15    0.06 
  -4   5  -1    0.19    0.10 
   4  -5   1    0.14    0.08 
   4  -5   1    0.20    0.08 
   4  -5   1    0.11    0.04 
   4  -5   1    0.24    0.08 
   4  -5   1    0.14    0.11 
  -5   5  -1    2.80    0.21 
   5  -5   1    2.82    0.19 
   5  -5   1    2.73    0.17 
   5  -5   1    2.62    0.24 
   5  -5   1    2.43    0.22 
   5  -5   1    3.08    0.22 
   5  -5   1    2.69    0.19 
   5  -5   1    2.62    0.19 
   5  -5   1    2.47    0.13 
   6  -5   1    1.16    0.12 
   6  -5   1    1.49    0.12 
   6  -5   1    1.55    0.14 
   6  -5   1    1.08    0.10 
   6  -5   1    1.03    0.10 
   6  -5   1    1.31    0.14 
   6  -5   1    1.16    0.11 
   6  -5   1    1.33    0.08 
   6  -5   1    1.41    0.12 
   6  -5   1    1.10    0.12 
   7  -5   1    1.01    0.10 
   7  -5   1    0.93    0.10 
   7  -5   1    0.94    0.09 
   7  -5   1    0.88    0.09 
   7  -5   1    1.07    0.10 
   7  -5   1    0.94    0.09 
   7  -5   1    0.84    0.08 
   8  -5   1    3.28    0.17 
   7   4  -1    0.58    0.08 
   7   4  -1    0.65    0.05 
   7   4  -1    0.56    0.09 
   7   4  -1    0.64    0.07 
   7   4  -1    0.37    0.08 
   7   4  -1    0.50    0.07 
   7   4  -1    0.62    0.06 
  -7  -4   1    0.57    0.09 
   6   4  -1    0.01    0.05 
   6   4  -1    0.20    0.10 
   6   4  -1    0.00    0.07 
   6   4  -1    0.04    0.07 
   6   4  -1    0.14    0.08 
   6   4  -1   -0.03    0.09 
   6   4  -1   -0.04    0.08 
   6   4  -1    0.02    0.05 
   6   4  -1    0.06    0.07 
   6   4  -1    0.05    0.06 
   6   4  -1    0.05    0.10 
  -6  -4   1    0.05    0.09 
   5   4  -1   16.20    0.72 
   5   4  -1   15.97    0.72 
   5   4  -1   15.81    0.59 
   5   4  -1   15.67    0.64 
   5   4  -1   15.84    0.78 
   5   4  -1   15.87    0.77 
   5   4  -1   16.05    0.68 
   5   4  -1   15.77    0.67 
   5   4  -1   16.14    0.71 
   5   4  -1   15.40    0.72 
   5   4  -1   16.66    0.76 
   5   4  -1   15.89    0.72 
  -5  -4   1   16.87    0.74 
   4   4  -1    2.42    0.16 
   4   4  -1    2.47    0.13 
   4   4  -1    2.60    0.25 
   4   4  -1    2.61    0.20 
   4   4  -1    2.42    0.15 
  -4  -4   1    2.47    0.17 
   3   4  -1   10.57    0.45 
   3   4  -1   11.21    0.50 
   3   4  -1   11.11    0.74 
  -3  -4   1   11.54    0.51 
   2   4  -1    9.79    0.64 
  -2  -4   1    9.51    0.46 
  -2  -4   1    9.29    0.44 
   1   4  -1   27.36    1.65 
   1   4  -1   27.80    1.72 
  -1  -4   1   27.41    1.21 
  -1  -4   1   27.65    1.27 
   0   4  -1    2.01    0.19 
   0   4  -1    2.25    0.17 
   0  -4   1    2.15    0.13 
   0  -4   1    1.91    0.12 
  -1   4  -1   64.80    3.47 
  -1   4  -1   65.64    3.24 
  -1   4  -1   63.84    4.06 
  -1   4  -1   67.84    3.91 
   1  -4   1   67.60    2.88 
   1  -4   1   65.11    3.02 
   1  -4   1   65.05    3.25 
   1  -4   1   67.60    2.54 
   1  -4   1   67.76    3.47 
  -2   4  -1   17.20    1.08 
  -2   4  -1   18.30    0.96 
  -2   4  -1   17.71    0.90 
   2  -4   1   17.86    0.70 
   2  -4   1   16.65    0.79 
   2  -4   1   17.93    0.83 
   2  -4   1   18.32    0.91 
   2  -4   1   17.97    0.96 
  -3   4  -1   12.73    0.83 
  -3   4  -1   13.54    0.74 
  -3   4  -1   13.69    0.70 
   3  -4   1   13.98    0.53 
   3  -4   1   14.16    0.65 
   3  -4   1   13.09    0.74 
   3  -4   1   13.76    0.71 
   3  -4   1   12.67    0.61 
  -4   4  -1    7.32    0.45 
  -4   4  -1    7.88    0.43 
   4  -4   1    7.57    0.37 
   4  -4   1    7.61    0.44 
   4  -4   1    8.22    0.32 
   4  -4   1    7.56    0.46 
   4  -4   1    8.34    0.40 
  -5   4  -1    0.70    0.11 
   5  -4   1    0.56    0.08 
   5  -4   1    0.55    0.08 
   5  -4   1    0.65    0.05 
   5  -4   1    0.53    0.09 
   5  -4   1    0.74    0.12 
   5  -4   1    0.54    0.13 
   6  -4   1    0.36    0.08 
   6  -4   1    0.26    0.10 
   6  -4   1    0.33    0.04 
   6  -4   1    0.35    0.10 
   6  -4   1    0.40    0.09 
   6  -4   1    0.26    0.09 
   6  -4   1    0.42    0.09 
   6  -4   1    0.35    0.08 
   6  -4   1    0.49    0.09 
   7  -4   1    2.78    0.19 
   7  -4   1    2.91    0.17 
   7  -4   1    2.93    0.17 
   7  -4   1    2.82    0.18 
   7  -4   1    2.60    0.15 
   7  -4   1    2.63    0.17 
   7  -4   1    3.07    0.19 
   7  -4   1    2.83    0.18 
   8  -4   1    3.57    0.19 
   8  -4   1    4.18    0.20 
   8   3  -1    5.08    0.24 
   8   3  -1    5.19    0.24 
   8   3  -1    5.49    0.23 
   7   3  -1    0.06    0.06 
   7   3  -1    0.08    0.05 
   7   3  -1    0.15    0.06 
   7   3  -1    0.04    0.08 
   7   3  -1    0.07    0.05 
   7   3  -1    0.20    0.09 
   7   3  -1   -0.01    0.04 
   7   3  -1    0.16    0.07 
   7   3  -1    0.01    0.06 
   6   3  -1   10.40    0.44 
   6   3  -1   10.53    0.48 
   6   3  -1    8.97    0.47 
   6   3  -1   10.07    0.48 
   6   3  -1   10.10    0.38 
   6   3  -1   10.02    0.51 
   6   3  -1   10.07    0.52 
   6   3  -1   10.01    0.44 
   6   3  -1    9.95    0.42 
   6   3  -1   10.05    0.50 
   6   3  -1   10.13    0.47 
  -6  -3   1   10.75    0.49 
   5   3  -1   12.86    0.57 
   5   3  -1   12.14    0.57 
   5   3  -1   12.27    0.60 
   5   3  -1   12.45    0.50 
   5   3  -1   11.73    0.54 
  -5  -3   1   13.35    0.58 
   4   3  -1    1.07    0.09 
   4   3  -1    1.01    0.09 
   4   3  -1    1.08    0.15 
   4   3  -1    1.03    0.07 
  -4  -3   1    1.17    0.10 
   3   3  -1    0.78    0.06 
   3   3  -1    0.79    0.12 
   3   3  -1    0.80    0.07 
  -3  -3   1    0.89    0.08 
  -3  -3   1    0.73    0.09 
   2   3  -1    0.29    0.08 
   2   3  -1    0.17    0.03 
   2   3  -1    0.29    0.04 
  -2  -3   1    0.19    0.05 
  -2  -3   1    0.21    0.04 
   1   3  -1    0.12    0.02 
   1   3  -1    0.14    0.07 
  -1  -3   1    0.17    0.05 
  -1  -3   1    0.07    0.03 
   0   3  -1    8.22    0.50 
   0   3  -1    7.89    0.44 
   0   3  -1    8.24    0.41 
   0  -3   1    8.56    0.44 
   0  -3   1    8.17    0.41 
   0  -3   1    7.79    0.41 
  -1   3  -1    0.06    0.03 
  -1   3  -1    0.00    0.03 
  -1   3  -1    0.01    0.07 
   1  -3   1    0.02    0.04 
   1  -3   1    0.08    0.05 
   1  -3   1    0.02    0.03 
  -2   3  -1    1.48    0.11 
  -2   3  -1    1.35    0.13 
  -2   3  -1    1.26    0.11 
   2  -3   1    1.40    0.08 
   2  -3   1    1.52    0.11 
   2  -3   1    1.37    0.13 
   2  -3   1    1.49    0.12 
  -3   3  -1   11.09    0.59 
  -3   3  -1    9.72    0.55 
  -3   3  -1    9.98    0.66 
   3  -3   1   11.22    0.59 
   3  -3   1   10.52    0.56 
   3  -3   1   11.26    0.52 
   3  -3   1    9.95    0.48 
   3  -3   1   11.36    0.42 
  -4   3  -1    2.02    0.16 
  -4   3  -1    2.21    0.16 
   4  -3   1    2.12    0.10 
   4  -3   1    2.41    0.15 
   4  -3   1    2.13    0.14 
   4  -3   1    1.98    0.17 
   5  -3   1    5.81    0.29 
   5  -3   1    5.82    0.24 
   5  -3   1    5.37    0.28 
   5  -3   1    6.03    0.32 
  -6   3  -1   11.91    0.56 
   6  -3   1   11.28    0.55 
   6  -3   1   11.59    0.51 
   6  -3   1   11.60    0.56 
   6  -3   1   12.10    0.53 
   6  -3   1   11.37    0.54 
   6  -3   1   12.00    0.55 
   7  -3   1    0.26    0.07 
   7  -3   1    0.26    0.08 
   7  -3   1    0.33    0.09 
   7  -3   1    0.32    0.09 
   7  -3   1    0.31    0.08 
   8  -3   1    3.57    0.20 
   8  -3   1    3.29    0.18 
   8   2  -1    1.74    0.12 
   8   2  -1    1.52    0.11 
   8   2  -1    1.85    0.11 
   8   2  -1    1.66    0.11 
   7   2  -1    0.62    0.07 
   7   2  -1    0.78    0.10 
   7   2  -1    0.72    0.09 
   7   2  -1    0.64    0.05 
   7   2  -1    0.82    0.09 
   7   2  -1    0.98    0.10 
   7   2  -1    0.68    0.12 
   7   2  -1    0.75    0.09 
   7   2  -1    0.71    0.10 
   6   2  -1    8.72    0.39 
   6   2  -1    8.51    0.43 
   6   2  -1    8.05    0.42 
   6   2  -1    8.63    0.33 
   6   2  -1    8.81    0.41 
   6   2  -1    8.74    0.41 
   6   2  -1    8.81    0.41 
   6   2  -1    8.37    0.47 
   6   2  -1    8.27    0.37 
   6   2  -1    8.68    0.38 
  -6  -2   1    9.65    0.43 
   5   2  -1   12.31    0.51 
   5   2  -1   12.17    0.58 
   5   2  -1   12.54    0.57 
  -5  -2   1   13.97    0.59 
   4   2  -1   18.19    0.68 
   4   2  -1   18.01    0.76 
   4   2  -1   16.06    1.10 
  -4  -2   1   17.24    1.04 
   3   2  -1    0.06    0.03 
   3   2  -1   -0.01    0.04 
  -3  -2   1    0.04    0.04 
   2   2  -1    0.75    0.10 
   2   2  -1    0.79    0.06 
   2   2  -1    0.73    0.05 
  -2  -2   1    0.66    0.06 
  -2  -2   1    0.95    0.07 
   1   2  -1    0.43    0.04 
  -1  -2   1    0.32    0.04 
  -1  -2   1    0.41    0.04 
   0   2  -1  225.66   10.34 
   0  -2   1  208.36   10.32 
   0  -2   1  210.26   11.21 
  -1   2  -1  135.49    6.10 
  -1   2  -1  127.28    6.62 
   1  -2   1  128.03    6.62 
   1  -2   1  125.96    6.08 
   1  -2   1  116.92    4.85 
  -3   2  -1    1.56    0.12 
  -3   2  -1    1.69    0.12 
   3  -2   1    1.60    0.11 
   3  -2   1    1.73    0.13 
   3  -2   1    1.84    0.08 
   3  -2   1    1.68    0.13 
   3  -2   1    1.83    0.13 
  -4   2  -1   26.32    1.46 
   4  -2   1   28.35    1.06 
   4  -2   1   27.38    1.21 
   4  -2   1   27.73    1.28 
   5  -2   1    0.21    0.07 
   5  -2   1    0.14    0.03 
  -6   2  -1    0.42    0.08 
   6  -2   1    0.63    0.08 
   6  -2   1    0.43    0.04 
   6  -2   1    0.56    0.08 
   6  -2   1    0.63    0.10 
   6  -2   1    0.61    0.09 
   7  -2   1    8.47    0.40 
   7  -2   1    7.97    0.40 
   7  -2   1    8.05    0.38 
   7  -2   1    8.35    0.36 
   7  -2   1    8.43    0.41 
   8  -2   1    0.46    0.08 
   8  -2   1    0.47    0.07 
   8  -2   1    0.65    0.07 
   8   1  -1    1.54    0.11 
   8   1  -1    1.47    0.09 
   8   1  -1    1.45    0.10 
   8   1  -1    1.45    0.11 
   7   1  -1    3.31    0.20 
   7   1  -1    3.37    0.20 
   7   1  -1    3.44    0.19 
   7   1  -1    3.45    0.19 
   7   1  -1    3.19    0.22 
   7   1  -1    3.40    0.14 
   7   1  -1    3.25    0.17 
   7   1  -1    3.60    0.19 
   6   1  -1    3.33    0.15 
   6   1  -1    3.37    0.22 
   6   1  -1    3.45    0.20 
   6   1  -1    3.55    0.20 
   6   1  -1    3.36    0.20 
   6   1  -1    3.58    0.20 
   5   1  -1   84.19    3.09 
   5   1  -1   75.41    3.44 
   5   1  -1   81.72    3.41 
   4   1  -1   53.25    2.28 
   4   1  -1   55.58    2.07 
  -4  -1   1   52.60    3.14 
   3   1  -1    3.73    0.18 
   3   1  -1    3.47    0.27 
   3   1  -1    3.75    0.15 
  -3  -1   1    3.40    0.19 
  -3  -1   1    4.00    0.24 
   2   1  -1  443.68   23.75 
  -2  -1   1  486.92   23.76 
  -2  -1   1  531.43   28.72 
  -2  -1   1  516.84   23.76 
   1   1  -1  146.53    7.37 
  -1  -1   1  159.84    7.37 
  -1  -1   1  151.13    7.38 
  -1  -1   1  155.87    8.90 
   0   1  -1   84.47    4.65 
   0   1  -1   89.99    4.29 
   0  -1   1   88.50    4.29 
  -1   1  -1  127.45    6.02 
   1  -1   1  122.91    6.01 
  -2   1  -1   41.28    2.17 
  -2   1  -1   42.66    1.99 
   2  -1   1   42.05    2.17 
   2  -1   1   39.35    1.58 
  -3   1  -1    3.75    0.22 
   3  -1   1    3.57    0.19 
   3  -1   1    3.98    0.15 
   3  -1   1    3.85    0.20 
   3  -1   1    3.49    0.18 
  -4   1  -1    3.06    0.19 
   4  -1   1    2.97    0.17 
   4  -1   1    2.77    0.16 
   4  -1   1    3.37    0.13 
  -5   1  -1   15.39    0.74 
   5  -1   1   14.67    0.68 
   5  -1   1   15.94    0.70 
   5  -1   1   15.79    0.60 
  -6   1  -1    9.17    0.46 
   6  -1   1   10.03    0.45 
   6  -1   1    8.89    0.43 
   6  -1   1    9.47    0.46 
   6  -1   1    8.68    0.42 
   6  -1   1    9.20    0.37 
   7  -1   1    0.57    0.09 
   7  -1   1    0.48    0.08 
   7  -1   1    0.50    0.04 
   7  -1   1    0.61    0.09 
   7  -1   1    0.65    0.09 
   7  -1   1    0.53    0.08 
   8  -1   1    0.24    0.07 
   8  -1   1    0.38    0.07 
   8  -1   1    0.30    0.05 
   8  -1   1    0.18    0.07 
   8   0  -1    0.32    0.07 
   8   0  -1    0.28    0.05 
   8   0  -1    0.20    0.05 
   7   0  -1    3.49    0.23 
   7   0  -1    3.71    0.21 
   7   0  -1    4.02    0.18 
   7   0  -1    3.88    0.20 
   7   0  -1    3.77    0.20 
   6   0  -1    0.27    0.03 
   6   0  -1    0.28    0.07 
   6   0  -1    0.30    0.07 
   6   0  -1    0.23    0.07 
   6   0  -1    0.37    0.09 
   5   0  -1    1.27    0.06 
   5   0  -1    1.24    0.10 
  -5   0   1    1.24    0.12 
   4   0  -1    3.97    0.16 
   4   0  -1    3.80    0.20 
   4   0  -1    3.85    0.20 
  -4   0   1    4.05    0.26 
  -4   0   1    3.95    0.20 
   3   0  -1   10.36    0.40 
   3   0  -1    9.73    0.56 
   3   0  -1   10.51    0.46 
  -3   0   1   10.77    0.56 
  -3   0   1   11.02    0.62 
  -2   0   1  563.13   32.68 
   1   0  -1    1.56    0.08 
   1   0  -1    1.59    0.09 
  -1   0   1    1.61    0.10 
  -1   0   1    1.67    0.08 
   0   0  -1   97.33    4.56 
   0   0   1   98.33    4.56 
   0   0   1   88.77    5.52 
  -1   0  -1  124.59    6.71 
  -1   0  -1  132.39    6.18 
   1   0   1  128.27    6.17 
  -2   0  -1   27.18    1.28 
  -2   0  -1   26.55    1.28 
  -2   0  -1   25.71    1.39 
  -3   0  -1   22.31    1.17 
   3   0   1   21.50    0.95 
   3   0   1   21.26    0.97 
   3   0   1   23.25    0.85 
  -4   0  -1    1.75    0.12 
  -4   0  -1    1.81    0.14 
   4   0   1    1.71    0.11 
   4   0   1    1.85    0.13 
   4   0   1    1.78    0.09 
  -5   0  -1    2.15    0.15 
   5   0   1    2.40    0.11 
   5   0   1    1.94    0.14 
   5   0   1    2.24    0.15 
   5   0   1    2.21    0.14 
  -6   0  -1   30.75    1.40 
   6   0   1   29.50    1.16 
   6   0   1   30.28    1.36 
   6   0   1   31.60    1.34 
   6   0   1   29.07    1.30 
   6   0   1   30.02    1.31 
   6   0   1   29.34    1.24 
   6   0   1   29.46    1.30 
   7   0   1   11.19    0.46 
   7   0   1   11.09    0.51 
   7   0   1   11.22    0.49 
   7   0   1   11.14    0.48 
   7   0   1   10.98    0.41 
   7   0   1   11.65    0.55 
   7   0   1   11.14    0.52 
   8   0   1    3.46    0.16 
   8   0   1    3.15    0.20 
   8   0   1    3.43    0.16 
   8   0   1    3.08    0.18 
   8   0   1    3.38    0.19 
   5  -1  -1    0.29    0.05 
   5  -1  -1    0.23    0.02 
  -5   1   1    0.13    0.05 
   4  -1  -1    0.11    0.04 
   4  -1  -1    0.09    0.05 
   4  -1  -1    0.10    0.05 
   4  -1  -1    0.09    0.01 
  -4   1   1    0.04    0.03 
  -4   1   1    0.12    0.04 
   3  -1  -1   53.65    2.28 
   3  -1  -1   55.91    2.84 
   3  -1  -1   52.99    2.47 
  -3   1   1   53.90    2.84 
   2  -1  -1   15.38    0.82 
  -2   1   1   15.42    0.92 
   1  -1  -1   39.12    1.93 
  -1   1   1   41.66    1.93 
  -1   1   1   38.44    2.35 
  -1   1   1   41.16    1.93 
   0  -1  -1    3.42    0.17 
   0  -1  -1    3.23    0.20 
   0  -1  -1    3.27    0.17 
   0  -1  -1    3.37    0.18 
   0   1   1    3.55    0.17 
   0   1   1    3.20    0.21 
   0   1   1    3.47    0.17 
  -1  -1  -1  133.64    7.87 
  -1  -1  -1  135.74    7.09 
  -1  -1  -1  130.96    6.52 
  -1  -1  -1  138.44    6.53 
   1   1   1  145.00    7.89 
   1   1   1  136.69    6.53 
   1   1   1  128.53    6.51 
  -2  -1  -1   29.25    1.59 
  -2  -1  -1   28.61    1.32 
  -2  -1  -1   26.02    1.25 
  -2  -1  -1   27.87    1.43 
   2   1   1   26.55    1.05 
   2   1   1   25.02    1.16 
  -3  -1  -1   23.33    1.09 
  -3  -1  -1   25.43    1.40 
   3   1   1   23.34    1.02 
   3   1   1   22.30    1.04 
   3   1   1   24.16    0.92 
  -4  -1  -1    6.99    0.44 
  -4  -1  -1    6.97    0.35 
   4   1   1    6.79    0.33 
   4   1   1    7.03    0.33 
   4   1   1    7.21    0.28 
  -5  -1  -1    1.62    0.13 
   5   1   1    1.91    0.13 
   5   1   1    1.81    0.10 
   5   1   1    1.83    0.13 
  -6  -1  -1   12.33    0.61 
   6   1   1   12.56    0.58 
   6   1   1   12.26    0.58 
   6   1   1   12.49    0.58 
   6   1   1   12.77    0.54 
   6   1   1   12.29    0.57 
   6   1   1   12.75    0.61 
   6   1   1   12.89    0.58 
   7   1   1    8.09    0.41 
   7   1   1    8.34    0.39 
   7   1   1    7.90    0.34 
   7   1   1    8.05    0.36 
   7   1   1    7.84    0.39 
   7   1   1    8.17    0.38 
   7   1   1    8.15    0.36 
   7   1   1    7.80    0.38 
   7   1   1    7.98    0.30 
   8   1   1    0.80    0.08 
   8   1   1    0.90    0.08 
   8   1   1    0.87    0.08 
   8   1   1    0.89    0.08 
   8   1   1    0.59    0.08 
   8   1   1    0.92    0.08 
   5  -2  -1    7.85    0.30 
   4  -2  -1    0.75    0.08 
   4  -2  -1    0.75    0.07 
   4  -2  -1    0.73    0.04 
   4  -2  -1    0.70    0.08 
  -4   2   1    0.74    0.08 
   3  -2  -1   35.80    1.85 
   3  -2  -1   35.42    1.34 
   3  -2  -1   34.27    1.61 
   3  -2  -1   34.77    1.73 
   2  -2  -1    0.41    0.05 
   2  -2  -1    0.35    0.03 
  -2   2   1    0.28    0.06 
  -2   2   1    0.32    0.03 
   1  -2  -1  144.92    6.97 
   1  -2  -1  130.88    5.11 
   1  -2  -1  122.49    6.42 
   1  -2  -1  131.72    6.42 
  -1   2   1  142.19    6.42 
  -1   2   1  135.35    6.41 
  -1   2   1  127.32    7.78 
   0  -2  -1    4.36    0.23 
   0  -2  -1    4.16    0.23 
   0  -2  -1    4.56    0.25 
   0   2   1    4.19    0.23 
   0   2   1    4.70    0.23 
   0   2   1    4.48    0.29 
  -1  -2  -1   41.44    2.00 
  -1  -2  -1   43.01    2.41 
  -1  -2  -1   39.37    2.00 
  -1  -2  -1   42.54    2.17 
   1   2   1   40.94    2.00 
   1   2   1   41.12    2.00 
  -2  -2  -1    0.09    0.03 
  -2  -2  -1    0.07    0.04 
  -2  -2  -1    0.04    0.03 
   2   2   1    0.02    0.04 
   2   2   1    0.08    0.03 
  -3  -2  -1   45.41    2.11 
  -3  -2  -1   47.34    2.69 
   3   2   1   45.85    1.96 
   3   2   1   45.70    1.77 
  -4  -2  -1    1.29    0.11 
  -4  -2  -1    1.13    0.11 
   4   2   1    1.32    0.11 
   4   2   1    1.24    0.07 
  -5  -2  -1    6.21    0.34 
   5   2   1    6.89    0.33 
   5   2   1    6.45    0.28 
   5   2   1    6.73    0.33 
   5   2   1    6.50    0.34 
   6   2   1    0.40    0.08 
   6   2   1    0.68    0.12 
   6   2   1    0.45    0.10 
   6   2   1    0.47    0.05 
   6   2   1    0.59    0.09 
   6   2   1    0.47    0.08 
   6   2   1    0.59    0.08 
   6   2   1    0.65    0.09 
   6   2   1    0.61    0.08 
   7   2   1    0.85    0.06 
   7   2   1    0.69    0.10 
   7   2   1    0.87    0.10 
   7   2   1    0.83    0.09 
   7   2   1    0.67    0.07 
   7   2   1    0.95    0.09 
   7   2   1    0.86    0.09 
   7   2   1    0.69    0.10 
   7   2   1    0.89    0.10 
   8   2   1    1.14    0.09 
   8   2   1    1.12    0.08 
   8   2   1    1.06    0.09 
   8   2   1    1.00    0.09 
   8   2   1    1.18    0.10 
   8   2   1    1.28    0.08 
   5  -3  -1   10.03    0.50 
   5  -3  -1    9.85    0.39 
   5  -3  -1   10.52    0.55 
   4  -3  -1    0.15    0.03 
   4  -3  -1    0.08    0.06 
   4  -3  -1    0.09    0.05 
   4  -3  -1    0.17    0.06 
  -4   3   1    0.15    0.09 
  -4   3   1    0.09    0.05 
   3  -3  -1   60.48    2.83 
   3  -3  -1   60.19    2.21 
   3  -3  -1   58.06    2.64 
   3  -3  -1   60.22    3.03 
  -3   3   1   48.96    3.41 
   2  -3  -1   19.97    0.98 
   2  -3  -1   20.50    0.76 
   2  -3  -1   20.80    1.04 
   2  -3  -1   18.98    0.90 
  -2   3   1   17.08    1.17 
   1  -3  -1    2.54    0.15 
   1  -3  -1    2.62    0.16 
   1  -3  -1    2.47    0.11 
  -1   3   1    2.29    0.20 
  -1   3   1    2.52    0.18 
  -1   3   1    2.69    0.14 
   0  -3  -1   39.67    1.55 
   0  -3  -1   42.46    2.11 
   0  -3  -1   40.92    1.84 
   0   3   1   41.69    2.36 
   0   3   1   37.01    2.37 
   0   3   1   36.47    2.47 
   0   3   1   42.24    1.94 
  -1  -3  -1    5.95    0.28 
  -1  -3  -1    5.18    0.29 
   1   3   1    5.87    0.39 
  -2  -3  -1    0.03    0.04 
  -2  -3  -1    0.11    0.06 
  -2  -3  -1    0.06    0.04 
   2   3   1    0.05    0.04 
   2   3   1    0.01    0.03 
   2   3   1    0.12    0.08 
  -3  -3  -1    4.63    0.31 
  -3  -3  -1    4.87    0.26 
   3   3   1    5.32    0.36 
   3   3   1    4.89    0.21 
   3   3   1    4.78    0.24 
  -4  -3  -1   24.20    1.13 
  -4  -3  -1   25.99    1.07 
   4   3   1   22.60    1.06 
   4   3   1   23.00    0.94 
   4   3   1   24.82    1.05 
  -5  -3  -1    9.96    0.44 
  -5  -3  -1    8.63    0.47 
   5   3   1    8.57    0.38 
   5   3   1    9.63    0.44 
   5   3   1    9.89    0.44 
   5   3   1    8.95    0.42 
   5   3   1    9.70    0.47 
   5   3   1    8.65    0.43 
  -6  -3  -1    2.13    0.16 
   6   3   1    2.02    0.12 
   6   3   1    2.25    0.21 
   6   3   1    2.10    0.16 
   6   3   1    2.17    0.15 
   6   3   1    2.37    0.16 
   6   3   1    2.39    0.18 
   6   3   1    2.25    0.19 
   6   3   1    2.16    0.16 
   6   3   1    2.23    0.17 
   6   3   1    2.49    0.18 
   7   3   1    1.56    0.14 
   7   3   1    1.87    0.14 
   7   3   1    1.82    0.13 
   7   3   1    1.86    0.10 
   7   3   1    1.59    0.16 
   7   3   1    1.83    0.13 
   7   3   1    2.07    0.16 
   7   3   1    1.78    0.13 
   7   3   1    1.80    0.11 
   7   3   1    1.83    0.16 
   6  -4  -1    9.29    0.42 
   6  -4  -1    9.69    0.43 
   6  -4  -1    9.20    0.45 
   6  -4  -1    9.39    0.46 
   6  -4  -1   10.07    0.40 
   6  -4  -1    9.53    0.43 
   5  -4  -1    4.45    0.26 
   5  -4  -1    4.57    0.24 
   5  -4  -1    4.74    0.30 
   5  -4  -1    4.65    0.19 
  -5   4   1    4.56    0.30 
   4  -4  -1    1.32    0.12 
   4  -4  -1    1.21    0.07 
   4  -4  -1    1.26    0.13 
   4  -4  -1    1.29    0.12 
  -4   4   1    1.14    0.11 
  -4   4   1    1.03    0.15 
   3  -4  -1    6.01    0.33 
   3  -4  -1    5.54    0.34 
   3  -4  -1    5.88    0.30 
   3  -4  -1    6.16    0.24 
  -3   4   1    5.55    0.41 
   2  -4  -1    2.88    0.13 
   2  -4  -1    2.77    0.18 
   2  -4  -1    2.84    0.17 
   2  -4  -1    2.65    0.18 
  -2   4   1    2.29    0.25 
  -2   4   1    2.60    0.22 
   1  -4  -1    0.40    0.06 
   1  -4  -1    0.35    0.06 
   1  -4  -1    0.36    0.04 
   1  -4  -1    0.48    0.06 
  -1   4   1    0.39    0.08 
  -1   4   1    0.32    0.08 
  -1   4   1    0.38    0.09 
   0  -4  -1   19.24    0.88 
   0  -4  -1   19.57    1.00 
   0   4   1   18.29    1.19 
   0   4   1   18.17    1.14 
  -1  -4  -1    0.20    0.06 
   1   4   1    0.17    0.09 
   1   4   1    0.13    0.06 
  -2  -4  -1    8.97    0.44 
  -2  -4  -1    9.95    0.47 
   2   4   1    9.92    0.65 
  -3  -4  -1    7.97    0.38 
  -3  -4  -1    7.99    0.41 
   3   4   1    8.49    0.57 
  -4  -4  -1    5.51    0.29 
  -4  -4  -1    5.88    0.32 
   4   4   1    6.05    0.33 
   4   4   1    5.63    0.29 
   4   4   1    5.77    0.29 
  -5  -4  -1    7.69    0.40 
   5   4   1    8.77    0.34 
   5   4   1    8.08    0.45 
   5   4   1    8.43    0.37 
   5   4   1    8.43    0.41 
   5   4   1    8.88    0.42 
   5   4   1    8.89    0.48 
   5   4   1    8.39    0.42 
   5   4   1    8.89    0.44 
   5   4   1    8.42    0.40 
   5   4   1    8.50    0.39 
   6   4   1    4.73    0.23 
   6   4   1    5.03    0.27 
   6   4   1    4.63    0.22 
   6   4   1    4.69    0.25 
   6   4   1    4.52    0.23 
   6   4   1    4.66    0.20 
   6   4   1    5.03    0.29 
   6   4   1    4.67    0.24 
   6   4   1    4.77    0.25 
   6   4   1    4.64    0.25 
  -7  -4  -1   12.03    0.56 
  -7  -4  -1   12.69    0.54 
   7   4   1   11.68    0.53 
   7   4   1   12.02    0.49 
   7   4   1   12.85    0.44 
   7   4   1   11.98    0.50 
   7   4   1   11.58    0.53 
   7   4   1   11.80    0.47 
   7   4   1   11.57    0.57 
   7   4   1   11.44    0.56 
   7   4   1   12.62    0.53 
   7  -5  -1    5.47    0.28 
   7  -5  -1    5.45    0.25 
   7  -5  -1    5.28    0.26 
   7  -5  -1    5.46    0.27 
   7  -5  -1    5.62    0.28 
   6  -5  -1    0.06    0.08 
   6  -5  -1    0.01    0.06 
   6  -5  -1   -0.05    0.07 
   6  -5  -1    0.02    0.08 
   6  -5  -1   -0.02    0.03 
   6  -5  -1    0.01    0.09 
   6  -5  -1    0.07    0.09 
   6  -5  -1    0.10    0.08 
   6  -5  -1    0.09    0.08 
   5  -5  -1   15.48    0.67 
   5  -5  -1   14.69    0.74 
   5  -5  -1   14.43    0.60 
   5  -5  -1   15.18    0.81 
   5  -5  -1   15.93    0.70 
   5  -5  -1   14.85    0.66 
  -5   5   1   15.59    0.81 
   4  -5  -1    8.72    0.47 
   4  -5  -1    8.12    0.34 
   4  -5  -1    8.39    0.42 
   4  -5  -1    8.22    0.39 
  -4   5   1    7.88    0.56 
   3  -5  -1   22.70    1.12 
   3  -5  -1   21.96    1.04 
   3  -5  -1   21.69    0.86 
  -3   5   1   21.60    1.35 
   2  -5  -1   12.17    0.69 
   2  -5  -1   13.24    0.61 
   2  -5  -1   12.72    0.66 
   2  -5  -1   12.25    0.50 
  -2   5   1   13.11    0.80 
  -2   5   1   11.92    0.82 
   1  -5  -1    3.75    0.23 
   1  -5  -1    3.82    0.17 
   1  -5  -1    3.56    0.23 
   1  -5  -1    3.71    0.21 
  -1   5   1    3.51    0.30 
  -1   5   1    3.71    0.28 
   0  -5  -1   42.17    1.92 
   0   5   1   39.32    2.49 
   0   5   1   43.65    2.60 
  -1  -5  -1    1.22    0.12 
   1   5   1    1.25    0.18 
  -2  -5  -1    2.30    0.16 
   2   5   1    2.40    0.24 
   2   5   1    1.92    0.18 
  -3  -5  -1    0.25    0.08 
  -3  -5  -1    0.38    0.10 
   3   5   1    0.30    0.10 
   3   5   1    0.12    0.10 
  -4  -5  -1    5.62    0.30 
  -4  -5  -1    5.89    0.30 
   4   5   1    5.74    0.31 
   4   5   1    5.54    0.32 
   4   5   1    5.53    0.29 
   4   5   1    5.53    0.36 
  -5  -5  -1    4.16    0.24 
  -5  -5  -1    4.29    0.24 
   5   5   1    4.38    0.24 
   5   5   1    3.91    0.28 
   5   5   1    4.04    0.23 
   5   5   1    3.98    0.27 
   5   5   1    4.22    0.23 
   5   5   1    4.37    0.23 
  -6  -5  -1    0.15    0.07 
  -6  -5  -1    0.22    0.08 
   6   5   1    0.19    0.05 
   6   5   1    0.31    0.06 
   6   5   1    0.29    0.07 
   6   5   1    0.20    0.07 
   6   5   1    0.33    0.05 
   6   5   1    0.20    0.07 
   6   5   1    0.47    0.09 
   6   5   1    0.29    0.08 
   7  -6  -1    0.09    0.07 
   7  -6  -1    0.00    0.05 
   7  -6  -1   -0.06    0.06 
   7  -6  -1    0.00    0.05 
   7  -6  -1    0.02    0.07 
   7  -6  -1    0.01    0.06 
   7  -6  -1    0.04    0.06 
   6  -6  -1    6.78    0.31 
   6  -6  -1    7.09    0.35 
   6  -6  -1    7.01    0.33 
   6  -6  -1    7.02    0.31 
   6  -6  -1    6.53    0.34 
   6  -6  -1    6.41    0.36 
   6  -6  -1    6.97    0.35 
   6  -6  -1    6.23    0.45 
   6  -6  -1    7.14    0.33 
   6  -6  -1    6.79    0.25 
   5  -6  -1    1.37    0.13 
   5  -6  -1    1.11    0.13 
   5  -6  -1    1.36    0.11 
   5  -6  -1    1.49    0.12 
   5  -6  -1    1.40    0.14 
   5  -6  -1    1.47    0.18 
   5  -6  -1    1.56    0.14 
   5  -6  -1    1.47    0.12 
   5  -6  -1    1.34    0.12 
   5  -6  -1    1.32    0.10 
   5  -6  -1    1.36    0.11 
   4  -6  -1    0.33    0.10 
   4  -6  -1    0.15    0.05 
   4  -6  -1    0.27    0.12 
   4  -6  -1    0.22    0.09 
   4  -6  -1    0.32    0.10 
   4  -6  -1    0.21    0.07 
   4  -6  -1    0.22    0.09 
  -4   6   1    0.30    0.11 
  -4   6   1    0.38    0.16 
   3  -6  -1    0.45    0.07 
   3  -6  -1    0.34    0.10 
   3  -6  -1    0.26    0.07 
   3  -6  -1    0.64    0.08 
  -3   6   1    0.30    0.09 
  -3   6   1    0.49    0.13 
   2  -6  -1   11.29    0.56 
   2  -6  -1   11.33    0.62 
   2  -6  -1   11.75    0.56 
   2  -6  -1   11.25    0.47 
   2  -6  -1   11.41    0.51 
  -2   6   1   11.00    0.61 
  -2   6   1   11.86    0.77 
  -2   6   1   10.28    0.56 
  -2   6   1   12.49    0.75 
   1  -6  -1    1.59    0.13 
   1  -6  -1    1.27    0.13 
  -1   6   1    1.63    0.21 
  -1   6   1    1.59    0.13 
  -1   6   1    1.60    0.19 
   0  -6  -1    0.24    0.07 
   0  -6  -1    0.41    0.09 
   0   6   1    0.16    0.08 
   0   6   1    0.19    0.11 
   0   6   1    0.27    0.14 
  -1  -6  -1    0.34    0.08 
  -1  -6  -1    0.06    0.08 
   1   6   1    0.19    0.13 
   1   6   1    0.24    0.11 
  -2  -6  -1    3.97    0.24 
  -2  -6  -1    4.40    0.26 
   2   6   1    3.70    0.25 
   2   6   1    4.57    0.37 
   2   6   1    4.30    0.25 
  -3  -6  -1    2.71    0.18 
  -3  -6  -1    3.11    0.21 
  -3  -6  -1    2.63    0.20 
  -3  -6  -1    2.74    0.19 
  -3  -6  -1    3.02    0.21 
   3   6   1    3.13    0.20 
   3   6   1    2.99    0.22 
   3   6   1    2.88    0.30 
   3   6   1    2.89    0.26 
   3   6   1    3.19    0.20 
  -4  -6  -1    2.08    0.17 
  -4  -6  -1    2.16    0.18 
  -4  -6  -1    2.37    0.18 
  -4  -6  -1    2.44    0.18 
   4   6   1    2.31    0.18 
   4   6   1    2.18    0.19 
   4   6   1    2.21    0.17 
   4   6   1    2.21    0.19 
  -5  -6  -1    2.06    0.16 
  -5  -6  -1    2.14    0.16 
  -5  -6  -1    1.86    0.15 
   5   6   1    1.87    0.15 
   5   6   1    1.94    0.14 
   5   6   1    2.18    0.18 
   5   6   1    1.81    0.17 
  -6  -6  -1    0.31    0.06 
  -6  -6  -1    0.15    0.05 
  -6  -6  -1    0.24    0.06 
   6   6   1    0.16    0.06 
   6   6   1    0.24    0.04 
   6   6   1    0.15    0.05 
   7  -7  -1    0.54    0.05 
   7  -7  -1    0.58    0.07 
   7  -7  -1    0.52    0.07 
   6  -7  -1   16.92    0.75 
   6  -7  -1   17.49    0.76 
   6  -7  -1   16.57    0.73 
   6  -7  -1   16.63    0.60 
   6  -7  -1   17.30    0.72 
   6  -7  -1   14.64    0.95 
   6  -7  -1   17.47    0.81 
   6  -7  -1   17.54    0.74 
   6  -7  -1   17.59    0.66 
   5  -7  -1    3.34    0.19 
   5  -7  -1    3.44    0.15 
   5  -7  -1    3.10    0.20 
   5  -7  -1    3.00    0.22 
   5  -7  -1    3.32    0.19 
   5  -7  -1    3.54    0.23 
   5  -7  -1    3.24    0.29 
   5  -7  -1    3.31    0.21 
   5  -7  -1    2.84    0.23 
   5  -7  -1    3.39    0.20 
   5  -7  -1    2.96    0.21 
   5  -7  -1    3.38    0.20 
   4  -7  -1    8.69    0.40 
   4  -7  -1    8.58    0.43 
   4  -7  -1    8.38    0.38 
   4  -7  -1    8.99    0.44 
   4  -7  -1    8.42    0.34 
   4  -7  -1    8.70    0.43 
   4  -7  -1    9.02    0.41 
   4  -7  -1    8.34    0.42 
   4  -7  -1    8.92    0.50 
   4  -7  -1    9.23    0.57 
   4  -7  -1    8.48    0.37 
   4  -7  -1    8.63    0.45 
   3  -7  -1   14.95    0.72 
   3  -7  -1   14.70    0.87 
   3  -7  -1   14.82    0.67 
   3  -7  -1   15.49    0.76 
   3  -7  -1   15.21    0.70 
   3  -7  -1   14.66    0.61 
   3  -7  -1   13.14    0.79 
   3  -7  -1   14.42    0.72 
   3  -7  -1   15.18    0.64 
   3  -7  -1   14.21    0.66 
   3  -7  -1   15.18    0.65 
   3  -7  -1   15.23    0.67 
   3  -7  -1   14.68    0.59 
   3  -7  -1   14.53    0.67 
  -3   7   1   14.45    0.70 
  -3   7   1   12.47    0.78 
  -3   7   1   15.09    0.94 
   2  -7  -1    1.30    0.11 
   2  -7  -1    1.30    0.11 
   2  -7  -1    1.08    0.17 
   2  -7  -1    1.59    0.15 
   2  -7  -1    1.44    0.15 
  -2   7   1    1.21    0.12 
  -2   7   1    1.23    0.15 
  -2   7   1    1.63    0.21 
   1  -7  -1    0.06    0.10 
   1  -7  -1    0.06    0.06 
   1  -7  -1   -0.09    0.06 
   1  -7  -1    0.07    0.08 
   1  -7  -1    0.02    0.15 
  -1   7   1    0.01    0.09 
  -1   7   1   -0.03    0.10 
  -1   7   1    0.00    0.09 
  -1   7   1    0.06    0.12 
   0  -7  -1    0.46    0.09 
   0  -7  -1    0.31    0.16 
   0  -7  -1    0.46    0.08 
   0  -7  -1    0.18    0.08 
   0   7   1    0.53    0.14 
   0   7   1    0.59    0.18 
   0   7   1    0.37    0.10 
  -1  -7  -1    0.68    0.11 
  -1  -7  -1    0.57    0.09 
  -1  -7  -1    0.43    0.10 
  -1  -7  -1    0.81    0.10 
  -1  -7  -1    0.76    0.09 
  -1  -7  -1    0.77    0.10 
   1   7   1    0.69    0.11 
   1   7   1    0.69    0.13 
   1   7   1    0.63    0.11 
   1   7   1    0.67    0.16 
  -2  -7  -1    3.90    0.23 
  -2  -7  -1    4.00    0.24 
  -2  -7  -1    3.54    0.23 
  -2  -7  -1    3.62    0.22 
   2   7   1    3.82    0.24 
   2   7   1    3.49    0.34 
   2   7   1    4.04    0.27 
   2   7   1    3.31    0.29 
  -3  -7  -1    0.20    0.09 
  -3  -7  -1    0.07    0.08 
  -3  -7  -1    0.17    0.09 
  -3  -7  -1   -0.02    0.08 
   3   7   1    0.03    0.11 
  -4  -7  -1    1.29    0.12 
  -4  -7  -1    1.29    0.12 
  -4  -7  -1    1.40    0.13 
   4   7   1    1.29    0.12 
   4   7   1    1.12    0.13 
  -5  -7  -1    6.12    0.29 
  -5  -7  -1    5.56    0.27 
   5   7   1    5.99    0.29 
   5   7   1    6.00    0.31 
   6  -8  -1    7.09    0.30 
   6  -8  -1    6.70    0.31 
   6  -8  -1    5.61    0.40 
   6  -8  -1    6.84    0.34 
   6  -8  -1    6.80    0.31 
   6  -8  -1    7.05    0.31 
   6  -8  -1    6.99    0.28 
   5  -8  -1    1.87    0.15 
   5  -8  -1    1.88    0.13 
   5  -8  -1    1.89    0.13 
   5  -8  -1    1.73    0.14 
   5  -8  -1    2.14    0.10 
   5  -8  -1    1.91    0.13 
   5  -8  -1    1.98    0.13 
   5  -8  -1    1.78    0.14 
   5  -8  -1    1.76    0.20 
   5  -8  -1    1.97    0.18 
   5  -8  -1    1.30    0.15 
  -5   8   1    1.96    0.13 
   4  -8  -1    0.24    0.06 
   4  -8  -1    0.32    0.08 
   4  -8  -1    0.42    0.07 
   4  -8  -1    0.39    0.08 
   4  -8  -1    0.37    0.11 
   4  -8  -1    0.48    0.08 
   4  -8  -1    0.32    0.11 
   4  -8  -1    0.29    0.08 
   4  -8  -1    0.28    0.07 
   4  -8  -1    0.32    0.10 
   4  -8  -1    0.40    0.13 
   4  -8  -1    0.40    0.09 
  -4   8   1    0.40    0.09 
   3  -8  -1    5.48    0.27 
   3  -8  -1    5.64    0.28 
   3  -8  -1    5.69    0.25 
   3  -8  -1    5.23    0.42 
   3  -8  -1    5.57    0.37 
   3  -8  -1    5.16    0.28 
   3  -8  -1    4.80    0.36 
   3  -8  -1    5.52    0.24 
   3  -8  -1    5.58    0.27 
   3  -8  -1    5.33    0.29 
   3  -8  -1    5.56    0.31 
  -3   8   1    5.50    0.28 
  -3   8   1    5.23    0.34 
   2  -8  -1    2.39    0.17 
   2  -8  -1    2.20    0.15 
   2  -8  -1    1.82    0.20 
   2  -8  -1    1.94    0.23 
   2  -8  -1    2.00    0.15 
   2  -8  -1    2.29    0.18 
   2  -8  -1    2.09    0.25 
   2  -8  -1    2.40    0.18 
   2  -8  -1    2.02    0.18 
  -2   8   1    1.87    0.20 
  -2   8   1    2.52    0.25 
  -2   8   1    1.91    0.16 
   1  -8  -1    0.21    0.09 
   1  -8  -1    0.17    0.07 
   1  -8  -1    0.29    0.09 
   1  -8  -1    0.50    0.11 
   1  -8  -1    0.35    0.08 
   1  -8  -1    0.07    0.12 
  -1   8   1    0.29    0.11 
  -1   8   1    0.46    0.07 
  -1   8   1    0.22    0.09 
  -1   8   1    0.39    0.13 
   0  -8  -1    5.06    0.28 
   0  -8  -1    5.26    0.27 
   0  -8  -1    4.96    0.28 
   0   8   1    5.48    0.30 
   0   8   1    5.21    0.35 
  -1  -8  -1    0.30    0.08 
  -1  -8  -1    0.36    0.08 
  -1  -8  -1    0.39    0.09 
   1   8   1    0.40    0.09 
   1   8   1    0.34    0.11 
  -2  -8  -1    4.45    0.24 
  -2  -8  -1    4.59    0.24 
  -2  -8  -1    5.05    0.25 
  -2  -8  -1    4.38    0.25 
   2   8   1    4.62    0.22 
   2   8   1    4.82    0.27 
   2   8   1    4.46    0.29 
   2   8   1    4.87    0.28 
  -3  -8  -1    7.45    0.39 
  -3  -8  -1    8.61    0.39 
  -3  -8  -1    7.71    0.38 
  -3  -8  -1    7.88    0.37 
   3   8   1    9.01    0.41 
  -4  -8  -1    0.38    0.06 
  -4  -8  -1    0.32    0.06 
   4   8   1    0.42    0.08 
   5  -9  -1    0.87    0.08 
   5  -9  -1    0.83    0.05 
   5  -9  -1    0.63    0.10 
   5  -9  -1    0.93    0.08 
   4  -9  -1    0.06    0.05 
   4  -9  -1    0.05    0.11 
   4  -9  -1    0.04    0.06 
   4  -9  -1    0.03    0.04 
   4  -9  -1    0.01    0.05 
   4  -9  -1   -0.02    0.04 
   4  -9  -1    0.07    0.05 
   4  -9  -1    0.04    0.09 
  -4   9   1    0.06    0.07 
  -4   9   1    0.07    0.05 
   3  -9  -1    0.14    0.09 
   3  -9  -1    0.12    0.10 
   3  -9  -1    0.11    0.07 
   3  -9  -1    0.21    0.07 
   3  -9  -1    0.12    0.05 
   3  -9  -1    0.16    0.06 
   3  -9  -1    0.09    0.11 
   3  -9  -1    0.18    0.06 
  -3   9   1    0.24    0.07 
  -3   9   1    0.22    0.07 
  -3   9   1    0.26    0.09 
   2  -9  -1    1.25    0.11 
   2  -9  -1    1.44    0.13 
   2  -9  -1    1.62    0.14 
   2  -9  -1    1.45    0.12 
   2  -9  -1    1.03    0.12 
   2  -9  -1    1.09    0.14 
   2  -9  -1    1.04    0.10 
  -2   9   1    1.62    0.14 
  -2   9   1    1.24    0.10 
  -2   9   1    1.38    0.13 
  -2   9   1    1.64    0.16 
   1  -9  -1   -0.02    0.05 
   1  -9  -1   -0.04    0.11 
   1  -9  -1    0.05    0.07 
   1  -9  -1    0.13    0.06 
  -1   9   1    0.09    0.08 
  -1   9   1    0.08    0.10 
  -1   9   1    0.08    0.08 
   0  -9  -1   14.65    0.68 
   0  -9  -1   14.68    0.68 
   0   9   1   15.63    0.72 
   0   9   1   16.33    0.80 
  -1  -9  -1    2.75    0.17 
  -1  -9  -1    2.51    0.17 
   1   9   1    3.01    0.22 
   1   9   1    3.02    0.16 
   1   9   1    2.69    0.18 
  -2  -9  -1    0.83    0.07 
  -2  -9  -1    0.92    0.08 
  -2  -9  -1    0.81    0.07 
   2   9   1    0.73    0.06 
   2   9   1    0.80    0.10 
   2 -10  -1    0.13    0.08 
   2 -10  -1    0.06    0.05 
  -2  10   1    0.09    0.05 
  -2  10   1    0.07    0.03 
   1 -10  -1    2.40    0.14 
  -1  10   1    2.62    0.18 
  -1  10   1    2.58    0.12 
   0  10   1    3.68    0.17 
   0  10  -2    1.60    0.12 
   0  10  -2    1.90    0.09 
   0 -10   2    1.59    0.10 
   0 -10   2    1.72    0.11 
  -1  10  -2    0.13    0.06 
   1 -10   2    0.16    0.05 
   1 -10   2    0.25    0.05 
  -2  10  -2    5.56    0.27 
   2 -10   2    5.02    0.25 
   3   9  -2    0.02    0.04 
  -3  -9   2    0.02    0.05 
  -3  -9   2    0.06    0.05 
   2   9  -2    4.59    0.21 
   2   9  -2    4.28    0.28 
  -2  -9   2    4.25    0.21 
  -2  -9   2    4.12    0.23 
  -2  -9   2    4.23    0.22 
   1   9  -2    0.67    0.10 
   1   9  -2    0.78    0.09 
   1   9  -2    0.98    0.14 
   1   9  -2    0.64    0.09 
  -1  -9   2    0.80    0.09 
  -1  -9   2    0.78    0.09 
  -1  -9   2    0.72    0.10 
   0   9  -2    9.47    0.46 
   0   9  -2    9.98    0.53 
   0   9  -2    9.05    0.40 
   0   9  -2    9.34    0.48 
   0  -9   2    9.87    0.45 
   0  -9   2    8.59    0.45 
   0  -9   2    9.72    0.43 
  -1   9  -2    0.04    0.10 
  -1   9  -2    0.20    0.10 
  -1   9  -2    0.08    0.07 
  -1   9  -2    0.06    0.06 
   1  -9   2    0.19    0.13 
   1  -9   2    0.15    0.07 
   1  -9   2    0.14    0.08 
   1  -9   2    0.21    0.07 
  -2   9  -2   -0.03    0.05 
  -2   9  -2    0.03    0.09 
  -2   9  -2    0.01    0.09 
   2  -9   2   -0.01    0.07 
   2  -9   2    0.02    0.06 
   2  -9   2   -0.02    0.05 
   2  -9   2   -0.15    0.08 
   2  -9   2   -0.11    0.13 
   2  -9   2   -0.15    0.12 
   2  -9   2    0.06    0.06 
  -3   9  -2    7.50    0.42 
  -3   9  -2    7.55    0.33 
  -3   9  -2    7.27    0.36 
   3  -9   2    7.23    0.33 
   3  -9   2    6.18    0.39 
   3  -9   2    6.01    0.44 
   3  -9   2    7.05    0.33 
   3  -9   2    6.38    0.33 
   3  -9   2    6.29    0.35 
  -4   9  -2    0.57    0.07 
  -4   9  -2    0.50    0.10 
  -4   9  -2    0.46    0.07 
   4  -9   2    0.41    0.05 
   4  -9   2    0.53    0.06 
   4  -9   2    0.42    0.12 
   4  -9   2    0.33    0.05 
   4  -9   2    0.30    0.08 
   4  -9   2    0.45    0.06 
   5  -9   2    0.86    0.05 
   4   8  -2    1.11    0.11 
   4   8  -2    0.72    0.07 
  -4  -8   2    1.02    0.10 
  -4  -8   2    1.00    0.09 
  -4  -8   2    0.84    0.08 
  -4  -8   2    0.92    0.09 
   3   8  -2    2.16    0.13 
   3   8  -2    1.95    0.18 
   3   8  -2    2.04    0.17 
  -3  -8   2    2.25    0.15 
  -3  -8   2    2.18    0.17 
  -3  -8   2    2.50    0.16 
  -3  -8   2    1.78    0.15 
   2   8  -2    1.09    0.15 
   2   8  -2    1.21    0.13 
   2   8  -2    1.26    0.11 
  -2  -8   2    1.12    0.11 
  -2  -8   2    1.37    0.13 
  -2  -8   2    1.39    0.12 
  -2  -8   2    1.34    0.12 
   1   8  -2    0.59    0.11 
   1   8  -2    0.42    0.09 
   1   8  -2    0.45    0.08 
   1   8  -2    0.53    0.15 
  -1  -8   2    0.69    0.10 
  -1  -8   2    0.71    0.10 
  -1  -8   2    0.67    0.11 
   0   8  -2    2.14    0.23 
   0   8  -2    1.98    0.20 
   0   8  -2    2.02    0.15 
   0   8  -2    2.07    0.17 
   0  -8   2    2.20    0.18 
   0  -8   2    2.27    0.18 
   0  -8   2    2.11    0.17 
   0  -8   2    1.50    0.20 
  -1   8  -2    5.44    0.32 
  -1   8  -2    4.79    0.34 
  -1   8  -2    5.29    0.33 
  -1   8  -2    5.28    0.28 
  -1   8  -2    5.31    0.30 
   1  -8   2    4.70    0.32 
   1  -8   2    5.11    0.27 
   1  -8   2    5.31    0.29 
   1  -8   2    4.36    0.39 
   1  -8   2    5.43    0.27 
   1  -8   2    5.11    0.38 
  -2   8  -2    2.09    0.19 
  -2   8  -2    2.63    0.18 
   2  -8   2    2.30    0.24 
   2  -8   2    2.20    0.18 
   2  -8   2    2.40    0.23 
   2  -8   2    2.35    0.17 
   2  -8   2    2.42    0.18 
   2  -8   2    2.41    0.18 
  -3   8  -2    2.98    0.17 
  -3   8  -2    2.33    0.19 
   3  -8   2    2.39    0.23 
   3  -8   2    2.66    0.21 
   3  -8   2    2.72    0.19 
   3  -8   2    2.67    0.18 
   3  -8   2    2.86    0.29 
   3  -8   2    2.48    0.19 
   3  -8   2    2.59    0.19 
   3  -8   2    2.72    0.17 
   3  -8   2    2.60    0.22 
  -4   8  -2    0.00    0.05 
   4  -8   2   -0.08    0.06 
   4  -8   2   -0.02    0.06 
   4  -8   2   -0.05    0.08 
   4  -8   2    0.07    0.06 
   4  -8   2    0.01    0.12 
   4  -8   2    0.07    0.07 
   4  -8   2   -0.10    0.07 
   4  -8   2    0.05    0.06 
   4  -8   2    0.03    0.08 
   4  -8   2   -0.01    0.07 
  -5   8  -2    0.17    0.07 
  -5   8  -2    0.30    0.08 
   5  -8   2    0.21    0.07 
   5  -8   2    0.07    0.05 
   5  -8   2    0.26    0.07 
   5  -8   2    0.19    0.06 
   5  -8   2    0.11    0.05 
   5  -8   2    0.15    0.04 
   5  -8   2    0.27    0.06 
   5  -8   2    0.17    0.08 
   5  -8   2    0.17    0.07 
   5  -8   2    0.22    0.05 
   5  -8   2    0.16    0.10 
   6  -8   2    1.61    0.10 
   6  -8   2    1.72    0.10 
   6  -8   2    1.70    0.10 
   6  -8   2    1.63    0.14 
   6  -8   2    1.49    0.10 
   5   7  -2    4.67    0.24 
   5   7  -2    4.21    0.19 
   5   7  -2    4.23    0.24 
  -5  -7   2    4.20    0.23 
  -5  -7   2    4.23    0.22 
  -5  -7   2    4.57    0.22 
  -5  -7   2    3.98    0.20 
  -5  -7   2    4.20    0.22 
   4   7  -2    7.97    0.36 
   4   7  -2    7.59    0.46 
   4   7  -2    8.58    0.35 
   4   7  -2    8.54    0.42 
   4   7  -2    8.02    0.42 
  -4  -7   2    8.39    0.39 
  -4  -7   2    8.00    0.40 
  -4  -7   2    9.11    0.41 
  -4  -7   2    8.59    0.39 
   3   7  -2    0.74    0.08 
   3   7  -2    0.86    0.10 
   3   7  -2    0.92    0.13 
   3   7  -2    0.85    0.11 
  -3  -7   2    0.88    0.11 
  -3  -7   2    0.66    0.10 
  -3  -7   2    0.83    0.11 
  -3  -7   2    0.76    0.10 
   2   7  -2   10.02    0.44 
   2   7  -2   10.86    0.71 
   2   7  -2   10.65    0.52 
   2   7  -2   10.33    0.58 
  -2  -7   2    9.73    0.47 
  -2  -7   2    9.70    0.48 
  -2  -7   2    9.20    0.48 
  -2  -7   2   10.27    0.47 
  -2  -7   2   11.30    0.51 
   1   7  -2    1.10    0.13 
   1   7  -2    0.80    0.14 
   1   7  -2    0.85    0.16 
   1   7  -2    1.05    0.15 
  -1  -7   2    0.96    0.12 
  -1  -7   2    0.99    0.10 
  -1  -7   2    0.94    0.11 
   0   7  -2    4.57    0.33 
   0   7  -2    5.17    0.37 
   0   7  -2    4.52    0.25 
   0   7  -2    4.75    0.27 
   0  -7   2    4.91    0.27 
   0  -7   2    4.32    0.29 
  -1   7  -2    2.70    0.23 
  -1   7  -2    2.14    0.17 
  -1   7  -2    2.38    0.17 
   1  -7   2    2.30    0.19 
   1  -7   2    2.27    0.18 
   1  -7   2    2.39    0.21 
  -2   7  -2    1.66    0.17 
  -2   7  -2    1.76    0.19 
  -2   7  -2    1.51    0.14 
   2  -7   2    1.47    0.15 
   2  -7   2    1.31    0.14 
   2  -7   2    1.06    0.13 
  -3   7  -2   10.08    0.49 
  -3   7  -2   11.24    0.69 
  -3   7  -2    9.17    0.54 
  -3   7  -2   10.51    0.57 
   3  -7   2    9.97    0.54 
   3  -7   2   10.98    0.49 
   3  -7   2   10.05    0.49 
   3  -7   2   10.13    0.52 
   3  -7   2   10.72    0.49 
   3  -7   2    9.87    0.66 
   3  -7   2   10.01    0.58 
   3  -7   2   10.53    0.51 
   3  -7   2   10.61    0.47 
   3  -7   2   10.57    0.47 
   3  -7   2   10.32    0.53 
  -4   7  -2    0.45    0.09 
   4  -7   2    0.52    0.19 
   4  -7   2    0.46    0.10 
   4  -7   2    0.60    0.10 
   4  -7   2    0.49    0.08 
   4  -7   2    0.61    0.09 
   4  -7   2    0.66    0.14 
   4  -7   2    0.61    0.09 
   4  -7   2    0.60    0.10 
   4  -7   2    0.48    0.06 
   4  -7   2    0.70    0.11 
   4  -7   2    0.52    0.09 
   4  -7   2    0.58    0.12 
   5  -7   2    0.48    0.09 
   5  -7   2    0.41    0.15 
   5  -7   2    0.54    0.12 
   5  -7   2    0.37    0.08 
   5  -7   2    0.63    0.10 
   5  -7   2    0.45    0.09 
   5  -7   2    0.46    0.08 
   5  -7   2    0.45    0.07 
   5  -7   2    0.37    0.07 
   5  -7   2    0.35    0.07 
   5  -7   2    0.35    0.05 
  -6   7  -2    0.18    0.07 
   6  -7   2    0.26    0.06 
   6  -7   2    0.24    0.04 
   6  -7   2    0.35    0.08 
   6  -7   2    0.19    0.06 
   6  -7   2    0.22    0.06 
   6  -7   2    0.23    0.06 
   6  -7   2    0.18    0.05 
   6  -7   2    0.17    0.08 
   6  -7   2    0.30    0.06 
   6  -7   2    0.22    0.08 
   7  -7   2    5.04    0.24 
   7  -7   2    5.27    0.24 
   6   6  -2    0.64    0.09 
   6   6  -2    0.59    0.06 
   6   6  -2    0.74    0.10 
   6   6  -2    0.57    0.06 
  -6  -6   2    0.42    0.07 
  -6  -6   2    0.57    0.08 
  -6  -6   2    0.38    0.07 
   5   6  -2    7.35    0.37 
   5   6  -2    7.15    0.38 
   5   6  -2    7.01    0.31 
   5   6  -2    7.18    0.35 
  -5  -6   2    7.21    0.36 
  -5  -6   2    7.00    0.34 
  -5  -6   2    7.00    0.34 
  -5  -6   2    6.48    0.36 
   4   6  -2    0.01    0.06 
   4   6  -2    0.17    0.07 
   4   6  -2    0.12    0.10 
   4   6  -2    0.17    0.09 
   4   6  -2    0.20    0.11 
   4   6  -2    0.23    0.12 
   4   6  -2    0.17    0.07 
   4   6  -2    0.18    0.08 
  -4  -6   2    0.23    0.08 
  -4  -6   2    0.07    0.06 
  -4  -6   2    0.14    0.09 
  -4  -6   2    0.20    0.08 
   3   6  -2   13.31    0.65 
   3   6  -2   14.55    0.64 
   3   6  -2   12.61    0.73 
   3   6  -2   14.02    0.91 
  -3  -6   2   13.07    0.62 
  -3  -6   2   13.88    0.65 
  -3  -6   2   12.72    0.63 
   2   6  -2    2.84    0.22 
   2   6  -2    3.05    0.28 
  -2  -6   2    3.25    0.22 
  -2  -6   2    2.88    0.18 
   1   6  -2    0.94    0.14 
   1   6  -2    0.91    0.16 
   1   6  -2    0.71    0.11 
  -1  -6   2    0.80    0.09 
  -1  -6   2    0.77    0.10 
   0   6  -2    2.87    0.25 
   0   6  -2    2.80    0.23 
   0   6  -2    2.45    0.19 
   0  -6   2    2.40    0.16 
  -1   6  -2    1.46    0.15 
  -1   6  -2    1.74    0.18 
   1  -6   2    1.69    0.13 
   1  -6   2    1.56    0.14 
  -2   6  -2    0.01    0.08 
  -2   6  -2    0.08    0.07 
   2  -6   2    0.08    0.09 
   2  -6   2   -0.05    0.07 
   2  -6   2    0.02    0.08 
  -3   6  -2    0.21    0.09 
  -3   6  -2    0.10    0.11 
  -3   6  -2    0.15    0.08 
   3  -6   2    0.09    0.10 
   3  -6   2    0.14    0.12 
   3  -6   2    0.16    0.07 
   3  -6   2    0.27    0.10 
   3  -6   2    0.21    0.06 
   3  -6   2    0.05    0.08 
  -4   6  -2    0.25    0.08 
  -4   6  -2    0.18    0.09 
   4  -6   2    0.18    0.07 
   4  -6   2    0.21    0.08 
   4  -6   2    0.48    0.10 
   4  -6   2    0.15    0.11 
   4  -6   2    0.25    0.09 
   4  -6   2    0.12    0.11 
   4  -6   2    0.33    0.08 
   4  -6   2    0.32    0.08 
   5  -6   2    3.63    0.21 
   5  -6   2    3.98    0.22 
   5  -6   2    3.43    0.28 
   5  -6   2    3.80    0.17 
   5  -6   2    4.27    0.25 
   5  -6   2    3.67    0.24 
   5  -6   2    3.69    0.23 
   5  -6   2    3.76    0.23 
   5  -6   2    3.89    0.22 
   5  -6   2    3.73    0.22 
   6  -6   2    4.02    0.22 
   6  -6   2    3.38    0.24 
   6  -6   2    4.27    0.22 
   6  -6   2    4.24    0.23 
   6  -6   2    4.18    0.23 
   6  -6   2    4.22    0.23 
   6  -6   2    4.00    0.21 
   6  -6   2    4.17    0.17 
   6  -6   2    3.90    0.22 
   6  -6   2    3.78    0.24 
   7  -6   2    0.25    0.06 
   7  -6   2    0.23    0.06 
   7  -6   2    0.24    0.06 
   7  -6   2    0.21    0.07 
   7  -6   2    0.22    0.05 
   7  -6   2    0.20    0.07 
   7   5  -2    0.01    0.04 
   7   5  -2   -0.03    0.06 
   7   5  -2    0.01    0.06 
   7   5  -2    0.01    0.05 
   7   5  -2    0.02    0.04 
   7   5  -2   -0.01    0.03 
  -7  -5   2   -0.04    0.04 
   6   5  -2    3.58    0.16 
   6   5  -2    3.48    0.19 
   6   5  -2    3.69    0.23 
   6   5  -2    3.44    0.20 
   6   5  -2    3.37    0.20 
   6   5  -2    3.55    0.23 
   6   5  -2    3.04    0.18 
   6   5  -2    3.69    0.18 
  -6  -5   2    3.56    0.19 
  -6  -5   2    3.61    0.22 
   5   5  -2    3.27    0.21 
   5   5  -2    3.49    0.22 
   5   5  -2    3.19    0.19 
   5   5  -2    3.40    0.18 
   5   5  -2    3.42    0.18 
   5   5  -2    3.15    0.25 
   5   5  -2    3.33    0.19 
   5   5  -2    3.17    0.26 
  -5  -5   2    3.49    0.23 
  -5  -5   2    3.34    0.21 
   4   5  -2    4.79    0.26 
   4   5  -2    4.74    0.39 
   4   5  -2    4.84    0.28 
   4   5  -2    4.59    0.32 
   4   5  -2    4.91    0.30 
  -4  -5   2    4.89    0.26 
  -4  -5   2    4.97    0.29 
   3   5  -2   20.40    0.97 
   3   5  -2   20.67    0.96 
   3   5  -2   22.19    1.36 
  -3  -5   2   21.75    0.95 
  -3  -5   2   20.47    0.97 
   2   5  -2    1.60    0.21 
   2   5  -2    1.39    0.12 
  -2  -5   2    1.49    0.13 
   1   5  -2   28.23    1.78 
   1   5  -2   28.89    1.71 
  -1  -5   2   27.93    1.25 
   0   5  -2   43.51    2.72 
   0   5  -2   45.90    2.62 
   0  -5   2   43.37    1.93 
   0  -5   2   43.21    2.02 
  -1   5  -2    0.00    0.09 
  -1   5  -2   -0.03    0.06 
   1  -5   2    0.03    0.08 
   1  -5   2   -0.02    0.05 
   1  -5   2   -0.02    0.06 
  -2   5  -2    2.15    0.20 
  -2   5  -2    2.21    0.16 
  -2   5  -2    1.91    0.14 
   2  -5   2    1.86    0.11 
   2  -5   2    2.00    0.13 
   2  -5   2    1.93    0.17 
   2  -5   2    2.00    0.15 
   2  -5   2    1.75    0.15 
  -3   5  -2    1.77    0.15 
  -3   5  -2    1.65    0.17 
   3  -5   2    1.47    0.13 
   3  -5   2    1.61    0.17 
   3  -5   2    1.65    0.13 
   3  -5   2    1.71    0.10 
  -4   5  -2   -0.09    0.08 
   4  -5   2    0.01    0.07 
   4  -5   2   -0.03    0.09 
   4  -5   2   -0.01    0.06 
   4  -5   2   -0.05    0.08 
   4  -5   2    0.01    0.04 
   4  -5   2   -0.02    0.11 
  -5   5  -2    1.72    0.16 
   5  -5   2    1.91    0.16 
   5  -5   2    1.67    0.15 
   5  -5   2    1.71    0.16 
   5  -5   2    2.09    0.15 
   5  -5   2    2.09    0.20 
   5  -5   2    2.04    0.12 
   5  -5   2    1.63    0.17 
   5  -5   2    1.74    0.15 
   5  -5   2    1.93    0.16 
   5  -5   2    2.08    0.16 
   5  -5   2    1.74    0.15 
  -6   5  -2    0.05    0.07 
   6  -5   2   -0.11    0.08 
   6  -5   2    0.01    0.06 
   6  -5   2    0.05    0.08 
   6  -5   2    0.00    0.09 
   6  -5   2   -0.08    0.07 
   6  -5   2    0.05    0.10 
   6  -5   2    0.26    0.05 
   6  -5   2    0.00    0.10 
   6  -5   2    0.02    0.09 
   6  -5   2    0.06    0.08 
   7  -5   2    0.80    0.07 
   7  -5   2    0.96    0.09 
   7  -5   2    0.54    0.09 
   7  -5   2    1.09    0.09 
   7  -5   2    0.89    0.08 
   7  -5   2    0.80    0.09 
   7  -5   2    0.80    0.10 
   7   4  -2    1.59    0.13 
   7   4  -2    1.69    0.15 
   7   4  -2    1.96    0.10 
   7   4  -2    1.98    0.13 
   7   4  -2    2.06    0.18 
   7   4  -2    2.06    0.14 
   7   4  -2    1.97    0.11 
   7   4  -2    2.03    0.13 
  -7  -4   2    1.80    0.13 
  -7  -4   2    1.88    0.14 
   6   4  -2    2.37    0.19 
   6   4  -2    2.09    0.17 
   6   4  -2    1.98    0.13 
   6   4  -2    1.98    0.15 
   6   4  -2    1.81    0.15 
   6   4  -2    1.93    0.14 
   6   4  -2    1.96    0.17 
   6   4  -2    1.88    0.15 
   6   4  -2    2.01    0.18 
   6   4  -2    2.00    0.12 
  -6  -4   2    1.94    0.18 
   5   4  -2    0.07    0.06 
   5   4  -2    0.31    0.08 
   5   4  -2    0.27    0.07 
   5   4  -2    0.25    0.08 
   5   4  -2    0.37    0.09 
   5   4  -2    0.48    0.13 
   5   4  -2    0.15    0.06 
   5   4  -2    0.34    0.08 
   5   4  -2    0.24    0.06 
   5   4  -2    0.22    0.10 
   5   4  -2    0.25    0.10 
  -5  -4   2    0.25    0.08 
  -5  -4   2    0.15    0.07 
   4   4  -2    6.94    0.31 
   4   4  -2    7.31    0.38 
   4   4  -2    6.83    0.35 
   4   4  -2    7.38    0.38 
   4   4  -2    7.81    0.53 
   4   4  -2    7.11    0.35 
  -4  -4   2    7.33    0.38 
  -4  -4   2    8.03    0.37 
   3   4  -2    1.71    0.21 
   3   4  -2    1.60    0.11 
   3   4  -2    1.73    0.10 
  -3  -4   2    1.96    0.13 
   2   4  -2    0.10    0.06 
   2   4  -2    0.07    0.07 
  -2  -4   2    0.03    0.05 
   1   4  -2    8.99    0.61 
   1   4  -2    9.66    0.59 
  -1  -4   2    9.41    0.43 
   0   4  -2   28.34    1.59 
   0   4  -2   24.23    1.31 
   0   4  -2   26.64    1.65 
   0  -4   2   26.64    1.23 
   0  -4   2   26.96    1.17 
  -1   4  -2    0.37    0.06 
  -1   4  -2    0.34    0.08 
  -1   4  -2    0.36    0.06 
   1  -4   2    0.32    0.07 
   1  -4   2    0.34    0.06 
   1  -4   2    0.34    0.04 
   1  -4   2    0.35    0.07 
   1  -4   2    0.31    0.06 
  -2   4  -2    4.83    0.34 
  -2   4  -2    5.16    0.29 
  -2   4  -2    5.01    0.29 
   2  -4   2    4.63    0.29 
   2  -4   2    5.05    0.26 
   2  -4   2    5.11    0.30 
   2  -4   2    4.80    0.21 
   2  -4   2    5.08    0.25 
  -3   4  -2    3.09    0.20 
  -3   4  -2    2.70    0.19 
  -3   4  -2    2.85    0.23 
   3  -4   2    2.96    0.17 
   3  -4   2    2.92    0.18 
   3  -4   2    2.71    0.21 
   3  -4   2    3.05    0.14 
  -4   4  -2    2.71    0.21 
   4  -4   2    3.18    0.19 
   4  -4   2    2.78    0.23 
   4  -4   2    3.03    0.14 
   4  -4   2    2.96    0.18 
  -5   4  -2   13.55    0.74 
   5  -4   2   13.81    0.65 
   5  -4   2   14.48    0.69 
   5  -4   2   13.65    0.61 
   5  -4   2   14.47    0.62 
   5  -4   2   13.62    0.66 
   5  -4   2   14.47    0.66 
  -6   4  -2    2.11    0.15 
   6  -4   2    2.55    0.20 
   6  -4   2    2.06    0.15 
   6  -4   2    2.26    0.16 
   6  -4   2    2.14    0.19 
   6  -4   2    2.07    0.15 
   6  -4   2    2.16    0.11 
   6  -4   2    2.13    0.18 
   6  -4   2    2.02    0.18 
   6  -4   2    2.08    0.20 
   6  -4   2    2.09    0.17 
   7  -4   2    5.60    0.29 
   7  -4   2    5.45    0.25 
   7  -4   2    5.16    0.29 
   7  -4   2    5.43    0.28 
   7  -4   2    5.94    0.28 
   7  -4   2    6.04    0.29 
   7  -4   2    5.47    0.29 
   8  -4   2    4.22    0.20 
   8  -4   2    3.74    0.19 
   8   3  -2    0.30    0.04 
   8   3  -2    0.38    0.05 
   8   3  -2    0.35    0.06 
   7   3  -2   11.72    0.42 
   7   3  -2   12.26    0.53 
   7   3  -2   11.69    0.52 
   7   3  -2   10.07    0.54 
   7   3  -2   11.99    0.47 
   7   3  -2   11.20    0.53 
   7   3  -2   12.01    0.50 
   7   3  -2   11.93    0.49 
   7   3  -2   11.62    0.58 
  -7  -3   2   11.59    0.55 
   6   3  -2   15.65    0.77 
   6   3  -2   15.90    0.67 
   6   3  -2   16.03    0.70 
   6   3  -2   15.70    0.63 
   6   3  -2   15.25    0.58 
   6   3  -2   16.57    0.71 
   6   3  -2   16.14    0.66 
   6   3  -2   13.99    0.74 
   6   3  -2   15.11    0.76 
   6   3  -2   16.46    0.71 
  -6  -3   2   17.32    0.73 
   5   3  -2    0.48    0.08 
   5   3  -2    0.53    0.08 
   5   3  -2    0.31    0.07 
   5   3  -2    0.30    0.11 
   5   3  -2    0.39    0.05 
   5   3  -2    0.34    0.10 
  -5  -3   2    0.42    0.08 
   4   3  -2    0.97    0.15 
   4   3  -2    0.95    0.09 
   4   3  -2    0.85    0.08 
   4   3  -2    0.91    0.07 
  -4  -3   2    0.95    0.09 
   3   3  -2   10.31    0.66 
   3   3  -2    9.84    0.45 
   3   3  -2    9.75    0.40 
  -3  -3   2   10.19    0.46 
   2   3  -2    2.23    0.19 
   2   3  -2    2.11    0.10 
   2   3  -2    1.85    0.12 
   2   3  -2    2.01    0.17 
  -2  -3   2    2.07    0.12 
   1   3  -2    0.82    0.06 
   1   3  -2    0.82    0.05 
  -1  -3   2    0.75    0.07 
  -1  -3   2    0.73    0.06 
   0   3  -2   74.51    3.50 
   0   3  -2   71.64    3.79 
   0   3  -2   71.75    4.27 
   0  -3   2   72.36    3.50 
  -1   3  -2   -0.03    0.04 
  -1   3  -2    0.04    0.04 
  -1   3  -2    0.07    0.05 
  -1   3  -2   -0.01    0.06 
   1  -3   2    0.00    0.04 
   1  -3   2   -0.02    0.05 
   1  -3   2    0.08    0.06 
   1  -3   2    0.05    0.02 
  -2   3  -2    0.86    0.12 
  -2   3  -2    1.24    0.10 
  -2   3  -2    0.98    0.10 
   2  -3   2    0.98    0.09 
   2  -3   2    0.99    0.07 
   2  -3   2    1.18    0.11 
   2  -3   2    1.04    0.12 
   2  -3   2    1.07    0.09 
  -3   3  -2   34.79    1.82 
  -3   3  -2   32.06    1.70 
   3  -3   2   35.70    1.33 
   3  -3   2   33.92    1.51 
   3  -3   2   36.04    1.59 
   3  -3   2   33.53    1.71 
  -4   3  -2    0.19    0.06 
  -4   3  -2    0.15    0.05 
   4  -3   2    0.06    0.06 
   4  -3   2    0.15    0.07 
   4  -3   2    0.17    0.04 
   4  -3   2    0.19    0.07 
   5  -3   2    7.37    0.35 
   5  -3   2    7.07    0.30 
   5  -3   2    6.98    0.37 
   5  -3   2    7.68    0.36 
  -6   3  -2    4.01    0.24 
  -6   3  -2    4.25    0.23 
   6  -3   2    4.29    0.24 
   6  -3   2    3.78    0.22 
   6  -3   2    4.30    0.25 
   6  -3   2    3.97    0.17 
   6  -3   2    4.17    0.25 
   6  -3   2    3.92    0.26 
   6  -3   2    3.71    0.22 
   6  -3   2    4.20    0.23 
   6  -3   2    4.59    0.25 
   6  -3   2    4.24    0.27 
   6  -3   2    4.25    0.23 
   7  -3   2    1.57    0.15 
   7  -3   2    1.62    0.13 
   7  -3   2    1.49    0.07 
   7  -3   2    1.59    0.14 
   7  -3   2    1.44    0.13 
   7  -3   2    1.69    0.16 
   7  -3   2    1.53    0.15 
   7  -3   2    1.21    0.12 
   8  -3   2    1.76    0.12 
   8  -3   2    1.94    0.13 
   8  -3   2    1.96    0.14 
   8   2  -2    0.75    0.07 
   8   2  -2    0.71    0.08 
   8   2  -2    0.63    0.06 
   7   2  -2   47.22    2.04 
   7   2  -2   47.57    2.01 
   7   2  -2   47.61    2.01 
   7   2  -2   47.11    1.67 
   7   2  -2   47.62    1.82 
   7   2  -2   46.12    2.18 
   7   2  -2   47.18    1.92 
   7   2  -2   47.24    1.90 
   6   2  -2   29.67    1.40 
   6   2  -2   30.45    1.24 
   6   2  -2   27.50    1.36 
   6   2  -2   30.43    1.30 
   6   2  -2   31.64    1.31 
   6   2  -2   29.50    1.17 
   6   2  -2   30.24    1.30 
   6   2  -2   28.97    1.07 
   6   2  -2   29.60    1.29 
  -6  -2   2   31.77    1.34 
   5   2  -2    8.79    0.43 
   5   2  -2    9.67    0.43 
   5   2  -2    9.12    0.63 
   5   2  -2    9.23    0.37 
  -5  -2   2    9.40    0.44 
   4   2  -2   20.01    1.29 
   4   2  -2   20.75    0.89 
   4   2  -2   21.44    0.80 
  -4  -2   2   20.39    0.91 
  -4  -2   2   19.86    1.22 
   3   2  -2   19.39    0.74 
   3   2  -2   18.73    1.20 
   3   2  -2   18.87    0.82 
  -3  -2   2   19.77    1.13 
  -3  -2   2   18.51    0.84 
   2   2  -2   31.29    1.38 
   2   2  -2   32.35    2.01 
   2   2  -2   33.12    1.25 
  -2  -2   2   33.71    1.91 
  -2  -2   2   32.52    1.58 
   1   2  -2    6.41    0.25 
   1   2  -2    5.99    0.32 
  -1  -2   2    6.62    0.32 
   0   2  -2 1000.00   46.78 
   0   2  -2  960.03   50.83 
   0  -2   2  962.68   46.78 
  -1   2  -2   91.54    4.60 
  -1   2  -2   92.29    4.23 
   1  -2   2   80.17    3.37 
  -2   2  -2   32.28    1.72 
  -2   2  -2   36.41    1.69 
  -2   2  -2   38.37    1.85 
   2  -2   2   32.53    1.73 
   2  -2   2   34.38    1.61 
   2  -2   2   35.91    1.35 
  -3   2  -2    0.77    0.08 
  -3   2  -2    0.67    0.07 
   3  -2   2    0.81    0.07 
   3  -2   2    0.73    0.05 
   3  -2   2    0.76    0.08 
   3  -2   2    0.64    0.08 
  -4   2  -2    0.94    0.10 
   4  -2   2    1.00    0.06 
   4  -2   2    1.11    0.11 
   4  -2   2    1.05    0.09 
  -5   2  -2    0.63    0.08 
   5  -2   2    0.66    0.09 
   5  -2   2    0.45    0.07 
   5  -2   2    0.50    0.05 
  -6   2  -2    7.99    0.41 
  -6   2  -2    7.73    0.40 
   6  -2   2    8.25    0.37 
   6  -2   2    8.45    0.41 
   6  -2   2    8.34    0.39 
   6  -2   2    7.52    0.40 
   7  -2   2    0.95    0.10 
   7  -2   2    0.89    0.10 
   7  -2   2    0.92    0.06 
   7  -2   2    0.97    0.11 
   7  -2   2    0.80    0.10 
   7  -2   2    0.91    0.09 
   7  -2   2    0.92    0.09 
   8  -2   2    0.16    0.05 
   8  -2   2    0.00    0.06 
   8  -2   2    0.16    0.07 
   8  -2   2    0.14    0.06 
   8   1  -2    0.10    0.06 
   8   1  -2    0.16    0.04 
   8   1  -2    0.17    0.05 
   8   1  -2    0.04    0.06 
   8   1  -2    0.08    0.05 
   7   1  -2    4.92    0.26 
   7   1  -2    4.52    0.18 
   7   1  -2    4.75    0.24 
   7   1  -2    4.74    0.23 
   7   1  -2    4.88    0.22 
   7   1  -2    4.80    0.24 
   7   1  -2    4.72    0.26 
   6   1  -2   43.26    1.78 
   6   1  -2   42.23    1.68 
   6   1  -2   44.34    1.88 
   6   1  -2   44.91    1.89 
   6   1  -2   42.50    1.87 
  -6  -1   2   45.24    1.93 
   5   1  -2    1.20    0.09 
   5   1  -2    1.11    0.10 
   5   1  -2    1.18    0.07 
   4   1  -2   98.10    6.45 
   4   1  -2  110.95    4.04 
   4   1  -2  106.76    4.45 
  -4  -1   2  106.14    6.14 
   3   1  -2    0.24    0.06 
   3   1  -2    0.24    0.02 
   3   1  -2    0.28    0.05 
  -3  -1   2    0.26    0.06 
   2   1  -2   39.77    2.14 
  -2  -1   2   46.11    2.15 
  -2  -1   2   45.49    2.15 
  -2  -1   2   46.79    2.59 
   1   1  -2    1.63    0.09 
   1   1  -2    1.57    0.09 
  -1  -1   2    1.54    0.09 
   0   1  -2    4.85    0.25 
   0  -1   2    4.94    0.31 
   0  -1   2    5.00    0.25 
  -1   1  -2   71.40    3.31 
  -1   1  -2   71.08    3.59 
   1  -1   2   65.17    4.00 
   1  -1   2   67.35    3.30 
  -2   1  -2   54.26    2.62 
   2  -1   2   49.97    1.91 
   2  -1   2   47.09    2.11 
   2  -1   2   48.04    2.28 
  -3   1  -2    1.35    0.10 
   3  -1   2    1.45    0.07 
   3  -1   2    1.25    0.10 
   3  -1   2    1.17    0.10 
  -4   1  -2    1.31    0.11 
  -4   1  -2    1.20    0.10 
   4  -1   2    1.52    0.08 
   4  -1   2    1.42    0.12 
   4  -1   2    1.34    0.10 
  -5   1  -2   14.25    0.69 
  -5   1  -2   15.31    0.70 
   5  -1   2   14.59    0.58 
   5  -1   2   13.70    0.65 
   5  -1   2   15.08    0.67 
  -6   1  -2   20.29    0.98 
   6  -1   2   20.43    0.90 
   6  -1   2   19.67    0.88 
   6  -1   2   21.13    0.95 
   6  -1   2   22.20    0.94 
   6  -1   2   19.80    0.92 
   7  -1   2   14.50    0.64 
   7  -1   2   14.44    0.67 
   7  -1   2   14.44    0.51 
   7  -1   2   12.78    0.61 
   7  -1   2   14.16    0.65 
   7  -1   2   14.64    0.60 
   7  -1   2   14.29    0.57 
   8  -1   2    0.16    0.07 
   8  -1   2    0.15    0.05 
   8  -1   2    0.24    0.07 
   8  -1   2    0.13    0.05 
   8  -1   2    0.10    0.06 
   7   0  -2    5.44    0.27 
   7   0  -2    5.60    0.26 
   7   0  -2    5.37    0.24 
   6   0  -2    0.01    0.05 
   6   0  -2    0.02    0.05 
   6   0  -2    0.05    0.05 
   6   0  -2    0.01    0.02 
   5   0  -2    8.97    0.40 
   5   0  -2    8.98    0.34 
  -5   0   2    8.36    0.54 
   4   0  -2   49.62    2.05 
   4   0  -2   50.05    1.85 
   4   0  -2   45.69    2.97 
  -4   0   2   48.12    2.83 
   3   0  -2  102.32    4.35 
   3   0  -2  101.92    6.30 
   3   0  -2  105.20    3.95 
  -3   0   2  103.26    5.99 
   2   0  -2    6.23    0.34 
   2   0  -2    6.32    0.25 
  -2   0   2    6.40    0.38 
  -2   0   2    6.37    0.31 
   1   0  -2  186.97    8.82 
  -1   0   2  180.08    8.81 
   0   0  -2    3.62    0.18 
   0   0   2    3.58    0.18 
  -1   0  -2   87.60    4.56 
  -1   0  -2   87.31    4.20 
   1   0   2   87.16    4.20 
  -2   0  -2    0.10    0.03 
  -2   0  -2    0.11    0.03 
   2   0   2    0.26    0.04 
   2   0   2    0.17    0.02 
  -3   0  -2    5.90    0.33 
  -3   0  -2    6.22    0.30 
   3   0   2    6.32    0.24 
   3   0   2    5.71    0.28 
   3   0   2    5.95    0.28 
  -4   0  -2   28.46    1.37 
  -4   0  -2   29.78    1.77 
  -4   0  -2   30.93    1.39 
   4   0   2   30.72    1.16 
   4   0   2   30.06    1.29 
   4   0   2   29.99    1.32 
  -5   0  -2    4.24    0.23 
   5   0   2    3.67    0.21 
   5   0   2    4.15    0.18 
   5   0   2    3.71    0.21 
   5   0   2    4.26    0.23 
  -6   0  -2    0.86    0.11 
   6   0   2    0.51    0.09 
   6   0   2    0.43    0.08 
   6   0   2    0.59    0.10 
   6   0   2    0.45    0.08 
   6   0   2    0.66    0.09 
   6   0   2    0.66    0.12 
   6   0   2    0.85    0.11 
   6   0   2    0.78    0.10 
   7   0   2    0.15    0.04 
   7   0   2    0.13    0.09 
   7   0   2    0.06    0.09 
   7   0   2    0.20    0.08 
   7   0   2    0.08    0.09 
   7   0   2   -0.09    0.09 
   7   0   2    0.15    0.08 
   7   0   2    0.21    0.08 
   8   0   2    0.02    0.05 
   8   0   2    0.01    0.06 
   8   0   2    0.10    0.07 
   8   0   2    0.00    0.05 
   8   0   2    0.04    0.04 
   8   0   2   -0.02    0.05 
   4  -1  -2    9.07    0.59 
   4  -1  -2    8.84    0.40 
  -4   1   2    9.39    0.58 
   3  -1  -2    0.13    0.05 
   3  -1  -2    0.04    0.06 
   3  -1  -2    0.06    0.03 
   3  -1  -2    0.08    0.04 
  -3   1   2    0.08    0.03 
  -3   1   2    0.05    0.07 
   2  -1  -2   64.71    2.37 
   2  -1  -2   57.43    2.98 
   2  -1  -2   63.89    3.25 
  -2   1   2   63.23    3.63 
  -2   1   2   61.34    2.98 
  -2   1   2   61.54    3.60 
   1  -1  -2    5.93    0.31 
   1  -1  -2    5.25    0.28 
   1  -1  -2    5.33    0.28 
  -1   1   2    5.68    0.28 
  -1   1   2    5.64    0.36 
   0  -1  -2    4.92    0.26 
   0  -1  -2    4.63    0.30 
   0  -1  -2    4.98    0.26 
   0  -1  -2    5.14    0.28 
   0   1   2    5.20    0.26 
   0   1   2    4.95    0.33 
  -1  -1  -2   21.07    1.11 
  -1  -1  -2   22.98    1.11 
  -1  -1  -2   23.54    1.21 
   1   1   2   24.50    1.36 
   1   1   2   22.74    1.11 
  -2  -1  -2    0.00    0.03 
  -2  -1  -2    0.01    0.04 
  -2  -1  -2    0.02    0.03 
  -2  -1  -2    0.00    0.03 
   2   1   2   -0.03    0.04 
   2   1   2    0.01    0.02 
  -3  -1  -2    3.24    0.20 
  -3  -1  -2    3.06    0.17 
   3   1   2    3.00    0.16 
   3   1   2    3.03    0.14 
   3   1   2    2.91    0.16 
  -4  -1  -2    0.07    0.04 
  -4  -1  -2   -0.02    0.05 
   4   1   2    0.13    0.05 
   4   1   2    0.00    0.03 
   4   1   2    0.00    0.05 
  -5  -1  -2   18.06    0.86 
   5   1   2   17.46    0.84 
   5   1   2   19.07    0.83 
   5   1   2   18.28    0.72 
   5   1   2   18.34    0.81 
   5   1   2   17.90    0.81 
  -6  -1  -2    2.08    0.16 
   6   1   2    1.96    0.15 
   6   1   2    1.92    0.17 
   6   1   2    2.11    0.20 
   6   1   2    1.87    0.15 
   6   1   2    2.02    0.15 
   6   1   2    2.13    0.15 
   6   1   2    1.92    0.12 
   6   1   2    1.97    0.16 
   6   1   2    1.90    0.16 
   6   1   2    1.84    0.14 
   6   1   2    2.05    0.20 
   7   1   2    3.95    0.23 
   7   1   2    3.65    0.21 
   7   1   2    3.88    0.20 
   7   1   2    4.00    0.21 
   7   1   2    3.93    0.22 
   7   1   2    3.74    0.23 
   7   1   2    3.75    0.20 
   7   1   2    3.77    0.24 
   7   1   2    3.79    0.16 
   8   1   2    2.00    0.13 
   8   1   2    2.25    0.12 
   8   1   2    2.24    0.12 
   8   1   2    1.79    0.13 
   8   1   2    2.11    0.11 
   4  -2  -2    5.62    0.22 
   4  -2  -2    5.86    0.31 
   4  -2  -2    5.80    0.33 
  -4   2   2    5.23    0.32 
   3  -2  -2   30.57    1.85 
   3  -2  -2   31.16    1.59 
   3  -2  -2   30.41    1.48 
   3  -2  -2   31.47    1.15 
   3  -2  -2   27.62    1.38 
  -3   2   2   28.45    1.78 
   2  -2  -2   11.03    0.43 
   2  -2  -2   11.51    0.59 
  -2   2   2   10.07    0.67 
  -2   2   2   11.22    0.53 
   1  -2  -2   42.05    1.68 
   1  -2  -2   40.42    2.11 
  -1   2   2   43.27    2.57 
  -1   2   2   46.73    2.11 
  -1   2   2   46.25    2.11 
   0  -2  -2    1.62    0.09 
   0  -2  -2    1.57    0.10 
   0  -2  -2    1.66    0.10 
   0   2   2    1.73    0.10 
   0   2   2    1.56    0.10 
   0   2   2    1.70    0.15 
  -1  -2  -2   13.79    0.72 
  -1  -2  -2   14.89    0.77 
  -1  -2  -2   14.22    0.86 
  -1  -2  -2   14.63    0.68 
   1   2   2   14.12    0.72 
   1   2   2   14.53    0.57 
   1   2   2   16.00    0.88 
  -2  -2  -2    0.07    0.04 
  -2  -2  -2    0.09    0.04 
  -2  -2  -2    0.18    0.05 
   2   2   2    0.04    0.06 
   2   2   2    0.09    0.03 
   2   2   2    0.14    0.05 
  -3  -2  -2    2.88    0.20 
  -3  -2  -2    2.95    0.17 
   3   2   2    2.76    0.16 
   3   2   2    2.83    0.16 
   3   2   2    2.79    0.13 
  -4  -2  -2    3.39    0.19 
  -4  -2  -2    2.90    0.22 
   4   2   2    3.32    0.15 
   4   2   2    3.16    0.18 
   4   2   2    3.32    0.19 
  -5  -2  -2   36.65    1.68 
   5   2   2   37.43    1.58 
   5   2   2   34.56    1.49 
   5   2   2   35.34    1.64 
   5   2   2   37.16    1.57 
   6   2   2    0.43    0.09 
   6   2   2    0.43    0.08 
   6   2   2    0.32    0.05 
   6   2   2    0.55    0.09 
   6   2   2    0.30    0.09 
   6   2   2    0.61    0.10 
   6   2   2    0.26    0.09 
   6   2   2    0.37    0.08 
   6   2   2    0.42    0.10 
   7   2   2    3.82    0.23 
   7   2   2    4.03    0.22 
   7   2   2    4.01    0.22 
   7   2   2    4.10    0.20 
   7   2   2    3.94    0.17 
   7   2   2    3.92    0.20 
   7   2   2    3.91    0.21 
   7   2   2    3.79    0.21 
   7   2   2    3.86    0.22 
   8   2   2    1.42    0.08 
   8   2   2    1.28    0.09 
   8   2   2    1.34    0.08 
   5  -3  -2   17.92    0.71 
   5  -3  -2   18.92    0.95 
   4  -3  -2    1.54    0.07 
   4  -3  -2    1.43    0.13 
   4  -3  -2    1.24    0.11 
   4  -3  -2    1.21    0.11 
   3  -3  -2    6.64    0.38 
   3  -3  -2    7.13    0.37 
   3  -3  -2    6.41    0.34 
   3  -3  -2    6.97    0.27 
   2  -3  -2    1.58    0.11 
   2  -3  -2    1.57    0.13 
   2  -3  -2    1.51    0.08 
   2  -3  -2    1.55    0.11 
  -2   3   2    1.40    0.14 
  -2   3   2    1.11    0.15 
   1  -3  -2   98.26    4.79 
   1  -3  -2   91.31    3.50 
   1  -3  -2   97.09    4.17 
   1  -3  -2   90.72    4.47 
  -1   3   2   93.14    5.35 
  -1   3   2   77.92    5.60 
  -1   3   2   82.28    5.38 
  -1   3   2  100.86    4.40 
   0  -3  -2   13.60    0.61 
   0  -3  -2   13.30    0.69 
   0  -3  -2   12.64    0.51 
   0   3   2   11.18    0.78 
   0   3   2   14.03    0.79 
   0   3   2   12.90    0.64 
   0   3   2   12.22    0.83 
  -1  -3  -2    6.99    0.37 
  -1  -3  -2    6.93    0.33 
  -1  -3  -2    6.04    0.41 
   1   3   2    7.58    0.45 
   1   3   2    6.43    0.46 
  -2  -3  -2  129.55    5.57 
  -2  -3  -2  116.75    7.10 
   2   3   2  124.51    7.48 
   2   3   2  121.63    5.15 
   2   3   2  118.36    6.60 
  -3  -3  -2    4.88    0.34 
  -3  -3  -2    5.86    0.29 
   3   3   2    5.56    0.27 
   3   3   2    5.35    0.23 
  -4  -3  -2    1.02    0.11 
   4   3   2    0.83    0.07 
   4   3   2    0.66    0.09 
   4   3   2    0.79    0.09 
   4   3   2    0.92    0.10 
  -5  -3  -2    8.08    0.40 
  -5  -3  -2    8.02    0.43 
   5   3   2    8.39    0.42 
   5   3   2    8.48    0.41 
   5   3   2    8.20    0.39 
   5   3   2    8.65    0.41 
   5   3   2    8.16    0.46 
   5   3   2    8.70    0.41 
   5   3   2    9.15    0.44 
   5   3   2    8.24    0.42 
   6   3   2   11.46    0.54 
   6   3   2   11.79    0.53 
   6   3   2   10.31    0.56 
   6   3   2   10.83    0.42 
   6   3   2   11.63    0.53 
   6   3   2   11.61    0.53 
   6   3   2   11.36    0.46 
   6   3   2   11.28    0.51 
   6   3   2   10.90    0.48 
   6   3   2   11.15    0.49 
  -7  -3  -2    7.14    0.33 
   7   3   2    6.94    0.33 
   7   3   2    6.70    0.34 
   7   3   2    7.05    0.31 
   7   3   2    6.86    0.32 
   7   3   2    6.76    0.30 
   7   3   2    6.85    0.33 
   7   3   2    7.17    0.29 
   7   3   2    7.47    0.27 
   7   3   2    6.65    0.33 
   6  -4  -2    2.04    0.17 
   5  -4  -2    0.33    0.06 
   5  -4  -2    0.30    0.04 
   5  -4  -2    0.49    0.10 
  -5   4   2    0.25    0.10 
   4  -4  -2   10.28    0.53 
   4  -4  -2   11.30    0.43 
   4  -4  -2   11.89    0.58 
   4  -4  -2   10.72    0.61 
  -4   4   2   10.40    0.61 
  -4   4   2    9.87    0.70 
   3  -4  -2    5.58    0.22 
   3  -4  -2    5.41    0.28 
   3  -4  -2    5.38    0.30 
   3  -4  -2    5.37    0.32 
  -3   4   2    5.00    0.38 
  -3   4   2    4.51    0.40 
   2  -4  -2   30.34    1.47 
   2  -4  -2   31.57    1.37 
   2  -4  -2   30.76    1.15 
   2  -4  -2   30.74    1.57 
  -2   4   2   25.54    1.85 
  -2   4   2   28.47    1.78 
   1  -4  -2    1.12    0.11 
   1  -4  -2    0.98    0.07 
   1  -4  -2    0.94    0.09 
   1  -4  -2    0.93    0.10 
  -1   4   2    1.08    0.15 
  -1   4   2    0.92    0.13 
  -1   4   2    1.07    0.14 
   0  -4  -2   36.33    1.89 
   0  -4  -2   37.59    1.65 
   0   4   2   35.46    2.23 
   0   4   2   37.17    2.12 
   0   4   2   32.00    2.12 
  -1  -4  -2    0.17    0.06 
   1   4   2    0.12    0.07 
   1   4   2    0.18    0.10 
  -2  -4  -2    2.41    0.15 
   2   4   2    2.04    0.23 
   2   4   2    2.26    0.19 
  -3  -4  -2    7.22    0.36 
   3   4   2    6.62    0.49 
   3   4   2    6.68    0.33 
  -4  -4  -2    0.94    0.09 
  -4  -4  -2    1.12    0.13 
   4   4   2    0.97    0.12 
   4   4   2    0.88    0.09 
  -5  -4  -2   17.24    0.87 
  -5  -4  -2   19.24    0.86 
   5   4   2   20.68    0.88 
   5   4   2   18.87    0.94 
   5   4   2   20.17    0.82 
   5   4   2   20.21    0.91 
   5   4   2   19.41    0.87 
   5   4   2   19.69    0.86 
  -6  -4  -2    2.56    0.17 
  -6  -4  -2    2.81    0.18 
   6   4   2    2.50    0.15 
   6   4   2    2.31    0.20 
   6   4   2    2.79    0.15 
   6   4   2    2.49    0.17 
   6   4   2    2.52    0.17 
   6   4   2    2.31    0.14 
   6   4   2    2.56    0.19 
   6   4   2    2.50    0.15 
   6   4   2    2.88    0.18 
  -7  -4  -2    2.74    0.15 
   7   4   2    2.12    0.16 
   7   4   2    2.47    0.11 
   7   4   2    2.17    0.11 
   7   4   2    2.17    0.12 
   7   4   2    2.47    0.14 
   7   4   2    2.49    0.13 
   7  -5  -2    4.49    0.24 
   7  -5  -2    4.20    0.20 
   6  -5  -2   14.78    0.66 
   6  -5  -2   14.20    0.64 
   6  -5  -2   15.20    0.62 
   6  -5  -2   14.96    0.59 
   6  -5  -2   14.19    0.67 
   6  -5  -2   15.70    0.68 
   5  -5  -2   16.42    0.75 
   5  -5  -2   17.42    0.75 
   5  -5  -2   16.06    0.72 
   5  -5  -2   16.01    0.64 
   5  -5  -2   16.28    0.79 
   5  -5  -2   15.89    0.70 
   5  -5  -2   16.83    0.79 
   5  -5  -2   16.46    0.87 
  -5   5   2   15.60    1.03 
   4  -5  -2    2.24    0.18 
   4  -5  -2    1.98    0.11 
   4  -5  -2    1.73    0.16 
   4  -5  -2    2.00    0.16 
  -4   5   2    1.70    0.22 
   3  -5  -2    4.69    0.28 
   3  -5  -2    4.65    0.20 
   3  -5  -2    4.46    0.27 
   3  -5  -2    4.61    0.26 
  -3   5   2    4.30    0.38 
  -3   5   2    4.50    0.35 
   2  -5  -2   13.69    0.62 
   2  -5  -2   12.47    0.52 
   2  -5  -2   11.95    0.71 
   2  -5  -2   13.13    0.67 
  -2   5   2   12.30    0.86 
  -2   5   2   13.54    0.82 
   1  -5  -2    4.20    0.27 
   1  -5  -2    4.81    0.25 
  -1   5   2    4.47    0.33 
  -1   5   2    4.69    0.37 
   0  -5  -2   17.41    0.82 
   0   5   2   15.79    1.05 
   0   5   2   18.57    1.12 
  -1  -5  -2    1.80    0.15 
   1   5   2    1.67    0.17 
   1   5   2    1.78    0.22 
  -2  -5  -2    0.29    0.06 
  -2  -5  -2    0.09    0.08 
   2   5   2    0.11    0.12 
  -3  -5  -2   25.51    1.20 
  -3  -5  -2   25.62    1.06 
  -3  -5  -2   23.99    1.15 
   3   5   2   27.06    1.16 
   3   5   2   24.52    1.62 
  -4  -5  -2   -0.02    0.07 
  -4  -5  -2   -0.23    0.08 
   4   5   2    0.04    0.10 
   4   5   2    0.01    0.07 
   4   5   2    0.07    0.09 
   4   5   2    0.12    0.08 
   4   5   2   -0.02    0.10 
  -5  -5  -2    1.16    0.11 
  -5  -5  -2    1.40    0.13 
  -5  -5  -2    1.18    0.12 
   5   5   2    1.26    0.14 
   5   5   2    1.02    0.11 
   5   5   2    1.25    0.11 
   5   5   2    1.24    0.12 
   5   5   2    1.03    0.10 
   5   5   2    1.27    0.11 
  -6  -5  -2    1.22    0.10 
  -6  -5  -2    1.09    0.10 
  -6  -5  -2    1.50    0.13 
   6   5   2    1.31    0.09 
   6   5   2    1.21    0.10 
   6   5   2    1.16    0.11 
   6   5   2    1.04    0.11 
   6   5   2    1.02    0.10 
   7  -6  -2    3.58    0.20 
   7  -6  -2    3.55    0.17 
   7  -6  -2    3.47    0.20 
   7  -6  -2    3.76    0.20 
   6  -6  -2    4.46    0.24 
   6  -6  -2    4.62    0.23 
   6  -6  -2    4.36    0.33 
   6  -6  -2    4.46    0.18 
   6  -6  -2    4.84    0.26 
   6  -6  -2    4.46    0.24 
   6  -6  -2    4.80    0.26 
   6  -6  -2    4.84    0.24 
   6  -6  -2    4.91    0.28 
   5  -6  -2   23.94    0.96 
   5  -6  -2   23.71    0.85 
   5  -6  -2   24.66    1.06 
   5  -6  -2   22.56    1.22 
   5  -6  -2   24.26    0.92 
   5  -6  -2   23.82    1.02 
   5  -6  -2   22.79    1.16 
   5  -6  -2   23.74    1.03 
   5  -6  -2   24.40    1.12 
   5  -6  -2   23.58    1.00 
   5  -6  -2   24.21    1.07 
   5  -6  -2   22.48    1.05 
   5  -6  -2   24.34    1.34 
  -5   6   2   22.78    1.22 
   4  -6  -2    0.29    0.09 
   4  -6  -2    0.52    0.06 
   4  -6  -2    0.47    0.09 
   4  -6  -2    0.56    0.12 
   4  -6  -2    0.35    0.10 
   4  -6  -2    0.63    0.13 
   4  -6  -2    0.51    0.08 
   4  -6  -2    0.46    0.08 
  -4   6   2    0.50    0.15 
   3  -6  -2    5.88    0.29 
   3  -6  -2    5.85    0.31 
   3  -6  -2    5.70    0.32 
   3  -6  -2    6.04    0.31 
   3  -6  -2    5.51    0.30 
   3  -6  -2    5.47    0.34 
   3  -6  -2    5.40    0.25 
  -3   6   2    5.91    0.42 
  -3   6   2    5.02    0.31 
   2  -6  -2    0.57    0.12 
   2  -6  -2    0.78    0.09 
   2  -6  -2    0.55    0.10 
   2  -6  -2    0.68    0.07 
   2  -6  -2    0.48    0.09 
  -2   6   2    0.54    0.13 
  -2   6   2    0.64    0.13 
  -2   6   2    0.60    0.14 
   1  -6  -2    3.11    0.22 
   1  -6  -2    3.19    0.20 
   1  -6  -2    3.06    0.19 
  -1   6   2    3.06    0.30 
  -1   6   2    2.91    0.26 
  -1   6   2    3.03    0.22 
   0  -6  -2   33.28    1.50 
   0  -6  -2   34.70    1.64 
   0   6   2   39.22    2.24 
   0   6   2   34.32    1.61 
  -1  -6  -2    5.95    0.34 
  -1  -6  -2    6.16    0.31 
   1   6   2    6.69    0.49 
   1   6   2    5.97    0.35 
  -2  -6  -2    0.91    0.10 
  -2  -6  -2    1.06    0.13 
  -2  -6  -2    0.98    0.10 
   2   6   2    0.72    0.16 
   2   6   2    0.59    0.11 
   2   6   2    1.06    0.14 
  -3  -6  -2   12.48    0.56 
  -3  -6  -2   11.34    0.53 
  -3  -6  -2   12.11    0.55 
  -3  -6  -2   10.76    0.56 
   3   6   2   11.98    0.61 
   3   6   2   11.62    0.59 
   3   6   2   10.94    0.80 
   3   6   2   12.81    0.55 
   3   6   2   12.38    0.56 
  -4  -6  -2    5.18    0.28 
  -4  -6  -2    4.72    0.27 
  -4  -6  -2    5.17    0.27 
  -4  -6  -2    5.33    0.26 
   4   6   2    5.86    0.28 
   4   6   2    5.31    0.28 
   4   6   2    5.19    0.30 
   4   6   2    5.15    0.32 
  -5  -6  -2    0.28    0.07 
  -5  -6  -2    0.32    0.07 
  -5  -6  -2    0.30    0.07 
  -5  -6  -2    0.25    0.07 
   5   6   2    0.37    0.07 
   5   6   2    0.51    0.09 
   5   6   2    0.37    0.09 
   5   6   2    0.24    0.06 
  -6  -6  -2    1.13    0.08 
  -6  -6  -2    1.25    0.09 
   7  -7  -2    0.36    0.07 
   7  -7  -2    0.31    0.05 
   7  -7  -2    0.32    0.05 
   6  -7  -2   -0.06    0.08 
   6  -7  -2   -0.05    0.06 
   6  -7  -2   -0.03    0.02 
   6  -7  -2   -0.02    0.05 
   6  -7  -2    0.16    0.07 
   6  -7  -2    0.03    0.06 
   6  -7  -2    0.06    0.09 
   6  -7  -2    0.00    0.07 
   6  -7  -2   -0.03    0.06 
   6  -7  -2   -0.11    0.07 
   6  -7  -2   -0.08    0.06 
   5  -7  -2    1.89    0.15 
   5  -7  -2    2.12    0.24 
   5  -7  -2    2.18    0.19 
   5  -7  -2    1.96    0.17 
   5  -7  -2    2.06    0.19 
   5  -7  -2    1.94    0.15 
   5  -7  -2    2.03    0.16 
   5  -7  -2    2.12    0.18 
   5  -7  -2    2.15    0.18 
   5  -7  -2    2.06    0.12 
   5  -7  -2    2.15    0.15 
   5  -7  -2    2.16    0.17 
   4  -7  -2    7.02    0.40 
   4  -7  -2    6.38    0.36 
   4  -7  -2    6.72    0.32 
   4  -7  -2    6.42    0.45 
   4  -7  -2    6.18    0.26 
   4  -7  -2    6.14    0.28 
   4  -7  -2    6.54    0.34 
   4  -7  -2    6.52    0.34 
   4  -7  -2    6.79    0.34 
   4  -7  -2    6.55    0.32 
   4  -7  -2    6.17    0.30 
   4  -7  -2    6.26    0.33 
  -4   7   2    5.61    0.39 
   3  -7  -2    3.68    0.23 
   3  -7  -2    3.33    0.26 
   3  -7  -2    4.06    0.25 
   3  -7  -2    3.56    0.30 
   3  -7  -2    3.73    0.22 
   3  -7  -2    3.65    0.24 
   3  -7  -2    3.76    0.20 
   3  -7  -2    3.82    0.24 
   3  -7  -2    3.75    0.21 
   3  -7  -2    3.80    0.26 
   3  -7  -2    3.80    0.22 
   3  -7  -2    3.74    0.31 
   3  -7  -2    3.67    0.21 
   3  -7  -2    3.89    0.32 
   3  -7  -2    3.69    0.23 
  -3   7   2    3.77    0.26 
  -3   7   2    3.68    0.24 
   2  -7  -2   -0.04    0.06 
   2  -7  -2    0.01    0.08 
   2  -7  -2    0.16    0.15 
   2  -7  -2    0.07    0.10 
   2  -7  -2    0.09    0.06 
   2  -7  -2   -0.10    0.09 
   2  -7  -2    0.21    0.09 
   2  -7  -2   -0.01    0.11 
  -2   7   2    0.10    0.12 
  -2   7   2    0.05    0.11 
  -2   7   2    0.02    0.10 
  -2   7   2    0.04    0.12 
   1  -7  -2    5.95    0.35 
   1  -7  -2    6.17    0.46 
   1  -7  -2    6.45    0.31 
   1  -7  -2    6.22    0.31 
  -1   7   2    6.42    0.49 
  -1   7   2    6.56    0.37 
  -1   7   2    6.48    0.46 
  -1   7   2    6.39    0.42 
   0  -7  -2   -0.20    0.14 
   0  -7  -2    0.10    0.09 
   0  -7  -2   -0.05    0.08 
   0  -7  -2    0.07    0.07 
   0  -7  -2    0.05    0.09 
   0  -7  -2   -0.01    0.06 
   0  -7  -2    0.35    0.10 
   0   7   2   -0.06    0.11 
   0   7   2    0.00    0.12 
   0   7   2    0.21    0.13 
  -1  -7  -2   40.46    1.77 
  -1  -7  -2   38.50    1.77 
  -1  -7  -2   40.86    1.68 
  -1  -7  -2   41.41    1.72 
   1   7   2   40.97    1.84 
   1   7   2   37.93    2.05 
   1   7   2   45.32    2.57 
   1   7   2   39.29    1.85 
  -2  -7  -2    0.33    0.08 
  -2  -7  -2    0.27    0.10 
  -2  -7  -2    0.18    0.07 
   2   7   2    0.27    0.10 
   2   7   2    0.27    0.10 
  -3  -7  -2   24.29    1.10 
  -3  -7  -2   22.43    1.14 
  -3  -7  -2   25.50    1.12 
  -3  -7  -2   26.77    1.12 
   3   7   2   26.69    1.18 
   3   7   2   26.48    1.20 
  -4  -7  -2   20.70    1.04 
  -4  -7  -2   22.44    0.99 
  -4  -7  -2   24.04    1.01 
  -4  -7  -2   22.16    1.01 
   4   7   2   24.04    1.08 
   4   7   2   24.60    1.06 
  -5  -7  -2    0.37    0.05 
  -5  -7  -2    0.47    0.06 
   5   7   2    0.43    0.07 
   5   7   2    0.36    0.06 
   6  -8  -2    1.82    0.13 
   6  -8  -2    1.76    0.12 
   6  -8  -2    1.73    0.11 
   6  -8  -2    1.79    0.10 
   6  -8  -2    1.67    0.16 
   5  -8  -2    3.52    0.21 
   5  -8  -2    3.43    0.20 
   5  -8  -2    3.65    0.17 
   5  -8  -2    3.30    0.18 
   5  -8  -2    3.31    0.18 
   5  -8  -2    3.41    0.19 
   5  -8  -2    3.15    0.22 
   5  -8  -2    3.54    0.20 
   5  -8  -2    3.42    0.17 
   5  -8  -2    3.41    0.22 
   5  -8  -2    2.99    0.29 
   5  -8  -2    3.47    0.14 
  -5   8   2    3.59    0.20 
   4  -8  -2    0.02    0.08 
   4  -8  -2    0.03    0.08 
   4  -8  -2    0.16    0.13 
   4  -8  -2    0.13    0.06 
   4  -8  -2    0.07    0.05 
   4  -8  -2   -0.04    0.07 
   4  -8  -2    0.11    0.07 
   4  -8  -2    0.02    0.08 
   4  -8  -2   -0.06    0.07 
   4  -8  -2   -0.02    0.12 
   4  -8  -2   -0.09    0.08 
   4  -8  -2    0.03    0.11 
   4  -8  -2   -0.08    0.05 
  -4   8   2    0.31    0.11 
   3  -8  -2    6.72    0.31 
   3  -8  -2    6.11    0.41 
   3  -8  -2    6.58    0.33 
   3  -8  -2    6.28    0.33 
   3  -8  -2    6.13    0.44 
   3  -8  -2    6.72    0.32 
   3  -8  -2    6.64    0.29 
   3  -8  -2    6.76    0.27 
   3  -8  -2    6.56    0.35 
   3  -8  -2    6.55    0.41 
   3  -8  -2    6.61    0.33 
  -3   8   2    6.20    0.39 
  -3   8   2    6.43    0.35 
   2  -8  -2    1.53    0.12 
   2  -8  -2    1.77    0.16 
   2  -8  -2    0.86    0.17 
   2  -8  -2    1.44    0.12 
   2  -8  -2    1.19    0.13 
   2  -8  -2    1.41    0.17 
   2  -8  -2    1.58    0.12 
  -2   8   2    1.32    0.13 
  -2   8   2    1.35    0.14 
  -2   8   2    1.19    0.15 
   1  -8  -2    0.15    0.08 
   1  -8  -2    0.00    0.07 
   1  -8  -2    0.05    0.08 
   1  -8  -2    0.09    0.06 
   1  -8  -2    0.16    0.09 
   1  -8  -2   -0.12    0.14 
   1  -8  -2   -0.06    0.13 
  -1   8   2   -0.03    0.10 
  -1   8   2    0.00    0.09 
  -1   8   2    0.04    0.12 
   0  -8  -2    0.48    0.09 
   0  -8  -2    0.38    0.07 
   0  -8  -2    0.37    0.08 
   0  -8  -2    0.33    0.08 
   0   8   2    0.50    0.10 
   0   8   2    0.72    0.13 
  -1  -8  -2    4.97    0.25 
  -1  -8  -2    4.84    0.26 
  -1  -8  -2    5.24    0.27 
   1   8   2    4.90    0.29 
   1   8   2    5.06    0.29 
   1   8   2    4.79    0.33 
  -2  -8  -2    2.80    0.18 
  -2  -8  -2    2.92    0.19 
   2   8   2    2.74    0.19 
   2   8   2    2.88    0.21 
   2   8   2    2.85    0.15 
  -3  -8  -2    3.12    0.16 
  -3  -8  -2    2.72    0.16 
  -3  -8  -2    2.89    0.17 
   3   8   2    3.35    0.20 
   4   8   2   13.09    0.61 
   5  -9  -2    0.59    0.09 
   5  -9  -2    0.47    0.05 
   4  -9  -2    0.32    0.04 
   4  -9  -2    0.28    0.08 
   4  -9  -2    0.25    0.05 
   4  -9  -2    0.28    0.09 
   4  -9  -2    0.29    0.06 
   4  -9  -2    0.32    0.06 
   4  -9  -2    0.30    0.08 
   4  -9  -2    0.22    0.05 
  -4   9   2    0.30    0.06 
  -4   9   2    0.31    0.07 
   3  -9  -2    0.05    0.05 
   3  -9  -2    0.08    0.05 
   3  -9  -2    0.01    0.09 
   3  -9  -2    0.04    0.08 
   3  -9  -2    0.15    0.07 
   3  -9  -2    0.20    0.06 
   3  -9  -2    0.17    0.05 
   3  -9  -2    0.02    0.10 
  -3   9   2    0.09    0.08 
  -3   9   2    0.11    0.06 
  -3   9   2    0.19    0.07 
   2  -9  -2    0.14    0.07 
   2  -9  -2    0.28    0.08 
   2  -9  -2    0.18    0.05 
   2  -9  -2    0.18    0.07 
   2  -9  -2    0.08    0.05 
   2  -9  -2    0.12    0.11 
  -2   9   2    0.13    0.06 
  -2   9   2    0.26    0.11 
  -2   9   2    0.19    0.08 
  -2   9   2    0.23    0.08 
   1  -9  -2    4.35    0.21 
   1  -9  -2    4.62    0.24 
   1  -9  -2    4.59    0.23 
   1  -9  -2    3.78    0.28 
   1  -9  -2    4.38    0.22 
   1  -9  -2    4.06    0.22 
  -1   9   2    4.90    0.30 
  -1   9   2    4.92    0.26 
  -1   9   2    4.15    0.24 
   0  -9  -2    7.39    0.34 
   0  -9  -2    8.26    0.37 
   0  -9  -2    6.90    0.36 
   0   9   2    8.23    0.39 
   0   9   2    8.30    0.44 
  -1  -9  -2   -0.06    0.06 
  -1  -9  -2    0.02    0.04 
   1   9   2    0.00    0.08 
   1   9   2    0.07    0.05 
  -2  -9  -2    0.07    0.04 
  -2  -9  -2    0.05    0.04 
   2   9   2    0.01    0.05 
   0  10  -3    2.15    0.13 
   0 -10   3    2.04    0.11 
  -1  10  -3    0.24    0.06 
   1 -10   3    0.26    0.04 
   1 -10   3    0.28    0.05 
  -2  10  -3    0.11    0.05 
   3   9  -3    0.01    0.06 
   3   9  -3    0.08    0.04 
  -3  -9   3    0.02    0.05 
   2   9  -3    9.67    0.49 
   2   9  -3    9.96    0.38 
  -2  -9   3    8.65    0.42 
  -2  -9   3    8.79    0.43 
  -2  -9   3    9.12    0.41 
  -2  -9   3    8.52    0.39 
   1   9  -3    0.76    0.09 
   1   9  -3    0.81    0.08 
   1   9  -3    0.79    0.13 
   1   9  -3    0.80    0.09 
  -1  -9   3    0.94    0.09 
  -1  -9   3    0.80    0.08 
  -1  -9   3    0.68    0.09 
  -1  -9   3    0.80    0.10 
   0   9  -3    1.40    0.15 
   0   9  -3    1.71    0.14 
   0   9  -3    1.68    0.11 
   0   9  -3    1.66    0.16 
   0   9  -3    1.43    0.11 
   0  -9   3    1.63    0.14 
   0  -9   3    1.53    0.13 
   0  -9   3    1.61    0.14 
  -1   9  -3    0.37    0.10 
  -1   9  -3    0.29    0.06 
  -1   9  -3    0.31    0.08 
  -1   9  -3    0.44    0.09 
   1  -9   3    0.43    0.08 
   1  -9   3    0.28    0.14 
   1  -9   3    0.48    0.08 
   1  -9   3    0.56    0.08 
  -2   9  -3    0.84    0.09 
  -2   9  -3    0.88    0.08 
  -2   9  -3    0.73    0.10 
   2  -9   3    0.96    0.09 
   2  -9   3    0.77    0.09 
   2  -9   3    0.82    0.09 
   2  -9   3    0.52    0.13 
  -3   9  -3    2.12    0.15 
  -3   9  -3    2.17    0.19 
  -3   9  -3    2.28    0.13 
   3  -9   3    2.19    0.14 
   3  -9   3    2.19    0.13 
   3  -9   3    2.05    0.14 
   3  -9   3    1.49    0.20 
  -4   9  -3    0.34    0.08 
  -4   9  -3    0.25    0.05 
   4  -9   3    0.21    0.10 
   4  -9   3    0.33    0.04 
   4  -9   3    0.32    0.06 
   4  -9   3    0.22    0.07 
   4   8  -3    1.16    0.14 
   4   8  -3    1.37    0.11 
   4   8  -3    1.34    0.10 
  -4  -8   3    1.36    0.11 
  -4  -8   3    1.25    0.11 
  -4  -8   3    1.26    0.11 
   3   8  -3    0.35    0.08 
   3   8  -3    0.28    0.08 
   3   8  -3    0.14    0.11 
  -3  -8   3    0.18    0.07 
  -3  -8   3    0.17    0.07 
  -3  -8   3    0.18    0.08 
  -3  -8   3    0.18    0.06 
   2   8  -3   -0.05    0.07 
   2   8  -3   -0.01    0.10 
   2   8  -3    0.09    0.09 
  -2  -8   3    0.05    0.09 
  -2  -8   3    0.05    0.07 
  -2  -8   3    0.04    0.08 
  -2  -8   3    0.06    0.08 
   1   8  -3    3.98    0.26 
   1   8  -3    4.42    0.29 
   1   8  -3    4.25    0.26 
   1   8  -3    4.60    0.23 
  -1  -8   3    4.31    0.25 
  -1  -8   3    3.87    0.22 
  -1  -8   3    4.19    0.24 
  -1  -8   3    4.27    0.23 
   0   8  -3    0.11    0.12 
   0   8  -3    0.04    0.06 
   0   8  -3    0.12    0.11 
   0   8  -3   -0.02    0.08 
   0   8  -3    0.06    0.08 
   0  -8   3    0.03    0.08 
   0  -8   3    0.21    0.08 
   0  -8   3    0.03    0.07 
   0  -8   3    0.01    0.09 
  -1   8  -3    2.99    0.21 
  -1   8  -3    2.73    0.17 
  -1   8  -3    2.65    0.24 
   1  -8   3    2.77    0.17 
   1  -8   3    2.58    0.32 
   1  -8   3    2.61    0.18 
   1  -8   3    2.26    0.21 
   1  -8   3    2.54    0.17 
   1  -8   3    2.71    0.18 
   1  -8   3    2.67    0.26 
  -2   8  -3    4.20    0.29 
  -2   8  -3    3.88    0.24 
  -2   8  -3    3.95    0.22 
   2  -8   3    3.46    0.25 
   2  -8   3    3.79    0.29 
   2  -8   3    3.87    0.24 
   2  -8   3    3.94    0.23 
   2  -8   3    4.20    0.23 
   2  -8   3    3.12    0.34 
  -3   8  -3    2.61    0.17 
  -3   8  -3    2.52    0.19 
  -3   8  -3    2.68    0.22 
  -3   8  -3    2.42    0.19 
   3  -8   3    2.70    0.18 
   3  -8   3    2.31    0.28 
   3  -8   3    2.53    0.18 
   3  -8   3    2.63    0.23 
   3  -8   3    2.83    0.19 
   3  -8   3    2.52    0.24 
   3  -8   3    2.84    0.17 
   3  -8   3    2.33    0.20 
  -4   8  -3    0.71    0.08 
  -4   8  -3    0.61    0.10 
  -4   8  -3    0.77    0.10 
   4  -8   3    0.71    0.08 
   4  -8   3    0.82    0.09 
   4  -8   3    0.52    0.14 
   4  -8   3    0.76    0.06 
   4  -8   3    0.67    0.11 
   4  -8   3    0.59    0.08 
   4  -8   3    0.66    0.09 
   4  -8   3    0.63    0.11 
  -5   8  -3    0.08    0.07 
  -5   8  -3    0.11    0.06 
   5  -8   3   -0.06    0.06 
   5  -8   3    0.03    0.05 
   5  -8   3    0.05    0.04 
   5  -8   3    0.07    0.05 
   5  -8   3    0.02    0.06 
   5  -8   3    0.04    0.10 
   5  -8   3   -0.03    0.05 
   5  -8   3    0.01    0.05 
   5  -8   3   -0.03    0.05 
   5  -8   3    0.08    0.08 
   5   7  -3    0.81    0.07 
   5   7  -3    1.08    0.10 
  -5  -7   3    0.89    0.08 
  -5  -7   3    1.02    0.09 
  -5  -7   3    0.78    0.08 
  -5  -7   3    0.77    0.08 
   4   7  -3    0.88    0.10 
   4   7  -3    0.76    0.08 
   4   7  -3    1.05    0.09 
   4   7  -3    0.80    0.11 
   4   7  -3    0.95    0.13 
  -4  -7   3    1.05    0.11 
  -4  -7   3    0.74    0.09 
  -4  -7   3    0.98    0.11 
  -4  -7   3    0.89    0.09 
   3   7  -3    8.07    0.35 
   3   7  -3    7.53    0.35 
   3   7  -3    7.69    0.46 
   3   7  -3    8.39    0.42 
  -3  -7   3    8.23    0.40 
  -3  -7   3    7.86    0.38 
  -3  -7   3    8.21    0.37 
  -3  -7   3    7.92    0.39 
  -3  -7   3    7.60    0.36 
   2   7  -3    7.97    0.35 
   2   7  -3    8.75    0.42 
   2   7  -3    8.17    0.48 
   2   7  -3    7.23    0.43 
   2   7  -3    8.22    0.57 
  -2  -7   3    7.86    0.39 
  -2  -7   3    8.46    0.42 
  -2  -7   3    8.06    0.39 
  -2  -7   3    7.58    0.38 
  -2  -7   3    7.32    0.39 
   1   7  -3    3.65    0.30 
   1   7  -3    3.11    0.20 
   1   7  -3    3.33    0.26 
   1   7  -3    3.35    0.27 
   1   7  -3    3.16    0.23 
   1   7  -3    3.51    0.24 
   1   7  -3    3.17    0.20 
  -1  -7   3    3.28    0.22 
  -1  -7   3    3.41    0.22 
  -1  -7   3    3.38    0.20 
  -1  -7   3    3.05    0.19 
  -1  -7   3    3.40    0.22 
   0   7  -3    0.16    0.09 
   0   7  -3    0.32    0.09 
   0   7  -3    0.26    0.14 
   0   7  -3    0.18    0.10 
   0  -7   3    0.12    0.06 
   0  -7   3    0.31    0.13 
   0  -7   3    0.27    0.08 
  -1   7  -3    0.08    0.09 
  -1   7  -3    0.07    0.11 
   1  -7   3    0.06    0.06 
   1  -7   3   -0.10    0.13 
   1  -7   3    0.16    0.10 
  -2   7  -3    6.07    0.35 
  -2   7  -3    6.63    0.37 
  -2   7  -3    6.52    0.32 
   2  -7   3    6.00    0.40 
   2  -7   3    6.63    0.36 
   2  -7   3    6.63    0.34 
   2  -7   3    6.38    0.33 
   2  -7   3    6.49    0.32 
   2  -7   3    5.69    0.49 
   2  -7   3    6.06    0.31 
  -3   7  -3   -0.01    0.07 
  -3   7  -3    0.17    0.07 
   3  -7   3    0.18    0.11 
   3  -7   3    0.03    0.09 
   3  -7   3    0.15    0.09 
   3  -7   3    0.19    0.11 
   3  -7   3    0.09    0.16 
   3  -7   3    0.09    0.07 
   3  -7   3    0.12    0.07 
   3  -7   3    0.19    0.10 
  -4   7  -3    0.49    0.07 
   4  -7   3    0.43    0.08 
   4  -7   3    0.37    0.07 
   4  -7   3    0.42    0.11 
   4  -7   3    0.40    0.09 
   4  -7   3    0.38    0.15 
   4  -7   3    0.47    0.08 
   4  -7   3    0.38    0.10 
   4  -7   3    0.57    0.10 
   4  -7   3    0.41    0.09 
   4  -7   3    0.41    0.10 
   4  -7   3    0.52    0.06 
   4  -7   3    0.42    0.09 
  -5   7  -3    1.27    0.16 
  -5   7  -3    1.42    0.15 
   5  -7   3    1.40    0.12 
   5  -7   3    1.55    0.12 
   5  -7   3    1.49    0.09 
   5  -7   3    1.39    0.11 
   5  -7   3    0.98    0.10 
   5  -7   3    0.96    0.17 
   5  -7   3    1.33    0.11 
   5  -7   3    1.02    0.13 
   5  -7   3    1.29    0.12 
   5  -7   3    1.47    0.12 
   5  -7   3    1.38    0.14 
  -6   7  -3    4.91    0.29 
   6  -7   3    5.08    0.22 
   6  -7   3    5.10    0.19 
   6  -7   3    5.10    0.25 
   6  -7   3    4.62    0.28 
   6  -7   3    4.88    0.25 
   6  -7   3    5.15    0.25 
   6  -7   3    4.75    0.23 
   6  -7   3    4.92    0.25 
   6  -7   3    4.88    0.25 
   6   6  -3    0.13    0.06 
   6   6  -3    0.18    0.05 
   6   6  -3    0.15    0.05 
   6   6  -3    0.25    0.08 
   6   6  -3    0.22    0.05 
  -6  -6   3    0.25    0.07 
  -6  -6   3    0.25    0.06 
   5   6  -3   23.70    1.04 
   5   6  -3   24.69    1.14 
   5   6  -3   22.98    0.97 
   5   6  -3   22.77    1.11 
   5   6  -3   25.15    0.99 
   5   6  -3   24.84    1.12 
  -5  -6   3   24.66    1.05 
  -5  -6   3   24.41    1.11 
  -5  -6   3   25.94    1.02 
  -5  -6   3   23.10    1.12 
   4   6  -3    4.10    0.22 
   4   6  -3    4.25    0.20 
   4   6  -3    4.17    0.27 
   4   6  -3    4.23    0.25 
   4   6  -3    4.16    0.31 
  -4  -6   3    4.14    0.24 
  -4  -6   3    3.84    0.25 
  -4  -6   3    4.16    0.24 
  -4  -6   3    4.07    0.24 
   3   6  -3    0.19    0.09 
   3   6  -3    0.13    0.10 
   3   6  -3    0.06    0.09 
   3   6  -3    0.16    0.06 
   3   6  -3    0.23    0.14 
  -3  -6   3    0.25    0.10 
  -3  -6   3    0.33    0.10 
  -3  -6   3    0.17    0.08 
  -3  -6   3    0.24    0.09 
  -3  -6   3    0.21    0.11 
   2   6  -3   10.88    0.74 
   2   6  -3   10.94    0.53 
  -2  -6   3   10.90    0.52 
  -2  -6   3   11.07    0.54 
   1   6  -3    1.32    0.17 
   1   6  -3    1.13    0.12 
   1   6  -3    1.21    0.15 
  -1  -6   3    1.10    0.11 
  -1  -6   3    0.97    0.10 
   0   6  -3    5.44    0.30 
   0   6  -3    6.23    0.41 
   0  -6   3    5.53    0.29 
   0  -6   3    6.01    0.31 
  -1   6  -3    1.12    0.12 
  -1   6  -3    1.50    0.17 
   1  -6   3    1.15    0.12 
   1  -6   3    1.25    0.11 
  -2   6  -3    0.19    0.10 
  -2   6  -3    0.00    0.07 
   2  -6   3    0.10    0.07 
   2  -6   3    0.12    0.08 
   2  -6   3    0.07    0.07 
  -3   6  -3   42.13    1.94 
  -3   6  -3   39.01    2.33 
  -3   6  -3   35.67    1.70 
   3  -6   3   40.05    1.74 
   3  -6   3   40.27    1.60 
   3  -6   3   37.37    1.71 
   3  -6   3   35.45    1.72 
   3  -6   3   39.12    1.64 
  -4   6  -3    0.00    0.07 
   4  -6   3    0.10    0.07 
   4  -6   3    0.08    0.14 
   4  -6   3    0.09    0.10 
   4  -6   3    0.07    0.09 
   4  -6   3    0.13    0.08 
   4  -6   3    0.16    0.09 
   4  -6   3    0.03    0.06 
   4  -6   3   -0.06    0.09 
   4  -6   3   -0.04    0.07 
   4  -6   3    0.08    0.06 
   4  -6   3    0.03    0.07 
   4  -6   3    0.11    0.14 
   4  -6   3    0.21    0.07 
   4  -6   3    0.04    0.08 
  -5   6  -3    5.23    0.28 
   5  -6   3    5.21    0.27 
   5  -6   3    5.13    0.32 
   5  -6   3    5.53    0.29 
   5  -6   3    5.13    0.26 
   5  -6   3    5.65    0.31 
   5  -6   3    5.48    0.27 
   5  -6   3    5.24    0.29 
   5  -6   3    5.18    0.27 
   5  -6   3    5.35    0.29 
   5  -6   3    5.36    0.28 
   5  -6   3    5.35    0.22 
  -6   6  -3   -0.03    0.06 
   6  -6   3   -0.11    0.08 
   6  -6   3    0.07    0.09 
   6  -6   3   -0.07    0.05 
   6  -6   3    0.08    0.06 
   6  -6   3   -0.12    0.06 
   6  -6   3   -0.06    0.07 
   6  -6   3    0.03    0.10 
   6  -6   3    0.06    0.08 
   6  -6   3    0.05    0.04 
   6  -6   3   -0.06    0.07 
   7  -6   3   -0.05    0.06 
   7  -6   3    0.13    0.05 
   7  -6   3   -0.02    0.06 
   7  -6   3    0.03    0.05 
   7  -6   3    0.03    0.05 
   7   5  -3    0.27    0.07 
   7   5  -3    0.34    0.06 
   7   5  -3    0.35    0.04 
   7   5  -3    0.34    0.04 
   7   5  -3    0.40    0.05 
   7   5  -3    0.32    0.06 
  -7  -5   3    0.28    0.06 
   6   5  -3   11.46    0.50 
   6   5  -3   10.34    0.50 
   6   5  -3    9.73    0.51 
   6   5  -3   11.99    0.56 
   6   5  -3   11.51    0.54 
   6   5  -3   11.70    0.46 
   6   5  -3   10.48    0.49 
   6   5  -3   11.02    0.41 
  -6  -5   3   11.27    0.50 
  -6  -5   3   11.16    0.54 
  -6  -5   3   10.48    0.52 
   5   5  -3    3.00    0.23 
   5   5  -3    3.17    0.26 
   5   5  -3    3.43    0.19 
   5   5  -3    3.23    0.20 
   5   5  -3    3.18    0.22 
   5   5  -3    3.51    0.18 
   5   5  -3    3.18    0.16 
   5   5  -3    3.33    0.18 
  -5  -5   3    3.29    0.21 
  -5  -5   3    3.43    0.20 
  -5  -5   3    3.41    0.23 
   4   5  -3    2.27    0.27 
   4   5  -3    2.28    0.21 
   4   5  -3    2.13    0.17 
   4   5  -3    2.22    0.17 
   4   5  -3    2.28    0.20 
   4   5  -3    2.18    0.22 
  -4  -5   3    2.30    0.16 
  -4  -5   3    2.31    0.19 
   3   5  -3    0.36    0.14 
   3   5  -3    0.12    0.08 
   3   5  -3    0.16    0.10 
  -3  -5   3    0.07    0.07 
  -3  -5   3    0.05    0.06 
  -3  -5   3    0.02    0.09 
   2   5  -3    4.24    0.25 
   2   5  -3    4.21    0.31 
   2   5  -3    4.41    0.34 
  -2  -5   3    4.35    0.23 
  -2  -5   3    3.99    0.24 
   1   5  -3    2.87    0.25 
   1   5  -3    3.19    0.25 
  -1  -5   3    2.92    0.17 
   0   5  -3   -0.05    0.08 
   0  -5   3    0.02    0.05 
  -1   5  -3    2.86    0.24 
  -1   5  -3    2.68    0.19 
   1  -5   3    2.73    0.16 
   1  -5   3    3.03    0.17 
  -2   5  -3    6.28    0.41 
  -2   5  -3    5.18    0.34 
  -2   5  -3    6.62    0.35 
   2  -5   3    6.05    0.30 
   2  -5   3    5.79    0.26 
   2  -5   3    6.02    0.31 
  -3   5  -3    0.69    0.10 
  -3   5  -3    0.52    0.10 
   3  -5   3    0.72    0.09 
   3  -5   3    0.94    0.11 
   3  -5   3    0.59    0.07 
   3  -5   3    0.52    0.07 
  -4   5  -3   44.74    2.10 
   4  -5   3   41.31    1.84 
   4  -5   3   39.64    1.73 
   4  -5   3   41.38    1.78 
   4  -5   3   42.33    1.86 
   4  -5   3   41.02    1.63 
   4  -5   3   42.67    1.89 
   4  -5   3   43.34    1.95 
  -5   5  -3    6.70    0.41 
  -5   5  -3    7.83    0.37 
   5  -5   3    6.93    0.35 
   5  -5   3    7.26    0.34 
   5  -5   3    7.18    0.37 
   5  -5   3    7.29    0.33 
   5  -5   3    6.88    0.37 
   5  -5   3    6.97    0.35 
   5  -5   3    7.49    0.35 
   5  -5   3    7.28    0.38 
   5  -5   3    7.12    0.36 
   5  -5   3    7.80    0.39 
   5  -5   3    6.98    0.28 
   5  -5   3    7.07    0.40 
  -6   5  -3   44.06    2.42 
   6  -5   3   46.74    1.96 
   6  -5   3   47.75    2.01 
   6  -5   3   46.15    1.63 
   6  -5   3   38.79    2.10 
   6  -5   3   46.77    2.00 
   6  -5   3   46.97    2.00 
   6  -5   3   46.95    1.89 
   6  -5   3   47.75    1.75 
   6  -5   3   47.80    2.07 
   6  -5   3   46.62    1.95 
   7  -5   3    0.23    0.06 
   7  -5   3    0.35    0.07 
   7  -5   3    0.25    0.08 
   7  -5   3    0.30    0.07 
   7  -5   3    0.22    0.07 
   7  -5   3    0.22    0.07 
   7   4  -3    1.54    0.14 
   7   4  -3    1.58    0.15 
   7   4  -3    1.58    0.10 
   7   4  -3    1.59    0.09 
   7   4  -3    1.73    0.13 
   7   4  -3    1.68    0.13 
   7   4  -3    1.50    0.11 
  -7  -4   3    1.62    0.15 
   6   4  -3    0.96    0.10 
   6   4  -3    1.36    0.12 
   6   4  -3    1.30    0.13 
   6   4  -3    1.31    0.13 
   6   4  -3    1.23    0.11 
   6   4  -3    1.49    0.12 
   6   4  -3    1.44    0.11 
   6   4  -3    1.40    0.11 
  -6  -4   3    1.25    0.13 
   5   4  -3    3.33    0.19 
   5   4  -3    3.45    0.17 
   5   4  -3    3.43    0.21 
   5   4  -3    3.55    0.20 
   5   4  -3    3.38    0.20 
   5   4  -3    3.50    0.33 
   5   4  -3    3.59    0.19 
   5   4  -3    3.49    0.27 
   5   4  -3    3.70    0.21 
   5   4  -3    3.35    0.22 
   5   4  -3    3.22    0.24 
  -5  -4   3    3.66    0.23 
  -5  -4   3    3.47    0.21 
  -5  -4   3    3.24    0.23 
   4   4  -3    3.44    0.19 
   4   4  -3    3.19    0.17 
   4   4  -3    3.52    0.19 
   4   4  -3    3.46    0.22 
   4   4  -3    2.94    0.21 
   4   4  -3    3.69    0.30 
  -4  -4   3    3.70    0.20 
  -4  -4   3    3.40    0.22 
  -4  -4   3    3.55    0.24 
   3   4  -3    5.46    0.40 
   3   4  -3    5.20    0.25 
   3   4  -3    5.17    0.23 
  -3  -4   3    5.45    0.27 
  -3  -4   3    5.28    0.28 
   2   4  -3   13.70    0.88 
   2   4  -3   13.70    0.59 
   2   4  -3   13.70    0.84 
  -2  -4   3   12.57    0.60 
  -2  -4   3   14.18    0.62 
   1   4  -3    6.06    0.43 
   1   4  -3    6.48    0.42 
  -1  -4   3    6.47    0.30 
   0   4  -3   78.34    4.13 
   0   4  -3   85.50    5.17 
   0   4  -3   87.93    4.98 
   0  -4   3   85.94    3.67 
  -1   4  -3   63.94    3.08 
  -1   4  -3   63.01    3.71 
  -1   4  -3   59.45    3.29 
   1  -4   3   64.54    2.74 
   1  -4   3   62.97    2.87 
  -2   4  -3    5.66    0.31 
  -2   4  -3    5.19    0.36 
  -2   4  -3    5.38    0.31 
   2  -4   3    5.21    0.23 
   2  -4   3    5.26    0.28 
   2  -4   3    5.58    0.27 
  -3   4  -3    1.34    0.14 
  -3   4  -3    1.03    0.11 
   3  -4   3    1.18    0.11 
   3  -4   3    1.25    0.12 
   3  -4   3    1.26    0.08 
  -4   4  -3    2.69    0.19 
   4  -4   3    2.55    0.18 
   4  -4   3    2.88    0.18 
   4  -4   3    2.77    0.17 
   4  -4   3    2.89    0.14 
   4  -4   3    2.48    0.18 
  -5   4  -3    0.08    0.07 
  -5   4  -3    0.23    0.08 
   5  -4   3    0.16    0.04 
   5  -4   3    0.22    0.07 
   5  -4   3    0.27    0.10 
   5  -4   3    0.23    0.08 
   5  -4   3    0.33    0.12 
   5  -4   3    0.27    0.08 
  -6   4  -3   16.61    0.76 
   6  -4   3   16.66    0.74 
   6  -4   3   16.42    0.71 
   6  -4   3   15.34    0.64 
   6  -4   3   15.97    0.59 
   6  -4   3   16.54    0.70 
   6  -4   3   16.30    0.73 
   6  -4   3   15.72    0.68 
   6  -4   3   14.98    0.74 
   6  -4   3   15.87    0.75 
   6  -4   3   16.55    0.73 
   6  -4   3   16.35    0.73 
   7  -4   3   24.96    0.89 
   7  -4   3   25.76    1.10 
   7  -4   3   25.17    1.05 
   7  -4   3   26.15    1.10 
   7  -4   3   25.34    1.02 
   7  -4   3   22.35    1.10 
   7  -4   3   25.66    1.09 
   7  -4   3   25.57    1.14 
   8  -4   3    5.03    0.24 
   8   3  -3    1.88    0.10 
   8   3  -3    1.84    0.11 
   8   3  -3    1.94    0.14 
   8   3  -3    1.80    0.11 
   7   3  -3    0.19    0.10 
   7   3  -3    0.04    0.04 
   7   3  -3    0.15    0.06 
   7   3  -3    0.19    0.06 
   7   3  -3    0.04    0.05 
   7   3  -3   -0.06    0.06 
   7   3  -3    0.11    0.08 
   6   3  -3   29.04    1.23 
   6   3  -3   27.22    1.00 
   6   3  -3   27.24    1.32 
   6   3  -3   29.06    1.16 
   6   3  -3   27.29    1.21 
   6   3  -3   28.34    1.21 
   6   3  -3   28.24    1.09 
   6   3  -3   27.32    1.30 
   6   3  -3   28.11    1.14 
  -6  -3   3   28.24    1.25 
   5   3  -3   15.25    0.62 
   5   3  -3   15.37    1.03 
   5   3  -3   16.29    0.70 
   5   3  -3   16.01    0.70 
   5   3  -3   14.70    0.66 
  -5  -3   3   16.41    0.72 
   4   3  -3    0.05    0.08 
   4   3  -3    0.08    0.03 
   4   3  -3    0.11    0.05 
   4   3  -3    0.10    0.05 
   4   3  -3    0.02    0.09 
  -4  -3   3    0.06    0.05 
   3   3  -3    6.02    0.25 
   3   3  -3    6.26    0.43 
   3   3  -3    6.01    0.29 
  -3  -3   3    6.35    0.30 
   2   3  -3    6.77    0.45 
   2   3  -3    6.58    0.30 
   2   3  -3    6.47    0.27 
   2   3  -3    6.79    0.43 
  -2  -3   3    6.39    0.31 
  -2  -3   3    6.75    0.32 
   1   3  -3   33.92    1.27 
   1   3  -3   32.15    2.03 
   1   3  -3   34.12    1.96 
   1   3  -3   33.67    1.40 
  -1  -3   3   30.93    1.41 
  -1  -3   3   32.43    1.44 
   0   3  -3   14.09    0.81 
   0   3  -3   13.51    0.67 
   0   3  -3   12.99    0.70 
   0  -3   3   11.83    0.58 
   0  -3   3   13.74    0.59 
  -1   3  -3   34.40    1.70 
  -1   3  -3   35.78    1.82 
  -1   3  -3   33.56    2.05 
   1  -3   3   34.32    1.51 
   1  -3   3   34.70    1.33 
   1  -3   3   34.24    1.58 
  -2   3  -3    1.94    0.16 
  -2   3  -3    1.92    0.15 
  -2   3  -3    1.95    0.13 
   2  -3   3    1.86    0.13 
   2  -3   3    1.75    0.09 
   2  -3   3    1.83    0.13 
  -3   3  -3   24.84    1.34 
  -3   3  -3   24.32    1.25 
   3  -3   3   25.76    1.11 
   3  -3   3   25.53    0.98 
   3  -3   3   24.83    1.17 
  -4   3  -3    0.34    0.07 
  -4   3  -3    0.35    0.08 
   4  -3   3    0.32    0.06 
   4  -3   3    0.44    0.05 
   4  -3   3    0.35    0.08 
  -5   3  -3    1.83    0.14 
   5  -3   3    1.87    0.17 
   5  -3   3    1.77    0.10 
   5  -3   3    1.60    0.17 
   5  -3   3    2.05    0.15 
   5  -3   3    1.91    0.14 
  -6   3  -3   -0.01    0.06 
   6  -3   3    0.04    0.08 
   6  -3   3    0.06    0.10 
   6  -3   3    0.10    0.07 
   6  -3   3   -0.08    0.09 
   6  -3   3    0.18    0.08 
   6  -3   3   -0.02    0.08 
   6  -3   3    0.06    0.08 
   6  -3   3    0.09    0.10 
   6  -3   3    0.13    0.09 
   6  -3   3    0.03    0.04 
   7  -3   3    6.04    0.32 
   7  -3   3    6.26    0.23 
   7  -3   3    6.37    0.30 
   7  -3   3    6.39    0.29 
   7  -3   3    6.16    0.32 
   7  -3   3    5.62    0.32 
   7  -3   3    6.52    0.32 
   8  -3   3    0.50    0.06 
   8  -3   3    0.54    0.06 
   8  -3   3    0.59    0.07 
   8   2  -3   10.00    0.42 
   8   2  -3    9.03    0.39 
   8   2  -3    9.54    0.42 
   7   2  -3    4.55    0.18 
   7   2  -3    4.60    0.28 
   7   2  -3    4.31    0.22 
   7   2  -3    4.87    0.24 
   7   2  -3    4.84    0.25 
   7   2  -3    4.85    0.25 
   7   2  -3    4.82    0.22 
   6   2  -3   30.51    1.24 
   6   2  -3   29.33    1.17 
   6   2  -3   28.45    1.22 
   6   2  -3   28.63    1.33 
   6   2  -3   27.99    1.11 
   6   2  -3   27.90    1.01 
   6   2  -3   26.30    1.30 
   6   2  -3   26.77    1.15 
   6   2  -3   28.84    1.23 
  -6  -2   3   28.51    1.26 
   5   2  -3   11.69    0.47 
   5   2  -3   11.66    0.54 
   5   2  -3   11.05    0.78 
   5   2  -3   12.15    0.53 
  -5  -2   3   12.17    0.54 
   4   2  -3   33.31    2.07 
   4   2  -3   34.21    1.43 
   4   2  -3   34.45    1.29 
  -4  -2   3   31.73    1.96 
  -4  -2   3   32.53    1.46 
   3   2  -3    1.61    0.11 
   3   2  -3    1.66    0.17 
   3   2  -3    1.83    0.09 
  -3  -2   3    1.68    0.11 
   2   2  -3   25.91    1.10 
   2   2  -3   25.88    1.00 
   2   2  -3   25.57    1.60 
   1   2  -3   17.55    0.68 
   1   2  -3   17.21    1.04 
   1   2  -3   17.70    0.75 
  -1  -2   3   17.23    0.76 
   0   2  -3  445.86   26.72 
   0   2  -3  446.64   21.87 
   0   2  -3  470.88   23.76 
   0  -2   3  451.01   21.85 
   0  -2   3  460.72   26.47 
  -1   2  -3    7.77    0.38 
  -1   2  -3    6.52    0.43 
  -1   2  -3    7.33    0.35 
  -1   2  -3    6.59    0.36 
   1  -2   3    6.63    0.32 
   1  -2   3    7.07    0.28 
  -2   2  -3    2.57    0.15 
  -2   2  -3    2.37    0.16 
   2  -2   3    2.29    0.13 
   2  -2   3    2.21    0.14 
   2  -2   3    2.26    0.11 
   2  -2   3    2.29    0.13 
  -3   2  -3    1.11    0.10 
  -3   2  -3    1.04    0.10 
   3  -2   3    1.15    0.11 
   3  -2   3    1.26    0.07 
   3  -2   3    1.09    0.10 
   3  -2   3    1.11    0.09 
  -4   2  -3    0.85    0.09 
  -4   2  -3    0.91    0.09 
   4  -2   3    0.91    0.07 
   4  -2   3    1.07    0.10 
  -5   2  -3    0.63    0.08 
  -5   2  -3    0.55    0.09 
   5  -2   3    0.56    0.08 
   5  -2   3    0.52    0.09 
   5  -2   3    0.64    0.11 
   5  -2   3    0.49    0.05 
  -6   2  -3   11.92    0.58 
   6  -2   3   12.14    0.44 
   6  -2   3   12.73    0.58 
   6  -2   3   12.22    0.50 
   6  -2   3   12.52    0.57 
   6  -2   3   11.88    0.52 
   6  -2   3   12.51    0.56 
   6  -2   3   11.00    0.57 
   6  -2   3   12.51    0.54 
   6  -2   3   12.28    0.57 
   6  -2   3   11.86    0.56 
   6  -2   3   10.88    0.50 
   6  -2   3   12.36    0.56 
   7  -2   3    3.23    0.18 
   7  -2   3    3.25    0.20 
   7  -2   3    3.50    0.20 
   7  -2   3    3.32    0.21 
   7  -2   3    3.32    0.17 
   7  -2   3    3.36    0.14 
   7  -2   3    3.33    0.21 
   8  -2   3    5.75    0.26 
   8  -2   3    5.39    0.26 
   8  -2   3    5.71    0.25 
   8   1  -3    4.37    0.21 
   8   1  -3    3.89    0.20 
   7   1  -3    1.17    0.10 
   7   1  -3    1.29    0.11 
   7   1  -3    1.57    0.14 
   7   1  -3    1.50    0.12 
   7   1  -3    1.31    0.11 
   7   1  -3    1.43    0.12 
   6   1  -3    0.06    0.11 
   6   1  -3    0.07    0.06 
   6   1  -3    0.00    0.07 
   6   1  -3   -0.03    0.07 
   6   1  -3    0.07    0.08 
   6   1  -3   -0.02    0.02 
  -6  -1   3   -0.03    0.06 
   5   1  -3   21.97    0.98 
   5   1  -3   23.06    0.87 
   5   1  -3   20.72    1.41 
   5   1  -3   23.07    0.98 
  -5  -1   3   23.41    1.00 
   4   1  -3    2.02    0.12 
   4   1  -3    2.00    0.18 
   4   1  -3    2.10    0.09 
  -4  -1   3    1.95    0.15 
  -4  -1   3    1.90    0.12 
   3   1  -3  148.30    8.94 
   3   1  -3  148.46    6.17 
   3   1  -3  152.34    5.61 
  -3  -1   3  144.64    8.50 
  -3  -1   3  138.74    6.35 
   2   1  -3    7.37    0.49 
   2   1  -3    7.45    0.33 
   2   1  -3    7.73    0.30 
  -2  -1   3    7.68    0.34 
   1   1  -3    0.69    0.04 
   1   1  -3    0.69    0.05 
   1   1  -3    0.81    0.06 
  -1  -1   3    0.84    0.06 
   0   1  -3   20.75    1.04 
   0   1  -3   23.29    1.12 
   0  -1   3   20.79    1.04 
   0  -1   3   20.26    1.26 
  -1   1  -3    4.37    0.22 
  -1   1  -3    4.53    0.24 
   1  -1   3    4.05    0.18 
  -2   1  -3   10.55    0.52 
  -2   1  -3   11.15    0.57 
   2  -1   3   10.42    0.42 
   2  -1   3   10.09    0.47 
  -3   1  -3   16.42    0.80 
  -3   1  -3   17.69    0.93 
   3  -1   3   17.45    0.78 
   3  -1   3   17.43    0.68 
   3  -1   3   17.97    0.76 
  -4   1  -3    0.30    0.06 
  -4   1  -3    0.46    0.07 
  -4   1  -3    0.57    0.07 
   4  -1   3    0.50    0.05 
   4  -1   3    0.56    0.06 
   4  -1   3    0.45    0.07 
  -5   1  -3   20.36    0.93 
  -5   1  -3   19.23    0.92 
   5  -1   3   18.95    0.87 
   5  -1   3   19.74    0.77 
   5  -1   3   20.78    0.89 
   5  -1   3   18.82    0.91 
  -6   1  -3    5.55    0.32 
   6  -1   3    5.82    0.28 
   6  -1   3    6.04    0.31 
   6  -1   3    6.08    0.33 
   6  -1   3    5.69    0.28 
   6  -1   3    6.03    0.32 
   6  -1   3    5.89    0.24 
   6  -1   3    6.23    0.33 
   6  -1   3    5.88    0.30 
   6  -1   3    5.87    0.31 
   6  -1   3    5.59    0.29 
   7  -1   3    0.79    0.09 
   7  -1   3    0.65    0.10 
   7  -1   3    0.79    0.09 
   7  -1   3    0.75    0.10 
   7  -1   3    0.55    0.10 
   7  -1   3    0.59    0.05 
   7  -1   3    0.80    0.10 
   8  -1   3    0.35    0.06 
   8  -1   3    0.41    0.05 
   8  -1   3    0.35    0.06 
   8  -1   3    0.35    0.06 
   8  -1   3    0.46    0.06 
   6   0  -3    2.77    0.16 
   6   0  -3    2.84    0.16 
   6   0  -3    2.70    0.16 
   5   0  -3    0.19    0.05 
   5   0  -3    0.12    0.02 
   5   0  -3    0.17    0.05 
   5   0  -3    0.19    0.08 
  -5   0   3    0.03    0.09 
   4   0  -3    0.32    0.09 
   4   0  -3    0.35    0.05 
   4   0  -3    0.37    0.03 
  -4   0   3    0.43    0.11 
   3   0  -3   13.35    0.61 
   3   0  -3   14.26    0.55 
   3   0  -3   13.57    0.89 
  -3   0   3   14.23    0.84 
  -3   0   3   15.29    0.88 
   2   0  -3   26.85    0.97 
   2   0  -3   23.84    1.32 
   2   0  -3   25.23    1.07 
  -2   0   3   26.23    1.21 
  -2   0   3   24.39    1.46 
  -2   0   3   24.12    1.07 
   1   0  -3   73.00    3.67 
   1   0  -3   69.13    2.69 
   1   0  -3   66.36    3.37 
  -1   0   3   73.89    4.11 
  -1   0   3   68.66    3.37 
   0   0  -3    0.09    0.03 
   0   0   3    0.10    0.07 
   0   0   3    0.06    0.03 
  -1   0  -3   24.77    1.14 
  -1   0  -3   20.66    1.23 
   1   0   3   24.21    1.14 
   1   0   3   24.13    1.38 
  -2   0  -3    3.58    0.19 
  -2   0  -3    3.63    0.20 
  -2   0  -3    3.28    0.18 
   2   0   3    3.46    0.15 
   2   0   3    3.40    0.18 
  -3   0  -3   79.88    3.48 
  -3   0  -3   74.50    4.00 
  -3   0  -3   72.93    3.45 
   3   0   3   74.43    3.32 
   3   0   3   76.83    2.93 
   3   0   3   79.13    3.23 
  -4   0  -3    8.32    0.42 
  -4   0  -3    9.41    0.43 
  -4   0  -3    7.73    0.54 
   4   0   3    9.01    0.36 
   4   0   3    8.99    0.42 
   4   0   3    9.25    0.41 
  -5   0  -3    1.10    0.11 
   5   0   3    0.91    0.09 
   5   0   3    0.89    0.10 
   5   0   3    1.06    0.11 
   5   0   3    0.99    0.10 
   5   0   3    0.85    0.07 
   6   0   3   15.03    0.56 
   6   0   3   14.71    0.64 
   6   0   3   15.76    0.73 
   6   0   3   15.20    0.69 
   6   0   3   15.27    0.70 
   6   0   3   15.76    0.70 
   6   0   3   16.16    0.66 
   6   0   3   14.42    0.63 
   6   0   3   15.20    0.66 
   6   0   3   15.18    0.62 
   6   0   3   15.11    0.70 
  -7   0  -3    2.33    0.15 
   7   0   3    2.56    0.16 
   7   0   3    2.10    0.17 
   7   0   3    2.56    0.15 
   7   0   3    2.37    0.19 
   7   0   3    2.37    0.18 
   7   0   3    2.79    0.16 
   7   0   3    2.63    0.12 
   7   0   3    2.59    0.17 
   8   0   3    0.95    0.08 
   8   0   3    0.95    0.08 
   8   0   3    0.99    0.08 
   8   0   3    1.03    0.09 
   4  -1  -3    0.29    0.06 
   4  -1  -3    0.28    0.02 
  -4   1   3    0.27    0.09 
   3  -1  -3   67.91    3.45 
   3  -1  -3   74.52    4.32 
   3  -1  -3   65.29    2.97 
   3  -1  -3   76.18    2.70 
   3  -1  -3   65.99    3.69 
  -3   1   3   71.30    4.14 
  -3   1   3   72.31    2.98 
   2  -1  -3   11.33    0.43 
   2  -1  -3   10.77    0.60 
   2  -1  -3   10.72    0.70 
  -2   1   3   11.09    0.69 
  -2   1   3   11.58    0.54 
   1  -1  -3    0.02    0.04 
   1  -1  -3    0.02    0.02 
  -1   1   3    0.03    0.02 
   0  -1  -3   20.50    1.02 
   0  -1  -3   20.40    1.02 
   0   1   3   21.31    1.02 
   0   1   3   21.91    1.25 
  -1  -1  -3   16.90    0.85 
  -1  -1  -3   15.15    0.78 
  -1  -1  -3   15.47    0.74 
   1   1   3   17.47    0.96 
   1   1   3   15.00    0.69 
   1   1   3   16.33    0.62 
  -2  -1  -3    7.96    0.43 
  -2  -1  -3    7.81    0.38 
   2   1   3    7.96    0.32 
   2   1   3    7.71    0.36 
  -3  -1  -3   10.19    0.63 
  -3  -1  -3   10.44    0.57 
  -3  -1  -3   11.02    0.50 
  -3  -1  -3   10.11    0.49 
   3   1   3   10.72    0.42 
   3   1   3    9.96    0.48 
   3   1   3   11.01    0.47 
   3   1   3   10.32    0.60 
  -4  -1  -3   12.45    0.57 
  -4  -1  -3   10.99    0.72 
   4   1   3   11.64    0.54 
   4   1   3   12.39    0.54 
   4   1   3   11.71    0.54 
   4   1   3   11.71    0.47 
  -5  -1  -3    3.33    0.21 
   5   1   3    2.98    0.16 
   5   1   3    3.37    0.21 
   5   1   3    3.37    0.19 
   5   1   3    3.33    0.22 
   5   1   3    3.04    0.23 
   5   1   3    3.43    0.20 
  -6  -1  -3    8.16    0.38 
   6   1   3    7.95    0.32 
   6   1   3    7.70    0.36 
   6   1   3    8.35    0.40 
   6   1   3    7.91    0.36 
   6   1   3    8.42    0.38 
   6   1   3    8.55    0.40 
   6   1   3    8.09    0.40 
   6   1   3    7.70    0.39 
   6   1   3    8.42    0.42 
   6   1   3    8.42    0.40 
   6   1   3    8.44    0.38 
  -7  -1  -3    0.58    0.08 
   7   1   3    0.70    0.09 
   7   1   3    0.50    0.09 
   7   1   3    0.44    0.09 
   7   1   3    0.61    0.08 
   7   1   3    0.55    0.07 
   7   1   3    0.55    0.10 
   7   1   3    0.59    0.09 
   7   1   3    0.58    0.10 
   7   1   3    0.56    0.08 
   7   1   3    0.54    0.05 
   8   1   3    0.07    0.03 
   8   1   3    0.03    0.04 
   8   1   3    0.11    0.05 
   4  -2  -3    0.77    0.04 
   4  -2  -3    0.86    0.09 
   4  -2  -3    0.87    0.11 
   4  -2  -3    0.72    0.09 
   3  -2  -3   -0.03    0.05 
   3  -2  -3    0.04    0.02 
   3  -2  -3    0.01    0.05 
   3  -2  -3    0.08    0.05 
  -3   2   3    0.10    0.07 
   2  -2  -3    0.38    0.06 
   2  -2  -3    0.33    0.06 
   2  -2  -3    0.35    0.05 
   2  -2  -3    0.27    0.04 
   2  -2  -3    0.32    0.03 
  -2   2   3    0.26    0.08 
   1  -2  -3    1.21    0.09 
   1  -2  -3    1.17    0.06 
   1  -2  -3    1.25    0.12 
  -1   2   3    1.18    0.14 
  -1   2   3    0.87    0.12 
   0  -2  -3   49.99    2.32 
   0  -2  -3   52.13    2.66 
   0  -2  -3   47.81    1.95 
   0   2   3   53.12    2.98 
  -1  -2  -3    0.09    0.04 
  -1  -2  -3    0.13    0.05 
   1   2   3    0.06    0.07 
   1   2   3    0.11    0.07 
   1   2   3    0.14    0.05 
  -2  -2  -3   64.01    3.04 
  -2  -2  -3   70.99    3.07 
  -2  -2  -3   67.66    3.52 
  -2  -2  -3   64.34    3.90 
   2   2   3   69.76    2.58 
   2   2   3   65.77    2.84 
  -3  -2  -3    6.22    0.42 
  -3  -2  -3    7.16    0.35 
   3   2   3    7.12    0.42 
   3   2   3    6.65    0.32 
   3   2   3    6.95    0.28 
   3   2   3    6.99    0.33 
  -4  -2  -3    0.39    0.06 
  -4  -2  -3    0.34    0.08 
   4   2   3    0.51    0.08 
   4   2   3    0.33    0.07 
   4   2   3    0.33    0.05 
  -5  -2  -3   21.80    0.93 
  -5  -2  -3   22.03    1.03 
   5   2   3   20.99    0.95 
   5   2   3   21.54    0.91 
   5   2   3   23.08    0.97 
   5   2   3   22.08    1.01 
   5   2   3   21.11    0.93 
   5   2   3   20.31    0.86 
   5   2   3   22.61    0.96 
  -6  -2  -3    0.02    0.07 
  -6  -2  -3    0.03    0.06 
   6   2   3    0.15    0.10 
   6   2   3    0.03    0.07 
   6   2   3    0.05    0.10 
   6   2   3    0.05    0.05 
   6   2   3    0.04    0.07 
   6   2   3   -0.04    0.06 
   6   2   3    0.02    0.06 
   6   2   3    0.02    0.08 
   6   2   3   -0.09    0.08 
   6   2   3    0.00    0.10 
   6   2   3    0.09    0.07 
   7   2   3    3.59    0.15 
   7   2   3    3.57    0.17 
   7   2   3    3.62    0.20 
   7   2   3    3.54    0.20 
   7   2   3    3.71    0.19 
   7   2   3    3.60    0.20 
   7   2   3    3.38    0.20 
   7   2   3    3.35    0.17 
   7   2   3    3.37    0.20 
   5  -3  -3   12.44    0.64 
   5  -3  -3   11.74    0.47 
   4  -3  -3   32.43    1.23 
   4  -3  -3   32.14    1.99 
   4  -3  -3   29.80    1.70 
   4  -3  -3   33.59    1.60 
   3  -3  -3   47.04    1.73 
   3  -3  -3   47.53    2.22 
   3  -3  -3   47.31    2.77 
   3  -3  -3   40.68    2.06 
   3  -3  -3   44.97    2.37 
  -3   3   3   42.24    2.66 
   2  -3  -3    0.18    0.05 
   2  -3  -3    0.17    0.05 
   2  -3  -3    0.12    0.06 
   2  -3  -3    0.16    0.03 
  -2   3   3    0.14    0.10 
  -2   3   3    0.11    0.09 
   1  -3  -3   24.17    1.22 
   1  -3  -3   22.51    1.14 
   1  -3  -3   22.40    0.89 
   1  -3  -3   24.27    1.06 
  -1   3   3   20.00    1.44 
  -1   3   3   24.17    1.38 
   0  -3  -3   62.69    2.68 
   0  -3  -3   59.21    3.07 
   0   3   3   49.19    3.45 
   0   3   3   66.94    3.45 
   0   3   3   54.64    3.60 
  -1  -3  -3    4.05    0.22 
  -1  -3  -3    4.32    0.23 
  -1  -3  -3    4.18    0.25 
   1   3   3    4.20    0.28 
   1   3   3    4.24    0.32 
   1   3   3    4.82    0.31 
  -2  -3  -3    0.46    0.07 
   2   3   3    0.27    0.08 
   2   3   3    0.32    0.11 
   2   3   3    0.31    0.05 
  -3  -3  -3    5.25    0.28 
   3   3   3    4.62    0.26 
   3   3   3    5.27    0.26 
  -4  -3  -3    7.85    0.37 
  -4  -3  -3    8.07    0.42 
   4   3   3    8.09    0.40 
   4   3   3    8.37    0.42 
   4   3   3    8.10    0.39 
  -5  -3  -3   15.02    0.64 
  -5  -3  -3   13.99    0.73 
  -5  -3  -3   14.36    0.68 
  -5  -3  -3   15.16    0.65 
   5   3   3   15.37    0.67 
   5   3   3   14.49    0.62 
   5   3   3   15.11    0.56 
   5   3   3   14.21    0.65 
   5   3   3   14.87    0.64 
   5   3   3   15.15    0.71 
   5   3   3   14.58    0.74 
   5   3   3   14.95    0.68 
   5   3   3   15.25    0.68 
   5   3   3   14.94    0.60 
   5   3   3   14.82    0.67 
   5   3   3   15.95    0.68 
  -6  -3  -3   -0.07    0.06 
   6   3   3    0.06    0.06 
   6   3   3   -0.01    0.08 
   6   3   3    0.06    0.09 
   6   3   3    0.02    0.05 
   6   3   3   -0.03    0.06 
   6   3   3    0.00    0.09 
   6   3   3    0.00    0.08 
   6   3   3    0.01    0.10 
   6   3   3    0.01    0.09 
   6   3   3    0.04    0.06 
   6   3   3    0.06    0.08 
  -7  -3  -3    0.15    0.05 
   7   3   3    0.14    0.04 
   7   3   3    0.13    0.05 
   7   3   3    0.17    0.05 
   7   3   3    0.18    0.05 
   7   3   3    0.17    0.04 
   7   3   3    0.19    0.05 
   7   3   3    0.20    0.05 
   7   3   3    0.12    0.05 
   5  -4  -3    0.02    0.03 
   5  -4  -3    0.02    0.08 
   5  -4  -3    0.03    0.09 
   5  -4  -3    0.16    0.08 
  -5   4   3    0.08    0.12 
   4  -4  -3    8.10    0.40 
   4  -4  -3    9.57    0.47 
   4  -4  -3    8.23    0.33 
  -4   4   3    8.16    0.56 
  -4   4   3    7.08    0.58 
   3  -4  -3    1.26    0.11 
   3  -4  -3    1.39    0.08 
   3  -4  -3    1.37    0.12 
   3  -4  -3    1.28    0.12 
  -3   4   3    1.13    0.15 
  -3   4   3    0.91    0.16 
   2  -4  -3   14.68    0.67 
   2  -4  -3   14.19    0.77 
   2  -4  -3   14.28    0.72 
   2  -4  -3   14.09    0.56 
  -2   4   3   14.11    0.87 
  -2   4   3   13.27    0.92 
  -2   4   3   13.49    0.88 
   1  -4  -3    0.82    0.08 
   1  -4  -3    0.90    0.09 
   1  -4  -3    0.83    0.06 
   1  -4  -3    1.00    0.09 
  -1   4   3    0.98    0.11 
  -1   4   3    0.87    0.13 
  -1   4   3    0.73    0.12 
  -1   4   3    0.90    0.14 
   0  -4  -3    1.19    0.11 
   0  -4  -3    1.08    0.10 
   0   4   3    1.29    0.16 
   0   4   3    1.05    0.12 
   0   4   3    1.00    0.15 
  -1  -4  -3    5.93    0.30 
   1   4   3    5.47    0.36 
   1   4   3    5.85    0.43 
  -2  -4  -3    0.06    0.06 
   2   4   3    0.12    0.11 
   2   4   3    0.19    0.08 
  -3  -4  -3    9.79    0.49 
  -3  -4  -3    9.58    0.44 
   3   4   3    9.76    0.45 
  -4  -4  -3    4.14    0.26 
  -4  -4  -3    4.05    0.22 
  -4  -4  -3    4.12    0.22 
   4   4   3    3.75    0.31 
   4   4   3    4.33    0.24 
   4   4   3    4.15    0.25 
   4   4   3    3.92    0.24 
   4   4   3    4.11    0.23 
   4   4   3    3.79    0.24 
  -5  -4  -3    0.21    0.08 
  -5  -4  -3    0.06    0.06 
   5   4   3    0.09    0.09 
   5   4   3    0.04    0.10 
   5   4   3    0.11    0.10 
   5   4   3    0.12    0.08 
   5   4   3    0.07    0.10 
   5   4   3    0.07    0.08 
  -6  -4  -3    2.88    0.18 
  -6  -4  -3    2.87    0.17 
   6   4   3    2.75    0.14 
   6   4   3    2.78    0.18 
   6   4   3    2.70    0.16 
   6   4   3    2.71    0.17 
   6   4   3    2.88    0.18 
   6   4   3    2.93    0.17 
   6   4   3    2.37    0.21 
  -7  -4  -3    0.47    0.05 
  -7  -4  -3    0.59    0.05 
   7   4   3    0.53    0.04 
   7   4   3    0.47    0.05 
   7   4   3    0.47    0.05 
   6  -5  -3    3.65    0.22 
   6  -5  -3    3.73    0.31 
   6  -5  -3    3.51    0.21 
   6  -5  -3    4.02    0.20 
   6  -5  -3    3.75    0.25 
   5  -5  -3    0.57    0.11 
   5  -5  -3    0.40    0.07 
   5  -5  -3    0.39    0.10 
   5  -5  -3    0.57    0.14 
   5  -5  -3    0.48    0.09 
   5  -5  -3    0.58    0.09 
   5  -5  -3    0.26    0.09 
   5  -5  -3    0.44    0.06 
   5  -5  -3    0.51    0.10 
  -5   5   3    0.35    0.14 
   4  -5  -3    0.08    0.08 
   4  -5  -3    0.14    0.08 
   4  -5  -3    0.12    0.09 
   4  -5  -3    0.04    0.08 
   4  -5  -3    0.12    0.04 
   4  -5  -3    0.04    0.07 
   4  -5  -3    0.21    0.10 
  -4   5   3    0.08    0.11 
   3  -5  -3    1.56    0.15 
   3  -5  -3    1.39    0.15 
   3  -5  -3    1.34    0.14 
   3  -5  -3    1.40    0.09 
   3  -5  -3    1.33    0.11 
  -3   5   3    1.41    0.20 
  -3   5   3    1.05    0.18 
   2  -5  -3   12.46    0.58 
   2  -5  -3   11.86    0.63 
   2  -5  -3   12.20    0.59 
   2  -5  -3   11.27    0.48 
  -2   5   3   11.98    0.81 
  -2   5   3   12.00    0.77 
   1  -5  -3    6.93    0.35 
   1  -5  -3    6.12    0.39 
  -1   5   3    7.59    0.51 
  -1   5   3    6.95    0.46 
  -1   5   3    6.49    0.46 
   0  -5  -3    1.26    0.13 
   0   5   3    1.57    0.21 
   0   5   3    1.23    0.14 
  -1  -5  -3    0.02    0.06 
  -1  -5  -3    0.00    0.07 
   1   5   3    0.19    0.11 
   1   5   3    0.02    0.08 
   1   5   3   -0.02    0.09 
  -2  -5  -3    0.42    0.09 
  -2  -5  -3    0.64    0.08 
   2   5   3    0.56    0.15 
  -3  -5  -3    6.18    0.30 
  -3  -5  -3    6.34    0.30 
  -3  -5  -3    6.01    0.34 
   3   5   3    5.90    0.37 
  -4  -5  -3    0.14    0.09 
  -4  -5  -3    0.07    0.07 
  -4  -5  -3   -0.03    0.09 
  -4  -5  -3    0.00    0.06 
   4   5   3    0.07    0.09 
   4   5   3   -0.02    0.07 
   4   5   3    0.25    0.11 
   4   5   3    0.04    0.09 
   4   5   3   -0.06    0.10 
  -5  -5  -3    0.10    0.07 
  -5  -5  -3    0.10    0.07 
  -5  -5  -3   -0.06    0.06 
   5   5   3    0.05    0.05 
   5   5   3    0.00    0.07 
   5   5   3    0.02    0.07 
   5   5   3    0.04    0.11 
   5   5   3    0.01    0.06 
   5   5   3   -0.01    0.06 
  -6  -5  -3    0.43    0.06 
  -6  -5  -3    0.42    0.06 
  -6  -5  -3    0.49    0.06 
   6   5   3    0.45    0.06 
   6   5   3    0.37    0.05 
   6   5   3    0.34    0.06 
   6   5   3    0.45    0.08 
   7  -6  -3    0.10    0.05 
   7  -6  -3    0.05    0.06 
   7  -6  -3    0.06    0.07 
   6  -6  -3    5.69    0.26 
   6  -6  -3    4.97    0.28 
   6  -6  -3    5.64    0.37 
   6  -6  -3    5.65    0.29 
   6  -6  -3    5.10    0.25 
   6  -6  -3    5.33    0.27 
   6  -6  -3    5.37    0.29 
   6  -6  -3    5.66    0.31 
   6  -6  -3    5.10    0.20 
   5  -6  -3    1.52    0.12 
   5  -6  -3    1.56    0.12 
   5  -6  -3    1.68    0.16 
   5  -6  -3    1.67    0.17 
   5  -6  -3    1.36    0.17 
   5  -6  -3    1.68    0.15 
   5  -6  -3    1.55    0.13 
   5  -6  -3    1.44    0.11 
   5  -6  -3    1.68    0.15 
   5  -6  -3    1.52    0.14 
   5  -6  -3    1.41    0.13 
   4  -6  -3    1.94    0.21 
   4  -6  -3    2.18    0.21 
   4  -6  -3    2.36    0.21 
   4  -6  -3    2.13    0.18 
   4  -6  -3    1.88    0.20 
   4  -6  -3    2.24    0.17 
   4  -6  -3    2.20    0.19 
   4  -6  -3    2.20    0.13 
   4  -6  -3    2.04    0.18 
   4  -6  -3    2.19    0.16 
   4  -6  -3    2.51    0.26 
   4  -6  -3    2.28    0.20 
   4  -6  -3    2.13    0.16 
   4  -6  -3    1.84    0.20 
   4  -6  -3    2.36    0.18 
  -4   6   3    2.41    0.27 
  -4   6   3    1.85    0.18 
   3  -6  -3    0.45    0.09 
   3  -6  -3    0.44    0.07 
   3  -6  -3    0.26    0.08 
   3  -6  -3    0.30    0.09 
   3  -6  -3    0.54    0.12 
   3  -6  -3    0.33    0.10 
   3  -6  -3    0.41    0.10 
   3  -6  -3    0.53    0.12 
  -3   6   3    0.21    0.12 
  -3   6   3    0.49    0.15 
  -3   6   3    0.36    0.16 
   2  -6  -3    8.40    0.47 
   2  -6  -3    7.60    0.40 
   2  -6  -3    8.93    0.43 
   2  -6  -3    8.26    0.43 
   2  -6  -3    7.77    0.35 
   2  -6  -3    8.47    0.39 
  -2   6   3    8.66    0.61 
  -2   6   3    8.25    0.43 
  -2   6   3    8.29    0.57 
   1  -6  -3   56.14    2.42 
   1  -6  -3   58.20    2.59 
   1  -6  -3   54.92    2.65 
  -1   6   3   56.82    2.59 
  -1   6   3   55.54    3.43 
  -1   6   3   63.93    3.60 
   0  -6  -3   17.64    0.87 
   0  -6  -3   16.93    0.86 
   0  -6  -3   17.79    0.79 
   0   6   3   19.66    1.20 
   0   6   3   18.17    0.86 
  -1  -6  -3   15.23    0.65 
  -1  -6  -3   14.71    0.73 
  -1  -6  -3   14.83    0.67 
   1   6   3   16.20    1.02 
   1   6   3   14.35    0.72 
  -2  -6  -3   14.65    0.66 
  -2  -6  -3   14.23    0.61 
  -2  -6  -3   13.69    0.70 
  -2  -6  -3   14.43    0.63 
  -2  -6  -3   13.65    0.65 
   2   6   3   14.66    0.96 
   2   6   3   14.43    0.65 
   2   6   3   14.26    0.71 
   2   6   3   13.97    0.69 
  -3  -6  -3   -0.02    0.07 
  -3  -6  -3    0.07    0.07 
  -3  -6  -3    0.08    0.08 
  -3  -6  -3    0.04    0.08 
   3   6   3   -0.08    0.09 
   3   6   3   -0.03    0.07 
   3   6   3   -0.04    0.10 
  -4  -6  -3    3.84    0.22 
  -4  -6  -3    3.77    0.20 
  -4  -6  -3    3.99    0.22 
  -4  -6  -3    3.78    0.21 
   4   6   3    3.84    0.21 
   4   6   3    3.64    0.25 
   4   6   3    4.03    0.26 
  -5  -6  -3    0.10    0.05 
  -5  -6  -3    0.12    0.05 
  -5  -6  -3    0.08    0.06 
   5   6   3    0.08    0.09 
   5   6   3    0.14    0.05 
   5   6   3    0.11    0.07 
   6  -7  -3    0.72    0.09 
   6  -7  -3    0.89    0.08 
   6  -7  -3    0.88    0.14 
   6  -7  -3    0.65    0.08 
   6  -7  -3    0.82    0.09 
   6  -7  -3    0.57    0.07 
   6  -7  -3    0.77    0.10 
   6  -7  -3    0.85    0.08 
   6  -7  -3    0.75    0.08 
   6  -7  -3    0.86    0.09 
   5  -7  -3    0.08    0.11 
   5  -7  -3    0.00    0.08 
   5  -7  -3    0.04    0.07 
   5  -7  -3    0.09    0.08 
   5  -7  -3    0.01    0.07 
   5  -7  -3   -0.02    0.06 
   5  -7  -3    0.00    0.07 
   5  -7  -3    0.04    0.04 
   5  -7  -3    0.12    0.12 
   5  -7  -3    0.01    0.07 
   5  -7  -3    0.07    0.09 
   4  -7  -3    0.30    0.12 
   4  -7  -3    0.14    0.07 
   4  -7  -3    0.05    0.09 
   4  -7  -3    0.27    0.09 
   4  -7  -3    0.17    0.13 
   4  -7  -3    0.43    0.09 
   4  -7  -3    0.30    0.09 
   4  -7  -3    0.25    0.09 
   4  -7  -3    0.18    0.08 
   4  -7  -3    0.17    0.11 
   4  -7  -3    0.29    0.10 
   4  -7  -3    0.20    0.08 
   4  -7  -3    0.34    0.11 
   4  -7  -3    0.21    0.15 
  -4   7   3    0.00    0.10 
   3  -7  -3    0.13    0.07 
   3  -7  -3    0.11    0.11 
   3  -7  -3    0.08    0.09 
   3  -7  -3   -0.03    0.07 
   3  -7  -3   -0.14    0.16 
   3  -7  -3    0.03    0.10 
   3  -7  -3    0.09    0.11 
   3  -7  -3    0.05    0.08 
   3  -7  -3    0.19    0.07 
   3  -7  -3    0.13    0.08 
   3  -7  -3    0.20    0.10 
   3  -7  -3    0.13    0.08 
   3  -7  -3   -0.10    0.14 
   3  -7  -3    0.04    0.08 
   3  -7  -3    0.00    0.09 
  -3   7   3    0.05    0.11 
  -3   7   3    0.05    0.07 
   2  -7  -3    1.96    0.17 
   2  -7  -3    2.33    0.21 
   2  -7  -3    2.07    0.19 
   2  -7  -3    1.80    0.21 
   2  -7  -3    2.12    0.18 
   2  -7  -3    2.12    0.18 
   2  -7  -3    1.91    0.17 
   2  -7  -3    2.08    0.14 
   2  -7  -3    2.26    0.20 
   2  -7  -3    2.01    0.19 
   2  -7  -3    2.20    0.15 
  -2   7   3    2.20    0.29 
  -2   7   3    1.91    0.20 
  -2   7   3    1.89    0.22 
   1  -7  -3    4.42    0.27 
   1  -7  -3    4.99    0.25 
   1  -7  -3    4.23    0.27 
   1  -7  -3    4.89    0.28 
   1  -7  -3    4.56    0.40 
   1  -7  -3    4.77    0.26 
  -1   7   3    4.74    0.35 
  -1   7   3    4.93    0.31 
  -1   7   3    5.10    0.42 
   0  -7  -3    2.79    0.17 
   0  -7  -3    2.72    0.18 
   0  -7  -3    1.87    0.23 
   0  -7  -3    2.41    0.21 
   0  -7  -3    2.69    0.17 
   0   7   3    2.51    0.24 
   0   7   3    2.44    0.24 
   0   7   3    2.53    0.21 
   0   7   3    2.98    0.30 
  -1  -7  -3    0.28    0.10 
  -1  -7  -3    0.29    0.09 
  -1  -7  -3    0.32    0.10 
  -1  -7  -3    0.31    0.09 
  -1  -7  -3    0.22    0.08 
   1   7   3    0.21    0.11 
   1   7   3    0.21    0.11 
   1   7   3    0.24    0.12 
  -2  -7  -3   32.23    1.38 
  -2  -7  -3   30.70    1.34 
  -2  -7  -3   30.76    1.30 
  -2  -7  -3   29.71    1.37 
   2   7   3   31.99    1.45 
   2   7   3   33.08    1.47 
  -3  -7  -3    0.12    0.07 
  -3  -7  -3    0.10    0.08 
  -3  -7  -3    0.14    0.08 
   3   7   3    0.10    0.11 
   3   7   3    0.09    0.10 
  -4  -7  -3    2.81    0.16 
  -4  -7  -3    2.73    0.16 
   4   7   3    3.06    0.20 
   4   7   3    2.71    0.18 
   6  -8  -3   -0.03    0.06 
   6  -8  -3    0.01    0.05 
   6  -8  -3    0.02    0.05 
   6  -8  -3    0.00    0.04 
   5  -8  -3    0.22    0.06 
   5  -8  -3    0.28    0.06 
   5  -8  -3    0.16    0.07 
   5  -8  -3    0.21    0.10 
   5  -8  -3    0.28    0.07 
   5  -8  -3    0.26    0.07 
   5  -8  -3    0.26    0.12 
   5  -8  -3    0.14    0.05 
   5  -8  -3    0.30    0.05 
   5  -8  -3    0.32    0.06 
   5  -8  -3    0.34    0.04 
   5  -8  -3    0.22    0.07 
   4  -8  -3    0.15    0.07 
   4  -8  -3    0.19    0.08 
   4  -8  -3    0.08    0.08 
   4  -8  -3    0.16    0.07 
   4  -8  -3    0.17    0.11 
   4  -8  -3    0.13    0.06 
   4  -8  -3    0.13    0.07 
   4  -8  -3    0.09    0.12 
   4  -8  -3    0.04    0.07 
   4  -8  -3    0.08    0.08 
   4  -8  -3    0.15    0.05 
   4  -8  -3    0.08    0.12 
   4  -8  -3    0.19    0.06 
  -4   8   3    0.14    0.08 
  -4   8   3    0.07    0.11 
   3  -8  -3   14.30    0.65 
   3  -8  -3   14.86    0.59 
   3  -8  -3   13.94    0.66 
   3  -8  -3   14.53    0.61 
   3  -8  -3   14.80    0.63 
   3  -8  -3   14.14    0.65 
   3  -8  -3   14.52    0.57 
   3  -8  -3   14.54    0.64 
   3  -8  -3   14.47    0.74 
   3  -8  -3   14.40    0.54 
   3  -8  -3   13.24    0.83 
   3  -8  -3   13.32    0.78 
  -3   8   3   14.86    0.69 
  -3   8   3   14.31    0.76 
   2  -8  -3    5.58    0.41 
   2  -8  -3    5.87    0.37 
   2  -8  -3    6.33    0.34 
   2  -8  -3    6.41    0.31 
   2  -8  -3    6.78    0.30 
   2  -8  -3    6.33    0.33 
   2  -8  -3    6.49    0.33 
  -2   8   3    6.76    0.36 
  -2   8   3    6.77    0.40 
   1  -8  -3    0.91    0.10 
   1  -8  -3    0.80    0.09 
   1  -8  -3    1.16    0.10 
   1  -8  -3    0.76    0.19 
   1  -8  -3    0.72    0.08 
  -1   8   3    0.92    0.16 
  -1   8   3    0.96    0.13 
   0  -8  -3    3.41    0.22 
   0  -8  -3    3.49    0.21 
   0  -8  -3    3.50    0.22 
   0  -8  -3    3.36    0.20 
   0   8   3    3.64    0.24 
   0   8   3    3.59    0.24 
   0   8   3    3.71    0.27 
  -1  -8  -3   15.42    0.65 
  -1  -8  -3   13.88    0.63 
  -1  -8  -3   14.66    0.61 
  -1  -8  -3   13.17    0.64 
   1   8   3   13.99    0.76 
   1   8   3   15.04    0.69 
   1   8   3   14.23    0.68 
  -2  -8  -3    2.70    0.15 
  -2  -8  -3    2.62    0.16 
  -2  -8  -3    2.92    0.18 
   2   8   3    2.84    0.20 
  -3  -8  -3    3.16    0.18 
  -3  -8  -3    3.64    0.19 
   3   8   3    4.50    0.22 
   4  -9  -3    3.88    0.17 
   4  -9  -3    3.30    0.26 
   4  -9  -3    3.54    0.18 
   4  -9  -3    3.79    0.19 
   4  -9  -3    3.70    0.24 
   4  -9  -3    3.85    0.19 
  -4   9   3    4.31    0.22 
  -4   9   3    3.71    0.22 
   3  -9  -3    1.42    0.11 
   3  -9  -3    1.39    0.14 
   3  -9  -3    1.56    0.13 
   3  -9  -3    1.50    0.09 
   3  -9  -3    1.40    0.11 
   3  -9  -3    1.43    0.13 
  -3   9   3    1.68    0.15 
  -3   9   3    1.62    0.14 
   2  -9  -3    2.96    0.17 
   2  -9  -3    2.13    0.19 
   2  -9  -3    2.78    0.15 
   2  -9  -3    2.45    0.15 
   2  -9  -3    2.57    0.17 
  -2   9   3    3.15    0.21 
  -2   9   3    2.89    0.17 
  -2   9   3    2.81    0.17 
   1  -9  -3    3.45    0.19 
   1  -9  -3    3.19    0.18 
   1  -9  -3    3.38    0.19 
   1  -9  -3    3.31    0.18 
  -1   9   3    3.55    0.23 
  -1   9   3    3.19    0.20 
   0  -9  -3    0.03    0.06 
   0  -9  -3    0.04    0.05 
   0   9   3   -0.18    0.08 
  -1  -9  -3    0.07    0.05 
   1   9   3    0.05    0.04 
   1   9   3   -0.04    0.05 
   1 -10   4    1.63    0.10 
   3   9  -4    0.08    0.04 
   2   9  -4    1.84    0.11 
   2   9  -4    2.10    0.17 
   2   9  -4    1.69    0.13 
  -2  -9   4    1.79    0.12 
  -2  -9   4    1.68    0.12 
   1   9  -4    3.21    0.16 
   1   9  -4    3.31    0.23 
   1   9  -4    3.30    0.19 
  -1  -9   4    2.99    0.17 
  -1  -9   4    3.40    0.18 
  -1  -9   4    3.00    0.17 
  -1  -9   4    3.18    0.19 
   0   9  -4    4.24    0.24 
   0   9  -4    4.10    0.26 
   0   9  -4    3.89    0.19 
   0   9  -4    3.73    0.20 
   0  -9   4    3.87    0.20 
   0  -9   4    3.60    0.20 
   0  -9   4    4.15    0.21 
   0  -9   4    4.07    0.22 
  -1   9  -4    2.59    0.20 
  -1   9  -4    2.77    0.16 
  -1   9  -4    2.87    0.19 
   1  -9   4    2.51    0.16 
   1  -9   4    2.40    0.15 
   1  -9   4    2.47    0.15 
   1  -9   4    2.82    0.17 
  -2   9  -4    0.57    0.09 
  -2   9  -4    0.32    0.07 
  -2   9  -4    0.40    0.07 
   2  -9   4    0.60    0.08 
   2  -9   4    0.39    0.07 
   2  -9   4    0.30    0.12 
   2  -9   4    0.45    0.07 
   2  -9   4    0.35    0.06 
  -3   9  -4    3.60    0.18 
  -3   9  -4    3.30    0.19 
  -3   9  -4    3.73    0.24 
   3  -9   4    3.34    0.19 
   3  -9   4    3.55    0.18 
   3  -9   4    2.75    0.28 
  -4   9  -4    1.07    0.10 
   4  -9   4    0.90    0.08 
   4  -9   4    0.59    0.10 
   4   8  -4    2.45    0.12 
   4   8  -4    2.48    0.17 
   4   8  -4    2.74    0.13 
  -4  -8   4    2.52    0.14 
  -4  -8   4    2.71    0.14 
  -4  -8   4    2.33    0.13 
   3   8  -4    1.02    0.07 
   3   8  -4    1.08    0.12 
   3   8  -4    1.10    0.14 
   3   8  -4    1.11    0.09 
  -3  -8   4    0.96    0.09 
  -3  -8   4    0.86    0.08 
  -3  -8   4    1.03    0.10 
  -3  -8   4    1.11    0.10 
   2   8  -4   -0.01    0.07 
   2   8  -4    0.03    0.04 
   2   8  -4    0.02    0.06 
   2   8  -4    0.02    0.11 
   2   8  -4    0.02    0.08 
  -2  -8   4   -0.01    0.07 
  -2  -8   4    0.03    0.06 
  -2  -8   4    0.03    0.08 
  -2  -8   4    0.02    0.06 
   1   8  -4    0.09    0.07 
   1   8  -4    0.13    0.09 
   1   8  -4    0.05    0.08 
   1   8  -4   -0.02    0.07 
   1   8  -4    0.08    0.10 
  -1  -8   4    0.16    0.08 
  -1  -8   4    0.09    0.08 
  -1  -8   4    0.22    0.08 
  -1  -8   4    0.25    0.08 
   0   8  -4    0.89    0.09 
   0   8  -4    0.87    0.11 
   0   8  -4    0.85    0.09 
   0   8  -4    0.80    0.12 
   0  -8   4    0.91    0.10 
   0  -8   4    0.96    0.10 
   0  -8   4    0.77    0.09 
   0  -8   4    0.89    0.09 
  -1   8  -4    2.22    0.17 
  -1   8  -4    2.12    0.18 
  -1   8  -4    2.17    0.22 
   1  -8   4    2.13    0.16 
   1  -8   4    2.23    0.16 
   1  -8   4    2.47    0.18 
   1  -8   4    1.43    0.23 
   1  -8   4    2.04    0.17 
  -2   8  -4    1.59    0.18 
  -2   8  -4    1.71    0.15 
  -2   8  -4    1.38    0.13 
   2  -8   4    1.37    0.11 
   2  -8   4    1.01    0.19 
   2  -8   4    1.46    0.14 
   2  -8   4    1.36    0.12 
   2  -8   4    1.51    0.13 
  -3   8  -4    0.07    0.10 
  -3   8  -4    0.01    0.07 
  -3   8  -4    0.11    0.07 
   3  -8   4    0.09    0.08 
   3  -8   4    0.07    0.09 
   3  -8   4    0.03    0.05 
   3  -8   4   -0.04    0.06 
   3  -8   4    0.00    0.16 
  -4   8  -4    2.42    0.17 
  -4   8  -4    2.43    0.20 
   4  -8   4    2.97    0.16 
   4  -8   4    2.23    0.21 
   4  -8   4    2.34    0.14 
   4  -8   4    2.57    0.16 
   4  -8   4    2.56    0.12 
   4  -8   4    2.75    0.16 
   4  -8   4    1.76    0.22 
  -5   8  -4    0.08    0.05 
  -5   8  -4    0.05    0.05 
   5  -8   4   -0.01    0.05 
   5  -8   4   -0.03    0.03 
   5  -8   4   -0.01    0.05 
   5  -8   4   -0.06    0.08 
   5  -8   4    0.05    0.07 
   5   7  -4    0.66    0.08 
   5   7  -4    0.70    0.06 
   5   7  -4    0.64    0.06 
   5   7  -4    0.66    0.10 
  -5  -7   4    0.59    0.06 
  -5  -7   4    0.71    0.08 
  -5  -7   4    0.71    0.08 
   4   7  -4    2.63    0.21 
   4   7  -4    2.69    0.14 
   4   7  -4    2.85    0.19 
   4   7  -4    2.75    0.19 
   4   7  -4    2.74    0.16 
  -4  -7   4    2.56    0.19 
  -4  -7   4    2.37    0.18 
  -4  -7   4    2.97    0.18 
  -4  -7   4    2.82    0.17 
  -4  -7   4    2.59    0.17 
   3   7  -4    0.04    0.06 
   3   7  -4   -0.08    0.10 
   3   7  -4   -0.08    0.07 
   3   7  -4    0.04    0.06 
  -3  -7   4   -0.04    0.08 
  -3  -7   4    0.06    0.10 
  -3  -7   4   -0.04    0.08 
  -3  -7   4    0.06    0.09 
   2   7  -4    0.63    0.12 
   2   7  -4    0.56    0.09 
   2   7  -4    0.57    0.11 
   2   7  -4    0.41    0.07 
   2   7  -4    0.48    0.12 
  -2  -7   4    0.39    0.10 
  -2  -7   4    0.42    0.11 
  -2  -7   4    0.39    0.10 
  -2  -7   4    0.24    0.09 
  -2  -7   4    0.40    0.08 
   1   7  -4    0.52    0.08 
   1   7  -4    0.44    0.09 
   1   7  -4    0.54    0.08 
   1   7  -4    0.71    0.15 
   1   7  -4    0.75    0.12 
   1   7  -4    0.48    0.07 
   1   7  -4    0.57    0.14 
  -1  -7   4    0.75    0.11 
  -1  -7   4    0.55    0.09 
  -1  -7   4    0.38    0.09 
  -1  -7   4    0.41    0.11 
  -1  -7   4    0.59    0.09 
   0   7  -4    6.02    0.31 
   0   7  -4    5.54    0.37 
   0   7  -4    6.10    0.30 
   0   7  -4    5.64    0.41 
   0   7  -4    5.88    0.35 
   0   7  -4    5.44    0.37 
   0  -7   4    5.66    0.30 
   0  -7   4    5.65    0.31 
   0  -7   4    5.52    0.30 
   0  -7   4    5.77    0.29 
   0  -7   4    6.10    0.31 
  -1   7  -4    5.06    0.32 
  -1   7  -4    4.77    0.35 
  -1   7  -4    5.64    0.38 
  -1   7  -4    5.56    0.27 
   1  -7   4    4.68    0.38 
   1  -7   4    5.37    0.27 
   1  -7   4    5.45    0.29 
   1  -7   4    5.16    0.31 
   1  -7   4    4.73    0.26 
   1  -7   4    5.14    0.28 
   1  -7   4    3.95    0.40 
   1  -7   4    5.14    0.28 
  -2   7  -4    1.78    0.19 
  -2   7  -4    1.94    0.17 
  -2   7  -4    2.21    0.17 
  -2   7  -4    2.23    0.21 
   2  -7   4    1.72    0.20 
   2  -7   4    1.86    0.19 
   2  -7   4    2.24    0.16 
   2  -7   4    1.53    0.22 
   2  -7   4    1.90    0.15 
   2  -7   4    1.75    0.15 
   2  -7   4    2.14    0.17 
   2  -7   4    1.96    0.16 
  -3   7  -4    1.36    0.12 
  -3   7  -4    1.50    0.16 
  -3   7  -4    1.31    0.16 
   3  -7   4    1.26    0.13 
   3  -7   4    1.52    0.12 
   3  -7   4    1.38    0.17 
   3  -7   4    1.08    0.15 
   3  -7   4    1.45    0.13 
   3  -7   4    1.34    0.22 
   3  -7   4    1.49    0.12 
   3  -7   4    1.21    0.11 
  -4   7  -4    0.11    0.07 
  -4   7  -4    0.11    0.08 
   4  -7   4    0.09    0.08 
   4  -7   4    0.11    0.06 
   4  -7   4   -0.06    0.07 
   4  -7   4    0.00    0.07 
   4  -7   4    0.11    0.07 
   4  -7   4    0.05    0.09 
   4  -7   4    0.06    0.07 
   4  -7   4   -0.10    0.12 
   4  -7   4    0.20    0.16 
  -5   7  -4    1.45    0.13 
   5  -7   4    1.41    0.09 
   5  -7   4    1.31    0.11 
   5  -7   4    1.63    0.12 
   5  -7   4    1.53    0.13 
   5  -7   4    1.35    0.12 
   5  -7   4    1.17    0.11 
   5  -7   4    1.45    0.12 
   5  -7   4    1.45    0.12 
   5  -7   4    1.70    0.15 
   5  -7   4    1.41    0.15 
  -6   7  -4    0.76    0.07 
   6  -7   4    0.59    0.09 
   6  -7   4    0.71    0.05 
   6  -7   4    0.45    0.08 
   6  -7   4    0.54    0.07 
   6  -7   4    0.62    0.07 
   6  -7   4    0.45    0.06 
   6  -7   4    0.79    0.07 
   6   6  -4   -0.05    0.04 
   6   6  -4   -0.01    0.04 
   6   6  -4    0.00    0.05 
   6   6  -4    0.04    0.04 
   6   6  -4    0.12    0.06 
  -6  -6   4    0.06    0.06 
  -6  -6   4    0.03    0.06 
   5   6  -4    0.05    0.05 
   5   6  -4    0.01    0.08 
   5   6  -4    0.10    0.07 
   5   6  -4    0.12    0.06 
   5   6  -4   -0.03    0.08 
   5   6  -4   -0.02    0.05 
   5   6  -4    0.14    0.06 
   5   6  -4    0.13    0.08 
  -5  -6   4   -0.01    0.07 
  -5  -6   4    0.14    0.08 
  -5  -6   4    0.03    0.08 
   4   6  -4    0.64    0.10 
   4   6  -4    0.69    0.06 
   4   6  -4    0.47    0.10 
   4   6  -4    0.83    0.14 
   4   6  -4    0.53    0.09 
   4   6  -4    0.68    0.09 
  -4  -6   4    0.71    0.11 
  -4  -6   4    0.48    0.10 
  -4  -6   4    0.54    0.10 
  -4  -6   4    0.55    0.11 
  -4  -6   4    0.66    0.11 
   3   6  -4    0.53    0.09 
   3   6  -4    0.57    0.14 
   3   6  -4    0.70    0.12 
   3   6  -4    0.67    0.16 
   3   6  -4    0.57    0.06 
   3   6  -4    0.64    0.09 
  -3  -6   4    0.77    0.11 
  -3  -6   4    0.80    0.10 
  -3  -6   4    0.55    0.12 
  -3  -6   4    0.74    0.11 
  -3  -6   4    0.54    0.09 
   2   6  -4    0.50    0.14 
   2   6  -4    0.45    0.09 
   2   6  -4    0.53    0.13 
  -2  -6   4    0.23    0.10 
  -2  -6   4    0.42    0.08 
  -2  -6   4    0.36    0.10 
   1   6  -4    1.37    0.13 
   1   6  -4    1.64    0.14 
   1   6  -4    1.76    0.20 
  -1  -6   4    1.75    0.13 
  -1  -6   4    1.75    0.17 
   0   6  -4    0.27    0.10 
   0  -6   4    0.33    0.10 
   0  -6   4    0.17    0.08 
  -1   6  -4   16.76    0.98 
  -1   6  -4   14.48    0.80 
   1  -6   4   15.58    0.73 
   1  -6   4   15.12    0.71 
  -2   6  -4   48.34    2.82 
  -2   6  -4   46.77    2.47 
  -2   6  -4   49.03    2.34 
  -2   6  -4   43.52    2.06 
   2  -6   4   45.41    2.08 
   2  -6   4   47.36    2.11 
   2  -6   4   48.71    2.08 
  -3   6  -4    0.16    0.08 
  -3   6  -4   -0.02    0.08 
  -3   6  -4    0.08    0.08 
   3  -6   4    0.08    0.12 
   3  -6   4    0.04    0.09 
   3  -6   4    0.04    0.06 
   3  -6   4    0.14    0.14 
  -4   6  -4    8.70    0.44 
  -4   6  -4    9.00    0.50 
  -4   6  -4    9.90    0.52 
  -4   6  -4    8.25    0.53 
   4  -6   4    9.22    0.50 
   4  -6   4    8.92    0.45 
   4  -6   4    8.99    0.42 
   4  -6   4    7.04    0.56 
   4  -6   4    9.22    0.41 
   4  -6   4    8.46    0.43 
   4  -6   4    9.31    0.42 
   4  -6   4    8.88    0.43 
   4  -6   4    9.06    0.43 
   4  -6   4    9.06    0.41 
   4  -6   4    9.43    0.45 
   4  -6   4    9.22    0.39 
   4  -6   4    8.74    0.35 
  -5   6  -4    5.45    0.32 
   5  -6   4    5.11    0.26 
   5  -6   4    4.90    0.27 
   5  -6   4    4.80    0.25 
   5  -6   4    5.42    0.27 
   5  -6   4    4.90    0.29 
   5  -6   4    4.82    0.25 
   5  -6   4    4.65    0.27 
   5  -6   4    4.92    0.25 
   5  -6   4    5.02    0.28 
   5  -6   4    4.99    0.21 
   5  -6   4    4.85    0.32 
  -6   6  -4    2.99    0.20 
  -6   6  -4    3.20    0.19 
   6  -6   4    2.50    0.21 
   6  -6   4    3.27    0.20 
   6  -6   4    3.61    0.14 
   6  -6   4    2.96    0.18 
   6  -6   4    3.32    0.18 
   6  -6   4    3.56    0.19 
   6  -6   4    3.38    0.20 
   6  -6   4    3.29    0.19 
   6  -6   4    3.13    0.18 
   7  -6   4    0.99    0.07 
   7  -6   4    0.90    0.09 
   7   5  -4    0.02    0.03 
   7   5  -4    0.03    0.03 
   7   5  -4   -0.04    0.04 
   7   5  -4    0.02    0.02 
   7   5  -4    0.03    0.04 
   7   5  -4    0.01    0.05 
  -7  -5   4   -0.02    0.05 
   6   5  -4   18.61    0.87 
   6   5  -4   20.01    0.86 
   6   5  -4   20.25    0.95 
   6   5  -4   21.23    0.82 
   6   5  -4   20.77    0.93 
   6   5  -4   18.88    0.86 
   6   5  -4   19.81    0.72 
  -6  -5   4   20.66    0.93 
   5   5  -4    3.07    0.22 
   5   5  -4    3.29    0.17 
   5   5  -4    3.16    0.22 
   5   5  -4    3.19    0.23 
   5   5  -4    3.24    0.18 
   5   5  -4    3.05    0.20 
   5   5  -4    3.03    0.26 
   5   5  -4    3.03    0.18 
   5   5  -4    3.32    0.16 
   5   5  -4    3.15    0.18 
  -5  -5   4    3.51    0.23 
   4   5  -4    2.72    0.19 
   4   5  -4    2.70    0.27 
   4   5  -4    2.57    0.22 
   4   5  -4    2.82    0.22 
   4   5  -4    2.71    0.19 
   4   5  -4    2.57    0.21 
   4   5  -4    2.94    0.27 
   4   5  -4    2.52    0.18 
   4   5  -4    2.85    0.15 
  -4  -5   4    3.08    0.20 
  -4  -5   4    2.77    0.20 
  -4  -5   4    2.74    0.20 
   3   5  -4   -0.05    0.08 
   3   5  -4    0.07    0.11 
  -3  -5   4    0.19    0.10 
  -3  -5   4    0.16    0.09 
  -3  -5   4   -0.06    0.06 
   2   5  -4    2.90    0.25 
   2   5  -4    2.54    0.19 
   2   5  -4    2.94    0.24 
  -2  -5   4    2.71    0.18 
  -2  -5   4    2.81    0.18 
   1   5  -4    0.19    0.08 
   1   5  -4    0.62    0.11 
  -1  -5   4    0.20    0.06 
  -1  -5   4    0.25    0.08 
   0   5  -4   23.94    1.42 
   0  -5   4   22.67    1.04 
  -1   5  -4    0.39    0.10 
  -1   5  -4    0.43    0.08 
   1  -5   4    0.46    0.08 
  -2   5  -4   12.31    0.63 
  -2   5  -4   11.06    0.74 
   2  -5   4   11.88    0.55 
  -3   5  -4    5.08    0.30 
   3  -5   4    4.68    0.27 
   3  -5   4    4.89    0.26 
   3  -5   4    4.55    0.22 
   3  -5   4    4.55    0.26 
  -4   5  -4   11.61    0.54 
  -4   5  -4   11.51    0.61 
  -4   5  -4   11.45    0.63 
   4  -5   4   10.86    0.56 
   4  -5   4   11.27    0.54 
   4  -5   4   10.62    0.46 
   4  -5   4   11.23    0.54 
   4  -5   4   10.97    0.51 
   4  -5   4   11.53    0.53 
   4  -5   4   10.67    0.50 
  -5   5  -4   25.06    1.36 
  -5   5  -4   26.27    1.18 
   5  -5   4   26.37    1.16 
   5  -5   4   25.02    1.13 
   5  -5   4   27.31    1.14 
   5  -5   4   24.65    0.99 
   5  -5   4   23.75    1.20 
   5  -5   4   25.15    1.12 
   5  -5   4   24.99    0.92 
   5  -5   4   25.67    1.05 
   5  -5   4   24.51    1.11 
   5  -5   4   25.55    1.07 
   5  -5   4   26.76    1.07 
   5  -5   4   24.92    1.09 
  -6   5  -4    0.52    0.09 
   6  -5   4    0.46    0.08 
   6  -5   4    0.54    0.05 
   6  -5   4    0.52    0.07 
   6  -5   4    0.53    0.08 
   6  -5   4    0.46    0.08 
   6  -5   4    0.49    0.08 
   6  -5   4    0.50    0.09 
   6  -5   4    0.72    0.11 
   6  -5   4    0.72    0.11 
   7  -5   4    8.35    0.42 
   7  -5   4    9.33    0.40 
   7  -5   4    9.38    0.41 
   7  -5   4    8.64    0.38 
   7  -5   4    8.89    0.41 
   7  -5   4    8.58    0.32 
   7   4  -4    7.98    0.36 
   7   4  -4    8.10    0.30 
   7   4  -4    7.86    0.41 
   7   4  -4    8.17    0.36 
   7   4  -4    8.18    0.40 
   7   4  -4    7.75    0.34 
   6   4  -4    0.34    0.07 
   6   4  -4    0.25    0.07 
   6   4  -4    0.36    0.07 
   6   4  -4    0.37    0.08 
   6   4  -4    0.33    0.05 
   6   4  -4    0.24    0.09 
   6   4  -4    0.36    0.11 
   5   4  -4    0.14    0.08 
   5   4  -4    0.15    0.09 
   5   4  -4    0.08    0.06 
   5   4  -4    0.02    0.13 
   5   4  -4    0.18    0.06 
   5   4  -4    0.22    0.08 
   5   4  -4    0.14    0.09 
   5   4  -4    0.15    0.10 
   5   4  -4    0.09    0.11 
   5   4  -4    0.14    0.07 
   5   4  -4    0.10    0.11 
   5   4  -4    0.17    0.08 
  -5  -4   4    0.20    0.07 
  -5  -4   4    0.10    0.11 
   4   4  -4    1.71    0.13 
   4   4  -4    1.69    0.23 
   4   4  -4    1.53    0.12 
   4   4  -4    1.71    0.10 
   4   4  -4    1.96    0.16 
  -4  -4   4    1.71    0.17 
  -4  -4   4    2.07    0.15 
   3   4  -4    3.68    0.17 
   3   4  -4    3.60    0.19 
   3   4  -4    3.81    0.30 
   3   4  -4    3.30    0.23 
  -3  -4   4    3.75    0.22 
  -3  -4   4    3.74    0.21 
  -3  -4   4    3.50    0.23 
   2   4  -4   16.40    0.70 
   2   4  -4   17.00    0.99 
   2   4  -4   15.91    1.03 
  -2  -4   4   14.52    0.71 
  -2  -4   4   16.05    0.73 
   1   4  -4    0.28    0.08 
   1   4  -4    0.16    0.08 
  -1  -4   4    0.12    0.05 
   0   4  -4  150.81    8.46 
   0   4  -4  133.40    7.01 
   0  -4   4  147.09    6.25 
  -1   4  -4   84.00    5.13 
  -1   4  -4   87.66    4.26 
   1  -4   4   89.27    3.79 
  -2   4  -4    9.31    0.59 
  -2   4  -4    8.23    0.51 
  -2   4  -4    9.88    0.50 
   2  -4   4    9.04    0.45 
   2  -4   4    9.72    0.43 
  -3   4  -4   -0.02    0.06 
  -3   4  -4    0.03    0.05 
   3  -4   4    0.03    0.05 
   3  -4   4    0.01    0.06 
   3  -4   4    0.02    0.04 
  -4   4  -4    7.67    0.37 
  -4   4  -4    7.10    0.42 
  -4   4  -4    6.76    0.43 
   4  -4   4    7.10    0.35 
   4  -4   4    8.24    0.37 
   4  -4   4    7.27    0.31 
   4  -4   4    7.52    0.38 
   4  -4   4    7.58    0.39 
   4  -4   4    6.98    0.39 
  -5   4  -4   13.19    0.60 
  -5   4  -4   12.14    0.69 
   5  -4   4   12.85    0.59 
   5  -4   4   12.69    0.52 
   5  -4   4   13.07    0.58 
   5  -4   4   12.12    0.58 
   5  -4   4   12.12    0.46 
   5  -4   4   11.21    0.57 
   5  -4   4   12.29    0.55 
   5  -4   4   12.67    0.60 
   5  -4   4   12.43    0.56 
   5  -4   4   12.84    0.54 
   5  -4   4   12.48    0.55 
   5  -4   4   11.80    0.57 
   6  -4   4    6.69    0.35 
   6  -4   4    6.57    0.31 
   6  -4   4    6.26    0.33 
   6  -4   4    6.85    0.34 
   6  -4   4    6.78    0.35 
   6  -4   4    6.79    0.26 
   6  -4   4    7.05    0.32 
   6  -4   4    6.85    0.36 
   6  -4   4    6.70    0.33 
   7  -4   4    4.76    0.24 
   7  -4   4    4.54    0.18 
   7  -4   4    4.85    0.22 
   7  -4   4    4.87    0.25 
   7  -4   4    4.61    0.24 
   7  -4   4    4.39    0.25 
   7  -4   4    4.71    0.23 
   8   3  -4    5.38    0.23 
   8   3  -4    5.06    0.26 
   8   3  -4    4.84    0.21 
   7   3  -4    8.28    0.37 
   7   3  -4    8.88    0.33 
   7   3  -4    8.97    0.45 
   7   3  -4    9.06    0.41 
   7   3  -4    8.72    0.41 
   7   3  -4    9.45    0.45 
   7   3  -4    9.12    0.41 
   6   3  -4    4.62    0.24 
   6   3  -4    4.64    0.24 
   6   3  -4    4.36    0.27 
   6   3  -4    4.41    0.26 
   6   3  -4    4.57    0.19 
   6   3  -4    4.61    0.23 
   6   3  -4    4.70    0.29 
  -6  -3   4    4.25    0.25 
   5   3  -4    0.31    0.05 
   5   3  -4    0.37    0.07 
   5   3  -4    0.31    0.11 
   5   3  -4    0.48    0.11 
   5   3  -4    0.37    0.11 
   5   3  -4    0.29    0.08 
   5   3  -4    0.44    0.08 
  -5  -3   4    0.32    0.09 
  -5  -3   4    0.38    0.10 
   4   3  -4    0.72    0.10 
   4   3  -4    0.75    0.06 
   4   3  -4    0.67    0.12 
   4   3  -4    0.65    0.07 
   4   3  -4    0.73    0.08 
  -4  -3   4    0.83    0.09 
  -4  -3   4    0.57    0.11 
   3   3  -4    5.77    0.27 
   3   3  -4    5.73    0.41 
   3   3  -4    5.40    0.24 
  -3  -3   4    6.18    0.30 
  -3  -3   4    5.59    0.28 
   2   3  -4   23.66    0.93 
   2   3  -4   23.96    1.03 
   2   3  -4   23.85    1.50 
  -2  -3   4   24.67    1.04 
  -2  -3   4   23.31    1.06 
   1   3  -4    9.70    0.51 
   1   3  -4    9.97    0.64 
   1   3  -4   10.32    0.62 
  -1  -3   4    9.16    0.45 
  -1  -3   4   10.10    0.45 
   0   3  -4   15.58    0.79 
   0   3  -4   16.31    0.95 
   0  -3   4   14.49    0.68 
   0  -3   4   15.94    0.70 
  -1   3  -4   21.04    1.16 
  -1   3  -4   22.61    1.09 
  -1   3  -4   21.84    1.31 
   1  -3   4   21.90    0.97 
  -2   3  -4    2.68    0.18 
  -2   3  -4    3.01    0.18 
  -2   3  -4    2.51    0.15 
   2  -3   4    2.76    0.17 
   2  -3   4    2.73    0.13 
   2  -3   4    2.65    0.15 
  -3   3  -4    0.84    0.10 
  -3   3  -4    0.85    0.09 
  -3   3  -4    0.82    0.09 
   3  -3   4    0.82    0.08 
   3  -3   4    0.83    0.08 
   3  -3   4    0.79    0.07 
  -4   3  -4    1.90    0.18 
  -4   3  -4    2.36    0.15 
  -4   3  -4    2.28    0.17 
   4  -3   4    2.32    0.12 
   4  -3   4    2.41    0.16 
   4  -3   4    2.05    0.16 
  -5   3  -4    7.45    0.38 
  -5   3  -4    8.12    0.38 
   5  -3   4    7.18    0.39 
   5  -3   4    7.46    0.40 
   5  -3   4    7.60    0.36 
   5  -3   4    7.54    0.37 
   5  -3   4    7.02    0.31 
   5  -3   4    6.99    0.37 
   5  -3   4    7.09    0.36 
  -6   3  -4   11.43    0.55 
   6  -3   4   11.76    0.50 
   6  -3   4   11.38    0.54 
   6  -3   4   11.26    0.42 
   6  -3   4   11.29    0.54 
   6  -3   4   11.27    0.54 
   6  -3   4   11.33    0.54 
   6  -3   4   11.12    0.55 
   6  -3   4   11.94    0.56 
   6  -3   4   11.98    0.51 
   6  -3   4   11.12    0.53 
  -7   3  -4    6.91    0.33 
   7  -3   4    7.57    0.32 
   7  -3   4    7.10    0.34 
   7  -3   4    6.43    0.35 
   7  -3   4    7.24    0.34 
   7  -3   4    7.35    0.33 
   7  -3   4    7.34    0.26 
   7  -3   4    6.95    0.36 
   8  -3   4    1.96    0.11 
   8   2  -4   14.28    0.59 
   8   2  -4   12.96    0.59 
   8   2  -4   13.82    0.65 
   7   2  -4    0.07    0.06 
   7   2  -4   -0.02    0.07 
   7   2  -4    0.06    0.03 
   7   2  -4    0.10    0.10 
   7   2  -4    0.13    0.05 
   7   2  -4    0.07    0.07 
   7   2  -4   -0.01    0.05 
   6   2  -4   -0.02    0.11 
   6   2  -4    0.05    0.06 
   6   2  -4    0.06    0.06 
   6   2  -4    0.13    0.11 
   6   2  -4    0.06    0.08 
   6   2  -4    0.09    0.07 
   6   2  -4    0.05    0.06 
   6   2  -4    0.10    0.07 
   6   2  -4    0.00    0.04 
   6   2  -4    0.06    0.07 
  -6  -2   4    0.04    0.11 
   5   2  -4    0.08    0.08 
   5   2  -4   -0.01    0.06 
   5   2  -4    0.01    0.03 
   5   2  -4    0.10    0.05 
   5   2  -4    0.13    0.08 
  -5  -2   4    0.16    0.09 
  -5  -2   4    0.11    0.07 
   4   2  -4   15.25    0.60 
   4   2  -4   15.38    0.67 
   4   2  -4   15.13    0.98 
   4   2  -4   13.83    0.67 
  -4  -2   4   14.47    0.68 
  -4  -2   4   16.95    0.70 
   3   2  -4    2.50    0.21 
   3   2  -4    2.50    0.11 
   3   2  -4    2.33    0.13 
  -3  -2   4    2.42    0.17 
  -3  -2   4    2.28    0.14 
   2   2  -4   11.32    0.72 
   2   2  -4   11.63    0.49 
   2   2  -4   10.81    0.44 
  -2  -2   4   10.67    0.50 
  -2  -2   4   11.71    0.51 
   1   2  -4   13.84    0.54 
   1   2  -4   14.26    0.59 
   1   2  -4   13.39    0.87 
   1   2  -4   13.45    0.69 
  -1  -2   4   14.08    0.84 
  -1  -2   4   13.40    0.61 
   0   2  -4    0.18    0.04 
   0   2  -4    0.18    0.06 
   0   2  -4    0.24    0.05 
   0  -2   4    0.20    0.06 
  -1   2  -4   26.53    1.31 
  -1   2  -4   23.61    1.21 
  -1   2  -4   24.76    1.47 
  -1   2  -4   24.98    1.23 
   1  -2   4   24.65    1.06 
   1  -2   4   23.04    1.09 
   1  -2   4   25.51    0.96 
  -2   2  -4    2.40    0.16 
  -2   2  -4    2.64    0.16 
  -2   2  -4    2.41    0.14 
   2  -2   4    2.56    0.16 
   2  -2   4    2.56    0.12 
   2  -2   4    2.53    0.14 
   2  -2   4    2.61    0.16 
  -3   2  -4   38.24    2.00 
  -3   2  -4   38.25    1.72 
  -3   2  -4   36.76    1.87 
   3  -2   4   38.60    1.66 
   3  -2   4   37.13    1.46 
   3  -2   4   37.46    1.62 
  -4   2  -4    4.88    0.26 
   4  -2   4    4.76    0.21 
   4  -2   4    5.16    0.25 
   4  -2   4    4.59    0.25 
  -5   2  -4    1.48    0.13 
  -5   2  -4    1.44    0.13 
   5  -2   4    1.37    0.14 
   5  -2   4    1.49    0.10 
   5  -2   4    1.41    0.13 
   5  -2   4    1.52    0.13 
   5  -2   4    1.57    0.13 
   5  -2   4    1.17    0.12 
  -6   2  -4    5.26    0.29 
   6  -2   4    5.55    0.27 
   6  -2   4    5.56    0.29 
   6  -2   4    5.74    0.30 
   6  -2   4    5.54    0.30 
   6  -2   4    5.43    0.27 
   6  -2   4    5.09    0.31 
   6  -2   4    5.44    0.22 
   6  -2   4    5.80    0.29 
   6  -2   4    6.01    0.31 
   6  -2   4    5.36    0.30 
   7  -2   4    4.09    0.16 
   7  -2   4    4.20    0.20 
   7  -2   4    3.93    0.21 
   7  -2   4    4.05    0.22 
   7  -2   4    3.97    0.22 
   7  -2   4    4.23    0.23 
   7  -2   4    4.11    0.22 
   8  -2   4    0.00    0.03 
   8  -2   4    0.05    0.04 
   8   1  -4    2.29    0.14 
   7   1  -4    6.26    0.30 
   7   1  -4    6.27    0.30 
   7   1  -4    5.75    0.29 
   7   1  -4    6.41    0.34 
   6   1  -4    7.98    0.45 
   6   1  -4    8.08    0.39 
   6   1  -4    7.53    0.39 
   6   1  -4    8.83    0.39 
  -6  -1   4    9.06    0.43 
   5   1  -4    6.95    0.34 
   5   1  -4    7.27    0.28 
   5   1  -4    6.18    0.36 
   5   1  -4    7.20    0.33 
   5   1  -4    6.90    0.50 
  -5  -1   4    7.72    0.37 
   4   1  -4    0.21    0.06 
   4   1  -4    0.21    0.03 
   4   1  -4    0.26    0.09 
  -4  -1   4    0.25    0.08 
   3   1  -4    5.65    0.26 
   3   1  -4    5.61    0.39 
   3   1  -4    5.76    0.23 
  -3  -1   4    5.55    0.28 
   2   1  -4   27.31    1.75 
   2   1  -4   25.71    1.39 
   2   1  -4   29.25    1.20 
   2   1  -4   28.63    1.09 
  -2  -1   4   27.55    1.21 
  -2  -1   4   30.88    1.69 
   1   1  -4   14.40    0.75 
   1   1  -4   14.10    0.55 
  -1  -1   4   14.84    0.86 
  -1  -1   4   13.09    0.62 
   0   1  -4   20.55    1.03 
   0   1  -4   23.26    1.10 
   0   1  -4   20.68    1.02 
   0  -1   4   18.99    1.23 
   0  -1   4   20.64    0.90 
  -1   1  -4   13.40    0.68 
  -1   1  -4   12.02    0.63 
   1  -1   4   12.67    0.50 
   1  -1   4   12.21    0.56 
  -2   1  -4   26.13    1.21 
  -2   1  -4   25.67    1.31 
  -2   1  -4   27.96    1.40 
   2  -1   4   25.59    1.16 
   2  -1   4   26.29    1.03 
   2  -1   4   27.04    1.14 
  -3   1  -4    9.92    0.55 
  -3   1  -4   10.07    0.47 
  -3   1  -4   10.28    0.48 
   3  -1   4    9.77    0.46 
   3  -1   4    9.55    0.40 
   3  -1   4   10.04    0.45 
  -4   1  -4   24.39    1.43 
  -4   1  -4   27.35    1.25 
  -4   1  -4   27.05    1.24 
   4  -1   4   28.15    1.19 
   4  -1   4   27.68    1.17 
   4  -1   4   26.27    1.05 
  -5   1  -4    3.77    0.22 
  -5   1  -4    3.65    0.21 
   5  -1   4    3.56    0.17 
   5  -1   4    3.51    0.22 
   5  -1   4    3.45    0.21 
   5  -1   4    3.27    0.25 
   5  -1   4    3.77    0.22 
   5  -1   4    3.85    0.23 
   5  -1   4    3.41    0.21 
   6  -1   4    1.61    0.15 
   6  -1   4    1.87    0.15 
   6  -1   4    1.77    0.11 
   6  -1   4    1.69    0.13 
   6  -1   4    1.82    0.18 
   6  -1   4    1.61    0.15 
   6  -1   4    1.93    0.15 
   6  -1   4    1.74    0.14 
   6  -1   4    1.40    0.13 
  -7   1  -4    0.21    0.06 
   7  -1   4    0.16    0.07 
   7  -1   4    0.10    0.06 
   7  -1   4    0.11    0.07 
   7  -1   4    0.22    0.07 
   7  -1   4    0.20    0.08 
   7  -1   4    0.10    0.07 
   7  -1   4    0.09    0.04 
   8  -1   4    0.05    0.04 
   8  -1   4    0.02    0.03 
   8  -1   4    0.02    0.03 
   6   0  -4    2.83    0.17 
   6   0  -4    2.59    0.22 
  -6   0   4    2.95    0.20 
   5   0  -4   10.56    0.48 
   5   0  -4   10.27    0.69 
   5   0  -4   10.57    0.41 
   5   0  -4   10.59    0.48 
   5   0  -4    9.67    0.50 
  -5   0   4   11.42    0.51 
   4   0  -4   10.41    0.40 
   4   0  -4    9.85    0.45 
   4   0  -4   10.26    0.67 
  -4   0   4   10.15    0.47 
  -4   0   4    9.74    0.66 
   3   0  -4    3.60    0.18 
   3   0  -4    4.02    0.16 
   3   0  -4    4.24    0.28 
   3   0  -4    3.26    0.22 
  -3   0   4    4.00    0.31 
  -3   0   4    3.77    0.20 
   2   0  -4    0.19    0.06 
   2   0  -4    0.11    0.04 
   2   0  -4    0.10    0.02 
   2   0  -4    0.12    0.03 
   2   0  -4    0.13    0.06 
  -2   0   4    0.06    0.08 
  -2   0   4    0.16    0.05 
   1   0  -4    5.91    0.24 
   1   0  -4    6.22    0.33 
  -1   0   4    5.36    0.28 
  -1   0   4    6.04    0.39 
   0   0  -4   20.51    0.99 
   0   0  -4   17.98    0.91 
   0   0   4   17.97    0.81 
   0   0   4   18.38    1.12 
  -1   0  -4    0.46    0.06 
  -1   0  -4    0.42    0.04 
  -1   0  -4    0.37    0.04 
   1   0   4    0.38    0.08 
   1   0   4    0.39    0.05 
  -2   0  -4    5.26    0.26 
  -2   0  -4    5.53    0.30 
  -2   0  -4    5.13    0.26 
   2   0   4    5.04    0.25 
   2   0   4    5.15    0.22 
   2   0   4    5.18    0.26 
  -3   0  -4   16.90    0.92 
  -3   0  -4   17.90    0.80 
  -3   0  -4   17.00    0.79 
   3   0   4   16.54    0.67 
   3   0   4   17.78    0.76 
   3   0   4   16.56    0.76 
  -4   0  -4    4.03    0.23 
  -4   0  -4    4.56    0.24 
   4   0   4    3.94    0.19 
   4   0   4    4.39    0.23 
   4   0   4    4.15    0.22 
   4   0   4    4.22    0.23 
  -5   0  -4   22.70    1.08 
  -5   0  -4   23.69    1.09 
   5   0   4   23.24    1.03 
   5   0   4   23.43    0.98 
   5   0   4   22.47    1.07 
   5   0   4   22.50    0.97 
   5   0   4   24.67    1.05 
   5   0   4   22.31    1.01 
   5   0   4   22.60    0.91 
   5   0   4   24.09    1.03 
  -6   0  -4    0.03    0.06 
   6   0   4    0.02    0.08 
   6   0   4    0.10    0.07 
   6   0   4    0.05    0.08 
   6   0   4    0.00    0.08 
   6   0   4   -0.10    0.09 
   6   0   4   -0.05    0.08 
   6   0   4    0.18    0.09 
   6   0   4    0.01    0.05 
   6   0   4    0.07    0.08 
   6   0   4    0.02    0.09 
   6   0   4    0.00    0.05 
  -7   0  -4    5.05    0.25 
   7   0   4    5.08    0.25 
   7   0   4    5.50    0.24 
   7   0   4    5.70    0.28 
   7   0   4    5.74    0.28 
   7   0   4    5.23    0.27 
   7   0   4    5.45    0.29 
   7   0   4    5.25    0.25 
   7   0   4    5.48    0.21 
   8   0   4    5.69    0.23 
   8   0   4    5.80    0.24 
   5  -1  -4   11.58    0.76 
   4  -1  -4    0.96    0.05 
   4  -1  -4    0.85    0.09 
   4  -1  -4    1.11    0.14 
  -4   1   4    0.94    0.15 
   3  -1  -4    5.54    0.32 
   3  -1  -4    6.34    0.23 
   3  -1  -4    5.37    0.33 
   3  -1  -4    6.17    0.40 
   3  -1  -4    5.54    0.26 
  -3   1   4    5.85    0.41 
  -3   1   4    5.81    0.28 
   2  -1  -4   18.30    0.68 
   2  -1  -4   17.69    0.93 
   2  -1  -4   16.89    0.87 
   2  -1  -4   17.75    1.09 
  -2   1   4   16.50    0.76 
  -2   1   4   17.73    1.06 
   1  -1  -4   79.14    2.89 
   1  -1  -4   73.31    3.69 
   1  -1  -4   78.83    3.95 
   1  -1  -4   73.00    4.61 
  -1   1   4   70.41    3.19 
  -1   1   4   78.06    4.42 
   0  -1  -4   69.71    2.66 
   0  -1  -4   73.21    3.63 
   0   1   4   70.01    4.06 
   0   1   4   64.19    2.93 
  -1  -1  -4    1.60    0.10 
  -1  -1  -4    1.77    0.12 
   1   1   4    1.75    0.15 
   1   1   4    1.36    0.12 
  -2  -1  -4   41.16    1.84 
  -2  -1  -4   37.31    1.82 
  -2  -1  -4   38.69    2.11 
   2   1   4   41.91    2.37 
   2   1   4   41.47    1.55 
   2   1   4   39.99    1.71 
  -3  -1  -4   10.45    0.48 
  -3  -1  -4    8.79    0.60 
  -3  -1  -4    9.90    0.47 
  -3  -1  -4    9.69    0.55 
   3   1   4   10.49    0.46 
   3   1   4    9.90    0.45 
   3   1   4   10.10    0.40 
  -4  -1  -4    8.56    0.42 
  -4  -1  -4    8.82    0.43 
   4   1   4    9.14    0.41 
   4   1   4    8.28    0.41 
   4   1   4    8.73    0.41 
   4   1   4    7.89    0.35 
  -5  -1  -4    0.75    0.08 
  -5  -1  -4    0.70    0.10 
   5   1   4    0.98    0.12 
   5   1   4    0.96    0.10 
   5   1   4    0.73    0.11 
   5   1   4    0.82    0.12 
   5   1   4    0.76    0.09 
   5   1   4    0.83    0.10 
   5   1   4    0.64    0.09 
   5   1   4    0.68    0.07 
  -6  -1  -4    2.21    0.14 
   6   1   4    2.14    0.14 
   6   1   4    2.22    0.18 
   6   1   4    2.18    0.16 
   6   1   4    2.23    0.14 
   6   1   4    2.07    0.16 
   6   1   4    2.32    0.17 
   6   1   4    1.96    0.18 
   6   1   4    2.05    0.13 
   6   1   4    2.43    0.19 
   6   1   4    2.29    0.16 
   6   1   4    2.05    0.20 
  -7  -1  -4    3.98    0.19 
  -7  -1  -4    4.03    0.21 
   7   1   4    3.77    0.20 
   7   1   4    4.05    0.18 
   7   1   4    3.94    0.21 
   7   1   4    4.06    0.16 
   7   1   4    3.78    0.19 
   7   1   4    3.93    0.21 
   7   1   4    3.85    0.23 
   7   1   4    3.73    0.19 
   5  -2  -4    0.00    0.06 
   5  -2  -4    0.02    0.02 
   5  -2  -4    0.11    0.08 
   4  -2  -4    0.72    0.10 
   4  -2  -4    0.67    0.05 
   4  -2  -4    0.62    0.09 
   4  -2  -4    0.79    0.09 
  -4   2   4    0.75    0.15 
   3  -2  -4    3.38    0.21 
   3  -2  -4    3.15    0.21 
   3  -2  -4    3.56    0.14 
   3  -2  -4    3.66    0.26 
  -3   2   4    3.07    0.27 
   2  -2  -4   52.08    2.75 
   2  -2  -4   53.62    3.21 
   2  -2  -4   51.95    2.57 
   2  -2  -4   53.41    2.01 
  -2   2   4   49.98    3.08 
   1  -2  -4    0.99    0.10 
   1  -2  -4    1.05    0.13 
   1  -2  -4    1.04    0.07 
   1  -2  -4    1.17    0.10 
  -1   2   4    1.07    0.15 
  -1   2   4    0.76    0.13 
   0  -2  -4  109.94    4.94 
   0  -2  -4  115.96    5.68 
   0  -2  -4  109.84    5.30 
   0   2   4  107.15    4.58 
   0   2   4   91.74    6.64 
   0   2   4  117.10    6.36 
  -1  -2  -4    7.12    0.35 
  -1  -2  -4    7.03    0.39 
  -1  -2  -4    6.96    0.34 
   1   2   4    6.93    0.33 
   1   2   4    7.16    0.46 
  -2  -2  -4    1.96    0.14 
  -2  -2  -4    2.01    0.13 
  -2  -2  -4    2.10    0.14 
   2   2   4    2.04    0.18 
   2   2   4    1.91    0.14 
  -3  -2  -4   19.56    0.91 
  -3  -2  -4   20.97    0.93 
   3   2   4   19.59    1.11 
   3   2   4   18.57    0.87 
   3   2   4   19.65    0.86 
  -4  -2  -4    6.40    0.33 
  -4  -2  -4    6.16    0.29 
   4   2   4    5.84    0.32 
   4   2   4    6.56    0.32 
   4   2   4    6.10    0.34 
  -5  -2  -4    5.24    0.27 
  -5  -2  -4    4.63    0.29 
  -5  -2  -4    5.43    0.27 
   5   2   4    5.34    0.30 
   5   2   4    5.09    0.29 
   5   2   4    5.78    0.29 
   5   2   4    5.31    0.28 
   5   2   4    5.32    0.27 
   5   2   4    5.07    0.26 
   5   2   4    5.33    0.28 
   5   2   4    5.26    0.28 
   5   2   4    5.34    0.23 
   5   2   4    5.30    0.30 
   5   2   4    5.62    0.31 
  -6  -2  -4   -0.04    0.07 
  -6  -2  -4    0.13    0.08 
  -6  -2  -4    0.02    0.05 
   6   2   4    0.02    0.07 
   6   2   4   -0.02    0.07 
   6   2   4    0.16    0.09 
   6   2   4    0.01    0.07 
   6   2   4    0.07    0.06 
   6   2   4    0.07    0.07 
   6   2   4    0.08    0.08 
   6   2   4   -0.06    0.07 
   6   2   4    0.14    0.07 
   6   2   4    0.07    0.07 
   6   2   4   -0.07    0.06 
  -7  -2  -4    1.82    0.11 
  -7  -2  -4    2.27    0.14 
   7   2   4    1.99    0.13 
   7   2   4    2.39    0.15 
   7   2   4    1.78    0.12 
   7   2   4    2.03    0.10 
   7   2   4    1.84    0.14 
   7   2   4    2.04    0.12 
   7   2   4    1.93    0.14 
   7   2   4    1.87    0.11 
   7   2   4    1.99    0.12 
   5  -3  -4   21.59    1.09 
   5  -3  -4   22.26    0.98 
   5  -3  -4   20.06    0.82 
   4  -3  -4    2.58    0.20 
   4  -3  -4    3.44    0.20 
   4  -3  -4    3.07    0.24 
   4  -3  -4    3.15    0.13 
  -4   3   4    2.41    0.29 
   3  -3  -4   14.76    0.73 
   3  -3  -4   14.67    0.55 
   3  -3  -4   13.56    0.77 
   3  -3  -4   14.91    0.90 
  -3   3   4   12.31    0.88 
   2  -3  -4   14.83    0.70 
   2  -3  -4   14.37    0.54 
   2  -3  -4   14.25    0.75 
  -2   3   4   12.75    0.78 
  -2   3   4   11.77    0.90 
  -2   3   4   13.92    0.85 
   1  -3  -4    4.42    0.22 
   1  -3  -4    4.26    0.18 
   1  -3  -4    4.15    0.25 
   1  -3  -4    4.13    0.24 
  -1   3   4    4.45    0.31 
  -1   3   4    3.67    0.34 
  -1   3   4    3.59    0.29 
   0  -3  -4    1.61    0.12 
   0  -3  -4    1.60    0.12 
   0   3   4    1.74    0.17 
   0   3   4    1.58    0.18 
   0   3   4    1.42    0.19 
  -1  -3  -4   13.34    0.61 
  -1  -3  -4   12.96    0.61 
  -1  -3  -4   12.45    0.70 
   1   3   4   11.43    0.84 
   1   3   4   13.87    0.81 
   1   3   4   13.23    0.74 
  -2  -3  -4    0.21    0.07 
  -2  -3  -4    0.31    0.07 
   2   3   4    0.25    0.08 
   2   3   4    0.27    0.06 
  -3  -3  -4   62.59    2.77 
  -3  -3  -4   57.47    2.53 
   3   3   4   58.04    2.59 
   3   3   4   63.24    3.30 
   3   3   4   59.77    2.57 
  -4  -3  -4    0.70    0.09 
  -4  -3  -4    0.86    0.09 
  -4  -3  -4    0.96    0.13 
   4   3   4    0.80    0.12 
   4   3   4    0.80    0.09 
   4   3   4    0.91    0.12 
   4   3   4    0.77    0.10 
   4   3   4    0.77    0.10 
  -5  -3  -4    1.95    0.15 
  -5  -3  -4    2.01    0.18 
  -5  -3  -4    2.19    0.14 
   5   3   4    2.12    0.17 
   5   3   4    2.24    0.18 
   5   3   4    1.98    0.16 
   5   3   4    2.28    0.18 
   5   3   4    2.12    0.22 
   5   3   4    2.03    0.18 
   5   3   4    2.36    0.19 
   5   3   4    2.05    0.16 
  -6  -3  -4    1.62    0.12 
  -6  -3  -4    1.55    0.12 
  -6  -3  -4    1.55    0.14 
   6   3   4    1.09    0.12 
   6   3   4    1.51    0.13 
   6   3   4    1.65    0.13 
   6   3   4    1.50    0.10 
   6   3   4    1.74    0.14 
   6   3   4    1.60    0.14 
   6   3   4    1.57    0.13 
   6   3   4    1.54    0.10 
  -7  -3  -4    0.12    0.04 
   7   3   4    0.14    0.04 
   7   3   4    0.11    0.04 
   7   3   4    0.15    0.04 
   7   3   4    0.13    0.03 
   6  -4  -4   17.59    1.01 
   6  -4  -4   20.71    0.89 
   6  -4  -4   20.26    0.93 
   6  -4  -4   20.23    1.12 
   5  -4  -4   12.24    0.66 
   5  -4  -4   11.79    0.57 
   5  -4  -4   11.66    0.48 
   5  -4  -4   13.35    0.57 
   5  -4  -4   12.73    0.59 
  -5   4   4   11.73    0.81 
   4  -4  -4    0.21    0.07 
   4  -4  -4    0.10    0.04 
   4  -4  -4    0.06    0.07 
  -4   4   4    0.03    0.12 
  -4   4   4    0.03    0.14 
   3  -4  -4    5.92    0.23 
   3  -4  -4    4.90    0.32 
   3  -4  -4    5.86    0.32 
  -3   4   4    4.94    0.45 
   2  -4  -4    9.61    0.55 
   2  -4  -4    9.66    0.48 
   2  -4  -4    9.86    0.39 
   2  -4  -4   10.30    0.52 
  -2   4   4    9.67    0.63 
  -2   4   4    9.47    0.68 
  -2   4   4    9.33    0.64 
   1  -4  -4    1.08    0.08 
   1  -4  -4    0.92    0.10 
   1  -4  -4    1.00    0.11 
   1  -4  -4    1.08    0.11 
  -1   4   4    1.03    0.13 
  -1   4   4    1.30    0.17 
  -1   4   4    1.19    0.19 
  -1   4   4    0.96    0.13 
   0  -4  -4    7.27    0.44 
   0  -4  -4    7.94    0.39 
   0   4   4    7.94    0.56 
   0   4   4    8.32    0.53 
   0   4   4    7.63    0.48 
  -1  -4  -4    0.77    0.09 
   1   4   4    0.61    0.13 
   1   4   4    0.79    0.11 
   1   4   4    0.70    0.13 
  -2  -4  -4    0.19    0.07 
  -2  -4  -4    0.18    0.08 
   2   4   4    0.06    0.09 
  -3  -4  -4    0.02    0.07 
  -3  -4  -4    0.09    0.08 
  -3  -4  -4   -0.03    0.08 
   3   4   4   -0.20    0.10 
   3   4   4    0.11    0.08 
  -4  -4  -4   16.43    0.71 
  -4  -4  -4   17.17    0.76 
  -4  -4  -4   16.88    0.75 
  -4  -4  -4   16.86    0.73 
   4   4   4   16.83    0.76 
   4   4   4   17.04    0.85 
   4   4   4   17.47    0.76 
   4   4   4   16.48    0.69 
   4   4   4   16.02    0.82 
   4   4   4   17.15    0.76 
  -5  -4  -4    0.77    0.08 
  -5  -4  -4    0.64    0.08 
  -5  -4  -4    0.82    0.09 
   5   4   4    0.73    0.09 
   5   4   4    0.78    0.09 
   5   4   4    0.77    0.08 
   5   4   4    0.79    0.10 
   5   4   4    0.71    0.09 
   5   4   4    0.69    0.09 
   5   4   4    0.66    0.11 
  -6  -4  -4    0.94    0.09 
  -6  -4  -4    0.90    0.09 
  -6  -4  -4    0.86    0.08 
  -6  -4  -4    0.94    0.09 
   6   4   4    1.02    0.09 
   6   4   4    1.02    0.10 
   6   4   4    0.98    0.10 
   6   4   4    1.03    0.09 
   6   4   4    1.13    0.10 
   6   4   4    1.09    0.08 
   6  -5  -4    9.05    0.49 
   6  -5  -4    9.12    0.44 
   6  -5  -4    9.14    0.44 
   6  -5  -4    8.96    0.38 
   6  -5  -4    9.76    0.57 
   6  -5  -4    9.39    0.46 
   6  -5  -4    9.06    0.40 
   5  -5  -4   32.44    1.34 
   5  -5  -4   29.26    1.54 
   5  -5  -4   30.18    1.67 
   5  -5  -4   30.15    1.08 
   5  -5  -4   31.27    1.46 
   5  -5  -4   30.78    1.33 
   5  -5  -4   30.25    1.40 
   5  -5  -4   27.03    1.52 
   5  -5  -4   29.23    1.37 
   5  -5  -4   30.15    1.16 
   5  -5  -4   30.10    1.20 
   4  -5  -4   24.74    1.08 
   4  -5  -4   22.00    0.91 
   4  -5  -4   23.20    1.01 
   4  -5  -4   23.70    1.04 
   4  -5  -4   25.38    1.06 
   4  -5  -4   22.69    1.19 
  -4   5   4   21.33    1.52 
  -4   5   4   23.58    1.46 
   3  -5  -4   55.40    2.68 
   3  -5  -4   57.35    2.42 
   3  -5  -4   54.07    2.27 
  -3   5   4   49.29    3.36 
  -3   5   4   53.20    3.23 
   2  -5  -4    0.08    0.04 
   2  -5  -4    0.08    0.08 
   2  -5  -4    0.03    0.07 
   2  -5  -4    0.01    0.06 
   2  -5  -4    0.11    0.07 
  -2   5   4   -0.05    0.12 
  -2   5   4   -0.09    0.09 
   1  -5  -4    0.97    0.09 
   1  -5  -4    0.66    0.10 
   1  -5  -4    0.64    0.10 
  -1   5   4    1.05    0.19 
  -1   5   4    0.43    0.11 
  -1   5   4    0.90    0.13 
  -1   5   4    0.69    0.12 
   0  -5  -4    0.33    0.09 
   0  -5  -4    0.50    0.07 
   0  -5  -4    0.44    0.09 
   0   5   4    0.52    0.10 
   0   5   4    0.46    0.14 
   0   5   4    0.47    0.10 
  -1  -5  -4   14.22    0.62 
  -1  -5  -4   13.50    0.67 
   1   5   4   14.05    0.81 
   1   5   4   13.63    0.93 
  -2  -5  -4    1.36    0.13 
  -2  -5  -4    1.56    0.12 
  -2  -5  -4    1.30    0.14 
   2   5   4    1.80    0.18 
  -3  -5  -4    5.09    0.24 
  -3  -5  -4    4.75    0.26 
  -3  -5  -4    4.52    0.28 
  -3  -5  -4    4.76    0.27 
  -3  -5  -4    4.74    0.25 
  -3  -5  -4    4.84    0.26 
   3   5   4    5.08    0.26 
   3   5   4    4.82    0.30 
   3   5   4    5.07    0.32 
   3   5   4    4.22    0.29 
  -4  -5  -4    6.80    0.33 
  -4  -5  -4    6.20    0.32 
  -4  -5  -4    6.32    0.31 
  -4  -5  -4    6.35    0.31 
   4   5   4    5.98    0.35 
   4   5   4    6.36    0.33 
   4   5   4    6.81    0.37 
   4   5   4    6.66    0.32 
  -5  -5  -4    0.02    0.06 
  -5  -5  -4   -0.06    0.06 
  -5  -5  -4    0.00    0.06 
   5   5   4    0.16    0.08 
   5   5   4   -0.05    0.06 
   5   5   4    0.03    0.07 
  -6  -5  -4    0.27    0.05 
   6   5   4    0.27    0.05 
   7  -6  -4    0.01    0.06 
   7  -6  -4    0.00    0.06 
   6  -6  -4    2.66    0.17 
   6  -6  -4    2.86    0.26 
   6  -6  -4    2.95    0.19 
   6  -6  -4    2.75    0.17 
   6  -6  -4    2.64    0.19 
   6  -6  -4    2.84    0.19 
   6  -6  -4    2.66    0.16 
   5  -6  -4    0.10    0.08 
   5  -6  -4   -0.11    0.10 
   5  -6  -4    0.12    0.07 
   5  -6  -4    0.08    0.10 
   5  -6  -4    0.05    0.07 
   5  -6  -4    0.04    0.13 
   5  -6  -4    0.04    0.14 
   5  -6  -4    0.00    0.05 
   5  -6  -4    0.18    0.10 
   5  -6  -4    0.08    0.09 
   5  -6  -4    0.01    0.08 
   4  -6  -4    0.14    0.09 
   4  -6  -4    0.07    0.10 
   4  -6  -4    0.24    0.07 
   4  -6  -4    0.14    0.13 
   4  -6  -4    0.16    0.08 
   4  -6  -4    0.18    0.09 
   4  -6  -4    0.24    0.09 
   4  -6  -4    0.15    0.07 
   4  -6  -4    0.24    0.13 
   4  -6  -4    0.15    0.11 
   4  -6  -4    0.11    0.09 
   4  -6  -4    0.18    0.11 
   4  -6  -4    0.20    0.10 
   4  -6  -4    0.37    0.11 
  -4   6   4    0.11    0.12 
   3  -6  -4   62.65    2.70 
   3  -6  -4   58.02    3.10 
   3  -6  -4   63.38    2.74 
   3  -6  -4   65.25    2.64 
   3  -6  -4   65.71    2.81 
   3  -6  -4   64.98    3.14 
   3  -6  -4   62.51    2.57 
   3  -6  -4   62.29    2.85 
  -3   6   4   62.74    3.75 
  -3   6   4   60.33    3.90 
  -3   6   4   60.32    2.82 
   2  -6  -4    2.39    0.17 
   2  -6  -4    2.68    0.18 
   2  -6  -4    2.19    0.19 
   2  -6  -4    2.46    0.17 
   2  -6  -4    2.46    0.21 
   2  -6  -4    2.35    0.23 
  -2   6   4    2.38    0.24 
  -2   6   4    2.41    0.20 
  -2   6   4    2.63    0.33 
   1  -6  -4    5.10    0.33 
   1  -6  -4    5.03    0.30 
   1  -6  -4    5.23    0.28 
   1  -6  -4    5.02    0.28 
   1  -6  -4    5.38    0.29 
  -1   6   4    5.91    0.34 
  -1   6   4    5.90    0.48 
   0  -6  -4   11.27    0.60 
   0  -6  -4   12.26    0.54 
   0  -6  -4   12.77    0.54 
   0  -6  -4   11.01    0.60 
   0   6   4   13.07    0.85 
   0   6   4   12.01    0.60 
  -1  -6  -4   15.73    0.64 
  -1  -6  -4   13.80    0.72 
  -1  -6  -4   14.11    0.67 
  -1  -6  -4   14.92    0.65 
  -1  -6  -4   13.99    0.66 
   1   6   4   14.81    0.73 
   1   6   4   14.97    0.86 
   1   6   4   14.80    0.99 
   1   6   4   14.49    0.71 
  -2  -6  -4    0.01    0.07 
  -2  -6  -4    0.04    0.09 
  -2  -6  -4    0.07    0.07 
  -2  -6  -4    0.12    0.06 
   2   6   4   -0.07    0.10 
   2   6   4   -0.07    0.13 
  -3  -6  -4   -0.02    0.07 
  -3  -6  -4   -0.09    0.08 
  -3  -6  -4    0.09    0.07 
  -3  -6  -4    0.10    0.08 
  -3  -6  -4    0.12    0.08 
   3   6   4    0.16    0.07 
   3   6   4    0.11    0.09 
   3   6   4    0.10    0.13 
  -4  -6  -4    2.36    0.15 
  -4  -6  -4    2.13    0.15 
  -4  -6  -4    2.51    0.15 
   4   6   4    2.48    0.15 
   4   6   4    2.26    0.21 
   4   6   4    2.25    0.16 
  -5  -6  -4    0.66    0.07 
  -5  -6  -4    0.46    0.06 
   5   6   4    0.56    0.08 
   6  -7  -4    0.40    0.09 
   6  -7  -4    0.51    0.09 
   6  -7  -4    0.50    0.07 
   6  -7  -4    0.52    0.07 
   6  -7  -4    0.42    0.07 
   6  -7  -4    0.49    0.07 
   6  -7  -4    0.49    0.07 
   6  -7  -4    0.59    0.10 
   5  -7  -4    0.15    0.07 
   5  -7  -4    0.10    0.07 
   5  -7  -4   -0.03    0.07 
   5  -7  -4    0.02    0.10 
   5  -7  -4    0.09    0.06 
   5  -7  -4    0.04    0.05 
   5  -7  -4    0.01    0.08 
   5  -7  -4    0.14    0.11 
   5  -7  -4    0.01    0.06 
   5  -7  -4    0.11    0.07 
   5  -7  -4    0.12    0.09 
   5  -7  -4    0.08    0.07 
   4  -7  -4    0.36    0.16 
   4  -7  -4    0.30    0.10 
   4  -7  -4    0.49    0.11 
   4  -7  -4    0.30    0.07 
   4  -7  -4    0.41    0.07 
   4  -7  -4    0.53    0.08 
   4  -7  -4    0.48    0.13 
   4  -7  -4    0.48    0.12 
   4  -7  -4    0.38    0.09 
   4  -7  -4    0.50    0.10 
   4  -7  -4    0.28    0.07 
   4  -7  -4    0.39    0.07 
   4  -7  -4    0.46    0.11 
  -4   7   4    0.38    0.11 
   3  -7  -4    2.71    0.17 
   3  -7  -4    2.43    0.19 
   3  -7  -4    2.40    0.21 
   3  -7  -4    2.54    0.19 
   3  -7  -4    2.94    0.20 
   3  -7  -4    2.79    0.17 
   3  -7  -4    2.48    0.26 
   3  -7  -4    2.81    0.19 
   3  -7  -4    2.47    0.26 
   3  -7  -4    2.69    0.19 
   3  -7  -4    2.58    0.28 
   3  -7  -4    2.55    0.15 
   3  -7  -4    2.59    0.21 
   3  -7  -4    2.61    0.16 
  -3   7   4    2.74    0.22 
   2  -7  -4    3.86    0.29 
   2  -7  -4    4.41    0.22 
   2  -7  -4    4.49    0.30 
   2  -7  -4    4.23    0.37 
   2  -7  -4    4.42    0.23 
   2  -7  -4    4.28    0.27 
   2  -7  -4    4.64    0.27 
   2  -7  -4    3.89    0.25 
   2  -7  -4    4.43    0.24 
   2  -7  -4    4.32    0.25 
  -2   7   4    4.85    0.31 
   1  -7  -4    1.27    0.11 
   1  -7  -4    1.10    0.11 
   1  -7  -4    1.14    0.10 
   1  -7  -4    1.09    0.14 
   1  -7  -4    1.42    0.12 
   1  -7  -4    1.16    0.11 
   1  -7  -4    1.03    0.17 
  -1   7   4    1.42    0.14 
  -1   7   4    1.03    0.15 
  -1   7   4    1.20    0.14 
  -1   7   4    1.28    0.20 
   0  -7  -4   58.84    2.49 
   0  -7  -4   58.46    2.54 
   0  -7  -4   60.82    2.48 
   0  -7  -4   61.23    2.41 
   0   7   4   52.67    2.93 
   0   7   4   59.25    2.64 
   0   7   4   59.69    2.67 
  -1  -7  -4    0.41    0.10 
  -1  -7  -4    0.41    0.09 
  -1  -7  -4    0.25    0.08 
  -1  -7  -4    0.37    0.09 
   1   7   4    0.39    0.13 
  -2  -7  -4    3.98    0.22 
  -2  -7  -4    4.22    0.24 
  -2  -7  -4    3.56    0.22 
  -2  -7  -4    3.88    0.23 
   2   7   4    4.41    0.28 
   2   7   4    4.29    0.28 
  -3  -7  -4    1.60    0.12 
  -3  -7  -4    1.57    0.12 
  -3  -7  -4    1.74    0.13 
  -3  -7  -4    1.67    0.12 
   3   7   4    1.74    0.16 
   3   7   4    1.90    0.15 
  -4  -7  -4    0.02    0.05 
  -4  -7  -4    0.04    0.04 
   4   7   4    0.06    0.05 
   4   7   4    0.06    0.07 
   5  -8  -4    1.13    0.09 
   5  -8  -4    1.09    0.11 
   5  -8  -4    1.11    0.07 
   5  -8  -4    0.79    0.11 
   5  -8  -4    1.24    0.11 
   5  -8  -4    0.94    0.10 
   5  -8  -4    1.23    0.09 
   5  -8  -4    0.91    0.09 
   5  -8  -4    0.96    0.09 
   5  -8  -4    0.90    0.10 
   5  -8  -4    1.04    0.13 
  -5   8   4    1.01    0.11 
   4  -8  -4    0.48    0.07 
   4  -8  -4    0.40    0.12 
   4  -8  -4    0.38    0.06 
   4  -8  -4    0.46    0.14 
   4  -8  -4    0.51    0.09 
   4  -8  -4    0.48    0.13 
   4  -8  -4    0.38    0.06 
   4  -8  -4    0.32    0.07 
   4  -8  -4    0.42    0.07 
   4  -8  -4    0.45    0.08 
   4  -8  -4    0.52    0.08 
   4  -8  -4    0.37    0.08 
  -4   8   4    0.35    0.09 
  -4   8   4    0.87    0.13 
   3  -8  -4   15.84    0.66 
   3  -8  -4   13.93    0.85 
   3  -8  -4   14.14    0.68 
   3  -8  -4   14.86    0.81 
   3  -8  -4   14.41    0.65 
   3  -8  -4   15.28    0.55 
   3  -8  -4   14.48    0.74 
   3  -8  -4   14.50    0.67 
   3  -8  -4   14.25    0.66 
   3  -8  -4   15.10    0.63 
   3  -8  -4   14.82    0.58 
   3  -8  -4   14.89    0.60 
  -3   8   4   15.22    0.79 
  -3   8   4   15.89    0.71 
   2  -8  -4   -0.09    0.07 
   2  -8  -4    0.05    0.06 
   2  -8  -4    0.04    0.08 
   2  -8  -4   -0.04    0.07 
   2  -8  -4   -0.05    0.12 
   2  -8  -4    0.09    0.05 
   2  -8  -4    0.14    0.12 
  -2   8   4    0.18    0.11 
  -2   8   4    0.03    0.08 
   1  -8  -4    3.24    0.21 
   1  -8  -4    3.56    0.20 
   1  -8  -4    3.23    0.20 
   1  -8  -4    3.61    0.20 
   1  -8  -4    2.70    0.30 
  -1   8   4    3.28    0.28 
  -1   8   4    3.67    0.23 
   0  -8  -4    3.34    0.19 
   0  -8  -4    3.09    0.20 
   0  -8  -4    3.33    0.19 
   0  -8  -4    3.31    0.20 
   0   8   4    3.20    0.20 
   0   8   4    3.31    0.21 
   0   8   4    2.87    0.25 
  -1  -8  -4    0.81    0.08 
  -1  -8  -4    0.73    0.09 
  -1  -8  -4    0.62    0.07 
  -1  -8  -4    0.76    0.09 
   1   8   4    0.87    0.11 
  -2  -8  -4    0.09    0.05 
  -2  -8  -4    0.18    0.06 
   2   8   4    0.23    0.08 
  -3  -8  -4    0.34    0.05 
   3   8   4    0.31    0.06 
   4  -9  -4    1.84    0.09 
   4  -9  -4    1.70    0.10 
   4  -9  -4    1.84    0.15 
  -4   9   4    1.93    0.13 
   3  -9  -4    1.30    0.11 
   3  -9  -4    1.18    0.08 
   3  -9  -4    0.95    0.12 
   3  -9  -4    1.27    0.08 
   3  -9  -4    1.00    0.09 
   3  -9  -4    1.12    0.09 
  -3   9   4    1.29    0.12 
  -3   9   4    1.24    0.13 
   2  -9  -4    0.18    0.05 
   2  -9  -4    0.15    0.06 
   2  -9  -4    0.10    0.05 
  -2   9   4    0.06    0.07 
   1  -9  -4    0.28    0.06 
   1  -9  -4    0.30    0.06 
   1  -9  -4    0.25    0.05 
  -1   9   4    0.34    0.09 
   0  -9  -4    0.15    0.05 
   0  -9  -4    0.08    0.04 
   0  -9  -4    0.21    0.05 
   0   9   4    0.08    0.07 
  -1  -9  -4    0.49    0.06 
   2   9  -5    5.01    0.27 
   2   9  -5    4.79    0.20 
   2   9  -5    4.32    0.24 
  -2  -9   5    4.40    0.21 
  -2  -9   5    4.07    0.21 
   1   9  -5    2.89    0.19 
   1   9  -5    2.66    0.15 
   1   9  -5    3.03    0.18 
   1   9  -5    2.65    0.14 
  -1  -9   5    2.78    0.16 
  -1  -9   5    2.77    0.15 
  -1  -9   5    2.79    0.17 
   0   9  -5    0.04    0.08 
   0   9  -5    0.09    0.06 
   0  -9   5    0.04    0.06 
   0  -9   5    0.07    0.06 
   0  -9   5    0.08    0.06 
  -1   9  -5    0.11    0.06 
  -1   9  -5   -0.01    0.07 
  -1   9  -5    0.08    0.06 
   1  -9   5   -0.11    0.06 
   1  -9   5    0.02    0.05 
   1  -9   5    0.09    0.05 
   1  -9   5    0.06    0.06 
  -2   9  -5    0.31    0.06 
  -2   9  -5    0.36    0.08 
  -2   9  -5    0.41    0.07 
   2  -9   5    0.18    0.05 
   2  -9   5    0.44    0.07 
   2  -9   5    0.30    0.05 
  -3   9  -5    2.84    0.18 
   3  -9   5    2.25    0.13 
   3  -9   5    2.77    0.14 
   4   8  -5    2.75    0.14 
   4   8  -5    2.47    0.18 
  -4  -8   5    2.70    0.14 
  -4  -8   5    2.58    0.13 
   3   8  -5    2.75    0.15 
   3   8  -5    2.85    0.19 
   3   8  -5    2.36    0.13 
  -3  -8   5    2.11    0.15 
  -3  -8   5    2.44    0.15 
  -3  -8   5    2.34    0.16 
  -3  -8   5    2.68    0.16 
   2   8  -5    4.13    0.23 
   2   8  -5    4.12    0.28 
   2   8  -5    4.26    0.20 
   2   8  -5    4.07    0.25 
  -2  -8   5    4.02    0.21 
  -2  -8   5    4.18    0.23 
  -2  -8   5    4.06    0.24 
  -2  -8   5    3.80    0.20 
   1   8  -5   -0.03    0.06 
   1   8  -5   -0.11    0.08 
   1   8  -5   -0.06    0.07 
   1   8  -5   -0.02    0.05 
   1   8  -5   -0.13    0.09 
  -1  -8   5    0.10    0.07 
  -1  -8   5    0.04    0.08 
  -1  -8   5    0.01    0.06 
  -1  -8   5    0.13    0.07 
   0   8  -5    3.35    0.20 
   0   8  -5    3.00    0.23 
   0   8  -5    3.30    0.22 
   0  -8   5    3.06    0.18 
   0  -8   5    3.04    0.20 
   0  -8   5    3.12    0.21 
   0  -8   5    3.04    0.20 
  -1   8  -5    0.25    0.10 
  -1   8  -5    0.23    0.08 
  -1   8  -5    0.21    0.09 
   1  -8   5    0.01    0.14 
   1  -8   5    0.24    0.07 
   1  -8   5    0.35    0.08 
   1  -8   5    0.12    0.08 
   1  -8   5    0.13    0.08 
  -2   8  -5    0.04    0.08 
  -2   8  -5    0.01    0.06 
  -2   8  -5    0.12    0.08 
   2  -8   5   -0.03    0.13 
   2  -8   5    0.05    0.07 
   2  -8   5    0.04    0.08 
   2  -8   5    0.10    0.08 
   2  -8   5    0.03    0.07 
  -3   8  -5    3.04    0.18 
  -3   8  -5    3.03    0.20 
  -3   8  -5    3.50    0.23 
  -3   8  -5    3.03    0.18 
   3  -8   5    2.56    0.27 
   3  -8   5    2.97    0.17 
   3  -8   5    3.14    0.18 
   3  -8   5    2.95    0.18 
   3  -8   5    2.94    0.23 
  -4   8  -5    1.42    0.13 
  -4   8  -5    1.49    0.15 
  -4   8  -5    1.43    0.10 
   4  -8   5    1.45    0.11 
   4  -8   5    1.14    0.12 
   4  -8   5    1.58    0.09 
   4  -8   5    1.15    0.16 
   4  -8   5    1.37    0.10 
   4  -8   5    1.60    0.12 
  -5   8  -5    0.01    0.04 
   5  -8   5    0.07    0.03 
   5  -8   5    0.01    0.07 
   5  -8   5   -0.01    0.04 
   5   7  -5    9.18    0.45 
   5   7  -5    9.03    0.39 
   5   7  -5    9.99    0.39 
   5   7  -5    8.79    0.50 
  -5  -7   5   10.01    0.41 
  -5  -7   5    9.95    0.40 
   4   7  -5    1.51    0.10 
   4   7  -5    1.55    0.16 
   4   7  -5    1.58    0.13 
   4   7  -5    1.45    0.11 
  -4  -7   5    1.63    0.12 
  -4  -7   5    1.52    0.12 
   3   7  -5   13.98    0.73 
   3   7  -5   13.41    0.56 
   3   7  -5   12.25    0.67 
   3   7  -5   13.81    0.57 
   3   7  -5   14.00    0.65 
  -3  -7   5   14.11    0.59 
  -3  -7   5   13.79    0.61 
  -3  -7   5   13.59    0.58 
   2   7  -5    0.97    0.10 
   2   7  -5    1.10    0.14 
   2   7  -5    1.24    0.12 
   2   7  -5    1.18    0.13 
   2   7  -5    1.19    0.09 
   2   7  -5    1.14    0.10 
  -2  -7   5    1.11    0.11 
  -2  -7   5    1.18    0.10 
  -2  -7   5    1.32    0.12 
  -2  -7   5    1.16    0.13 
  -2  -7   5    1.26    0.13 
   1   7  -5   16.47    0.86 
   1   7  -5   16.43    0.68 
   1   7  -5   16.43    0.75 
   1   7  -5   16.89    0.77 
   1   7  -5   16.94    0.82 
   1   7  -5   16.09    0.68 
  -1  -7   5   15.50    0.76 
  -1  -7   5   16.02    0.69 
  -1  -7   5   16.83    0.74 
  -1  -7   5   16.43    0.77 
  -1  -7   5   16.84    0.72 
   0   7  -5   11.70    0.52 
   0   7  -5   11.16    0.57 
   0   7  -5   10.78    0.65 
   0  -7   5   11.95    0.54 
   0  -7   5   10.18    0.48 
   0  -7   5   10.94    0.49 
   0  -7   5   10.54    0.51 
  -1   7  -5    0.08    0.12 
  -1   7  -5    0.05    0.07 
  -1   7  -5    0.16    0.09 
   1  -7   5    0.22    0.10 
   1  -7   5    0.08    0.07 
   1  -7   5    0.00    0.09 
   1  -7   5    0.13    0.07 
   1  -7   5    0.07    0.08 
   1  -7   5   -0.01    0.19 
  -2   7  -5    1.23    0.14 
  -2   7  -5    1.11    0.10 
  -2   7  -5    1.10    0.14 
   2  -7   5    0.83    0.13 
   2  -7   5    0.92    0.09 
   2  -7   5    1.07    0.10 
   2  -7   5    1.12    0.19 
   2  -7   5    1.24    0.12 
   2  -7   5    1.10    0.11 
   2  -7   5    1.06    0.11 
   2  -7   5    1.12    0.12 
  -3   7  -5    0.09    0.09 
  -3   7  -5   -0.06    0.06 
  -3   7  -5    0.07    0.07 
   3  -7   5    0.07    0.09 
   3  -7   5    0.03    0.14 
   3  -7   5   -0.06    0.13 
   3  -7   5    0.06    0.08 
   3  -7   5   -0.04    0.07 
   3  -7   5    0.01    0.08 
  -4   7  -5    4.74    0.32 
  -4   7  -5    5.43    0.27 
  -4   7  -5    5.27    0.31 
   4  -7   5    5.25    0.27 
   4  -7   5    4.05    0.36 
   4  -7   5    4.84    0.31 
   4  -7   5    5.37    0.21 
   4  -7   5    5.12    0.26 
   4  -7   5    4.82    0.25 
  -5   7  -5    1.90    0.14 
  -5   7  -5    2.06    0.14 
   5  -7   5    1.85    0.13 
   5  -7   5    1.96    0.10 
   5  -7   5    1.95    0.14 
   5  -7   5    1.83    0.13 
   5  -7   5    1.85    0.16 
   5  -7   5    1.70    0.15 
  -6   7  -5    3.50    0.18 
   6  -7   5    3.47    0.13 
   6   6  -5    0.83    0.08 
   6   6  -5    0.76    0.07 
   6   6  -5    0.94    0.09 
   6   6  -5    0.95    0.07 
   6   6  -5    0.96    0.06 
  -6  -6   5    0.87    0.08 
  -6  -6   5    0.85    0.07 
  -6  -6   5    0.82    0.10 
   5   6  -5    6.51    0.35 
   5   6  -5    7.18    0.30 
   5   6  -5    6.26    0.35 
   5   6  -5    6.47    0.39 
   5   6  -5    6.50    0.31 
   5   6  -5    6.80    0.30 
   5   6  -5    6.98    0.27 
  -5  -6   5    6.57    0.32 
  -5  -6   5    6.55    0.34 
  -5  -6   5    7.32    0.32 
   4   6  -5    2.75    0.20 
   4   6  -5    2.46    0.17 
   4   6  -5    2.56    0.20 
   4   6  -5    2.56    0.15 
   4   6  -5    2.57    0.25 
   4   6  -5    2.45    0.15 
  -4  -6   5    2.66    0.19 
  -4  -6   5    2.24    0.20 
  -4  -6   5    2.66    0.18 
   3   6  -5    0.29    0.07 
   3   6  -5    0.21    0.11 
   3   6  -5    0.61    0.11 
   3   6  -5    0.25    0.12 
   3   6  -5    0.30    0.07 
   3   6  -5    0.50    0.14 
   3   6  -5    0.35    0.09 
  -3  -6   5    0.50    0.11 
  -3  -6   5    0.39    0.11 
  -3  -6   5    0.28    0.10 
  -3  -6   5    0.22    0.09 
  -3  -6   5    0.20    0.07 
  -3  -6   5    0.34    0.10 
   2   6  -5    0.24    0.08 
   2   6  -5    0.27    0.07 
   2   6  -5    0.19    0.10 
   2   6  -5    0.13    0.11 
   2   6  -5    0.19    0.11 
  -2  -6   5    0.29    0.10 
  -2  -6   5    0.16    0.12 
  -2  -6   5    0.21    0.07 
   1   6  -5    7.70    0.39 
   1   6  -5    8.14    0.53 
   1   6  -5    7.15    0.37 
  -1  -6   5    7.69    0.39 
  -1  -6   5    7.75    0.40 
   0   6  -5   87.28    4.90 
   0   6  -5   78.60    3.59 
   0  -6   5   81.94    3.68 
   0  -6   5   82.51    3.61 
  -1   6  -5   16.57    0.80 
  -1   6  -5   17.24    0.91 
  -1   6  -5   19.14    1.10 
   1  -6   5   17.38    0.80 
   1  -6   5   17.42    0.82 
  -2   6  -5    5.23    0.31 
  -2   6  -5    4.99    0.32 
  -2   6  -5    4.95    0.27 
   2  -6   5    4.96    0.34 
   2  -6   5    4.84    0.27 
   2  -6   5    5.00    0.29 
  -3   6  -5    5.70    0.41 
  -3   6  -5    6.62    0.38 
  -3   6  -5    6.89    0.39 
   3  -6   5    6.55    0.34 
   3  -6   5    6.07    0.32 
   3  -6   5    6.66    0.32 
   3  -6   5    5.14    0.48 
   3  -6   5    6.29    0.40 
   3  -6   5    6.42    0.32 
   3  -6   5    6.47    0.30 
  -4   6  -5   13.72    0.69 
  -4   6  -5   11.83    0.59 
   4  -6   5   13.22    0.59 
   4  -6   5   12.07    0.47 
   4  -6   5   12.18    0.57 
   4  -6   5   11.90    0.64 
   4  -6   5   12.84    0.59 
   4  -6   5   12.64    0.55 
   4  -6   5   12.20    0.53 
   4  -6   5   11.62    0.58 
   4  -6   5   11.87    0.50 
  -5   6  -5    0.37    0.08 
  -5   6  -5    0.34    0.08 
   5  -6   5    0.40    0.06 
   5  -6   5    0.35    0.07 
   5  -6   5    0.32    0.08 
   5  -6   5    0.42    0.09 
   5  -6   5    0.39    0.12 
   5  -6   5    0.43    0.08 
   5  -6   5    0.31    0.07 
   5  -6   5    0.39    0.08 
   5  -6   5    0.35    0.08 
   5  -6   5    0.42    0.07 
   5  -6   5    0.09    0.09 
  -6   6  -5    0.53    0.06 
   6  -6   5    0.60    0.08 
   6  -6   5    0.62    0.05 
   6  -6   5    0.60    0.09 
   6  -6   5    0.58    0.07 
   6  -6   5    0.39    0.06 
   6  -6   5    0.56    0.07 
   6  -6   5    0.43    0.08 
   6  -6   5    0.65    0.07 
   7   5  -5    0.19    0.03 
   7   5  -5    0.26    0.06 
  -7  -5   5    0.22    0.04 
   6   5  -5    7.02    0.37 
   6   5  -5    6.43    0.30 
   6   5  -5    6.58    0.32 
   6   5  -5    6.69    0.35 
   6   5  -5    7.54    0.36 
   6   5  -5    7.18    0.27 
   6   5  -5    6.47    0.32 
   6   5  -5    7.24    0.30 
   6   5  -5    7.49    0.33 
  -6  -5   5    7.23    0.36 
  -6  -5   5    6.81    0.32 
   5   5  -5    1.28    0.15 
   5   5  -5    1.47    0.15 
   5   5  -5    1.76    0.15 
   5   5  -5    1.59    0.14 
   5   5  -5    1.43    0.12 
   5   5  -5    1.21    0.12 
   5   5  -5    1.53    0.11 
   5   5  -5    1.26    0.10 
   5   5  -5    1.60    0.12 
   5   5  -5    1.31    0.11 
  -5  -5   5    1.19    0.12 
  -5  -5   5    1.37    0.13 
   4   5  -5    2.07    0.14 
   4   5  -5    2.16    0.20 
   4   5  -5    2.42    0.22 
   4   5  -5    2.22    0.15 
   4   5  -5    2.25    0.24 
   4   5  -5    2.21    0.15 
   4   5  -5    2.26    0.18 
  -4  -5   5    2.42    0.19 
  -4  -5   5    2.26    0.18 
  -4  -5   5    2.22    0.19 
   3   5  -5    0.97    0.16 
   3   5  -5    1.02    0.11 
   3   5  -5    1.40    0.11 
  -3  -5   5    1.15    0.12 
  -3  -5   5    1.19    0.13 
   2   5  -5   -0.01    0.07 
   2   5  -5   -0.06    0.07 
  -2  -5   5    0.02    0.08 
  -2  -5   5   -0.04    0.06 
   1   5  -5    1.29    0.12 
   1   5  -5    1.59    0.17 
  -1  -5   5    1.65    0.13 
   0   5  -5   32.27    1.73 
   0   5  -5   37.07    2.10 
   0  -5   5   35.19    1.54 
  -1   5  -5   13.84    0.85 
  -1   5  -5   13.69    0.70 
  -1   5  -5   11.46    0.73 
   1  -5   5   14.95    0.63 
  -2   5  -5    6.52    0.45 
  -2   5  -5    6.51    0.40 
  -2   5  -5    7.08    0.38 
   2  -5   5    6.99    0.34 
   2  -5   5    6.01    0.35 
  -3   5  -5   53.99    2.53 
  -3   5  -5   47.96    2.32 
  -3   5  -5   51.12    2.67 
   3  -5   5   53.02    2.24 
   3  -5   5   50.12    2.21 
   3  -5   5   48.99    2.28 
  -4   5  -5    1.02    0.11 
  -4   5  -5    1.04    0.13 
  -4   5  -5    0.62    0.09 
   4  -5   5    1.11    0.10 
   4  -5   5    1.24    0.12 
   4  -5   5    0.88    0.11 
   4  -5   5    0.80    0.09 
   4  -5   5    1.00    0.16 
   4  -5   5    1.04    0.09 
   4  -5   5    1.07    0.10 
   4  -5   5    0.86    0.11 
   4  -5   5    1.14    0.11 
   4  -5   5    1.13    0.11 
   4  -5   5    1.12    0.11 
  -5   5  -5    2.71    0.17 
  -5   5  -5    2.77    0.17 
  -5   5  -5    2.42    0.21 
   5  -5   5    2.73    0.18 
   5  -5   5    2.82    0.20 
   5  -5   5    2.74    0.14 
   5  -5   5    2.31    0.21 
   5  -5   5    2.57    0.21 
   5  -5   5    2.87    0.19 
   5  -5   5    2.93    0.22 
   5  -5   5    2.80    0.18 
   5  -5   5    2.79    0.19 
   5  -5   5    2.59    0.17 
   5  -5   5    2.75    0.17 
   6  -5   5    0.06    0.07 
   6  -5   5    0.08    0.04 
   6  -5   5    0.04    0.09 
   6  -5   5    0.17    0.06 
   6  -5   5    0.10    0.06 
   6  -5   5    0.18    0.07 
   6  -5   5    0.20    0.07 
  -7   5  -5    0.63    0.06 
   7  -5   5    0.69    0.06 
   7  -5   5    0.46    0.05 
   7   4  -5    5.79    0.26 
   7   4  -5    6.43    0.23 
   7   4  -5    6.33    0.31 
   7   4  -5    6.33    0.29 
   7   4  -5    6.09    0.32 
   7   4  -5    6.30    0.28 
   6   4  -5    0.05    0.05 
   6   4  -5   -0.03    0.06 
   6   4  -5    0.04    0.07 
   6   4  -5   -0.04    0.08 
   6   4  -5    0.08    0.05 
   6   4  -5    0.06    0.08 
   6   4  -5   -0.06    0.08 
   6   4  -5    0.11    0.06 
   6   4  -5    0.09    0.06 
  -6  -4   5   -0.08    0.07 
   5   4  -5    2.27    0.17 
   5   4  -5    1.94    0.15 
   5   4  -5    2.00    0.15 
   5   4  -5    2.16    0.20 
   5   4  -5    1.96    0.22 
   5   4  -5    2.32    0.18 
   5   4  -5    1.88    0.18 
   5   4  -5    1.97    0.16 
   5   4  -5    2.12    0.14 
   5   4  -5    1.95    0.14 
   5   4  -5    1.71    0.13 
  -5  -4   5    1.98    0.21 
  -5  -4   5    1.91    0.15 
   4   4  -5    0.16    0.04 
   4   4  -5    0.27    0.08 
   4   4  -5    0.45    0.10 
   4   4  -5    0.18    0.06 
   4   4  -5    0.16    0.12 
   4   4  -5    0.21    0.06 
  -4  -4   5    0.23    0.09 
  -4  -4   5    0.29    0.09 
  -4  -4   5    0.09    0.09 
   3   4  -5    4.27    0.22 
   3   4  -5    3.82    0.24 
   3   4  -5    4.26    0.34 
   3   4  -5    4.30    0.22 
  -3  -4   5    4.21    0.26 
  -3  -4   5    4.44    0.26 
  -3  -4   5    4.14    0.23 
   2   4  -5   11.47    0.74 
  -2  -4   5   11.08    0.55 
  -2  -4   5   11.33    0.52 
  -2  -4   5   11.17    0.53 
   1   4  -5   11.09    0.66 
  -1  -4   5    9.13    0.47 
  -1  -4   5   10.68    0.48 
   0   4  -5  113.61    5.72 
   0   4  -5  120.95    6.90 
   0  -4   5  116.76    5.09 
  -1   4  -5    0.58    0.09 
  -1   4  -5    0.70    0.11 
   1  -4   5    0.81    0.09 
  -2   4  -5    0.02    0.05 
  -2   4  -5    0.19    0.05 
  -2   4  -5    0.14    0.08 
   2  -4   5    0.08    0.06 
  -3   4  -5    0.37    0.08 
  -3   4  -5    0.39    0.07 
  -3   4  -5    0.48    0.10 
   3  -4   5    0.41    0.07 
   3  -4   5    0.47    0.08 
  -4   4  -5    1.22    0.13 
  -4   4  -5    1.31    0.12 
  -4   4  -5    1.28    0.13 
   4  -4   5    1.49    0.14 
   4  -4   5    1.60    0.14 
   4  -4   5    1.22    0.12 
   4  -4   5    1.28    0.11 
   4  -4   5    1.40    0.12 
   4  -4   5    1.19    0.13 
  -5   4  -5    2.39    0.16 
  -5   4  -5    2.15    0.18 
   5  -4   5    2.58    0.17 
   5  -4   5    2.40    0.17 
   5  -4   5    2.13    0.18 
   5  -4   5    2.43    0.18 
   5  -4   5    2.32    0.19 
   5  -4   5    2.27    0.13 
   5  -4   5    2.17    0.21 
   5  -4   5    2.52    0.17 
   5  -4   5    2.33    0.18 
   5  -4   5    2.26    0.17 
   5  -4   5    2.66    0.20 
   5  -4   5    2.10    0.17 
   6  -4   5    4.14    0.23 
   6  -4   5    4.19    0.18 
   6  -4   5    4.06    0.23 
   6  -4   5    4.27    0.23 
   6  -4   5    4.54    0.22 
   6  -4   5    3.96    0.24 
   6  -4   5    3.96    0.23 
   6  -4   5    4.31    0.26 
  -7   4  -5    1.17    0.08 
  -7   4  -5    1.29    0.09 
   7  -4   5    1.25    0.11 
   7  -4   5    1.12    0.11 
   7  -4   5    1.35    0.11 
   7  -4   5    1.17    0.11 
   7  -4   5    1.26    0.06 
   7  -4   5    1.30    0.09 
   7   3  -5    0.04    0.05 
   7   3  -5    0.04    0.04 
   7   3  -5    0.09    0.05 
   7   3  -5    0.05    0.07 
   7   3  -5    0.12    0.04 
   7   3  -5    0.03    0.04 
   7   3  -5    0.02    0.08 
  -7  -3   5    0.11    0.07 
   6   3  -5    7.66    0.43 
   6   3  -5    8.48    0.32 
   6   3  -5    8.63    0.43 
   6   3  -5    8.17    0.43 
   6   3  -5    8.36    0.39 
   6   3  -5    8.67    0.39 
   6   3  -5    7.90    0.37 
   6   3  -5    8.67    0.39 
   6   3  -5    7.71    0.36 
  -6  -3   5    8.62    0.43 
   5   3  -5    0.59    0.13 
   5   3  -5    0.54    0.07 
   5   3  -5    0.62    0.11 
   5   3  -5    0.73    0.16 
   5   3  -5    0.56    0.10 
   5   3  -5    0.62    0.11 
   5   3  -5    0.49    0.10 
   5   3  -5    0.55    0.08 
  -5  -3   5    0.38    0.11 
  -5  -3   5    0.43    0.10 
   4   3  -5    8.04    0.39 
   4   3  -5    8.14    0.34 
   4   3  -5    7.97    0.42 
   4   3  -5    8.50    0.39 
   4   3  -5    8.81    0.58 
  -4  -3   5    8.07    0.40 
  -4  -3   5    8.87    0.43 
   3   3  -5    2.79    0.15 
   3   3  -5    2.75    0.25 
   3   3  -5    2.47    0.13 
  -3  -3   5    2.52    0.16 
  -3  -3   5    2.68    0.19 
  -3  -3   5    2.49    0.18 
   2   3  -5   16.71    0.66 
   2   3  -5   16.75    0.72 
   2   3  -5   17.21    1.06 
  -2  -3   5   16.41    0.75 
  -2  -3   5   16.70    0.74 
  -2  -3   5   15.77    1.02 
   1   3  -5   23.76    1.17 
   1   3  -5   24.71    1.46 
  -1  -3   5   22.14    1.02 
  -1  -3   5   22.83    1.04 
   0   3  -5   -0.05    0.06 
   0   3  -5    0.02    0.07 
   0  -3   5    0.00    0.05 
   0  -3   5   -0.08    0.06 
  -1   3  -5   -0.02    0.03 
  -1   3  -5   -0.03    0.05 
  -1   3  -5    0.01    0.06 
   1  -3   5    0.02    0.05 
   1  -3   5    0.08    0.07 
  -2   3  -5    2.75    0.19 
  -2   3  -5    2.86    0.16 
  -2   3  -5    3.09    0.19 
   2  -3   5    3.16    0.18 
  -3   3  -5    0.46    0.07 
  -3   3  -5    0.39    0.08 
   3  -3   5    0.32    0.05 
   3  -3   5    0.40    0.07 
  -4   3  -5    0.09    0.08 
  -4   3  -5    0.21    0.08 
  -4   3  -5    0.10    0.07 
   4  -3   5    0.10    0.05 
   4  -3   5   -0.01    0.07 
   4  -3   5    0.18    0.08 
   4  -3   5    0.08    0.11 
   4  -3   5    0.21    0.07 
  -5   3  -5    2.63    0.18 
  -5   3  -5    3.01    0.18 
   5  -3   5    2.73    0.20 
   5  -3   5    2.77    0.15 
   5  -3   5    3.00    0.20 
   5  -3   5    2.96    0.23 
   5  -3   5    2.93    0.21 
   5  -3   5    2.97    0.18 
   5  -3   5    2.75    0.20 
   5  -3   5    2.92    0.21 
   5  -3   5    3.01    0.19 
   5  -3   5    2.88    0.19 
   5  -3   5    2.81    0.24 
   6  -3   5    7.08    0.35 
   6  -3   5    7.15    0.32 
   6  -3   5    6.87    0.35 
   6  -3   5    6.97    0.27 
   6  -3   5    6.84    0.34 
   6  -3   5    7.21    0.34 
   6  -3   5    6.86    0.34 
   6  -3   5    6.85    0.30 
   6  -3   5    6.70    0.36 
  -7   3  -5    0.40    0.06 
   7  -3   5    0.42    0.08 
   7  -3   5    0.41    0.04 
   7  -3   5    0.43    0.08 
   7  -3   5    0.52    0.07 
   7  -3   5    0.33    0.06 
   7  -3   5    0.43    0.06 
   7  -3   5    0.47    0.08 
   8   2  -5    0.84    0.09 
   8   2  -5    0.67    0.06 
   7   2  -5    1.73    0.14 
   7   2  -5    1.68    0.14 
   7   2  -5    1.85    0.16 
   7   2  -5    1.67    0.12 
   7   2  -5    1.74    0.12 
   7   2  -5    1.63    0.08 
  -7  -2   5    1.82    0.16 
   6   2  -5    0.34    0.12 
   6   2  -5    0.35    0.08 
   6   2  -5    0.42    0.12 
   6   2  -5    0.41    0.10 
   6   2  -5    0.37    0.10 
   6   2  -5    0.32    0.05 
   6   2  -5    0.33    0.09 
   6   2  -5    0.38    0.08 
   5   2  -5    0.84    0.15 
   5   2  -5    0.66    0.08 
   5   2  -5    0.59    0.06 
   5   2  -5    0.56    0.07 
   5   2  -5    0.78    0.11 
  -5  -2   5    0.60    0.13 
   4   2  -5    0.90    0.10 
   4   2  -5    1.09    0.15 
   4   2  -5    0.97    0.09 
   4   2  -5    0.96    0.07 
   4   2  -5    0.95    0.08 
  -4  -2   5    0.96    0.12 
   3   2  -5   45.73    2.77 
   3   2  -5   45.41    1.90 
   3   2  -5   43.62    1.73 
  -3  -2   5   43.17    1.96 
  -3  -2   5   43.75    2.67 
  -3  -2   5   46.76    1.92 
   2   2  -5    4.24    0.19 
   2   2  -5    4.39    0.25 
   2   2  -5    4.77    0.21 
   2   2  -5    4.36    0.31 
  -2  -2   5    4.32    0.33 
  -2  -2   5    4.27    0.24 
  -2  -2   5    4.34    0.22 
   1   2  -5   14.69    0.74 
   1   2  -5   15.20    0.58 
   1   2  -5   14.56    0.92 
  -1  -2   5   14.28    0.65 
  -1  -2   5   15.24    0.65 
  -1  -2   5   13.58    0.89 
   0   2  -5   19.10    0.93 
   0   2  -5   18.48    0.98 
   0  -2   5   18.11    0.82 
   0  -2   5   18.20    0.81 
  -1   2  -5   17.29    0.84 
  -1   2  -5   15.92    0.77 
  -1   2  -5   17.20    0.90 
   1  -2   5   16.72    0.73 
   1  -2   5   16.40    0.75 
  -2   2  -5   18.50    0.99 
  -2   2  -5   18.89    0.85 
  -2   2  -5   18.37    0.93 
   2  -2   5   17.92    0.82 
   2  -2   5   18.14    0.81 
  -3   2  -5    8.80    0.49 
  -3   2  -5    9.81    0.44 
  -3   2  -5    8.91    0.52 
  -3   2  -5    8.87    0.44 
   3  -2   5    9.23    0.43 
   3  -2   5    9.17    0.38 
   3  -2   5    9.26    0.43 
  -4   2  -5    0.57    0.09 
  -4   2  -5    0.60    0.07 
   4  -2   5    0.64    0.08 
   4  -2   5    0.59    0.10 
   4  -2   5    0.58    0.09 
   4  -2   5    0.54    0.06 
  -5   2  -5    6.82    0.34 
  -5   2  -5    6.52    0.34 
   5  -2   5    6.33    0.37 
   5  -2   5    6.69    0.32 
   5  -2   5    6.87    0.35 
   5  -2   5    6.93    0.33 
   5  -2   5    6.60    0.35 
   5  -2   5    6.23    0.34 
   5  -2   5    6.68    0.30 
   5  -2   5    6.49    0.33 
   5  -2   5    6.55    0.27 
   5  -2   5    6.12    0.31 
  -6   2  -5    7.53    0.36 
   6  -2   5    6.98    0.39 
   6  -2   5    7.96    0.37 
   6  -2   5    7.65    0.33 
   6  -2   5    7.52    0.38 
   6  -2   5    7.62    0.37 
   6  -2   5    7.58    0.38 
   6  -2   5    7.51    0.35 
   6  -2   5    7.57    0.29 
  -7   2  -5    1.89    0.11 
  -7   2  -5    2.07    0.12 
   7  -2   5    1.81    0.15 
   7  -2   5    2.17    0.15 
   7  -2   5    1.87    0.15 
   7  -2   5    2.22    0.10 
   7  -2   5    2.16    0.12 
   7  -2   5    2.20    0.15 
   7  -2   5    2.01    0.12 
   8   1  -5    1.98    0.12 
   7   1  -5   -0.03    0.08 
   7   1  -5    0.09    0.06 
   7   1  -5    0.09    0.05 
   7   1  -5    0.08    0.08 
   6   1  -5    0.47    0.11 
   6   1  -5    0.61    0.07 
   6   1  -5    0.48    0.10 
   6   1  -5    0.56    0.05 
   6   1  -5    0.39    0.11 
   6   1  -5    0.74    0.09 
   6   1  -5    0.64    0.12 
  -6  -1   5    0.40    0.10 
   5   1  -5    1.07    0.07 
   5   1  -5    0.99    0.09 
   5   1  -5    1.14    0.11 
   5   1  -5    1.27    0.16 
   5   1  -5    1.14    0.10 
  -5  -1   5    1.08    0.14 
   4   1  -5    0.22    0.06 
   4   1  -5    0.31    0.06 
   4   1  -5    0.23    0.03 
   4   1  -5    0.25    0.09 
  -4  -1   5    0.34    0.10 
  -4  -1   5    0.22    0.11 
   3   1  -5   18.10    0.69 
   3   1  -5   17.61    1.12 
   3   1  -5   17.77    0.76 
  -3  -1   5   17.32    1.09 
  -3  -1   5   17.07    0.79 
   2   1  -5    5.08    0.23 
   2   1  -5    4.33    0.26 
   2   1  -5    4.58    0.33 
   2   1  -5    4.57    0.20 
  -2  -1   5    4.52    0.25 
  -2  -1   5    4.83    0.35 
   1   1  -5    4.93    0.26 
   1   1  -5    4.68    0.33 
   1   1  -5    4.77    0.20 
   1   1  -5    4.93    0.27 
  -1  -1   5    4.42    0.32 
  -1  -1   5    4.78    0.25 
   0   1  -5    2.12    0.13 
   0   1  -5    1.86    0.13 
   0  -1   5    1.89    0.14 
   0  -1   5    1.57    0.15 
  -1   1  -5    3.20    0.19 
  -1   1  -5    3.42    0.20 
  -1   1  -5    3.23    0.17 
   1  -1   5    3.41    0.19 
   1  -1   5    3.15    0.17 
  -2   1  -5   27.97    1.27 
  -2   1  -5   28.58    1.47 
  -2   1  -5   27.48    1.37 
  -2   1  -5   25.59    1.27 
   2  -1   5   28.73    1.19 
   2  -1   5   27.33    1.22 
  -3   1  -5    1.93    0.14 
  -3   1  -5    2.06    0.13 
  -3   1  -5    2.05    0.13 
   3  -1   5    1.94    0.11 
   3  -1   5    1.89    0.13 
   3  -1   5    1.99    0.14 
  -4   1  -5    0.10    0.05 
  -4   1  -5   -0.01    0.06 
   4  -1   5    0.19    0.05 
   4  -1   5    0.01    0.05 
   4  -1   5    0.05    0.09 
   4  -1   5    0.09    0.08 
  -5   1  -5    0.63    0.09 
  -5   1  -5    0.44    0.07 
  -5   1  -5    0.72    0.08 
   5  -1   5    0.99    0.11 
   5  -1   5    0.58    0.08 
   5  -1   5    0.74    0.09 
   5  -1   5    0.93    0.12 
   5  -1   5    0.64    0.11 
   5  -1   5    0.72    0.09 
   5  -1   5    0.45    0.08 
   5  -1   5    0.80    0.09 
   5  -1   5    0.59    0.08 
   5  -1   5    0.74    0.10 
  -6   1  -5   22.05    0.94 
   6  -1   5   21.08    0.89 
   6  -1   5   21.12    0.98 
   6  -1   5   21.17    0.77 
   6  -1   5   22.03    0.94 
   6  -1   5   21.32    0.88 
   6  -1   5   23.01    0.91 
   6  -1   5   18.51    0.95 
  -7   1  -5    0.56    0.06 
   7  -1   5    0.53    0.07 
   7  -1   5    0.66    0.09 
   7  -1   5    0.78    0.10 
   7  -1   5    0.79    0.09 
   7  -1   5    0.50    0.05 
   7  -1   5    0.65    0.07 
   7  -1   5    0.60    0.06 
   6   0  -5    8.67    0.40 
   6   0  -5    8.45    0.40 
   6   0  -5    8.34    0.44 
   6   0  -5    8.30    0.58 
   5   0  -5    1.07    0.15 
   5   0  -5    1.07    0.10 
   5   0  -5    1.07    0.06 
   5   0  -5    1.01    0.10 
   5   0  -5    1.19    0.11 
  -5   0   5    1.40    0.15 
   4   0  -5    3.03    0.17 
   4   0  -5    3.40    0.14 
   4   0  -5    3.44    0.27 
  -4   0   5    3.50    0.31 
  -4   0   5    3.26    0.20 
   3   0  -5    0.08    0.03 
   3   0  -5    0.17    0.04 
   3   0  -5    0.09    0.07 
   3   0  -5    0.13    0.05 
  -3   0   5    0.07    0.11 
  -3   0   5    0.04    0.08 
   2   0  -5   23.17    1.25 
   2   0  -5   23.65    1.47 
   2   0  -5   24.35    0.91 
   2   0  -5   23.52    1.17 
  -2   0   5   24.31    1.43 
  -2   0   5   22.46    1.02 
   1   0  -5   12.07    0.63 
   1   0  -5   12.85    0.67 
   1   0  -5   12.40    0.79 
   1   0  -5   12.54    0.49 
  -1   0   5   12.16    0.77 
  -1   0   5   12.35    0.56 
   0   0  -5    3.71    0.22 
   0   0  -5    3.59    0.21 
   0   0   5    3.43    0.27 
   0   0   5    3.71    0.20 
  -1   0  -5    1.15    0.09 
  -1   0  -5    0.93    0.09 
  -1   0  -5    0.90    0.09 
   1   0   5    0.89    0.12 
   1   0   5    0.98    0.09 
  -2   0  -5    3.33    0.18 
  -2   0  -5    3.25    0.21 
  -2   0  -5    3.26    0.18 
   2   0   5    3.50    0.19 
  -3   0  -5    6.43    0.33 
  -3   0  -5    6.40    0.38 
  -3   0  -5    6.59    0.33 
   3   0   5    7.04    0.33 
   3   0   5    6.47    0.31 
   3   0   5    6.59    0.28 
  -4   0  -5    5.21    0.28 
  -4   0  -5    5.36    0.28 
   4   0   5    5.11    0.27 
   4   0   5    5.58    0.28 
   4   0   5    4.83    0.23 
   4   0   5    5.27    0.28 
  -5   0  -5   25.87    1.26 
  -5   0  -5   27.99    1.18 
  -5   0  -5   26.07    1.25 
   5   0   5   27.00    0.97 
   5   0   5   25.83    1.19 
   5   0   5   27.83    1.12 
   5   0   5   26.40    1.06 
   5   0   5   28.08    1.23 
   5   0   5   27.02    1.21 
   5   0   5   27.06    1.09 
   5   0   5   26.95    1.17 
   5   0   5   28.11    1.19 
   5   0   5   26.92    1.20 
   5   0   5   25.66    1.10 
   5   0   5   26.58    1.18 
   5   0   5   28.00    1.14 
  -6   0  -5    0.24    0.06 
   6   0   5    0.11    0.05 
   6   0   5    0.18    0.09 
   6   0   5    0.17    0.07 
   6   0   5    0.05    0.07 
   6   0   5    0.12    0.09 
   6   0   5    0.20    0.11 
   6   0   5    0.15    0.07 
   6   0   5    0.24    0.07 
   6   0   5    0.18    0.08 
   6   0   5    0.11    0.07 
  -7   0  -5    0.02    0.06 
  -7   0  -5   -0.07    0.05 
  -7   0  -5    0.03    0.05 
   7   0   5   -0.03    0.04 
   7   0   5   -0.05    0.06 
   7   0   5   -0.01    0.05 
   7   0   5    0.03    0.06 
   7   0   5    0.01    0.07 
   7   0   5   -0.02    0.03 
   7   0   5    0.02    0.07 
   7   0   5    0.06    0.05 
   5  -1  -5    6.35    0.34 
   5  -1  -5    6.91    0.47 
   4  -1  -5   47.33    2.56 
   4  -1  -5   56.91    3.22 
   4  -1  -5   53.22    2.00 
  -4   1   5   50.39    3.10 
   3  -1  -5   22.10    1.14 
   3  -1  -5   24.08    0.88 
   3  -1  -5   23.97    1.43 
   3  -1  -5   21.15    1.21 
  -3   1   5   23.09    1.39 
  -3   1   5   21.88    0.99 
   2  -1  -5    8.32    0.42 
   2  -1  -5    7.70    0.45 
   2  -1  -5    8.16    0.53 
  -2   1   5    8.03    0.53 
  -2   1   5    7.74    0.38 
   1  -1  -5  109.68    5.58 
   1  -1  -5  108.67    4.09 
   1  -1  -5  105.26    5.21 
   1  -1  -5  108.13    6.52 
  -1   1   5  105.86    6.24 
  -1   1   5  102.00    4.50 
   0  -1  -5   16.42    0.84 
   0  -1  -5   17.05    0.77 
   0  -1  -5   17.24    0.89 
   0   1   5   16.48    0.73 
   0   1   5   15.93    1.01 
  -1  -1  -5   24.13    1.17 
  -1  -1  -5   25.86    1.17 
  -1  -1  -5   26.70    1.35 
  -1  -1  -5   26.14    1.26 
   1   1   5   25.78    1.10 
   1   1   5   23.82    1.52 
  -2  -1  -5   24.78    1.16 
  -2  -1  -5   25.82    1.16 
  -2  -1  -5   24.84    1.34 
   2   1   5   27.29    1.09 
   2   1   5   23.03    1.39 
  -3  -1  -5    5.00    0.26 
  -3  -1  -5    5.18    0.26 
  -3  -1  -5    4.30    0.29 
   3   1   5    4.71    0.26 
   3   1   5    5.38    0.27 
  -4  -1  -5    0.33    0.06 
  -4  -1  -5    0.22    0.07 
  -4  -1  -5    0.40    0.09 
   4   1   5    0.46    0.10 
   4   1   5    0.41    0.08 
   4   1   5    0.51    0.09 
  -5  -1  -5    0.02    0.05 
   5   1   5    0.05    0.08 
   5   1   5    0.08    0.08 
   5   1   5    0.08    0.08 
   5   1   5    0.09    0.08 
   5   1   5    0.01    0.08 
   5   1   5    0.05    0.11 
   5   1   5    0.29    0.08 
   5   1   5    0.13    0.12 
   5   1   5    0.05    0.06 
   5   1   5    0.19    0.09 
   5   1   5    0.34    0.11 
   5   1   5   -0.06    0.09 
  -6  -1  -5    2.02    0.13 
  -6  -1  -5    1.80    0.15 
   6   1   5    2.01    0.15 
   6   1   5    2.14    0.16 
   6   1   5    1.84    0.14 
   6   1   5    1.82    0.12 
   6   1   5    1.79    0.16 
   6   1   5    1.92    0.13 
   6   1   5    1.78    0.13 
   6   1   5    1.75    0.16 
   6   1   5    1.63    0.15 
   6   1   5    1.87    0.11 
   6   1   5    1.85    0.17 
  -7  -1  -5    4.86    0.24 
  -7  -1  -5    5.31    0.23 
   7   1   5    5.39    0.22 
   7   1   5    5.05    0.24 
   7   1   5    4.91    0.22 
   7   1   5    5.34    0.26 
   7   1   5    4.98    0.25 
   7   1   5    5.50    0.20 
   7   1   5    5.12    0.24 
   5  -2  -5    0.36    0.09 
   5  -2  -5    0.34    0.03 
   5  -2  -5    0.27    0.08 
   5  -2  -5    0.33    0.09 
   4  -2  -5    6.94    0.28 
   4  -2  -5    6.74    0.38 
   4  -2  -5    7.29    0.48 
  -4   2   5    6.29    0.48 
   3  -2  -5    2.07    0.16 
   3  -2  -5    2.43    0.11 
   3  -2  -5    2.59    0.22 
   3  -2  -5    2.34    0.17 
  -3   2   5    2.25    0.25 
   2  -2  -5   26.37    1.27 
   2  -2  -5   25.83    0.99 
   2  -2  -5   27.16    1.59 
   2  -2  -5   25.37    1.35 
  -2   2   5   22.39    1.41 
  -2   2   5   25.07    1.54 
   1  -2  -5    4.66    0.26 
   1  -2  -5    4.46    0.19 
   1  -2  -5    4.65    0.27 
  -1   2   5    4.24    0.31 
  -1   2   5    3.70    0.34 
  -1   2   5    4.63    0.33 
   0  -2  -5   14.03    0.75 
   0  -2  -5   14.29    0.65 
   0  -2  -5   14.44    0.70 
   0   2   5   14.20    0.86 
   0   2   5   14.44    0.61 
   0   2   5   13.40    0.79 
   0   2   5   11.50    0.88 
  -1  -2  -5   17.78    0.97 
  -1  -2  -5   18.78    0.84 
  -1  -2  -5   17.44    0.85 
   1   2   5   18.32    1.11 
   1   2   5   17.78    1.02 
   1   2   5   18.55    0.79 
  -2  -2  -5    1.79    0.13 
  -2  -2  -5    1.73    0.13 
  -2  -2  -5    1.68    0.13 
   2   2   5    1.94    0.14 
   2   2   5    1.89    0.20 
  -3  -2  -5    1.20    0.11 
  -3  -2  -5    1.25    0.12 
  -3  -2  -5    1.24    0.10 
   3   2   5    1.36    0.15 
   3   2   5    1.01    0.10 
   3   2   5    1.24    0.11 
  -4  -2  -5    2.35    0.15 
  -4  -2  -5    2.44    0.17 
  -4  -2  -5    2.32    0.18 
   4   2   5    2.33    0.18 
   4   2   5    2.24    0.16 
   4   2   5    2.35    0.17 
   4   2   5    2.33    0.21 
  -5  -2  -5    8.53    0.39 
  -5  -2  -5    7.92    0.40 
  -5  -2  -5    8.54    0.38 
   5   2   5    8.35    0.39 
   5   2   5    8.57    0.37 
   5   2   5    7.89    0.38 
   5   2   5    8.50    0.42 
   5   2   5    8.40    0.40 
   5   2   5    8.49    0.41 
   5   2   5    8.71    0.41 
   5   2   5    8.34    0.40 
  -6  -2  -5    2.13    0.14 
  -6  -2  -5    2.05    0.16 
  -6  -2  -5    2.15    0.13 
   6   2   5    2.03    0.12 
   6   2   5    2.26    0.15 
   6   2   5    2.17    0.14 
   6   2   5    2.11    0.13 
   6   2   5    1.98    0.14 
   6   2   5    2.09    0.14 
   6   2   5    2.06    0.16 
   6   2   5    1.95    0.16 
   6   2   5    2.09    0.15 
   6   2   5    2.11    0.16 
  -7  -2  -5   13.64    0.60 
   7   2   5   13.97    0.53 
   7   2   5   13.76    0.60 
   7   2   5   12.70    0.59 
   7   2   5   14.37    0.49 
   6  -3  -5    8.55    0.41 
   5  -3  -5    4.00    0.22 
   5  -3  -5    3.50    0.30 
   5  -3  -5    3.82    0.23 
   5  -3  -5    3.30    0.15 
   5  -3  -5    3.60    0.24 
  -5   3   5    2.75    0.37 
   4  -3  -5    4.36    0.19 
   4  -3  -5    4.78    0.26 
   4  -3  -5    4.26    0.27 
   4  -3  -5    5.05    0.34 
  -4   3   5    3.49    0.38 
   3  -3  -5    1.56    0.09 
   3  -3  -5    1.48    0.13 
   3  -3  -5    1.24    0.12 
   3  -3  -5    1.46    0.16 
  -3   3   5    0.99    0.19 
  -3   3   5    1.22    0.14 
  -3   3   5    1.26    0.19 
   2  -3  -5    2.96    0.19 
   2  -3  -5    2.81    0.13 
   2  -3  -5    2.69    0.19 
  -2   3   5    2.41    0.28 
  -2   3   5    3.04    0.25 
  -2   3   5    2.71    0.26 
   1  -3  -5    0.11    0.04 
   1  -3  -5    0.13    0.06 
   1  -3  -5    0.10    0.05 
  -1   3   5    0.04    0.11 
  -1   3   5    0.13    0.09 
  -1   3   5    0.15    0.11 
   0  -3  -5    1.36    0.11 
   0  -3  -5    1.08    0.11 
   0  -3  -5    1.24    0.11 
   0   3   5    1.40    0.16 
   0   3   5    0.90    0.14 
   0   3   5    1.30    0.14 
  -1  -3  -5    6.88    0.35 
  -1  -3  -5    6.23    0.39 
  -1  -3  -5    6.99    0.34 
   1   3   5    7.03    0.44 
   1   3   5    6.98    0.46 
  -2  -3  -5    8.77    0.45 
  -2  -3  -5    9.16    0.45 
  -2  -3  -5    9.26    0.41 
   2   3   5    8.87    0.43 
   2   3   5    9.42    0.55 
  -3  -3  -5   13.94    0.62 
  -3  -3  -5   13.95    0.69 
   3   3   5   14.32    0.64 
   3   3   5   13.93    0.65 
   3   3   5   14.04    0.82 
  -4  -3  -5    0.18    0.09 
  -4  -3  -5    0.04    0.08 
  -4  -3  -5    0.11    0.06 
  -4  -3  -5    0.09    0.08 
   4   3   5    0.10    0.12 
   4   3   5    0.18    0.11 
   4   3   5    0.08    0.07 
   4   3   5    0.21    0.11 
   4   3   5    0.11    0.09 
   4   3   5   -0.12    0.05 
   4   3   5    0.17    0.09 
   4   3   5    0.28    0.10 
  -5  -3  -5    0.19    0.06 
  -5  -3  -5    0.11    0.08 
  -5  -3  -5    0.10    0.07 
   5   3   5    0.13    0.07 
   5   3   5    0.09    0.07 
   5   3   5    0.14    0.06 
   5   3   5    0.07    0.10 
   5   3   5    0.15    0.09 
   5   3   5    0.07    0.08 
  -6  -3  -5    0.18    0.06 
  -6  -3  -5    0.15    0.05 
  -6  -3  -5    0.12    0.06 
  -6  -3  -5    0.24    0.06 
   6   3   5    0.17    0.07 
   6   3   5    0.18    0.05 
   6   3   5    0.07    0.06 
   6   3   5    0.12    0.04 
   6   3   5    0.13    0.05 
   6  -4  -5    0.88    0.10 
   6  -4  -5    1.02    0.13 
   6  -4  -5    0.99    0.14 
   6  -4  -5    0.98    0.11 
   5  -4  -5   27.94    1.30 
   5  -4  -5   30.72    1.43 
   5  -4  -5   28.05    1.18 
   5  -4  -5   30.06    1.35 
   5  -4  -5   31.12    1.31 
   5  -4  -5   29.94    1.37 
   5  -4  -5   30.69    1.64 
   5  -4  -5   29.47    1.50 
   5  -4  -5   29.47    1.05 
   5  -4  -5   30.70    1.51 
  -5   4   5   26.51    1.81 
   4  -4  -5    0.51    0.10 
   4  -4  -5    0.26    0.05 
   4  -4  -5    0.32    0.08 
   4  -4  -5    0.41    0.10 
   4  -4  -5    0.33    0.10 
  -4   4   5    0.27    0.18 
   3  -4  -5   13.65    0.62 
   3  -4  -5   13.30    0.68 
   3  -4  -5   12.80    0.52 
  -3   4   5   11.89    0.90 
   2  -4  -5    2.25    0.12 
   2  -4  -5    2.25    0.17 
   2  -4  -5    2.03    0.17 
   2  -4  -5    2.44    0.19 
  -2   4   5    2.26    0.23 
  -2   4   5    2.29    0.27 
   1  -4  -5   14.41    0.84 
   1  -4  -5   15.41    0.74 
   1  -4  -5   15.90    0.79 
  -1   4   5   16.36    0.97 
  -1   4   5   15.16    1.03 
  -1   4   5   15.44    0.89 
   0  -4  -5   14.60    0.85 
   0  -4  -5   15.23    0.74 
   0   4   5   16.12    1.03 
   0   4   5   16.27    0.90 
  -1  -4  -5    0.21    0.07 
  -1  -4  -5    0.12    0.07 
   1   4   5    0.17    0.10 
   1   4   5    0.28    0.10 
  -2  -4  -5    2.52    0.16 
  -2  -4  -5    1.90    0.16 
   2   4   5    2.41    0.25 
  -3  -4  -5    0.11    0.08 
  -3  -4  -5    0.07    0.07 
  -3  -4  -5   -0.02    0.09 
  -3  -4  -5    0.14    0.07 
  -3  -4  -5   -0.05    0.07 
   3   4   5    0.03    0.13 
   3   4   5   -0.02    0.08 
   3   4   5    0.12    0.12 
   3   4   5   -0.03    0.08 
  -4  -4  -5    3.83    0.24 
  -4  -4  -5    3.82    0.22 
  -4  -4  -5    4.13    0.23 
  -4  -4  -5    3.79    0.21 
   4   4   5    4.16    0.23 
   4   4   5    3.82    0.22 
   4   4   5    3.79    0.23 
   4   4   5    3.86    0.23 
   4   4   5    3.40    0.28 
   4   4   5    3.86    0.27 
  -5  -4  -5   -0.08    0.07 
  -5  -4  -5    0.02    0.06 
  -5  -4  -5   -0.04    0.06 
  -5  -4  -5   -0.01    0.06 
   5   4   5    0.00    0.07 
   5   4   5    0.02    0.07 
   5   4   5   -0.05    0.08 
   5   4   5    0.01    0.07 
   5   4   5   -0.03    0.07 
  -6  -4  -5    0.00    0.04 
  -6  -4  -5   -0.08    0.05 
   6   4   5   -0.02    0.04 
   6   4   5    0.03    0.05 
   6   4   5    0.01    0.03 
   7  -5  -5    5.61    0.29 
   7  -5  -5    5.48    0.36 
   6  -5  -5    0.48    0.11 
   6  -5  -5    0.39    0.09 
   6  -5  -5    0.39    0.09 
   6  -5  -5    0.46    0.10 
   6  -5  -5    0.41    0.09 
   6  -5  -5    0.17    0.13 
   5  -5  -5   18.49    0.88 
   5  -5  -5   18.67    0.81 
   5  -5  -5   16.42    0.82 
   5  -5  -5   17.16    0.80 
   5  -5  -5   17.64    0.73 
   5  -5  -5   15.22    0.91 
   5  -5  -5   17.64    0.64 
   5  -5  -5   18.70    1.01 
   5  -5  -5   18.39    0.94 
   5  -5  -5   18.34    0.84 
   5  -5  -5   16.87    0.70 
   4  -5  -5    5.47    0.30 
   4  -5  -5    5.36    0.30 
   4  -5  -5    5.80    0.31 
   4  -5  -5    4.98    0.38 
   4  -5  -5    5.12    0.38 
   4  -5  -5    4.90    0.33 
   4  -5  -5    5.42    0.30 
  -4   5   5    4.48    0.47 
  -4   5   5    4.92    0.41 
   3  -5  -5    8.96    0.42 
   3  -5  -5    8.13    0.37 
   3  -5  -5    9.11    0.44 
   3  -5  -5    9.43    0.45 
   3  -5  -5    8.65    0.49 
   3  -5  -5    9.23    0.43 
  -3   5   5    8.72    0.62 
  -3   5   5    8.72    0.66 
   2  -5  -5   17.04    0.71 
   2  -5  -5   16.16    0.84 
   2  -5  -5   14.96    0.65 
   2  -5  -5   17.04    0.77 
  -2   5   5   17.25    1.10 
  -2   5   5   14.65    1.02 
   1  -5  -5    0.18    0.10 
   1  -5  -5    0.15    0.08 
   1  -5  -5    0.21    0.08 
  -1   5   5    0.08    0.09 
  -1   5   5    0.29    0.12 
  -1   5   5    0.00    0.15 
   0  -5  -5   16.06    0.77 
   0  -5  -5   14.95    0.77 
   0  -5  -5   16.69    0.71 
   0   5   5   14.93    0.77 
   0   5   5   17.33    0.94 
   0   5   5   17.00    1.08 
  -1  -5  -5   25.17    1.05 
  -1  -5  -5   26.32    1.07 
  -1  -5  -5   22.56    1.17 
   1   5   5   27.16    1.41 
   1   5   5   23.57    1.60 
  -2  -5  -5    7.55    0.42 
  -2  -5  -5    8.54    0.38 
  -2  -5  -5    8.07    0.37 
  -2  -5  -5    7.95    0.39 
  -2  -5  -5    7.71    0.38 
   2   5   5    7.43    0.43 
   2   5   5    7.58    0.46 
   2   5   5    8.82    0.51 
   2   5   5    7.58    0.44 
  -3  -5  -5    2.54    0.20 
  -3  -5  -5    2.91    0.20 
  -3  -5  -5    2.80    0.18 
  -3  -5  -5    2.77    0.17 
   3   5   5    3.12    0.27 
   3   5   5    2.73    0.20 
   3   5   5    2.73    0.22 
   3   5   5    2.64    0.22 
  -4  -5  -5    2.12    0.14 
  -4  -5  -5    1.87    0.16 
  -4  -5  -5    2.24    0.17 
  -4  -5  -5    2.06    0.14 
   4   5   5    2.11    0.19 
   4   5   5    1.97    0.16 
   4   5   5    2.16    0.13 
  -5  -5  -5    0.46    0.06 
  -5  -5  -5    0.54    0.06 
  -5  -5  -5    0.52    0.07 
   5   5   5    0.52    0.06 
   5   5   5    0.59    0.07 
   5   5   5    0.53    0.08 
   7  -6  -5    0.32    0.07 
   7  -6  -5    0.26    0.07 
   6  -6  -5    0.09    0.07 
   6  -6  -5    0.16    0.08 
   6  -6  -5   -0.02    0.09 
   6  -6  -5    0.08    0.06 
   6  -6  -5    0.09    0.06 
   6  -6  -5    0.05    0.09 
   6  -6  -5    0.10    0.07 
   5  -6  -5   11.62    0.58 
   5  -6  -5   11.24    0.52 
   5  -6  -5   10.96    0.45 
   5  -6  -5   10.31    0.54 
   5  -6  -5   11.21    0.62 
   5  -6  -5   11.32    0.68 
   5  -6  -5   10.92    0.47 
   5  -6  -5   10.70    0.41 
   5  -6  -5   11.33    0.55 
   5  -6  -5   10.90    0.52 
   4  -6  -5    6.86    0.38 
   4  -6  -5    8.08    0.38 
   4  -6  -5    7.68    0.39 
   4  -6  -5    7.66    0.35 
   4  -6  -5    7.33    0.30 
   4  -6  -5    8.07    0.44 
   4  -6  -5    7.61    0.49 
   4  -6  -5    7.82    0.46 
   4  -6  -5    7.52    0.41 
   4  -6  -5    7.66    0.38 
   4  -6  -5    7.17    0.36 
   4  -6  -5    7.31    0.33 
  -4   6   5    7.04    0.41 
   3  -6  -5    7.84    0.46 
   3  -6  -5    7.83    0.35 
   3  -6  -5    8.24    0.39 
   3  -6  -5    8.18    0.40 
   3  -6  -5    8.13    0.38 
   3  -6  -5    8.23    0.40 
   3  -6  -5    8.42    0.53 
   3  -6  -5    7.87    0.32 
   3  -6  -5    8.26    0.43 
   3  -6  -5    7.94    0.40 
   3  -6  -5    8.16    0.51 
   3  -6  -5    7.05    0.45 
   3  -6  -5    7.75    0.37 
   3  -6  -5    8.22    0.43 
  -3   6   5    8.07    0.61 
  -3   6   5    7.93    0.45 
   2  -6  -5   55.05    2.27 
   2  -6  -5   52.33    2.03 
   2  -6  -5   52.56    2.29 
   2  -6  -5   54.47    2.44 
   2  -6  -5   52.47    2.21 
   2  -6  -5   52.75    2.12 
   2  -6  -5   53.96    2.55 
   2  -6  -5   52.78    2.33 
   2  -6  -5   56.95    2.43 
   2  -6  -5   52.59    2.70 
  -2   6   5   55.18    2.43 
  -2   6   5   57.57    3.38 
  -2   6   5   50.45    2.45 
   1  -6  -5    0.48    0.10 
   1  -6  -5    0.41    0.09 
   1  -6  -5    0.53    0.09 
   1  -6  -5    0.44    0.09 
   1  -6  -5    0.31    0.09 
   1  -6  -5    0.25    0.12 
   1  -6  -5    0.31    0.09 
   1  -6  -5    0.41    0.11 
   1  -6  -5    0.38    0.18 
  -1   6   5    0.56    0.13 
  -1   6   5    0.57    0.20 
  -1   6   5    0.31    0.12 
   0  -6  -5    1.67    0.16 
   0  -6  -5    1.41    0.13 
   0  -6  -5    1.60    0.14 
   0  -6  -5    0.96    0.14 
   0  -6  -5    1.31    0.14 
   0  -6  -5    1.39    0.12 
   0  -6  -5    1.48    0.16 
   0  -6  -5    1.25    0.10 
   0   6   5    1.44    0.17 
   0   6   5    1.26    0.21 
   0   6   5    1.10    0.15 
   0   6   5    1.55    0.17 
   0   6   5    1.13    0.14 
  -1  -6  -5   20.85    0.96 
  -1  -6  -5   22.10    0.94 
  -1  -6  -5   21.07    0.95 
  -1  -6  -5   22.36    0.91 
   1   6   5   21.13    1.04 
   1   6   5   20.38    1.39 
   1   6   5   21.70    1.02 
   1   6   5   22.52    1.23 
  -2  -6  -5    0.17    0.09 
  -2  -6  -5    0.09    0.09 
  -2  -6  -5    0.20    0.08 
  -2  -6  -5    0.16    0.07 
   2   6   5    0.24    0.09 
   2   6   5    0.26    0.13 
   2   6   5    0.02    0.12 
  -3  -6  -5    4.41    0.24 
  -3  -6  -5    4.89    0.25 
  -3  -6  -5    4.98    0.26 
  -3  -6  -5    4.86    0.26 
   3   6   5    5.31    0.31 
   3   6   5    4.63    0.28 
  -4  -6  -5    4.05    0.21 
  -4  -6  -5    3.73    0.18 
   4   6   5    4.22    0.23 
   4   6   5    3.44    0.20 
   6  -7  -5    2.10    0.17 
   6  -7  -5    2.48    0.15 
   6  -7  -5    2.07    0.14 
   6  -7  -5    2.19    0.13 
   6  -7  -5    2.20    0.12 
   6  -7  -5    2.11    0.14 
   6  -7  -5    2.44    0.19 
   5  -7  -5    0.04    0.06 
   5  -7  -5    0.06    0.04 
   5  -7  -5   -0.02    0.07 
   5  -7  -5    0.05    0.05 
   5  -7  -5   -0.12    0.08 
   5  -7  -5   -0.04    0.11 
   5  -7  -5    0.07    0.11 
   5  -7  -5   -0.01    0.08 
   5  -7  -5    0.02    0.07 
   5  -7  -5    0.18    0.07 
   5  -7  -5    0.04    0.07 
  -5   7   5    0.01    0.08 
   4  -7  -5    2.84    0.22 
   4  -7  -5    2.93    0.28 
   4  -7  -5    2.82    0.17 
   4  -7  -5    3.15    0.23 
   4  -7  -5    2.87    0.21 
   4  -7  -5    2.71    0.18 
   4  -7  -5    2.97    0.15 
   4  -7  -5    3.09    0.17 
   4  -7  -5    2.81    0.16 
   4  -7  -5    2.78    0.25 
   4  -7  -5    3.23    0.20 
   4  -7  -5    2.74    0.17 
   4  -7  -5    3.15    0.20 
  -4   7   5    3.03    0.23 
   3  -7  -5    3.13    0.18 
   3  -7  -5    2.75    0.18 
   3  -7  -5    3.14    0.27 
   3  -7  -5    2.85    0.20 
   3  -7  -5    3.39    0.26 
   3  -7  -5    2.96    0.28 
   3  -7  -5    3.32    0.20 
   3  -7  -5    2.98    0.17 
   3  -7  -5    3.01    0.18 
   3  -7  -5    2.99    0.22 
   3  -7  -5    3.13    0.20 
   3  -7  -5    3.12    0.16 
   3  -7  -5    3.09    0.21 
  -3   7   5    3.21    0.23 
   2  -7  -5    0.18    0.07 
   2  -7  -5   -0.08    0.07 
   2  -7  -5    0.05    0.16 
   2  -7  -5    0.04    0.09 
   2  -7  -5    0.45    0.09 
   2  -7  -5    0.11    0.08 
   2  -7  -5    0.02    0.12 
   2  -7  -5    0.01    0.11 
   2  -7  -5   -0.04    0.07 
   2  -7  -5   -0.09    0.08 
  -2   7   5   -0.06    0.11 
   1  -7  -5    0.29    0.08 
   1  -7  -5    0.22    0.08 
   1  -7  -5    0.33    0.09 
   1  -7  -5    0.26    0.08 
   1  -7  -5    0.26    0.08 
   1  -7  -5    0.22    0.16 
   1  -7  -5    0.28    0.08 
   1  -7  -5    0.58    0.12 
  -1   7   5    0.27    0.11 
  -1   7   5    0.24    0.14 
  -1   7   5    0.29    0.12 
   0  -7  -5    0.08    0.09 
   0  -7  -5   -0.03    0.06 
   0  -7  -5   -0.02    0.06 
   0  -7  -5    0.04    0.07 
   0   7   5    0.01    0.09 
   0   7   5    0.08    0.12 
  -1  -7  -5    0.79    0.09 
  -1  -7  -5    1.06    0.10 
  -1  -7  -5    1.03    0.10 
  -1  -7  -5    0.94    0.11 
   1   7   5    0.84    0.13 
   1   7   5    1.16    0.14 
  -2  -7  -5    0.99    0.10 
  -2  -7  -5    1.15    0.10 
  -2  -7  -5    1.10    0.10 
  -2  -7  -5    0.99    0.10 
   2   7   5    1.23    0.12 
   2   7   5    1.12    0.13 
  -3  -7  -5    3.23    0.17 
  -3  -7  -5    2.91    0.17 
  -3  -7  -5    3.26    0.18 
   3   7   5    3.28    0.20 
   3   7   5    3.78    0.22 
   5  -8  -5    0.89    0.11 
   5  -8  -5    0.69    0.09 
   5  -8  -5    0.95    0.07 
   5  -8  -5    0.93    0.09 
   5  -8  -5    0.87    0.05 
   5  -8  -5    0.89    0.08 
   5  -8  -5    1.02    0.09 
   4  -8  -5   -0.05    0.09 
   4  -8  -5    0.05    0.05 
   4  -8  -5   -0.02    0.06 
   4  -8  -5    0.01    0.06 
   4  -8  -5    0.04    0.04 
   4  -8  -5    0.06    0.07 
   4  -8  -5    0.00    0.06 
   4  -8  -5    0.03    0.05 
   4  -8  -5    0.00    0.08 
   4  -8  -5   -0.01    0.05 
   4  -8  -5   -0.07    0.10 
  -4   8   5    0.01    0.10 
   3  -8  -5    4.54    0.26 
   3  -8  -5    5.55    0.27 
   3  -8  -5    5.12    0.27 
   3  -8  -5    5.28    0.24 
   3  -8  -5    4.97    0.31 
   3  -8  -5    5.26    0.22 
   3  -8  -5    4.94    0.25 
   3  -8  -5    5.10    0.35 
   3  -8  -5    5.68    0.24 
   3  -8  -5    5.06    0.25 
  -3   8   5    5.90    0.34 
  -3   8   5    5.77    0.30 
   2  -8  -5    0.32    0.12 
   2  -8  -5    0.54    0.07 
   2  -8  -5    0.48    0.07 
   2  -8  -5    0.54    0.09 
   2  -8  -5    0.42    0.07 
   2  -8  -5    0.51    0.07 
   2  -8  -5    0.56    0.08 
  -2   8   5    0.70    0.12 
  -2   8   5    0.53    0.09 
   1  -8  -5    0.19    0.05 
   1  -8  -5    0.27    0.07 
   1  -8  -5    0.21    0.11 
   1  -8  -5    0.28    0.08 
   1  -8  -5    0.21    0.07 
  -1   8   5    0.26    0.09 
  -1   8   5    0.15    0.09 
  -1   8   5    0.25    0.07 
   0  -8  -5    1.16    0.11 
   0  -8  -5    1.05    0.10 
   0  -8  -5    1.02    0.10 
   0  -8  -5    0.99    0.10 
   0   8   5    1.13    0.11 
   0   8   5    0.78    0.09 
  -1  -8  -5   -0.02    0.05 
  -1  -8  -5   -0.06    0.06 
  -1  -8  -5    0.05    0.06 
  -1  -8  -5   -0.03    0.05 
   1   8   5   -0.05    0.08 
  -2  -8  -5    0.72    0.07 
  -2  -8  -5    0.60    0.06 
   2   8   5    0.76    0.09 
   3  -9  -5    0.09    0.04 
   2  -9  -5   -0.03    0.05 
  -2   9   5    0.17    0.06 
   1  -9  -5    0.00    0.04 
   1  -9  -5    0.09    0.04 
  -2  -9   6    0.29    0.05 
   1   9  -6    0.70    0.08 
  -1  -9   6    0.56    0.07 
  -1  -9   6    0.55    0.06 
   0   9  -6    0.46    0.07 
   0   9  -6    0.42    0.07 
   0   9  -6    0.36    0.07 
   0  -9   6    0.43    0.07 
   0  -9   6    0.39    0.06 
  -1   9  -6    0.75    0.08 
  -1   9  -6    0.74    0.10 
  -1   9  -6    0.71    0.08 
   1  -9   6    0.69    0.07 
  -2   9  -6   -0.02    0.06 
   2  -9   6   -0.01    0.04 
  -3   9  -6    0.10    0.05 
   4   8  -6    3.32    0.15 
  -4  -8   6    3.28    0.16 
   3   8  -6    2.79    0.19 
   3   8  -6    3.30    0.21 
   3   8  -6    3.29    0.16 
  -3  -8   6    3.03    0.17 
  -3  -8   6    3.29    0.18 
   2   8  -6    2.59    0.16 
   2   8  -6    3.00    0.19 
   2   8  -6    2.85    0.16 
   2   8  -6    2.98    0.21 
   2   8  -6    2.96    0.18 
  -2  -8   6    2.83    0.18 
  -2  -8   6    2.94    0.18 
  -2  -8   6    2.86    0.16 
   1   8  -6    0.23    0.08 
   1   8  -6    0.36    0.10 
   1   8  -6    0.26    0.07 
  -1  -8   6    0.39    0.08 
  -1  -8   6    0.25    0.08 
  -1  -8   6    0.37    0.07 
  -1  -8   6    0.16    0.07 
   0   8  -6    1.38    0.13 
   0   8  -6    1.44    0.14 
   0   8  -6    1.18    0.15 
   0  -8   6    1.38    0.12 
   0  -8   6    1.37    0.14 
   0  -8   6    1.68    0.15 
   0  -8   6    1.20    0.10 
  -1   8  -6    0.42    0.09 
  -1   8  -6    0.67    0.12 
  -1   8  -6    0.44    0.07 
   1  -8   6    0.45    0.07 
   1  -8   6    0.48    0.07 
   1  -8   6    0.37    0.08 
   1  -8   6    0.50    0.08 
  -2   8  -6    5.58    0.35 
  -2   8  -6    5.35    0.27 
   2  -8   6    5.29    0.27 
   2  -8   6    4.70    0.24 
   2  -8   6    5.27    0.26 
  -3   8  -6    0.82    0.08 
  -3   8  -6    0.76    0.10 
   3  -8   6    0.72    0.07 
   3  -8   6    0.61    0.06 
   3  -8   6    0.78    0.08 
   3  -8   6    0.69    0.07 
   3  -8   6    0.60    0.11 
  -4   8  -6    0.14    0.06 
  -4   8  -6    0.11    0.05 
   4  -8   6    0.14    0.04 
   4  -8   6    0.12    0.04 
   4  -8   6    0.10    0.08 
   5   7  -6    0.13    0.03 
   5   7  -6    0.08    0.04 
  -5  -7   6    0.11    0.04 
  -5  -7   6    0.19    0.05 
   4   7  -6    1.41    0.10 
   4   7  -6    1.22    0.10 
   4   7  -6    1.55    0.14 
   4   7  -6    1.53    0.15 
   4   7  -6    1.44    0.11 
  -4  -7   6    1.41    0.11 
  -4  -7   6    1.32    0.10 
  -4  -7   6    1.08    0.12 
   3   7  -6    2.40    0.14 
   3   7  -6    2.52    0.15 
   3   7  -6    2.58    0.23 
   3   7  -6    2.18    0.17 
   3   7  -6    2.60    0.13 
   3   7  -6    2.44    0.17 
  -3  -7   6    1.83    0.18 
  -3  -7   6    2.51    0.16 
  -3  -7   6    2.17    0.18 
   2   7  -6   24.36    1.15 
   2   7  -6   24.57    0.97 
   2   7  -6   23.65    1.22 
   2   7  -6   23.66    0.95 
   2   7  -6   22.56    1.05 
   2   7  -6   24.00    1.09 
  -2  -7   6   21.01    1.03 
  -2  -7   6   24.69    1.00 
  -2  -7   6   24.75    0.98 
   1   7  -6    0.28    0.11 
   1   7  -6   -0.03    0.11 
   1   7  -6    0.04    0.07 
   1   7  -6    0.18    0.11 
  -1  -7   6    0.12    0.09 
  -1  -7   6    0.00    0.08 
  -1  -7   6    0.08    0.09 
   0   7  -6   40.33    2.20 
   0   7  -6   39.77    1.92 
   0   7  -6   42.84    1.78 
   0  -7   6   39.60    1.64 
   0  -7   6   41.64    1.68 
   0  -7   6   37.11    1.78 
   0  -7   6   41.37    1.74 
   0  -7   6   39.95    1.82 
  -1   7  -6    0.02    0.08 
  -1   7  -6    0.03    0.10 
  -1   7  -6   -0.05    0.08 
   1  -7   6    0.01    0.08 
   1  -7   6   -0.10    0.09 
   1  -7   6    0.00    0.08 
   1  -7   6    0.09    0.08 
   1  -7   6   -0.03    0.07 
   1  -7   6    0.15    0.16 
  -2   7  -6    0.17    0.10 
  -2   7  -6    0.20    0.08 
  -2   7  -6    0.25    0.08 
  -2   7  -6    0.36    0.08 
   2  -7   6    0.19    0.07 
   2  -7   6    0.26    0.09 
   2  -7   6    0.11    0.08 
   2  -7   6    0.26    0.15 
   2  -7   6    0.31    0.08 
   2  -7   6   -0.03    0.12 
  -3   7  -6    2.98    0.24 
  -3   7  -6    3.26    0.19 
  -3   7  -6    3.09    0.22 
   3  -7   6    2.74    0.23 
   3  -7   6    3.02    0.18 
   3  -7   6    3.01    0.16 
   3  -7   6    3.17    0.19 
   3  -7   6    2.19    0.27 
  -4   7  -6    2.15    0.18 
  -4   7  -6    2.21    0.17 
  -4   7  -6    2.25    0.14 
   4  -7   6    2.06    0.15 
   4  -7   6    1.87    0.12 
   4  -7   6    2.08    0.19 
   4  -7   6    2.05    0.15 
   4  -7   6    2.00    0.14 
  -5   7  -6    4.36    0.21 
  -5   7  -6    4.28    0.21 
   5  -7   6    3.74    0.24 
   5  -7   6    3.83    0.20 
   5  -7   6    3.67    0.18 
   5  -7   6    3.81    0.16 
   6   6  -6    0.90    0.06 
   6   6  -6    0.85    0.06 
   6   6  -6    0.89    0.09 
  -6  -6   6    0.89    0.08 
   5   6  -6    0.79    0.10 
   5   6  -6    0.67    0.11 
   5   6  -6    0.80    0.08 
   5   6  -6    0.84    0.07 
   5   6  -6    0.84    0.08 
   5   6  -6    0.86    0.07 
   5   6  -6    0.78    0.09 
  -5  -6   6    0.78    0.08 
  -5  -6   6    0.94    0.10 
  -5  -6   6    0.78    0.09 
  -5  -6   6    0.84    0.10 
   4   6  -6    0.45    0.11 
   4   6  -6    0.63    0.09 
   4   6  -6    0.55    0.06 
   4   6  -6    0.66    0.10 
   4   6  -6    0.65    0.08 
   4   6  -6    0.53    0.07 
  -4  -6   6    0.78    0.12 
  -4  -6   6    0.74    0.10 
  -4  -6   6    0.57    0.11 
  -4  -6   6    0.64    0.09 
   3   6  -6    0.34    0.11 
   3   6  -6    0.27    0.10 
   3   6  -6    0.30    0.09 
   3   6  -6    0.24    0.06 
   3   6  -6    0.21    0.06 
   3   6  -6    0.34    0.13 
  -3  -6   6    0.21    0.10 
  -3  -6   6    0.10    0.07 
  -3  -6   6    0.17    0.08 
  -3  -6   6    0.23    0.10 
   2   6  -6   31.10    1.22 
   2   6  -6   30.51    1.45 
   2   6  -6   29.54    1.29 
   2   6  -6   29.49    1.37 
   2   6  -6   29.51    1.20 
   2   6  -6   29.82    1.33 
   2   6  -6   29.96    1.53 
  -2  -6   6   29.52    1.31 
  -2  -6   6   30.01    1.26 
  -2  -6   6   31.29    1.23 
  -2  -6   6   29.76    1.34 
   1   6  -6    3.66    0.19 
   1   6  -6    4.10    0.21 
   1   6  -6    3.97    0.25 
   1   6  -6    4.12    0.29 
   1   6  -6    3.88    0.22 
  -1  -6   6    3.84    0.23 
  -1  -6   6    3.84    0.23 
  -1  -6   6    3.79    0.24 
  -1  -6   6    3.48    0.26 
   0   6  -6    9.40    0.43 
   0  -6   6    7.82    0.43 
   0  -6   6    9.07    0.44 
   0  -6   6    9.44    0.44 
  -1   6  -6   89.90    3.89 
  -1   6  -6   83.48    4.04 
  -1   6  -6   88.37    4.82 
  -1   6  -6   95.46    5.31 
   1  -6   6   80.09    4.07 
   1  -6   6   94.34    3.91 
   1  -6   6   92.66    3.98 
   1  -6   6   91.10    3.67 
   1  -6   6   89.70    3.59 
  -2   6  -6    7.05    0.47 
  -2   6  -6    7.64    0.39 
  -2   6  -6    7.90    0.44 
  -2   6  -6    8.33    0.44 
  -2   6  -6    6.93    0.36 
   2  -6   6    7.31    0.36 
   2  -6   6    7.51    0.39 
   2  -6   6    7.73    0.35 
   2  -6   6    7.85    0.35 
   2  -6   6    5.82    0.54 
   2  -6   6    7.62    0.37 
   2  -6   6    6.93    0.44 
  -3   6  -6    5.65    0.30 
  -3   6  -6    5.75    0.34 
  -3   6  -6    5.19    0.35 
   3  -6   6    5.76    0.28 
   3  -6   6    5.38    0.28 
   3  -6   6    5.41    0.30 
   3  -6   6    4.21    0.40 
   3  -6   6    5.32    0.36 
   3  -6   6    5.30    0.29 
  -4   6  -6    1.52    0.15 
  -4   6  -6    1.68    0.15 
   4  -6   6    1.48    0.17 
   4  -6   6    1.15    0.10 
   4  -6   6    1.28    0.13 
   4  -6   6    1.23    0.11 
   4  -6   6    1.22    0.11 
  -5   6  -6    0.70    0.08 
  -5   6  -6    0.78    0.10 
   5  -6   6    0.95    0.11 
   5  -6   6    0.62    0.10 
   5  -6   6    0.81    0.08 
   5  -6   6    0.86    0.09 
   5  -6   6    0.60    0.06 
   5  -6   6    0.79    0.08 
  -6   6  -6    9.77    0.44 
   6  -6   6    9.21    0.42 
   6  -6   6    9.11    0.39 
   6  -6   6    9.51    0.34 
   6   5  -6    4.41    0.21 
   6   5  -6    4.82    0.22 
   6   5  -6    4.63    0.20 
   6   5  -6    4.22    0.22 
   6   5  -6    4.45    0.25 
   6   5  -6    4.73    0.24 
   6   5  -6    4.67    0.19 
   6   5  -6    4.10    0.27 
  -6  -5   6    4.51    0.22 
   5   5  -6   -0.04    0.07 
   5   5  -6   -0.02    0.06 
   5   5  -6   -0.06    0.04 
   5   5  -6   -0.11    0.08 
   5   5  -6   -0.09    0.08 
   5   5  -6    0.01    0.04 
   5   5  -6   -0.07    0.09 
   5   5  -6    0.09    0.06 
   5   5  -6   -0.06    0.06 
  -5  -5   6    0.00    0.08 
  -5  -5   6    0.00    0.08 
   4   5  -6    1.45    0.14 
   4   5  -6    1.12    0.16 
   4   5  -6    0.84    0.12 
   4   5  -6    0.99    0.10 
   4   5  -6    1.09    0.12 
   4   5  -6    1.01    0.09 
   4   5  -6    1.04    0.09 
  -4  -5   6    0.90    0.12 
  -4  -5   6    0.99    0.11 
  -4  -5   6    1.03    0.12 
   3   5  -6    6.92    0.30 
   3   5  -6    6.59    0.49 
   3   5  -6    6.12    0.32 
   3   5  -6    6.95    0.33 
   3   5  -6    6.56    0.40 
   3   5  -6    6.66    0.34 
   3   5  -6    6.94    0.36 
   3   5  -6    6.45    0.37 
  -3  -5   6    6.83    0.34 
  -3  -5   6    6.60    0.32 
  -3  -5   6    7.09    0.37 
   2   5  -6    2.50    0.18 
   2   5  -6    2.53    0.15 
   2   5  -6    2.38    0.17 
  -2  -5   6    2.11    0.20 
  -2  -5   6    2.69    0.19 
  -2  -5   6    2.49    0.18 
   1   5  -6    1.81    0.16 
  -1  -5   6    1.81    0.14 
   0   5  -6    4.38    0.29 
   0   5  -6    5.13    0.36 
   0  -5   6    5.17    0.27 
  -1   5  -6    0.15    0.07 
  -1   5  -6    0.16    0.07 
  -1   5  -6    0.20    0.10 
   1  -5   6    0.24    0.07 
  -2   5  -6    0.02    0.07 
  -2   5  -6    0.02    0.09 
   2  -5   6    0.09    0.08 
   2  -5   6   -0.05    0.08 
  -3   5  -6    3.92    0.25 
  -3   5  -6    3.73    0.25 
  -3   5  -6    3.66    0.23 
   3  -5   6    3.71    0.21 
   3  -5   6    3.23    0.22 
   3  -5   6    2.98    0.30 
   3  -5   6    3.57    0.22 
   3  -5   6    3.27    0.22 
   3  -5   6    3.30    0.22 
  -4   5  -6    3.55    0.21 
  -4   5  -6    4.00    0.27 
  -4   5  -6    3.78    0.22 
   4  -5   6    3.38    0.26 
   4  -5   6    3.89    0.23 
   4  -5   6    3.79    0.26 
   4  -5   6    3.88    0.22 
   4  -5   6    3.67    0.22 
   4  -5   6    3.91    0.22 
   4  -5   6    3.71    0.22 
   4  -5   6    3.67    0.23 
  -5   5  -6    6.43    0.38 
  -5   5  -6    6.15    0.33 
   5  -5   6    6.32    0.30 
   5  -5   6    6.96    0.29 
   5  -5   6    6.67    0.34 
   5  -5   6    6.37    0.31 
   5  -5   6    6.46    0.33 
   5  -5   6    6.28    0.25 
   5  -5   6    5.23    0.35 
   5  -5   6    6.46    0.32 
  -6   5  -6    3.51    0.19 
  -6   5  -6    3.65    0.18 
   6  -5   6    3.44    0.19 
   6  -5   6    3.16    0.18 
   6  -5   6    3.29    0.21 
   6  -5   6    3.54    0.14 
   6  -5   6    3.60    0.17 
   6  -5   6    3.41    0.18 
   6  -5   6    3.04    0.17 
   7   4  -6    2.72    0.14 
   7   4  -6    2.67    0.11 
   7   4  -6    2.48    0.12 
   7   4  -6    2.76    0.16 
   7   4  -6    2.78    0.17 
  -7  -4   6    2.53    0.14 
   6   4  -6   13.97    0.62 
   6   4  -6   12.92    0.57 
   6   4  -6   13.94    0.74 
   6   4  -6   14.08    0.67 
   6   4  -6   14.04    0.66 
   6   4  -6   14.49    0.58 
   6   4  -6   13.49    0.66 
   6   4  -6   14.22    0.51 
   6   4  -6   13.76    0.61 
   6   4  -6   14.45    0.61 
  -6  -4   6   13.07    0.66 
   5   4  -6    5.45    0.32 
   5   4  -6    4.98    0.26 
   5   4  -6    4.93    0.26 
   5   4  -6    5.16    0.23 
   5   4  -6    5.16    0.29 
   5   4  -6    4.97    0.26 
   5   4  -6    4.90    0.29 
   5   4  -6    4.92    0.22 
   5   4  -6    5.49    0.27 
   5   4  -6    5.05    0.35 
  -5  -4   6    5.47    0.30 
   4   4  -6   19.08    0.91 
   4   4  -6   19.38    0.83 
   4   4  -6   19.13    1.23 
   4   4  -6   19.73    0.89 
   4   4  -6   19.21    0.84 
   4   4  -6   18.76    0.83 
   4   4  -6   19.06    0.84 
   4   4  -6   18.19    0.99 
  -4  -4   6   20.14    0.90 
  -4  -4   6   17.77    0.86 
  -4  -4   6   18.11    0.86 
   3   4  -6    1.22    0.12 
   3   4  -6    1.36    0.13 
   3   4  -6    1.32    0.12 
   3   4  -6    1.22    0.18 
  -3  -4   6    1.18    0.15 
  -3  -4   6    1.22    0.12 
  -3  -4   6    1.00    0.11 
   2   4  -6   -0.07    0.07 
   2   4  -6    0.12    0.09 
  -2  -4   6   -0.06    0.07 
  -2  -4   6    0.06    0.09 
  -2  -4   6    0.11    0.06 
   1   4  -6    3.32    0.21 
  -1  -4   6    3.51    0.19 
  -1  -4   6    3.02    0.21 
   0   4  -6    3.66    0.23 
   0   4  -6    3.82    0.28 
   0  -4   6    4.01    0.22 
  -1   4  -6    1.13    0.12 
  -1   4  -6    1.22    0.15 
   1  -4   6    1.07    0.11 
  -2   4  -6    0.96    0.12 
  -2   4  -6    1.06    0.12 
   2  -4   6    0.90    0.09 
  -3   4  -6    7.70    0.39 
  -3   4  -6    7.92    0.44 
  -3   4  -6    7.49    0.46 
   3  -4   6    7.76    0.40 
   3  -4   6    7.66    0.41 
   3  -4   6    8.17    0.38 
  -4   4  -6   -0.06    0.06 
  -4   4  -6    0.03    0.08 
  -4   4  -6   -0.08    0.06 
  -4   4  -6    0.00    0.08 
   4  -4   6    0.15    0.07 
   4  -4   6    0.04    0.11 
   4  -4   6   -0.03    0.06 
   4  -4   6    0.02    0.08 
   4  -4   6    0.15    0.09 
   4  -4   6   -0.04    0.11 
   4  -4   6    0.13    0.07 
  -5   4  -6    3.15    0.23 
  -5   4  -6    2.99    0.18 
   5  -4   6    3.00    0.19 
   5  -4   6    3.44    0.24 
   5  -4   6    3.18    0.19 
   5  -4   6    3.17    0.19 
   5  -4   6    3.13    0.21 
   5  -4   6    3.09    0.21 
   5  -4   6    3.22    0.15 
   5  -4   6    3.46    0.21 
  -6   4  -6    5.74    0.31 
  -6   4  -6    6.69    0.30 
   6  -4   6    6.65    0.28 
   6  -4   6    5.86    0.29 
   6  -4   6    6.33    0.32 
   6  -4   6    6.29    0.33 
   6  -4   6    6.21    0.29 
   6  -4   6    6.18    0.24 
   6  -4   6    5.84    0.30 
  -7   4  -6    3.49    0.15 
   7  -4   6    3.56    0.16 
   7   3  -6    0.15    0.05 
   7   3  -6    0.18    0.05 
   7   3  -6    0.32    0.08 
   7   3  -6    0.24    0.07 
   7   3  -6    0.26    0.06 
   7   3  -6    0.20    0.03 
   6   3  -6    2.21    0.12 
   6   3  -6    2.31    0.21 
   6   3  -6    2.40    0.23 
   6   3  -6    2.07    0.17 
   6   3  -6    2.35    0.15 
   6   3  -6    2.49    0.19 
   6   3  -6    2.54    0.17 
   6   3  -6    2.39    0.16 
   6   3  -6    2.19    0.15 
  -6  -3   6    2.05    0.17 
   5   3  -6    7.11    0.29 
   5   3  -6    7.04    0.41 
   5   3  -6    7.59    0.45 
   5   3  -6    7.43    0.40 
   5   3  -6    7.44    0.35 
   5   3  -6    7.25    0.34 
   5   3  -6    7.40    0.35 
   5   3  -6    7.79    0.36 
   5   3  -6    7.68    0.35 
   5   3  -6    6.97    0.52 
   5   3  -6    7.11    0.39 
  -5  -3   6    7.68    0.39 
  -5  -3   6    7.23    0.39 
   4   3  -6    0.00    0.05 
   4   3  -6   -0.04    0.05 
   4   3  -6    0.04    0.04 
   4   3  -6    0.06    0.09 
   4   3  -6    0.04    0.08 
  -4  -3   6    0.17    0.10 
  -4  -3   6   -0.08    0.10 
   3   3  -6   53.54    2.16 
   3   3  -6   57.90    3.46 
   3   3  -6   53.97    2.40 
   3   3  -6   53.02    2.50 
   3   3  -6   58.01    2.38 
  -3  -3   6   57.06    2.40 
  -3  -3   6   57.91    2.45 
   2   3  -6   13.10    0.83 
  -2  -3   6   12.93    0.60 
  -2  -3   6   12.59    0.59 
   1   3  -6    3.48    0.22 
  -1  -3   6    3.44    0.19 
  -1  -3   6    3.65    0.21 
   0   3  -6    8.91    0.46 
   0  -3   6    8.53    0.40 
   0  -3   6    8.27    0.40 
  -1   3  -6    0.14    0.07 
  -1   3  -6    0.00    0.04 
   1  -3   6   -0.01    0.06 
   1  -3   6    0.07    0.06 
  -2   3  -6    9.64    0.49 
  -2   3  -6    9.19    0.43 
  -2   3  -6    8.34    0.50 
   2  -3   6    8.52    0.42 
   2  -3   6    9.18    0.42 
  -3   3  -6    0.95    0.12 
  -3   3  -6    0.67    0.10 
  -3   3  -6    0.85    0.09 
   3  -3   6    0.71    0.09 
  -4   3  -6   10.98    0.65 
  -4   3  -6   12.42    0.57 
   4  -3   6   11.89    0.55 
   4  -3   6   11.96    0.52 
   4  -3   6   11.95    0.57 
   4  -3   6   11.47    0.58 
   4  -3   6   11.74    0.55 
  -5   3  -6    1.92    0.14 
   5  -3   6    1.68    0.13 
   5  -3   6    1.99    0.18 
   5  -3   6    1.89    0.11 
   5  -3   6    1.75    0.15 
   5  -3   6    1.85    0.15 
   5  -3   6    1.61    0.14 
   5  -3   6    1.82    0.17 
   5  -3   6    1.99    0.16 
   5  -3   6    1.55    0.16 
   5  -3   6    1.82    0.15 
  -6   3  -6    2.67    0.15 
  -6   3  -6    2.88    0.16 
   6  -3   6    2.43    0.18 
   6  -3   6    2.61    0.17 
   6  -3   6    2.43    0.15 
   6  -3   6    2.79    0.16 
   6  -3   6    2.59    0.12 
   6  -3   6    2.47    0.21 
   6  -3   6    2.62    0.16 
   6  -3   6    2.89    0.15 
  -7   3  -6    0.01    0.03 
   7  -3   6   -0.04    0.03 
   7  -3   6    0.02    0.02 
   7  -3   6   -0.03    0.05 
   7  -3   6    0.07    0.04 
   7  -3   6    0.09    0.06 
   8   2  -6    0.94    0.08 
   7   2  -6    0.20    0.05 
   7   2  -6    0.19    0.09 
   7   2  -6    0.30    0.06 
   7   2  -6    0.25    0.05 
   7   2  -6    0.28    0.07 
   6   2  -6    1.97    0.17 
   6   2  -6    2.21    0.20 
   6   2  -6    1.89    0.15 
   6   2  -6    2.00    0.16 
   6   2  -6    2.31    0.19 
   6   2  -6    2.13    0.12 
   6   2  -6    1.88    0.17 
   6   2  -6    2.26    0.14 
   6   2  -6    2.12    0.17 
   5   2  -6    4.17    0.20 
   5   2  -6    4.65    0.31 
   5   2  -6    4.76    0.36 
   5   2  -6    4.41    0.29 
   5   2  -6    4.32    0.24 
   5   2  -6    4.75    0.28 
   5   2  -6    4.80    0.25 
   5   2  -6    5.01    0.24 
  -5  -2   6    4.93    0.29 
  -5  -2   6    4.43    0.28 
   4   2  -6    1.19    0.09 
   4   2  -6    1.36    0.13 
   4   2  -6    1.30    0.16 
   4   2  -6    1.13    0.08 
   4   2  -6    1.19    0.11 
  -4  -2   6    1.19    0.12 
  -4  -2   6    1.28    0.14 
   3   2  -6    0.43    0.10 
   3   2  -6    0.38    0.06 
   3   2  -6    0.39    0.06 
   3   2  -6    0.38    0.05 
  -3  -2   6    0.40    0.11 
  -3  -2   6    0.20    0.12 
   2   2  -6   17.58    0.88 
   2   2  -6   18.34    1.10 
   2   2  -6   16.93    0.68 
  -2  -2   6   15.53    1.06 
  -2  -2   6   17.73    0.77 
   1   2  -6    1.40    0.12 
  -1  -2   6    1.26    0.13 
   0   2  -6   41.12    1.93 
   0   2  -6   36.31    2.05 
   0  -2   6   39.33    1.71 
   0  -2   6   39.06    1.67 
  -1   2  -6    5.57    0.30 
  -1   2  -6    5.04    0.31 
  -1   2  -6    5.08    0.26 
   1  -2   6    5.35    0.28 
   1  -2   6    5.53    0.26 
  -2   2  -6   19.70    0.88 
  -2   2  -6   17.61    1.02 
  -2   2  -6   18.68    0.96 
   2  -2   6   19.15    0.84 
   2  -2   6   18.94    0.83 
  -3   2  -6   23.70    1.19 
  -3   2  -6   21.81    1.26 
  -3   2  -6   25.56    1.10 
   3  -2   6   23.68    1.06 
   3  -2   6   23.34    1.04 
  -4   2  -6   -0.03    0.07 
  -4   2  -6    0.11    0.06 
   4  -2   6    0.15    0.10 
   4  -2   6    0.03    0.09 
   4  -2   6    0.03    0.07 
   4  -2   6    0.09    0.07 
   4  -2   6    0.12    0.08 
   4  -2   6    0.24    0.09 
   4  -2   6   -0.03    0.07 
  -5   2  -6   14.48    0.63 
  -5   2  -6   14.12    0.67 
   5  -2   6   14.71    0.57 
   5  -2   6   14.06    0.66 
   5  -2   6   13.84    0.59 
   5  -2   6   13.13    0.65 
   5  -2   6   14.46    0.67 
   5  -2   6   13.48    0.65 
   5  -2   6   13.82    0.62 
   5  -2   6   14.47    0.64 
   5  -2   6   13.77    0.52 
   5  -2   6   13.99    0.64 
  -6   2  -6    1.83    0.12 
  -6   2  -6    1.87    0.12 
   6  -2   6    1.75    0.11 
   6  -2   6    2.09    0.15 
   6  -2   6    1.79    0.14 
   6  -2   6    2.21    0.14 
   6  -2   6    1.80    0.16 
   6  -2   6    1.98    0.14 
   6  -2   6    1.79    0.13 
   6  -2   6    2.01    0.16 
  -7   2  -6    2.62    0.13 
   7  -2   6    2.74    0.15 
   7  -2   6    2.67    0.13 
   7  -2   6    2.96    0.14 
   7  -2   6    2.73    0.16 
   7  -2   6    2.77    0.11 
   7  -2   6    2.79    0.16 
   8   1  -6    0.11    0.06 
   7   1  -6    5.24    0.26 
   7   1  -6    5.41    0.29 
   7   1  -6    5.36    0.26 
   7   1  -6    5.37    0.30 
   6   1  -6    0.08    0.08 
   6   1  -6    0.03    0.10 
   6   1  -6    0.03    0.09 
   6   1  -6    0.06    0.04 
   6   1  -6    0.08    0.09 
   6   1  -6    0.12    0.07 
   6   1  -6    0.05    0.08 
   6   1  -6    0.09    0.05 
   6   1  -6    0.10    0.06 
   5   1  -6    2.57    0.16 
   5   1  -6    2.54    0.20 
   5   1  -6    2.63    0.16 
   5   1  -6    2.74    0.24 
   5   1  -6    2.25    0.12 
  -5  -1   6    2.54    0.23 
   4   1  -6    4.60    0.20 
   4   1  -6    4.77    0.23 
   4   1  -6    4.40    0.26 
   4   1  -6    4.99    0.36 
   4   1  -6    4.51    0.24 
  -4  -1   6    4.70    0.27 
   3   1  -6   24.28    1.47 
   3   1  -6   23.80    0.91 
   3   1  -6   22.44    1.18 
  -3  -1   6   23.61    1.04 
  -3  -1   6   22.72    1.44 
   2   1  -6    1.30    0.14 
   2   1  -6    1.32    0.12 
   2   1  -6    1.17    0.07 
  -2  -1   6    1.21    0.17 
  -2  -1   6    1.32    0.12 
   1   1  -6   12.25    0.65 
   1   1  -6   12.52    0.62 
   1   1  -6   12.26    0.48 
  -1  -1   6   12.18    0.55 
  -1  -1   6   10.54    0.75 
   0   1  -6    6.21    0.32 
   0   1  -6    6.95    0.36 
   0   1  -6    6.45    0.37 
   0  -1   6    7.14    0.33 
  -1   1  -6    1.54    0.11 
  -1   1  -6    1.69    0.13 
  -1   1  -6    1.52    0.12 
   1  -1   6    1.52    0.13 
  -2   1  -6    9.12    0.42 
  -2   1  -6    8.28    0.49 
  -2   1  -6    8.38    0.46 
   2  -1   6    8.79    0.41 
   2  -1   6    8.94    0.41 
  -3   1  -6   18.14    0.88 
  -3   1  -6   20.04    0.88 
   3  -1   6   17.74    0.84 
   3  -1   6   19.33    0.84 
   3  -1   6   18.81    0.85 
  -4   1  -6   13.09    0.59 
  -4   1  -6   11.55    0.59 
  -4   1  -6   11.98    0.55 
   4  -1   6   12.23    0.53 
   4  -1   6   12.48    0.57 
   4  -1   6   11.95    0.58 
   4  -1   6   11.37    0.55 
   4  -1   6   11.89    0.56 
   4  -1   6   12.03    0.54 
   4  -1   6   12.09    0.56 
  -5   1  -6    1.88    0.15 
  -5   1  -6    1.99    0.13 
  -5   1  -6    2.00    0.15 
   5  -1   6    1.99    0.18 
   5  -1   6    1.94    0.15 
   5  -1   6    1.97    0.14 
   5  -1   6    1.84    0.16 
   5  -1   6    1.78    0.17 
   5  -1   6    1.88    0.12 
   5  -1   6    2.02    0.16 
   5  -1   6    2.11    0.16 
   5  -1   6    1.96    0.17 
   5  -1   6    1.90    0.16 
   5  -1   6    2.04    0.16 
  -6   1  -6    2.46    0.16 
  -6   1  -6    2.91    0.15 
  -6   1  -6    2.44    0.14 
   6  -1   6    2.40    0.18 
   6  -1   6    2.65    0.16 
   6  -1   6    2.40    0.16 
   6  -1   6    2.49    0.13 
   6  -1   6    2.50    0.16 
   6  -1   6    2.56    0.17 
   6  -1   6    2.54    0.15 
   6  -1   6    2.22    0.19 
   6  -1   6    2.81    0.17 
  -7   1  -6    1.25    0.08 
   7  -1   6    1.07    0.09 
   7  -1   6    1.09    0.10 
   7  -1   6    1.27    0.07 
   7  -1   6    1.14    0.09 
   7  -1   6    1.21    0.10 
   7  -1   6    1.27    0.09 
   7   0  -6    0.50    0.09 
   7   0  -6    0.42    0.07 
   6   0  -6   20.26    0.93 
   6   0  -6   19.50    1.03 
   6   0  -6   20.28    0.88 
   6   0  -6   18.63    1.27 
   6   0  -6   19.80    0.92 
   6   0  -6   20.34    0.95 
   6   0  -6   20.23    0.86 
   5   0  -6    2.68    0.16 
   5   0  -6    2.60    0.13 
   5   0  -6    3.01    0.16 
   5   0  -6    2.87    0.21 
   5   0  -6    3.06    0.26 
   5   0  -6    2.73    0.17 
  -5   0   6    2.82    0.21 
   4   0  -6    4.93    0.34 
   4   0  -6    4.41    0.26 
   4   0  -6    4.73    0.23 
   4   0  -6    4.36    0.19 
   4   0  -6    4.25    0.22 
  -4   0   6    4.27    0.26 
   3   0  -6    0.56    0.09 
   3   0  -6    0.46    0.09 
   3   0  -6    0.46    0.05 
  -3   0   6    0.48    0.15 
  -3   0   6    0.59    0.10 
   2   0  -6    1.55    0.15 
   2   0  -6    1.55    0.14 
   2   0  -6    1.60    0.08 
  -2   0   6    1.52    0.20 
  -2   0   6    1.49    0.14 
   1   0  -6    7.31    0.47 
   1   0  -6    7.27    0.40 
   1   0  -6    7.62    0.39 
  -1   0   6    7.19    0.35 
  -1   0   6    6.74    0.47 
  -1   0   6    6.32    0.44 
   0   0  -6    1.88    0.12 
   0   0  -6    2.11    0.14 
   0   0  -6    1.91    0.14 
   0   0   6    1.67    0.18 
   0   0   6    2.05    0.16 
   0   0   6    1.73    0.18 
  -1   0  -6    3.49    0.22 
  -1   0  -6    3.49    0.21 
  -1   0  -6    3.78    0.20 
   1   0   6    3.72    0.21 
  -2   0  -6   12.20    0.71 
  -2   0  -6   13.83    0.62 
   2   0   6   13.08    0.59 
  -3   0  -6    0.45    0.08 
  -3   0  -6    0.39    0.07 
   3   0   6    0.33    0.08 
   3   0   6    0.44    0.10 
  -4   0  -6    0.09    0.06 
  -4   0  -6    0.06    0.07 
  -4   0  -6    0.05    0.06 
  -4   0  -6    0.04    0.06 
   4   0   6    0.07    0.07 
   4   0   6    0.07    0.10 
   4   0   6    0.15    0.13 
   4   0   6   -0.04    0.07 
   4   0   6    0.13    0.09 
   4   0   6    0.08    0.08 
  -5   0  -6    6.18    0.28 
  -5   0  -6    5.97    0.33 
  -5   0  -6    7.27    0.31 
  -5   0  -6    6.13    0.32 
   5   0   6    6.31    0.30 
   5   0   6    6.92    0.27 
   5   0   6    5.92    0.35 
   5   0   6    6.31    0.30 
   5   0   6    6.20    0.30 
   5   0   6    6.49    0.32 
   5   0   6    6.22    0.32 
   5   0   6    6.76    0.31 
   5   0   6    6.51    0.35 
   5   0   6    6.53    0.32 
   5   0   6    6.39    0.33 
  -6   0  -6    2.83    0.15 
  -6   0  -6    2.57    0.14 
   6   0   6    2.91    0.18 
   6   0   6    2.64    0.17 
   6   0   6    2.59    0.14 
   6   0   6    2.63    0.19 
   6   0   6    2.76    0.17 
   6   0   6    2.53    0.15 
   6   0   6    2.68    0.16 
   6   0   6    2.52    0.17 
   6   0   6    2.66    0.16 
   6   0   6    2.67    0.16 
  -7   0  -6    1.57    0.11 
  -7   0  -6    1.39    0.09 
   7   0   6    1.35    0.11 
   7   0   6    1.41    0.10 
   7   0   6    1.52    0.09 
   7   0   6    1.53    0.08 
   7   0   6    1.33    0.09 
   7   0   6    1.36    0.11 
   6  -1  -6   17.72    0.84 
   6  -1  -6   17.79    0.83 
   6  -1  -6   17.36    0.82 
   6  -1  -6   17.87    0.93 
   6  -1  -6   17.52    1.14 
   5  -1  -6   17.96    0.71 
   5  -1  -6   18.67    0.85 
   5  -1  -6   18.83    1.18 
   5  -1  -6   17.61    0.83 
   4  -1  -6    2.72    0.20 
   4  -1  -6    2.79    0.20 
   4  -1  -6    3.16    0.25 
   3  -1  -6   37.16    1.81 
   3  -1  -6   39.11    2.27 
  -3   1   6   33.02    2.19 
   2  -1  -6    4.61    0.28 
   2  -1  -6    4.75    0.33 
   2  -1  -6    4.83    0.20 
   2  -1  -6    4.95    0.27 
  -2   1   6    4.67    0.35 
  -2   1   6    4.44    0.24 
  -2   1   6    4.22    0.33 
   1  -1  -6    0.11    0.04 
   1  -1  -6    0.07    0.06 
   1  -1  -6    0.14    0.06 
   1  -1  -6    0.06    0.06 
  -1   1   6    0.15    0.06 
  -1   1   6    0.21    0.10 
  -1   1   6    0.05    0.09 
   0  -1  -6    1.89    0.14 
   0  -1  -6    2.21    0.14 
   0  -1  -6    2.09    0.13 
   0   1   6    1.82    0.21 
   0   1   6    1.80    0.18 
   0   1   6    1.88    0.15 
  -1  -1  -6    1.03    0.10 
  -1  -1  -6    1.13    0.11 
  -1  -1  -6    1.09    0.10 
   1   1   6    1.18    0.13 
   1   1   6    1.10    0.10 
   1   1   6    1.09    0.12 
  -2  -1  -6    0.08    0.05 
  -2  -1  -6    0.19    0.07 
  -2  -1  -6    0.08    0.05 
   2   1   6    0.11    0.07 
   2   1   6    0.15    0.08 
  -3  -1  -6    2.04    0.13 
  -3  -1  -6    1.92    0.14 
  -3  -1  -6    1.56    0.14 
   3   1   6    2.02    0.17 
   3   1   6    1.92    0.15 
  -4  -1  -6   -0.01    0.07 
  -4  -1  -6    0.07    0.07 
  -4  -1  -6   -0.06    0.06 
  -4  -1  -6    0.03    0.07 
  -4  -1  -6    0.04    0.06 
   4   1   6    0.10    0.10 
   4   1   6   -0.10    0.09 
   4   1   6    0.12    0.12 
   4   1   6   -0.01    0.07 
   4   1   6    0.09    0.08 
   4   1   6    0.21    0.09 
   4   1   6    0.13    0.07 
  -5  -1  -6   37.29    1.50 
  -5  -1  -6   33.19    1.34 
   5   1   6   35.14    1.38 
   5   1   6   35.50    1.41 
   5   1   6   35.83    1.55 
   5   1   6   34.81    1.52 
   5   1   6   34.25    1.52 
   5   1   6   36.35    1.46 
   5   1   6   36.54    1.48 
   5   1   6   35.51    1.57 
  -6  -1  -6    2.94    0.16 
  -6  -1  -6    3.28    0.17 
  -6  -1  -6    3.18    0.19 
   6   1   6    2.61    0.18 
   6   1   6    3.03    0.18 
   6   1   6    3.03    0.17 
   6   1   6    2.98    0.16 
   6   1   6    2.81    0.17 
   6   1   6    3.00    0.18 
   6   1   6    3.17    0.18 
   6   1   6    2.95    0.19 
   6   1   6    3.01    0.15 
  -7  -1  -6    3.99    0.19 
   7   1   6    4.14    0.16 
   7   1   6    4.03    0.17 
   6  -2  -6    2.40    0.23 
   6  -2  -6    2.30    0.18 
   6  -2  -6    2.23    0.15 
   6  -2  -6    2.62    0.19 
  -6   2   6    1.88    0.28 
   5  -2  -6   13.94    0.58 
   5  -2  -6   15.26    0.68 
   5  -2  -6   16.08    0.70 
   5  -2  -6   13.56    0.77 
   4  -2  -6   18.38    0.95 
   4  -2  -6   19.30    0.86 
   4  -2  -6   18.24    0.72 
   4  -2  -6   19.84    1.19 
  -4   2   6   16.61    1.07 
   3  -2  -6   31.89    1.49 
   3  -2  -6   32.78    1.86 
   3  -2  -6   28.37    1.59 
   3  -2  -6   30.50    1.16 
  -3   2   6   27.47    1.66 
  -3   2   6   27.23    1.80 
   2  -2  -6   15.09    0.73 
   2  -2  -6   13.68    0.78 
   2  -2  -6   14.82    0.91 
   2  -2  -6   13.81    0.56 
  -2   2   6   13.65    0.82 
  -2   2   6   13.93    0.90 
   1  -2  -6    1.92    0.15 
   1  -2  -6    2.10    0.15 
   1  -2  -6    2.08    0.11 
  -1   2   6    2.03    0.24 
  -1   2   6    1.33    0.21 
  -1   2   6    2.15    0.21 
   0  -2  -6    0.04    0.05 
   0  -2  -6    0.04    0.06 
   0  -2  -6    0.06    0.06 
   0   2   6    0.01    0.08 
   0   2   6    0.00    0.08 
   0   2   6    0.08    0.05 
  -1  -2  -6    5.95    0.29 
  -1  -2  -6    5.10    0.33 
   1   2   6    5.38    0.39 
   1   2   6    5.33    0.36 
   1   2   6    5.70    0.27 
  -2  -2  -6    0.45    0.08 
  -2  -2  -6    0.51    0.07 
  -2  -2  -6    0.18    0.07 
   2   2   6    0.40    0.07 
   2   2   6    0.41    0.09 
   2   2   6    0.34    0.08 
  -3  -2  -6    0.20    0.08 
  -3  -2  -6    0.25    0.07 
  -3  -2  -6    0.30    0.08 
  -3  -2  -6    0.29    0.08 
  -3  -2  -6    0.26    0.08 
   3   2   6    0.29    0.10 
   3   2   6    0.31    0.08 
   3   2   6    0.30    0.08 
   3   2   6    0.22    0.07 
   3   2   6    0.36    0.11 
  -4  -2  -6   12.20    0.51 
  -4  -2  -6   11.57    0.47 
  -4  -2  -6   12.45    0.52 
  -4  -2  -6   11.62    0.54 
   4   2   6   11.44    0.56 
   4   2   6   12.12    0.55 
   4   2   6   11.09    0.55 
   4   2   6   11.21    0.51 
   4   2   6   12.26    0.54 
   4   2   6   10.88    0.61 
   4   2   6   11.14    0.51 
  -5  -2  -6    3.56    0.23 
  -5  -2  -6    3.78    0.20 
  -5  -2  -6    3.77    0.21 
   5   2   6    3.68    0.21 
   5   2   6    3.64    0.21 
   5   2   6    3.69    0.19 
   5   2   6    3.49    0.24 
   5   2   6    4.05    0.23 
   5   2   6    3.70    0.22 
  -6  -2  -6    4.71    0.22 
  -6  -2  -6    4.91    0.23 
  -6  -2  -6    4.45    0.23 
  -6  -2  -6    4.30    0.22 
   6   2   6    4.40    0.20 
   6   2   6    4.62    0.22 
   6   2   6    4.49    0.19 
   6   2   6    4.87    0.23 
   6   2   6    4.74    0.22 
   6   2   6    4.48    0.23 
   6   2   6    4.53    0.24 
   6  -3  -6    5.74    0.40 
   6  -3  -6    5.68    0.30 
   6  -3  -6    5.90    0.33 
   6  -3  -6    5.66    0.31 
   6  -3  -6    5.62    0.37 
   5  -3  -6    5.18    0.28 
   5  -3  -6    5.39    0.34 
   5  -3  -6    5.35    0.32 
   5  -3  -6    5.43    0.28 
   5  -3  -6    4.91    0.30 
   5  -3  -6    4.70    0.31 
  -5   3   6    4.20    0.44 
   4  -3  -6    9.81    0.53 
   4  -3  -6    9.27    0.39 
   4  -3  -6    9.97    0.66 
   4  -3  -6   10.28    0.48 
   4  -3  -6   10.14    0.47 
  -4   3   6    8.41    0.70 
  -4   3   6    9.49    0.60 
   3  -3  -6    4.36    0.25 
   3  -3  -6    4.29    0.19 
   3  -3  -6    4.49    0.27 
  -3   3   6    4.05    0.32 
  -3   3   6    3.62    0.38 
   2  -3  -6    0.00    0.04 
   2  -3  -6    0.00    0.06 
   2  -3  -6    0.01    0.06 
  -2   3   6   -0.02    0.11 
  -2   3   6    0.03    0.10 
   1  -3  -6    2.99    0.22 
   1  -3  -6    3.65    0.23 
  -1   3   6    3.92    0.31 
  -1   3   6    3.85    0.28 
  -1   3   6    3.21    0.31 
   0  -3  -6    0.00    0.05 
   0   3   6    0.11    0.09 
   0   3   6   -0.05    0.09 
  -1  -3  -6    9.94    0.45 
  -1  -3  -6    9.10    0.49 
  -1  -3  -6   10.09    0.50 
   1   3   6   10.79    0.47 
   1   3   6   10.80    0.61 
  -2  -3  -6   10.65    0.57 
  -2  -3  -6   12.25    0.52 
  -2  -3  -6   11.62    0.57 
   2   3   6   12.01    0.55 
   2   3   6   12.38    0.70 
  -3  -3  -6    4.35    0.23 
  -3  -3  -6    3.90    0.24 
  -3  -3  -6    4.01    0.24 
  -3  -3  -6    4.03    0.21 
  -3  -3  -6    4.47    0.23 
   3   3   6    4.20    0.26 
   3   3   6    4.39    0.24 
   3   3   6    3.89    0.30 
   3   3   6    4.09    0.28 
   3   3   6    3.96    0.30 
   3   3   6    4.40    0.27 
  -4  -3  -6    0.21    0.08 
  -4  -3  -6    0.24    0.07 
  -4  -3  -6    0.38    0.08 
  -4  -3  -6    0.27    0.10 
   4   3   6    0.40    0.10 
   4   3   6    0.49    0.11 
   4   3   6    0.27    0.11 
   4   3   6    0.14    0.11 
   4   3   6    0.34    0.07 
   4   3   6    0.32    0.09 
   4   3   6    0.58    0.10 
  -5  -3  -6    3.66    0.19 
  -5  -3  -6    3.59    0.21 
  -5  -3  -6    3.41    0.19 
  -5  -3  -6    3.34    0.20 
   5   3   6    3.23    0.19 
   5   3   6    3.34    0.19 
   5   3   6    3.37    0.18 
   5   3   6    3.42    0.21 
  -6  -3  -6    0.11    0.05 
  -6  -3  -6    0.11    0.04 
  -6  -3  -6    0.10    0.04 
   6   3   6    0.11    0.04 
   6   3   6    0.08    0.05 
   6  -4  -6   -0.04    0.09 
   6  -4  -6    0.21    0.10 
   6  -4  -6   -0.09    0.11 
   6  -4  -6    0.00    0.08 
   6  -4  -6    0.04    0.10 
   6  -4  -6    0.01    0.07 
   5  -4  -6    7.79    0.40 
   5  -4  -6    8.12    0.45 
   5  -4  -6    7.71    0.38 
   5  -4  -6    7.14    0.38 
   5  -4  -6    7.38    0.48 
   5  -4  -6    6.99    0.33 
   5  -4  -6    7.33    0.29 
   5  -4  -6    7.96    0.42 
   5  -4  -6    7.07    0.43 
  -5   4   6    6.41    0.59 
   4  -4  -6    0.82    0.11 
   4  -4  -6    1.00    0.14 
   4  -4  -6    1.16    0.18 
   4  -4  -6    0.81    0.12 
   4  -4  -6    0.83    0.07 
   4  -4  -6    0.89    0.11 
  -4   4   6    0.44    0.18 
   3  -4  -6   20.21    0.92 
   3  -4  -6   20.61    0.91 
   3  -4  -6   21.75    0.95 
   3  -4  -6   20.77    1.05 
   3  -4  -6   19.46    0.81 
  -3   4   6   20.72    1.17 
  -3   4   6   18.77    1.34 
   2  -4  -6    1.27    0.09 
   2  -4  -6    1.22    0.12 
   2  -4  -6    1.57    0.14 
  -2   4   6    1.47    0.22 
  -2   4   6    1.48    0.18 
   1  -4  -6    9.52    0.47 
   1  -4  -6    9.49    0.44 
  -1   4   6   10.16    0.60 
  -1   4   6    9.45    0.70 
   0  -4  -6    1.89    0.14 
   0   4   6    2.22    0.21 
   0   4   6    1.69    0.25 
  -1  -4  -6    2.44    0.18 
  -1  -4  -6    2.62    0.19 
  -1  -4  -6    2.85    0.18 
   1   4   6    2.82    0.28 
  -2  -4  -6    6.31    0.30 
  -2  -4  -6    6.07    0.30 
  -2  -4  -6    5.27    0.32 
   2   4   6    5.75    0.32 
   2   4   6    6.07    0.39 
   2   4   6    6.60    0.41 
  -3  -4  -6    0.58    0.10 
  -3  -4  -6    0.59    0.09 
  -3  -4  -6    0.34    0.07 
  -3  -4  -6    0.57    0.09 
   3   4   6    0.69    0.10 
   3   4   6    0.39    0.13 
   3   4   6    0.61    0.13 
   3   4   6    0.46    0.10 
  -4  -4  -6    3.43    0.21 
  -4  -4  -6    3.56    0.19 
  -4  -4  -6    3.55    0.20 
  -4  -4  -6    3.55    0.22 
   4   4   6    3.63    0.24 
   4   4   6    3.38    0.24 
   4   4   6    3.37    0.21 
   4   4   6    3.68    0.20 
   4   4   6    3.71    0.23 
  -5  -4  -6    0.23    0.06 
  -5  -4  -6    0.20    0.06 
  -5  -4  -6    0.22    0.06 
  -5  -4  -6    0.15    0.05 
   5   4   6    0.23    0.08 
   5   4   6    0.20    0.06 
   7  -5  -6   11.46    0.64 
   7  -5  -6   11.68    0.55 
   7  -5  -6   10.94    0.53 
   7  -5  -6   10.62    0.50 
   6  -5  -6    3.59    0.22 
   6  -5  -6    3.69    0.23 
   6  -5  -6    3.45    0.18 
   6  -5  -6    3.24    0.26 
   6  -5  -6    3.19    0.21 
   6  -5  -6    3.63    0.27 
   6  -5  -6    3.34    0.20 
   5  -5  -6    1.91    0.20 
   5  -5  -6    1.35    0.11 
   5  -5  -6    1.37    0.14 
   5  -5  -6    1.84    0.16 
   5  -5  -6    1.54    0.14 
   5  -5  -6    1.49    0.16 
   5  -5  -6    1.60    0.15 
   5  -5  -6    1.58    0.13 
   5  -5  -6    1.82    0.19 
   5  -5  -6    1.69    0.11 
   4  -5  -6   20.25    0.91 
   4  -5  -6   18.26    1.00 
   4  -5  -6   19.10    0.71 
   4  -5  -6   19.56    0.88 
   4  -5  -6   19.88    1.11 
   4  -5  -6   19.89    0.89 
   4  -5  -6   19.89    0.92 
   4  -5  -6   18.99    0.80 
   4  -5  -6   19.43    0.96 
   4  -5  -6   19.74    0.77 
   4  -5  -6   19.84    1.03 
  -4   5   6   17.69    1.29 
   3  -5  -6    5.84    0.30 
   3  -5  -6    5.65    0.33 
   3  -5  -6    5.75    0.30 
   3  -5  -6    5.75    0.33 
   3  -5  -6    5.29    0.25 
   3  -5  -6    5.16    0.33 
   3  -5  -6    5.72    0.27 
   3  -5  -6    5.34    0.26 
   3  -5  -6    5.84    0.40 
  -3   5   6    5.54    0.48 
  -3   5   6    4.95    0.43 
   2  -5  -6    0.84    0.18 
   2  -5  -6    0.57    0.11 
   2  -5  -6    0.65    0.11 
   2  -5  -6    0.66    0.11 
   2  -5  -6    0.58    0.09 
  -2   5   6    0.72    0.19 
  -2   5   6    0.54    0.12 
   1  -5  -6    3.22    0.22 
   1  -5  -6    3.02    0.20 
   1  -5  -6    3.10    0.21 
   1  -5  -6    3.39    0.20 
  -1   5   6    3.24    0.33 
  -1   5   6    3.02    0.23 
  -1   5   6    3.42    0.28 
   0  -5  -6   21.35    0.91 
   0  -5  -6   21.76    0.93 
   0  -5  -6   21.39    0.96 
   0   5   6   24.11    1.24 
   0   5   6   20.25    1.04 
   0   5   6   20.37    1.40 
  -1  -5  -6    0.21    0.08 
  -1  -5  -6    0.32    0.09 
  -1  -5  -6    0.24    0.09 
  -1  -5  -6    0.47    0.13 
  -1  -5  -6    0.30    0.07 
  -1  -5  -6    0.32    0.09 
  -1  -5  -6    0.33    0.08 
  -1  -5  -6    0.23    0.10 
   1   5   6    0.31    0.13 
   1   5   6    0.23    0.13 
   1   5   6    0.36    0.14 
   1   5   6    0.28    0.13 
  -2  -5  -6    3.34    0.20 
  -2  -5  -6    2.96    0.20 
  -2  -5  -6    2.89    0.20 
  -2  -5  -6    3.19    0.18 
   2   5   6    2.90    0.22 
   2   5   6    2.97    0.23 
   2   5   6    3.02    0.26 
   2   5   6    3.11    0.25 
  -3  -5  -6   -0.07    0.08 
  -3  -5  -6   -0.01    0.07 
  -3  -5  -6    0.00    0.08 
  -3  -5  -6    0.01    0.07 
   3   5   6    0.09    0.09 
   3   5   6   -0.03    0.09 
   3   5   6    0.02    0.10 
   3   5   6    0.05    0.09 
  -4  -5  -6    5.40    0.27 
  -4  -5  -6    5.77    0.27 
  -4  -5  -6    5.63    0.28 
  -4  -5  -6    5.69    0.27 
   4   5   6    5.69    0.28 
   4   5   6    5.52    0.31 
  -5  -5  -6    0.06    0.04 
   5   5   6    0.07    0.05 
   6  -6  -6    1.91    0.14 
   6  -6  -6    2.06    0.14 
   6  -6  -6    1.97    0.13 
   6  -6  -6    1.97    0.12 
   6  -6  -6    1.93    0.13 
   6  -6  -6    1.74    0.18 
   6  -6  -6    2.04    0.21 
   6  -6  -6    2.19    0.16 
   5  -6  -6    0.77    0.06 
   5  -6  -6    0.78    0.09 
   5  -6  -6    0.71    0.13 
   5  -6  -6    0.60    0.09 
   5  -6  -6    0.90    0.13 
   5  -6  -6    0.76    0.10 
   5  -6  -6    0.78    0.10 
   5  -6  -6    0.93    0.16 
   5  -6  -6    0.63    0.08 
   5  -6  -6    0.89    0.09 
  -5   6   6    0.60    0.10 
   4  -6  -6    6.94    0.37 
   4  -6  -6    7.01    0.36 
   4  -6  -6    6.88    0.44 
   4  -6  -6    6.99    0.41 
   4  -6  -6    7.19    0.32 
   4  -6  -6    6.99    0.47 
   4  -6  -6    7.15    0.33 
   4  -6  -6    7.43    0.38 
   4  -6  -6    7.17    0.28 
   4  -6  -6    7.19    0.36 
  -4   6   6    7.10    0.40 
   3  -6  -6    6.27    0.34 
   3  -6  -6    6.27    0.27 
   3  -6  -6    6.53    0.35 
   3  -6  -6    6.13    0.37 
   3  -6  -6    6.40    0.32 
   3  -6  -6    6.60    0.30 
   3  -6  -6    6.67    0.34 
   3  -6  -6    6.42    0.42 
   3  -6  -6    6.30    0.34 
   3  -6  -6    6.85    0.45 
   3  -6  -6    6.50    0.33 
   3  -6  -6    6.73    0.35 
   3  -6  -6    6.75    0.29 
  -3   6   6    6.22    0.36 
  -3   6   6    6.60    0.37 
   2  -6  -6   -0.05    0.09 
   2  -6  -6   -0.05    0.08 
   2  -6  -6    0.05    0.08 
   2  -6  -6    0.07    0.10 
   2  -6  -6    0.02    0.13 
   2  -6  -6    0.09    0.07 
   2  -6  -6   -0.12    0.08 
   2  -6  -6   -0.08    0.07 
   2  -6  -6   -0.02    0.11 
  -2   6   6   -0.02    0.10 
  -2   6   6    0.19    0.11 
  -2   6   6    0.01    0.12 
   1  -6  -6    7.27    0.34 
   1  -6  -6    6.34    0.38 
   1  -6  -6    7.13    0.31 
   1  -6  -6    7.99    0.41 
   1  -6  -6    7.37    0.33 
   1  -6  -6    7.26    0.35 
   1  -6  -6    7.12    0.35 
   1  -6  -6    7.42    0.37 
  -1   6   6    7.28    0.42 
  -1   6   6    6.65    0.39 
  -1   6   6    7.17    0.55 
   0  -6  -6    6.43    0.32 
   0  -6  -6    5.80    0.30 
   0  -6  -6    5.78    0.29 
   0  -6  -6    5.89    0.29 
   0  -6  -6    6.13    0.34 
   0  -6  -6    5.95    0.26 
   0  -6  -6    4.81    0.30 
   0   6   6    5.90    0.39 
   0   6   6    5.82    0.34 
   0   6   6    6.14    0.35 
  -1  -6  -6    1.24    0.11 
  -1  -6  -6    1.57    0.15 
  -1  -6  -6    1.64    0.15 
  -1  -6  -6    1.53    0.12 
   1   6   6    1.67    0.17 
   1   6   6    1.45    0.16 
   1   6   6    1.75    0.19 
  -2  -6  -6    6.20    0.32 
  -2  -6  -6    6.42    0.30 
  -2  -6  -6    6.39    0.31 
  -2  -6  -6    6.29    0.32 
   2   6   6    6.82    0.37 
   2   6   6    6.38    0.35 
   2   6   6    6.22    0.35 
  -3  -6  -6    6.77    0.32 
  -3  -6  -6    6.41    0.32 
  -3  -6  -6    6.07    0.30 
  -3  -6  -6    6.74    0.30 
   3   6   6    6.27    0.34 
   3   6   6    7.18    0.35 
  -4  -6  -6    0.32    0.05 
  -4  -6  -6    0.21    0.04 
  -4  -6  -6    0.33    0.05 
   4   6   6    0.24    0.06 
   6  -7  -6    1.93    0.14 
   6  -7  -6    2.01    0.10 
   6  -7  -6    2.09    0.17 
   6  -7  -6    2.23    0.13 
   5  -7  -6    1.95    0.15 
   5  -7  -6    1.81    0.11 
   5  -7  -6    2.04    0.16 
   5  -7  -6    1.83    0.09 
   5  -7  -6    1.62    0.12 
   5  -7  -6    1.59    0.11 
   5  -7  -6    1.77    0.19 
   5  -7  -6    1.65    0.18 
   5  -7  -6    1.77    0.14 
   4  -7  -6    0.27    0.08 
   4  -7  -6    0.31    0.12 
   4  -7  -6    0.23    0.07 
   4  -7  -6    0.39    0.07 
   4  -7  -6    0.31    0.11 
   4  -7  -6    0.26    0.07 
   4  -7  -6    0.29    0.08 
   4  -7  -6    0.30    0.09 
   4  -7  -6    0.30    0.14 
   4  -7  -6    0.29    0.06 
   4  -7  -6    0.33    0.06 
  -4   7   6    0.29    0.09 
   3  -7  -6    0.83    0.08 
   3  -7  -6    0.81    0.09 
   3  -7  -6    0.76    0.09 
   3  -7  -6    0.56    0.08 
   3  -7  -6    0.76    0.09 
   3  -7  -6    0.92    0.09 
   3  -7  -6    0.82    0.12 
   3  -7  -6    0.56    0.10 
   3  -7  -6    0.93    0.10 
   3  -7  -6    0.84    0.16 
   3  -7  -6    0.83    0.10 
  -3   7   6    0.83    0.13 
   2  -7  -6    0.36    0.08 
   2  -7  -6    0.16    0.10 
   2  -7  -6    0.22    0.07 
   2  -7  -6    0.06    0.09 
   2  -7  -6    0.21    0.08 
   2  -7  -6    0.16    0.07 
   2  -7  -6    0.10    0.14 
   2  -7  -6    0.18    0.06 
   2  -7  -6    0.08    0.05 
  -2   7   6    0.17    0.13 
  -2   7   6    0.35    0.11 
  -2   7   6    0.31    0.11 
   1  -7  -6    1.88    0.16 
   1  -7  -6    1.25    0.18 
   1  -7  -6    1.51    0.14 
   1  -7  -6    1.69    0.13 
   1  -7  -6    1.89    0.14 
   1  -7  -6    1.78    0.15 
   1  -7  -6    1.58    0.14 
  -1   7   6    1.65    0.18 
  -1   7   6    1.69    0.15 
  -1   7   6    1.75    0.17 
   0  -7  -6    1.44    0.13 
   0  -7  -6    1.59    0.12 
   0  -7  -6    1.44    0.13 
   0  -7  -6    1.71    0.14 
   0  -7  -6    1.46    0.13 
   0   7   6    1.47    0.14 
  -1  -7  -6    0.27    0.07 
  -1  -7  -6    0.24    0.07 
  -1  -7  -6    0.37    0.07 
  -1  -7  -6    0.32    0.08 
   1   7   6    0.36    0.09 
   1   7   6    0.55    0.09 
  -2  -7  -6    0.15    0.06 
  -2  -7  -6    0.05    0.06 
  -2  -7  -6    0.17    0.06 
  -2  -7  -6    0.06    0.05 
   2   7   6    0.17    0.07 
   2   7   6    0.28    0.09 
  -3  -7  -6    0.16    0.04 
   3   7   6    0.16    0.05 
   4  -8  -6    0.04    0.05 
   4  -8  -6    0.00    0.04 
   4  -8  -6    0.10    0.06 
   4  -8  -6   -0.02    0.03 
   4  -8  -6    0.03    0.04 
   4  -8  -6    0.06    0.07 
   4  -8  -6   -0.08    0.08 
  -4   8   6    0.00    0.08 
   3  -8  -6    1.72    0.11 
   3  -8  -6    1.72    0.11 
   3  -8  -6    1.48    0.15 
   3  -8  -6    1.78    0.13 
   3  -8  -6    1.47    0.11 
   3  -8  -6    2.09    0.13 
   3  -8  -6    1.81    0.20 
   3  -8  -6    1.84    0.12 
  -3   8   6    1.89    0.18 
   2  -8  -6    0.34    0.06 
   2  -8  -6    0.41    0.07 
   2  -8  -6    0.46    0.12 
   2  -8  -6    0.52    0.08 
   2  -8  -6    0.47    0.06 
   2  -8  -6    0.34    0.06 
  -2   8   6    0.57    0.11 
   1  -8  -6    2.25    0.16 
   1  -8  -6    2.50    0.14 
   1  -8  -6    2.33    0.12 
   1  -8  -6    2.02    0.13 
  -1   8   6    2.32    0.19 
  -1   8   6    2.44    0.16 
   0  -8  -6    0.11    0.05 
   0  -8  -6    0.21    0.06 
   0  -8  -6    0.27    0.06 
   0   8   6    0.14    0.06 
  -1  -8  -6    0.36    0.06 
  -1  -8  -6    0.44    0.06 
  -1  -8  -6    0.42    0.05 
   1   8   6    0.44    0.08 
   1   9  -7    0.29    0.06 
   0   9  -7    0.03    0.04 
   0  -9   7    0.06    0.04 
  -1   9  -7    0.83    0.09 
   1  -9   7    0.84    0.07 
   3   8  -7    0.10    0.04 
   3   8  -7   -0.01    0.05 
   3   8  -7    0.02    0.04 
  -3  -8   7    0.06    0.05 
  -3  -8   7    0.01    0.05 
   2   8  -7    6.37    0.37 
   2   8  -7    5.98    0.31 
   2   8  -7    6.73    0.28 
   2   8  -7    7.16    0.35 
  -2  -8   7    6.70    0.30 
  -2  -8   7    7.20    0.31 
   1   8  -7    2.24    0.18 
   1   8  -7    2.32    0.15 
   1   8  -7    2.38    0.16 
  -1  -8   7    2.21    0.15 
  -1  -8   7    2.27    0.16 
   0   8  -7    5.76    0.31 
   0   8  -7    5.62    0.35 
   0   8  -7    5.81    0.28 
   0  -8   7    6.10    0.27 
   0  -8   7    5.73    0.27 
  -1   8  -7    7.82    0.42 
  -1   8  -7    8.70    0.49 
  -1   8  -7    8.54    0.39 
   1  -8   7    8.70    0.37 
   1  -8   7    8.08    0.36 
   1  -8   7    7.61    0.40 
  -2   8  -7    7.05    0.34 
  -2   8  -7    8.09    0.43 
   2  -8   7    7.01    0.35 
   2  -8   7    6.70    0.31 
   2  -8   7    7.25    0.32 
  -3   8  -7    0.01    0.06 
  -3   8  -7    0.06    0.05 
   3  -8   7    0.03    0.05 
   3  -8   7    0.04    0.04 
   3  -8   7    0.07    0.08 
   4   7  -7   16.83    0.66 
   4   7  -7   16.95    0.65 
   4   7  -7   17.17    0.84 
   4   7  -7   14.82    0.78 
  -4  -7   7   15.73    0.68 
  -4  -7   7   15.37    0.71 
  -4  -7   7   16.80    0.67 
   3   7  -7    0.52    0.10 
   3   7  -7    0.55    0.09 
   3   7  -7    0.66    0.10 
   3   7  -7    0.45    0.06 
   3   7  -7    0.54    0.08 
  -3  -7   7    0.42    0.07 
  -3  -7   7    0.65    0.09 
  -3  -7   7    0.54    0.08 
   2   7  -7    5.26    0.28 
   2   7  -7    6.07    0.32 
   2   7  -7    5.54    0.26 
   2   7  -7    5.68    0.30 
   2   7  -7    5.67    0.34 
  -2  -7   7    5.45    0.28 
  -2  -7   7    5.82    0.27 
  -2  -7   7    5.02    0.29 
   1   7  -7    4.03    0.26 
   1   7  -7    3.43    0.28 
   1   7  -7    3.82    0.21 
  -1  -7   7    4.05    0.21 
  -1  -7   7    3.33    0.23 
  -1  -7   7    4.00    0.21 
   0   7  -7   13.56    0.78 
   0   7  -7   13.14    0.67 
   0   7  -7   13.80    0.62 
   0  -7   7   13.68    0.58 
   0  -7   7   13.27    0.59 
  -1   7  -7    0.36    0.10 
  -1   7  -7    0.33    0.08 
  -1   7  -7    0.27    0.12 
   1  -7   7    0.18    0.08 
   1  -7   7    0.21    0.08 
   1  -7   7    0.32    0.08 
  -2   7  -7    0.11    0.07 
  -2   7  -7    0.02    0.08 
  -2   7  -7    0.13    0.07 
   2  -7   7    0.12    0.07 
   2  -7   7    0.30    0.08 
   2  -7   7    0.02    0.08 
   2  -7   7    0.10    0.12 
  -3   7  -7    4.66    0.31 
  -3   7  -7    5.31    0.26 
   3  -7   7    4.82    0.26 
   3  -7   7    5.31    0.24 
   3  -7   7    5.18    0.24 
   3  -7   7    4.54    0.29 
  -4   7  -7    0.42    0.07 
  -4   7  -7    0.29    0.06 
   4  -7   7    0.45    0.11 
   4  -7   7    0.42    0.06 
   4  -7   7    0.33    0.05 
   4  -7   7    0.41    0.07 
   5   6  -7    0.00    0.05 
   5   6  -7   -0.04    0.08 
   5   6  -7    0.11    0.06 
   5   6  -7    0.05    0.06 
   5   6  -7    0.02    0.05 
   5   6  -7    0.06    0.03 
  -5  -6   7    0.08    0.05 
  -5  -6   7    0.03    0.08 
   4   6  -7    3.38    0.22 
   4   6  -7    3.74    0.25 
   4   6  -7    3.58    0.17 
   4   6  -7    3.37    0.19 
   4   6  -7    3.03    0.21 
   4   6  -7    3.40    0.18 
  -4  -6   7    3.39    0.20 
  -4  -6   7    3.24    0.20 
  -4  -6   7    3.67    0.22 
   3   6  -7    0.38    0.06 
   3   6  -7    0.27    0.12 
   3   6  -7    0.28    0.07 
   3   6  -7    0.46    0.10 
   3   6  -7    0.40    0.06 
   3   6  -7    0.35    0.09 
   3   6  -7    0.35    0.07 
  -3  -6   7    0.41    0.09 
  -3  -6   7    0.33    0.10 
  -3  -6   7    0.42    0.08 
   2   6  -7    1.32    0.13 
   2   6  -7    1.08    0.13 
   2   6  -7    1.24    0.10 
   2   6  -7    1.32    0.10 
   2   6  -7    1.47    0.14 
   2   6  -7    1.19    0.11 
   2   6  -7    1.23    0.15 
   2   6  -7    1.33    0.12 
  -2  -6   7    1.10    0.11 
  -2  -6   7    1.03    0.12 
  -2  -6   7    1.35    0.11 
   1   6  -7   12.69    0.76 
   1   6  -7   13.00    0.67 
   1   6  -7   13.34    0.61 
  -1  -6   7   13.13    0.60 
  -1  -6   7   13.35    0.56 
  -1  -6   7   13.25    0.58 
   0   6  -7   24.39    1.32 
   0   6  -7   23.52    1.15 
   0   6  -7   24.76    1.07 
   0  -6   7   22.76    1.04 
   0  -6   7   23.40    1.01 
   0  -6   7   23.56    0.98 
   0  -6   7   23.88    1.07 
  -1   6  -7    0.23    0.08 
  -1   6  -7    0.34    0.07 
  -1   6  -7    0.39    0.11 
  -1   6  -7    0.46    0.09 
   1  -6   7    0.37    0.11 
   1  -6   7    0.30    0.08 
   1  -6   7    0.41    0.10 
   1  -6   7    0.24    0.10 
   1  -6   7    0.30    0.12 
  -2   6  -7    0.54    0.12 
  -2   6  -7    0.59    0.09 
   2  -6   7    0.64    0.09 
   2  -6   7    0.36    0.15 
   2  -6   7    0.50    0.08 
   2  -6   7    0.55    0.10 
   2  -6   7    0.49    0.10 
   2  -6   7    0.35    0.07 
  -3   6  -7    0.11    0.09 
  -3   6  -7    0.24    0.08 
  -3   6  -7    0.12    0.07 
   3  -6   7    0.03    0.06 
   3  -6   7    0.01    0.08 
   3  -6   7    0.05    0.13 
   3  -6   7    0.17    0.07 
   3  -6   7    0.12    0.08 
  -4   6  -7    0.89    0.09 
  -4   6  -7    0.76    0.09 
   4  -6   7    0.78    0.09 
   4  -6   7    0.67    0.13 
   4  -6   7    0.65    0.07 
   4  -6   7    0.53    0.08 
  -5   6  -7    1.40    0.11 
  -5   6  -7    1.47    0.11 
  -5   6  -7    1.22    0.09 
  -5   6  -7    1.52    0.09 
   5  -6   7    1.33    0.13 
   5  -6   7    1.41    0.11 
   5  -6   7    1.31    0.13 
   5  -6   7    1.45    0.08 
   6   5  -7    2.41    0.12 
   6   5  -7    2.14    0.17 
   6   5  -7    2.21    0.11 
   6   5  -7    2.27    0.15 
   6   5  -7    2.40    0.15 
   6   5  -7    2.26    0.13 
   6   5  -7    2.42    0.11 
  -6  -5   7    2.12    0.13 
  -6  -5   7    2.56    0.15 
   5   5  -7    0.68    0.06 
   5   5  -7    0.77    0.10 
   5   5  -7    0.63    0.12 
   5   5  -7    0.63    0.09 
   5   5  -7    0.69    0.10 
   5   5  -7    0.71    0.08 
   5   5  -7    0.62    0.07 
  -5  -5   7    0.57    0.09 
  -5  -5   7    1.00    0.13 
  -5  -5   7    0.66    0.11 
   4   5  -7   -0.01    0.06 
   4   5  -7    0.03    0.12 
   4   5  -7   -0.10    0.05 
   4   5  -7   -0.01    0.09 
   4   5  -7    0.07    0.10 
   4   5  -7    0.10    0.07 
  -4  -5   7    0.13    0.09 
  -4  -5   7    0.10    0.10 
  -4  -5   7    0.19    0.13 
   3   5  -7    1.69    0.12 
   3   5  -7    1.62    0.19 
   3   5  -7    1.42    0.14 
   3   5  -7    1.85    0.16 
   3   5  -7    1.92    0.16 
   3   5  -7    1.71    0.18 
   3   5  -7    1.61    0.14 
   3   5  -7    1.79    0.13 
  -3  -5   7    1.80    0.14 
  -3  -5   7    1.68    0.15 
  -3  -5   7    1.37    0.14 
   2   5  -7    0.57    0.09 
   2   5  -7    0.67    0.08 
   2   5  -7    0.55    0.06 
   2   5  -7    0.70    0.14 
   2   5  -7    0.65    0.11 
   2   5  -7    0.79    0.15 
   2   5  -7    0.62    0.11 
  -2  -5   7    0.44    0.08 
  -2  -5   7    0.50    0.08 
  -2  -5   7    0.76    0.15 
   1   5  -7    0.85    0.08 
   1   5  -7    1.17    0.11 
  -1  -5   7    1.06    0.12 
  -1  -5   7    0.85    0.13 
   0   5  -7    0.09    0.06 
   0   5  -7    0.11    0.08 
   0  -5   7    0.08    0.06 
   0  -5   7    0.10    0.12 
  -1   5  -7    0.92    0.12 
  -1   5  -7    0.93    0.10 
   1  -5   7    0.86    0.11 
   1  -5   7    0.91    0.12 
  -2   5  -7    4.02    0.28 
  -2   5  -7    4.15    0.25 
  -2   5  -7    3.90    0.26 
  -2   5  -7    3.77    0.30 
   2  -5   7    3.87    0.21 
   2  -5   7    3.85    0.22 
   2  -5   7    3.51    0.23 
   2  -5   7    3.97    0.23 
   2  -5   7    3.54    0.31 
  -3   5  -7    0.92    0.11 
  -3   5  -7    0.94    0.12 
   3  -5   7    0.87    0.10 
   3  -5   7    0.95    0.11 
   3  -5   7    0.54    0.08 
   3  -5   7    0.76    0.10 
   3  -5   7    0.72    0.10 
   3  -5   7    1.04    0.16 
  -4   5  -7    0.05    0.06 
   4  -5   7   -0.05    0.08 
   4  -5   7   -0.10    0.07 
   4  -5   7   -0.02    0.08 
   4  -5   7   -0.09    0.10 
   4  -5   7    0.04    0.10 
   4  -5   7   -0.01    0.08 
  -5   5  -7    0.57    0.07 
  -5   5  -7    0.44    0.06 
  -5   5  -7    0.40    0.06 
   5  -5   7    0.21    0.08 
   5  -5   7    0.39    0.10 
   5  -5   7    0.36    0.07 
   5  -5   7    0.51    0.08 
   5  -5   7    0.54    0.07 
   5  -5   7    0.40    0.06 
  -6   5  -7    4.24    0.18 
  -6   5  -7    4.26    0.22 
   6  -5   7    4.32    0.19 
   6  -5   7    4.26    0.17 
   7   4  -7    2.25    0.14 
   6   4  -7    0.04    0.07 
   6   4  -7    0.00    0.07 
   6   4  -7   -0.04    0.04 
   6   4  -7    0.05    0.08 
   6   4  -7    0.05    0.05 
   6   4  -7    0.01    0.04 
   6   4  -7    0.06    0.08 
   6   4  -7    0.06    0.08 
  -6  -4   7    0.06    0.06 
   5   4  -7    4.60    0.30 
   5   4  -7    4.31    0.20 
   5   4  -7    4.24    0.23 
   5   4  -7    4.27    0.21 
   5   4  -7    4.26    0.27 
   5   4  -7    4.52    0.23 
   5   4  -7    4.10    0.22 
   5   4  -7    4.62    0.27 
   5   4  -7    4.37    0.25 
   5   4  -7    4.86    0.22 
   5   4  -7    4.32    0.26 
  -5  -4   7    4.33    0.26 
  -5  -4   7    4.32    0.24 
   4   4  -7    0.20    0.05 
   4   4  -7    0.17    0.07 
   4   4  -7    0.05    0.07 
   4   4  -7    0.23    0.11 
   4   4  -7    0.32    0.12 
   4   4  -7    0.17    0.10 
   4   4  -7    0.17    0.09 
   4   4  -7    0.25    0.06 
   4   4  -7    0.15    0.10 
   4   4  -7    0.23    0.05 
   4   4  -7    0.28    0.09 
   4   4  -7    0.11    0.09 
  -4  -4   7    0.12    0.09 
  -4  -4   7    0.28    0.08 
   3   4  -7    3.32    0.28 
   3   4  -7    3.82    0.23 
   3   4  -7    3.69    0.19 
   3   4  -7    3.41    0.30 
   3   4  -7    3.98    0.20 
   3   4  -7    3.79    0.23 
  -3  -4   7    3.99    0.26 
  -3  -4   7    3.46    0.26 
  -3  -4   7    3.24    0.25 
   2   4  -7    1.28    0.13 
   2   4  -7    1.31    0.12 
  -2  -4   7    1.26    0.12 
  -2  -4   7    1.12    0.15 
   1   4  -7    0.01    0.06 
  -1  -4   7   -0.01    0.05 
  -1  -4   7    0.09    0.08 
   0   4  -7    6.55    0.36 
   0  -4   7    6.10    0.32 
  -1   4  -7    1.25    0.13 
   1  -4   7    1.20    0.11 
  -2   4  -7    4.87    0.30 
  -2   4  -7    4.80    0.32 
   2  -4   7    4.44    0.28 
   2  -4   7    4.66    0.26 
  -3   4  -7    2.43    0.17 
  -3   4  -7    2.30    0.17 
  -3   4  -7    2.65    0.22 
  -3   4  -7    2.33    0.19 
   3  -4   7    2.43    0.17 
   3  -4   7    2.60    0.17 
   3  -4   7    2.67    0.17 
   3  -4   7    2.62    0.21 
   3  -4   7    2.50    0.17 
   3  -4   7    2.44    0.23 
   3  -4   7    2.50    0.23 
  -4   4  -7    0.26    0.08 
  -4   4  -7    0.17    0.07 
   4  -4   7    0.28    0.09 
   4  -4   7    0.34    0.08 
   4  -4   7    0.13    0.06 
   4  -4   7    0.02    0.11 
   4  -4   7    0.28    0.08 
   4  -4   7    0.03    0.12 
   4  -4   7    0.23    0.09 
   4  -4   7    0.18    0.07 
  -5   4  -7    3.18    0.19 
  -5   4  -7    3.55    0.18 
   5  -4   7    3.19    0.15 
   5  -4   7    3.21    0.17 
   5  -4   7    3.20    0.20 
   5  -4   7    3.04    0.21 
   5  -4   7    3.22    0.20 
   5  -4   7    3.26    0.17 
  -6   4  -7    1.12    0.08 
  -6   4  -7    1.10    0.09 
  -6   4  -7    1.04    0.09 
   6  -4   7    0.85    0.10 
   6  -4   7    1.10    0.10 
   6  -4   7    1.14    0.11 
   6  -4   7    1.12    0.08 
   6  -4   7    1.16    0.08 
   7   3  -7    2.81    0.16 
   7   3  -7    2.50    0.17 
   7   3  -7    2.49    0.14 
  -7  -3   7    2.57    0.17 
   6   3  -7    0.62    0.07 
   6   3  -7    0.56    0.06 
   6   3  -7    0.53    0.09 
   6   3  -7    0.51    0.06 
   6   3  -7    0.71    0.08 
   6   3  -7    0.53    0.09 
   6   3  -7    0.59    0.09 
   6   3  -7    0.65    0.13 
   6   3  -7    0.44    0.09 
  -6  -3   7    0.44    0.08 
   5   3  -7    8.88    0.45 
   5   3  -7    8.69    0.41 
   5   3  -7    8.78    0.47 
   5   3  -7    9.08    0.42 
   5   3  -7    9.05    0.51 
   5   3  -7    8.59    0.34 
   5   3  -7    8.68    0.45 
   5   3  -7    9.36    0.42 
   5   3  -7    8.95    0.47 
   5   3  -7    9.17    0.39 
  -5  -3   7    8.44    0.45 
   4   3  -7    6.03    0.29 
   4   3  -7    5.61    0.30 
   4   3  -7    5.76    0.30 
   4   3  -7    6.20    0.44 
   4   3  -7    5.92    0.33 
   4   3  -7    5.81    0.29 
   4   3  -7    5.83    0.38 
   4   3  -7    6.00    0.32 
  -4  -3   7    5.73    0.34 
  -4  -3   7    6.06    0.34 
   3   3  -7    0.12    0.04 
   3   3  -7    0.10    0.08 
   3   3  -7    0.10    0.09 
   3   3  -7    0.21    0.10 
   3   3  -7    0.13    0.05 
  -3  -3   7   -0.04    0.09 
  -3  -3   7    0.24    0.10 
   2   3  -7    1.02    0.11 
   2   3  -7    0.81    0.07 
  -2  -3   7    0.93    0.12 
   1   3  -7    9.29    0.50 
   1   3  -7    9.70    0.42 
  -1  -3   7    9.59    0.45 
  -1  -3   7    8.16    0.43 
   0   3  -7    5.54    0.31 
   0  -3   7    5.36    0.27 
   0  -3   7    4.92    0.29 
  -1   3  -7    0.30    0.08 
   1  -3   7    0.25    0.07 
   1  -3   7    0.17    0.07 
  -2   3  -7    1.87    0.13 
  -2   3  -7    1.90    0.17 
   2  -3   7    1.82    0.14 
   2  -3   7    1.64    0.14 
  -3   3  -7    0.18    0.06 
  -3   3  -7    0.11    0.07 
   3  -3   7    0.34    0.13 
   3  -3   7    0.18    0.06 
   3  -3   7    0.22    0.11 
  -4   3  -7    0.06    0.06 
  -4   3  -7    0.10    0.07 
  -4   3  -7    0.04    0.07 
   4  -3   7    0.08    0.06 
   4  -3   7    0.14    0.12 
   4  -3   7    0.11    0.08 
   4  -3   7    0.11    0.10 
   4  -3   7    0.00    0.08 
   4  -3   7    0.09    0.09 
  -5   3  -7    0.08    0.07 
  -5   3  -7    0.05    0.06 
  -5   3  -7    0.07    0.05 
   5  -3   7    0.02    0.10 
   5  -3   7   -0.09    0.07 
   5  -3   7   -0.11    0.05 
   5  -3   7   -0.02    0.06 
   5  -3   7   -0.03    0.09 
   5  -3   7    0.09    0.08 
   5  -3   7    0.00    0.07 
  -6   3  -7   17.82    0.74 
  -6   3  -7   18.54    0.81 
  -6   3  -7   17.84    0.79 
  -6   3  -7   20.76    0.71 
   6  -3   7   17.64    0.78 
   6  -3   7   18.52    0.83 
   6  -3   7   19.06    0.81 
   6  -3   7   19.14    0.67 
   6  -3   7   17.16    0.84 
   6  -3   7   19.42    0.76 
   6  -3   7   18.14    0.73 
   7   2  -7    0.41    0.08 
   7   2  -7    0.39    0.08 
   7   2  -7    0.24    0.08 
   7   2  -7    0.38    0.06 
   6   2  -7   10.09    0.50 
   6   2  -7   10.38    0.47 
   6   2  -7   10.27    0.57 
   6   2  -7   10.36    0.53 
   6   2  -7   10.39    0.38 
   6   2  -7   10.52    0.47 
   6   2  -7   10.21    0.51 
   5   2  -7    2.00    0.21 
   5   2  -7    2.39    0.15 
   5   2  -7    2.67    0.19 
   5   2  -7    2.44    0.16 
   5   2  -7    2.23    0.18 
   5   2  -7    2.54    0.20 
   5   2  -7    2.48    0.24 
   5   2  -7    2.22    0.13 
   5   2  -7    1.80    0.21 
   5   2  -7    2.69    0.17 
  -5  -2   7    2.23    0.20 
   4   2  -7    0.50    0.07 
   4   2  -7    0.45    0.09 
   4   2  -7    0.62    0.06 
   4   2  -7    0.57    0.11 
   4   2  -7    0.56    0.12 
  -4  -2   7    0.34    0.11 
   3   2  -7    3.30    0.27 
   3   2  -7    3.25    0.17 
   3   2  -7    2.83    0.15 
   3   2  -7    3.29    0.21 
  -3  -2   7    3.55    0.23 
   2   2  -7   15.35    0.96 
   2   2  -7   14.45    0.66 
   2   2  -7   15.09    0.77 
  -2  -2   7   14.81    0.68 
   1   2  -7    5.21    0.31 
  -1  -2   7    5.42    0.29 
   0   2  -7   14.01    0.72 
   0  -2   7   13.72    0.63 
  -1   2  -7    0.16    0.05 
  -1   2  -7    0.15    0.07 
  -1   2  -7    0.12    0.06 
   1  -2   7    0.05    0.06 
   1  -2   7    0.16    0.08 
  -2   2  -7    0.14    0.07 
  -2   2  -7    0.13    0.06 
   2  -2   7    0.21    0.07 
   2  -2   7    0.13    0.06 
  -3   2  -7    9.55    0.45 
  -3   2  -7    9.20    0.43 
   3  -2   7    8.52    0.43 
   3  -2   7    9.33    0.44 
   3  -2   7    9.26    0.44 
   3  -2   7    8.78    0.41 
   3  -2   7    8.88    0.47 
  -4   2  -7    3.21    0.21 
  -4   2  -7    3.90    0.21 
  -4   2  -7    3.57    0.18 
  -4   2  -7    3.51    0.20 
   4  -2   7    3.45    0.21 
   4  -2   7    3.47    0.20 
   4  -2   7    3.51    0.21 
   4  -2   7    3.48    0.19 
   4  -2   7    3.53    0.24 
   4  -2   7    3.53    0.22 
   4  -2   7    3.33    0.27 
  -5   2  -7   17.44    0.72 
  -5   2  -7   17.56    0.84 
  -5   2  -7   18.87    0.79 
   5  -2   7   17.85    0.82 
   5  -2   7   18.59    0.72 
   5  -2   7   18.62    0.66 
   5  -2   7   17.25    0.75 
   5  -2   7   17.31    0.74 
   5  -2   7   18.31    0.79 
   5  -2   7   17.73    0.81 
   5  -2   7   17.26    0.76 
  -6   2  -7    2.95    0.17 
  -6   2  -7    3.10    0.15 
  -6   2  -7    2.94    0.16 
  -6   2  -7    2.81    0.15 
   6  -2   7    2.88    0.17 
   6  -2   7    2.82    0.14 
   6  -2   7    3.11    0.16 
   6  -2   7    3.03    0.20 
   6  -2   7    2.97    0.16 
   6  -2   7    3.06    0.18 
   7   1  -7   11.36    0.55 
   7   1  -7   11.80    0.62 
   7   1  -7   11.96    0.56 
   7   1  -7   11.88    0.55 
   7   1  -7   10.98    0.51 
   6   1  -7   12.17    0.51 
   6   1  -7   12.07    0.54 
   6   1  -7   12.46    0.66 
   6   1  -7   11.86    0.44 
   6   1  -7   11.92    0.59 
   6   1  -7   11.75    0.58 
   6   1  -7   11.97    0.58 
   5   1  -7    3.37    0.22 
   5   1  -7    3.58    0.19 
   5   1  -7    3.32    0.21 
   5   1  -7    3.31    0.16 
   5   1  -7    3.57    0.20 
   5   1  -7    3.39    0.24 
   5   1  -7    2.98    0.25 
   5   1  -7    3.09    0.21 
   5   1  -7    3.19    0.28 
   5   1  -7    3.12    0.25 
   5   1  -7    3.18    0.18 
  -5  -1   7    3.45    0.24 
   4   1  -7    2.64    0.21 
   4   1  -7    2.78    0.25 
   4   1  -7    2.84    0.16 
   4   1  -7    2.65    0.14 
  -4  -1   7    2.74    0.24 
   3   1  -7   15.11    0.80 
   3   1  -7   15.75    0.69 
   3   1  -7   15.99    1.00 
   3   1  -7   15.52    0.73 
   3   1  -7   15.21    0.62 
  -3  -1   7   15.81    0.72 
   2   1  -7   11.43    0.48 
   2   1  -7   12.82    0.63 
   2   1  -7   12.25    0.77 
  -2  -1   7   12.84    0.57 
  -2  -1   7   10.20    0.76 
   1   1  -7   41.02    1.90 
  -1  -1   7   32.48    2.10 
  -1  -1   7   41.50    1.66 
   0   1  -7   20.85    0.98 
   0   1  -7   17.13    1.04 
   0  -1   7   20.13    0.86 
  -1   1  -7   12.58    0.72 
  -1   1  -7   13.28    0.68 
  -1   1  -7   12.87    0.62 
   1  -1   7   13.67    0.60 
  -2   1  -7    7.54    0.42 
  -2   1  -7    8.01    0.38 
   2  -1   7    7.78    0.37 
   2  -1   7    7.29    0.37 
  -3   1  -7    7.20    0.36 
  -3   1  -7    6.93    0.34 
   3  -1   7    7.40    0.40 
   3  -1   7    6.92    0.36 
   3  -1   7    7.10    0.34 
   3  -1   7    6.32    0.34 
  -4   1  -7    0.42    0.09 
  -4   1  -7    0.24    0.08 
  -4   1  -7    0.32    0.06 
  -4   1  -7    0.43    0.08 
  -4   1  -7    0.42    0.07 
   4  -1   7    0.40    0.09 
   4  -1   7    0.41    0.08 
   4  -1   7    0.47    0.09 
   4  -1   7    0.37    0.11 
   4  -1   7    0.35    0.08 
   4  -1   7    0.27    0.08 
   4  -1   7    0.36    0.12 
   4  -1   7    0.28    0.08 
   4  -1   7    0.48    0.14 
   4  -1   7    0.54    0.10 
  -5   1  -7    0.18    0.06 
  -5   1  -7    0.08    0.06 
  -5   1  -7    0.08    0.06 
  -5   1  -7    0.06    0.07 
   5  -1   7    0.10    0.08 
   5  -1   7    0.15    0.07 
   5  -1   7    0.17    0.12 
   5  -1   7    0.16    0.08 
   5  -1   7    0.21    0.07 
   5  -1   7    0.19    0.07 
   5  -1   7    0.02    0.07 
  -6   1  -7    0.04    0.05 
  -6   1  -7    0.02    0.04 
  -6   1  -7    0.02    0.06 
   6  -1   7    0.00    0.06 
   6  -1   7    0.20    0.08 
   6  -1   7    0.06    0.04 
   6  -1   7    0.06    0.07 
   6  -1   7    0.03    0.05 
   6  -1   7   -0.03    0.05 
   7   0  -7    0.13    0.06 
   7   0  -7    0.20    0.06 
   7   0  -7    0.14    0.10 
   7   0  -7    0.17    0.07 
   6   0  -7    1.05    0.12 
   6   0  -7    1.18    0.12 
   6   0  -7    0.90    0.13 
   6   0  -7    0.87    0.08 
   6   0  -7    0.99    0.11 
   6   0  -7    0.76    0.12 
   6   0  -7    0.93    0.07 
   5   0  -7    4.72    0.28 
   5   0  -7    4.62    0.33 
   5   0  -7    5.04    0.30 
   5   0  -7    4.54    0.26 
   5   0  -7    4.57    0.24 
   4   0  -7    6.71    0.30 
   4   0  -7    7.29    0.34 
   4   0  -7    7.60    0.51 
   4   0  -7    7.40    0.38 
  -4   0   7    7.24    0.39 
   3   0  -7   12.85    0.63 
   3   0  -7   13.55    0.59 
   3   0  -7   13.91    0.70 
   3   0  -7   12.96    0.53 
   3   0  -7   13.47    0.87 
  -3   0   7   13.21    0.62 
   2   0  -7    0.05    0.06 
   2   0  -7   -0.02    0.07 
  -2   0   7    0.04    0.10 
  -2   0   7   -0.05    0.09 
  -2   0   7   -0.03    0.07 
   1   0  -7    9.39    0.54 
   1   0  -7   10.49    0.52 
  -1   0   7   10.37    0.46 
  -1   0   7    9.69    0.58 
  -1   0   7    8.48    0.62 
   0   0  -7   43.58    2.03 
   0   0  -7   42.12    1.87 
   0   0  -7   37.63    2.17 
   0   0   7   44.27    1.76 
   0   0   7   37.48    2.25 
  -1   0  -7    8.28    0.51 
  -1   0  -7    8.87    0.48 
  -1   0  -7    9.43    0.44 
   1   0   7    8.83    0.42 
   1   0   7    9.77    0.43 
  -2   0  -7    3.83    0.21 
   2   0   7    3.87    0.22 
   2   0   7    3.27    0.22 
  -3   0  -7   16.90    0.74 
  -3   0  -7   18.17    0.81 
  -3   0  -7   16.71    0.76 
   3   0   7   17.44    0.79 
   3   0   7   16.51    0.73 
   3   0   7   16.82    0.77 
   3   0   7   17.16    0.77 
  -4   0  -7    4.39    0.22 
  -4   0  -7    4.65    0.23 
  -4   0  -7    4.64    0.24 
  -4   0  -7    4.29    0.22 
  -4   0  -7    4.60    0.25 
   4   0   7    4.49    0.24 
   4   0   7    4.43    0.26 
   4   0   7    4.41    0.26 
   4   0   7    4.47    0.28 
   4   0   7    4.38    0.25 
   4   0   7    4.39    0.26 
   4   0   7    4.48    0.24 
   4   0   7    4.23    0.23 
  -5   0  -7    0.20    0.07 
  -5   0  -7    0.20    0.05 
  -5   0  -7    0.18    0.05 
   5   0   7    0.27    0.09 
   5   0   7    0.26    0.08 
   5   0   7    0.21    0.08 
   5   0   7    0.30    0.07 
   5   0   7    0.33    0.09 
   5   0   7    0.31    0.10 
   5   0   7    0.25    0.11 
   5   0   7    0.26    0.07 
  -6   0  -7    0.39    0.06 
  -6   0  -7    0.34    0.05 
  -6   0  -7    0.50    0.07 
  -6   0  -7    0.59    0.08 
   6   0   7    0.36    0.08 
   6   0   7    0.38    0.06 
   6   0   7    0.46    0.05 
   6   0   7    0.49    0.06 
   6   0   7    0.50    0.07 
   6   0   7    0.41    0.08 
   7  -1  -7    0.14    0.07 
   7  -1  -7    0.16    0.08 
   6  -1  -7    2.42    0.19 
   6  -1  -7    2.48    0.11 
   6  -1  -7    2.65    0.19 
   6  -1  -7    2.37    0.18 
   6  -1  -7    2.56    0.21 
   6  -1  -7    2.68    0.20 
   6  -1  -7    2.65    0.24 
   5  -1  -7   21.25    0.95 
   5  -1  -7   19.66    1.31 
   5  -1  -7   20.76    0.97 
   5  -1  -7   20.66    1.07 
   5  -1  -7   19.80    0.92 
   4  -1  -7   11.47    0.53 
   4  -1  -7   12.09    0.48 
   4  -1  -7   12.59    0.80 
   4  -1  -7   11.19    0.63 
   4  -1  -7   12.50    0.58 
   3  -1  -7    0.17    0.07 
   3  -1  -7    0.04    0.05 
   3  -1  -7    0.03    0.07 
   3  -1  -7   -0.01    0.07 
   3  -1  -7    0.07    0.04 
  -3   1   7    0.01    0.11 
  -3   1   7   -0.10    0.09 
   2  -1  -7   13.46    0.86 
   2  -1  -7   12.45    0.53 
   2  -1  -7   12.86    0.73 
   2  -1  -7   14.49    0.69 
  -2   1   7   13.62    0.79 
  -2   1   7   12.37    0.85 
  -2   1   7   13.48    0.61 
   1  -1  -7    0.16    0.06 
   1  -1  -7    0.02    0.04 
   1  -1  -7    0.08    0.06 
   1  -1  -7    0.06    0.06 
  -1   1   7    0.07    0.06 
  -1   1   7    0.07    0.09 
  -1   1   7    0.11    0.10 
   0  -1  -7    1.47    0.12 
   0  -1  -7    1.47    0.14 
   0  -1  -7    1.31    0.12 
   0   1   7    1.46    0.14 
   0   1   7    1.56    0.16 
  -1  -1  -7    2.26    0.15 
   1   1   7    1.96    0.16 
   1   1   7    1.97    0.21 
   1   1   7    2.28    0.17 
  -2  -1  -7    1.57    0.14 
  -2  -1  -7    1.35    0.12 
   2   1   7    1.46    0.14 
   2   1   7    1.60    0.14 
  -3  -1  -7   68.78    2.82 
  -3  -1  -7   68.99    3.07 
  -3  -1  -7   66.89    2.75 
  -3  -1  -7   65.59    2.90 
   3   1   7   67.12    2.76 
   3   1   7   64.61    2.73 
   3   1   7   68.94    2.90 
  -4  -1  -7    8.39    0.42 
  -4  -1  -7    8.25    0.44 
  -4  -1  -7    9.22    0.40 
  -4  -1  -7    8.57    0.37 
  -4  -1  -7    9.54    0.41 
   4   1   7    8.63    0.40 
   4   1   7    8.75    0.42 
   4   1   7    8.48    0.45 
   4   1   7    9.22    0.41 
   4   1   7    9.39    0.43 
   4   1   7    8.96    0.44 
   4   1   7    8.66    0.38 
  -5  -1  -7    5.06    0.24 
  -5  -1  -7    4.48    0.23 
  -5  -1  -7    4.87    0.25 
   5   1   7    4.52    0.25 
   5   1   7    4.49    0.26 
   5   1   7    4.76    0.25 
   5   1   7    4.50    0.25 
   5   1   7    4.76    0.25 
   5   1   7    4.65    0.25 
   5   1   7    4.76    0.22 
  -6  -1  -7    2.93    0.15 
  -6  -1  -7    2.90    0.17 
   6   1   7    2.74    0.14 
   6   1   7    2.85    0.15 
   6   1   7    2.61    0.13 
   6   1   7    2.77    0.14 
   6   1   7    2.87    0.16 
   6   1   7    2.69    0.15 
   7  -2  -7    0.85    0.12 
   6  -2  -7    6.31    0.39 
   6  -2  -7    6.46    0.41 
   6  -2  -7    6.48    0.33 
   6  -2  -7    6.01    0.33 
   6  -2  -7    6.13    0.32 
   6  -2  -7    6.38    0.35 
   5  -2  -7    6.01    0.36 
   5  -2  -7    5.74    0.42 
   5  -2  -7    5.73    0.34 
   5  -2  -7    5.88    0.23 
   5  -2  -7    5.70    0.30 
   5  -2  -7    4.67    0.33 
   5  -2  -7    5.78    0.32 
   5  -2  -7    5.57    0.38 
   5  -2  -7    6.14    0.31 
   5  -2  -7    6.06    0.32 
  -5   2   7    4.39    0.47 
  -5   2   7    5.31    0.41 
   4  -2  -7    0.48    0.09 
   4  -2  -7    0.41    0.11 
   4  -2  -7    0.21    0.08 
   4  -2  -7    0.29    0.05 
   4  -2  -7    0.37    0.10 
  -4   2   7    0.23    0.19 
  -4   2   7    0.28    0.13 
   3  -2  -7    9.50    0.63 
   3  -2  -7   10.13    0.51 
   3  -2  -7    9.25    0.46 
   3  -2  -7    9.25    0.38 
  -3   2   7    7.54    0.66 
  -3   2   7    9.66    0.59 
   2  -2  -7    0.08    0.04 
   2  -2  -7    0.06    0.07 
   2  -2  -7    0.18    0.08 
   2  -2  -7    0.17    0.07 
  -2   2   7    0.09    0.11 
  -2   2   7    0.03    0.12 
   1  -2  -7    4.72    0.27 
  -1   2   7    4.68    0.36 
  -1   2   7    4.32    0.26 
   0  -2  -7    2.77    0.18 
   0  -2  -7    2.88    0.19 
   0   2   7    2.78    0.24 
   0   2   7    2.44    0.17 
  -1  -2  -7    1.29    0.13 
  -1  -2  -7    1.29    0.12 
   1   2   7    1.35    0.12 
   1   2   7    1.35    0.13 
   1   2   7    0.99    0.13 
  -2  -2  -7    0.12    0.08 
  -2  -2  -7   -0.01    0.05 
  -2  -2  -7    0.08    0.08 
   2   2   7    0.09    0.08 
   2   2   7    0.06    0.07 
   2   2   7    0.09    0.06 
   2   2   7    0.02    0.10 
  -3  -2  -7    8.27    0.40 
  -3  -2  -7    7.97    0.40 
  -3  -2  -7    8.45    0.38 
  -3  -2  -7    8.06    0.34 
  -3  -2  -7    8.25    0.37 
  -3  -2  -7    7.88    0.41 
   3   2   7    7.60    0.45 
   3   2   7    7.94    0.38 
   3   2   7    8.20    0.41 
   3   2   7    8.31    0.42 
   3   2   7    8.66    0.40 
   3   2   7    7.90    0.37 
   3   2   7    8.05    0.40 
   3   2   7    8.59    0.40 
  -4  -2  -7   25.20    1.04 
  -4  -2  -7   25.10    1.01 
  -4  -2  -7   23.47    1.06 
  -4  -2  -7   23.12    0.93 
  -4  -2  -7   25.42    1.05 
   4   2   7   24.02    0.98 
   4   2   7   22.10    1.18 
   4   2   7   25.70    1.03 
   4   2   7   25.05    1.07 
   4   2   7   23.42    1.08 
   4   2   7   24.36    1.06 
   4   2   7   23.57    1.01 
  -5  -2  -7    0.64    0.08 
  -5  -2  -7    0.60    0.08 
  -5  -2  -7    0.65    0.09 
  -5  -2  -7    0.62    0.08 
   5   2   7    0.59    0.08 
   5   2   7    0.71    0.10 
   5   2   7    0.74    0.10 
   5   2   7    0.61    0.09 
   5   2   7    0.49    0.08 
  -6  -2  -7    9.69    0.43 
  -6  -2  -7   10.04    0.43 
   6   2   7    9.96    0.36 
   6   2   7    9.28    0.43 
   7  -3  -7    0.05    0.06 
   6  -3  -7    0.21    0.09 
   6  -3  -7    0.15    0.10 
   6  -3  -7    0.27    0.07 
   6  -3  -7    0.23    0.10 
   6  -3  -7    0.28    0.08 
   5  -3  -7    0.10    0.07 
   5  -3  -7    0.19    0.10 
   5  -3  -7    0.30    0.12 
   5  -3  -7    0.27    0.08 
   5  -3  -7    0.35    0.06 
   5  -3  -7    0.25    0.12 
   5  -3  -7    0.05    0.10 
   5  -3  -7    0.14    0.08 
   5  -3  -7    0.26    0.08 
  -5   3   7    0.17    0.15 
   4  -3  -7    0.44    0.10 
   4  -3  -7    0.41    0.12 
   4  -3  -7    0.33    0.05 
   4  -3  -7    0.29    0.08 
   4  -3  -7    0.50    0.09 
   4  -3  -7    0.49    0.13 
  -4   3   7    0.27    0.13 
  -4   3   7    0.50    0.21 
   3  -3  -7    0.61    0.09 
   3  -3  -7    0.74    0.07 
   3  -3  -7    0.89    0.10 
   3  -3  -7    0.95    0.13 
  -3   3   7    0.86    0.23 
  -3   3   7    0.51    0.14 
   2  -3  -7    0.55    0.08 
   2  -3  -7    0.71    0.07 
   2  -3  -7    0.71    0.10 
  -2   3   7    0.50    0.16 
  -2   3   7    0.42    0.13 
   1  -3  -7    0.84    0.10 
  -1   3   7    0.78    0.14 
  -1   3   7    0.34    0.14 
   0   3   7   11.36    0.70 
  -1  -3  -7   24.39    1.10 
  -1  -3  -7   25.15    1.13 
  -1  -3  -7   25.73    1.20 
   1   3   7   27.37    1.45 
   1   3   7   25.98    1.14 
  -2  -3  -7    4.49    0.24 
  -2  -3  -7    4.16    0.21 
  -2  -3  -7    4.35    0.25 
  -2  -3  -7    4.32    0.25 
  -2  -3  -7    4.36    0.22 
   2   3   7    4.40    0.26 
   2   3   7    4.43    0.32 
   2   3   7    4.00    0.32 
   2   3   7    4.66    0.28 
  -3  -3  -7    0.20    0.07 
  -3  -3  -7    0.03    0.06 
  -3  -3  -7    0.08    0.07 
  -3  -3  -7    0.14    0.08 
  -3  -3  -7    0.23    0.08 
  -3  -3  -7    0.21    0.07 
  -3  -3  -7    0.23    0.08 
   3   3   7    0.11    0.09 
   3   3   7    0.21    0.07 
   3   3   7    0.15    0.12 
   3   3   7    0.14    0.08 
   3   3   7    0.29    0.12 
  -4  -3  -7    0.79    0.10 
  -4  -3  -7    0.91    0.09 
  -4  -3  -7    1.05    0.09 
  -4  -3  -7    0.93    0.09 
  -4  -3  -7    0.98    0.08 
   4   3   7    0.84    0.09 
   4   3   7    0.85    0.08 
   4   3   7    1.13    0.13 
   4   3   7    1.20    0.12 
   4   3   7    0.92    0.10 
  -5  -3  -7    3.07    0.16 
  -5  -3  -7    3.02    0.17 
  -5  -3  -7    3.09    0.17 
  -5  -3  -7    2.95    0.17 
   5   3   7    3.25    0.18 
   5   3   7    3.18    0.17 
   5   3   7    3.23    0.16 
   7  -4  -7    3.70    0.20 
   7  -4  -7    3.88    0.26 
   7  -4  -7    3.61    0.22 
   6  -4  -7    7.13    0.36 
   6  -4  -7    7.16    0.38 
   6  -4  -7    7.40    0.45 
   6  -4  -7    6.95    0.41 
   6  -4  -7    6.78    0.35 
   6  -4  -7    6.46    0.35 
   5  -4  -7    6.27    0.34 
   5  -4  -7    6.67    0.40 
   5  -4  -7    6.14    0.30 
   5  -4  -7    6.48    0.42 
   5  -4  -7    6.40    0.36 
   5  -4  -7    6.05    0.34 
   5  -4  -7    6.43    0.33 
   5  -4  -7    6.03    0.33 
   5  -4  -7    6.17    0.25 
   4  -4  -7   -0.01    0.08 
   4  -4  -7    0.02    0.09 
   4  -4  -7    0.10    0.10 
   4  -4  -7   -0.03    0.09 
   4  -4  -7    0.01    0.07 
   4  -4  -7    0.02    0.12 
   4  -4  -7    0.13    0.15 
   4  -4  -7    0.04    0.10 
   4  -4  -7   -0.07    0.06 
   4  -4  -7    0.07    0.14 
   4  -4  -7    0.00    0.09 
  -4   4   7   -0.01    0.17 
   3  -4  -7   20.23    1.05 
   3  -4  -7   19.83    0.95 
   3  -4  -7   20.05    0.94 
   3  -4  -7   19.96    1.03 
   3  -4  -7   21.34    0.90 
   3  -4  -7   20.81    0.94 
   3  -4  -7   20.33    0.90 
   3  -4  -7   18.24    0.79 
  -3   4   7   20.25    1.15 
  -3   4   7   18.76    1.33 
   2  -4  -7    7.42    0.40 
   2  -4  -7    7.54    0.43 
   2  -4  -7    7.93    0.38 
  -2   4   7    7.84    0.50 
  -2   4   7    7.30    0.59 
   1  -4  -7    0.13    0.09 
  -1   4   7    0.24    0.13 
  -1   4   7    0.22    0.12 
   0  -4  -7    4.14    0.25 
   0  -4  -7    3.94    0.23 
   0  -4  -7    4.18    0.28 
   0   4   7    4.47    0.32 
   0   4   7    4.62    0.35 
  -1  -4  -7   16.46    0.72 
  -1  -4  -7   17.05    0.74 
  -1  -4  -7   17.52    0.76 
  -1  -4  -7   16.97    0.67 
  -1  -4  -7   15.53    0.81 
  -1  -4  -7   17.33    0.77 
   1   4   7   16.69    0.86 
   1   4   7   17.36    0.76 
   1   4   7   17.37    0.84 
   1   4   7   15.30    0.81 
   1   4   7   19.13    0.99 
  -2  -4  -7    2.30    0.17 
  -2  -4  -7    1.85    0.16 
  -2  -4  -7    1.91    0.16 
  -2  -4  -7    2.19    0.16 
  -2  -4  -7    1.95    0.15 
   2   4   7    2.11    0.24 
   2   4   7    2.21    0.19 
   2   4   7    1.57    0.17 
   2   4   7    2.14    0.21 
  -3  -4  -7    3.34    0.18 
  -3  -4  -7    3.64    0.19 
  -3  -4  -7    3.43    0.20 
  -3  -4  -7    3.09    0.20 
  -3  -4  -7    3.52    0.22 
   3   4   7    3.46    0.22 
   3   4   7    3.34    0.20 
   3   4   7    3.35    0.24 
   3   4   7    3.29    0.19 
   3   4   7    3.43    0.24 
  -4  -4  -7    0.26    0.07 
  -4  -4  -7    0.19    0.08 
  -4  -4  -7    0.17    0.07 
  -4  -4  -7    0.13    0.06 
   4   4   7    0.16    0.09 
   4   4   7    0.18    0.07 
   4   4   7    0.11    0.06 
   4   4   7    0.20    0.08 
   4   4   7    0.08    0.07 
  -5  -4  -7   -0.01    0.04 
  -5  -4  -7    0.00    0.04 
  -5  -4  -7   -0.01    0.05 
   5   4   7    0.05    0.05 
   7  -5  -7    0.59    0.07 
   7  -5  -7    0.53    0.09 
   6  -5  -7   14.87    0.79 
   6  -5  -7   14.67    0.69 
   6  -5  -7   13.68    0.63 
   6  -5  -7   12.13    0.64 
   6  -5  -7   13.82    0.57 
   6  -5  -7   14.64    0.66 
   6  -5  -7   13.59    0.73 
   5  -5  -7    1.97    0.15 
   5  -5  -7    2.07    0.16 
   5  -5  -7    2.08    0.21 
   5  -5  -7    2.02    0.21 
   5  -5  -7    2.03    0.11 
   5  -5  -7    2.03    0.18 
   5  -5  -7    1.90    0.15 
   5  -5  -7    2.04    0.16 
   5  -5  -7    2.25    0.24 
   4  -5  -7    6.05    0.39 
   4  -5  -7    5.44    0.27 
   4  -5  -7    5.60    0.31 
   4  -5  -7    5.38    0.30 
   4  -5  -7    5.30    0.23 
   4  -5  -7    5.25    0.30 
   4  -5  -7    5.14    0.29 
   4  -5  -7    4.89    0.33 
   4  -5  -7    5.36    0.26 
   4  -5  -7    5.71    0.39 
   4  -5  -7    5.91    0.32 
   3  -5  -7    4.43    0.23 
   3  -5  -7    4.54    0.28 
   3  -5  -7    4.26    0.26 
   3  -5  -7    4.65    0.33 
   3  -5  -7    4.43    0.28 
   3  -5  -7    4.44    0.35 
   3  -5  -7    4.48    0.28 
   3  -5  -7    4.25    0.26 
   3  -5  -7    3.82    0.27 
   3  -5  -7    4.69    0.22 
   3  -5  -7    4.22    0.21 
   3  -5  -7    4.41    0.28 
  -3   5   7    4.42    0.41 
   2  -5  -7    1.74    0.20 
   2  -5  -7    1.92    0.16 
   2  -5  -7    1.89    0.18 
   2  -5  -7    2.01    0.15 
   2  -5  -7    1.72    0.16 
   2  -5  -7    1.74    0.17 
   2  -5  -7    1.93    0.16 
   2  -5  -7    2.14    0.16 
   2  -5  -7    1.33    0.14 
  -2   5   7    2.07    0.28 
  -2   5   7    1.89    0.21 
  -2   5   7    1.97    0.18 
   1  -5  -7    2.26    0.18 
   1  -5  -7    2.32    0.22 
   1  -5  -7    2.03    0.14 
   1  -5  -7    2.29    0.20 
   1  -5  -7    2.17    0.15 
   1  -5  -7    2.24    0.17 
   1  -5  -7    1.95    0.19 
  -1   5   7    2.27    0.20 
  -1   5   7    2.14    0.23 
  -1   5   7    2.11    0.30 
  -1   5   7    2.13    0.20 
   0  -5  -7    9.65    0.45 
   0  -5  -7    9.84    0.50 
   0  -5  -7    8.72    0.42 
   0  -5  -7    8.86    0.45 
   0  -5  -7    8.93    0.43 
   0  -5  -7    9.27    0.41 
   0  -5  -7    9.20    0.40 
   0   5   7    9.55    0.51 
   0   5   7   10.46    0.59 
   0   5   7    9.45    0.51 
   0   5   7    9.98    0.53 
  -1  -5  -7    2.85    0.19 
  -1  -5  -7    2.84    0.18 
  -1  -5  -7    2.62    0.19 
  -1  -5  -7    2.56    0.18 
  -1  -5  -7    2.73    0.16 
  -1  -5  -7    2.71    0.23 
   1   5   7    2.68    0.22 
   1   5   7    3.10    0.25 
   1   5   7    2.71    0.25 
   1   5   7    2.66    0.23 
  -2  -5  -7    0.83    0.09 
  -2  -5  -7    1.12    0.11 
  -2  -5  -7    0.77    0.09 
  -2  -5  -7    0.85    0.08 
  -2  -5  -7    0.72    0.09 
   2   5   7    0.80    0.11 
   2   5   7    1.43    0.16 
   2   5   7    1.07    0.12 
  -3  -5  -7    1.52    0.12 
  -3  -5  -7    1.34    0.13 
  -3  -5  -7    1.76    0.13 
  -3  -5  -7    1.71    0.15 
   3   5   7    1.56    0.14 
   3   5   7    1.59    0.16 
   3   5   7    1.57    0.15 
  -4  -5  -7    2.86    0.16 
  -4  -5  -7    3.09    0.17 
  -4  -5  -7    2.92    0.16 
   4   5   7    3.30    0.16 
   4   5   7    3.01    0.19 
   6  -6  -7    1.26    0.14 
   6  -6  -7    1.18    0.11 
   6  -6  -7    1.19    0.11 
   6  -6  -7    1.17    0.09 
   6  -6  -7    1.10    0.12 
   6  -6  -7    1.21    0.11 
   5  -6  -7    0.02    0.06 
   5  -6  -7    0.10    0.04 
   5  -6  -7    0.03    0.06 
   5  -6  -7    0.03    0.07 
   5  -6  -7    0.07    0.08 
   5  -6  -7    0.16    0.12 
   5  -6  -7    0.00    0.06 
   5  -6  -7    0.12    0.07 
   5  -6  -7    0.01    0.06 
   5  -6  -7    0.26    0.11 
  -5   6   7    0.06    0.09 
   4  -6  -7    0.07    0.07 
   4  -6  -7    0.00    0.11 
   4  -6  -7    0.02    0.08 
   4  -6  -7    0.07    0.07 
   4  -6  -7    0.07    0.10 
   4  -6  -7    0.03    0.07 
   4  -6  -7    0.09    0.08 
   4  -6  -7    0.01    0.07 
   4  -6  -7    0.01    0.06 
   4  -6  -7    0.05    0.09 
  -4   6   7   -0.03    0.09 
  -4   6   7    0.10    0.10 
   3  -6  -7    7.22    0.41 
   3  -6  -7    7.15    0.37 
   3  -6  -7    7.53    0.39 
   3  -6  -7    7.77    0.31 
   3  -6  -7    7.59    0.38 
   3  -6  -7    7.70    0.38 
   3  -6  -7    7.87    0.33 
   3  -6  -7    8.09    0.35 
   3  -6  -7    7.83    0.39 
   3  -6  -7    7.52    0.39 
   3  -6  -7    7.24    0.46 
  -3   6   7    7.32    0.40 
  -3   6   7    7.95    0.41 
   2  -6  -7    0.08    0.08 
   2  -6  -7    0.01    0.08 
   2  -6  -7   -0.05    0.06 
   2  -6  -7    0.08    0.08 
   2  -6  -7    0.13    0.09 
   2  -6  -7    0.19    0.11 
   2  -6  -7    0.03    0.11 
   2  -6  -7    0.10    0.06 
  -2   6   7    0.25    0.09 
  -2   6   7    0.10    0.12 
   1  -6  -7    0.02    0.07 
   1  -6  -7    0.00    0.09 
   1  -6  -7    0.02    0.06 
   1  -6  -7    0.03    0.07 
   1  -6  -7   -0.07    0.07 
   1  -6  -7   -0.18    0.11 
   1  -6  -7    0.09    0.08 
  -1   6   7    0.01    0.10 
  -1   6   7   -0.01    0.12 
  -1   6   7    0.03    0.12 
   0  -6  -7    1.14    0.10 
   0  -6  -7    1.07    0.10 
   0  -6  -7    1.31    0.10 
   0  -6  -7    1.42    0.12 
   0  -6  -7    1.19    0.11 
   0  -6  -7    1.13    0.13 
   0   6   7    1.19    0.13 
   0   6   7    1.30    0.15 
   0   6   7    1.37    0.16 
  -1  -6  -7    0.10    0.06 
  -1  -6  -7    0.08    0.06 
  -1  -6  -7    0.07    0.06 
  -1  -6  -7    0.08    0.08 
   1   6   7   -0.01    0.10 
   1   6   7    0.19    0.11 
   1   6   7   -0.07    0.11 
  -2  -6  -7    0.32    0.06 
  -2  -6  -7    0.30    0.07 
  -2  -6  -7    0.32    0.07 
  -2  -6  -7    0.23    0.06 
   2   6   7    0.31    0.09 
   2   6   7    0.24    0.08 
   2   6   7    0.52    0.10 
  -3  -6  -7    1.17    0.11 
  -3  -6  -7    1.08    0.08 
  -3  -6  -7    1.08    0.10 
   3   6   7    0.92    0.11 
   3   6   7    0.96    0.10 
   5  -7  -7    2.49    0.17 
   5  -7  -7    2.44    0.12 
   5  -7  -7    2.29    0.09 
   5  -7  -7    2.43    0.18 
   5  -7  -7    2.37    0.15 
   5  -7  -7    2.05    0.17 
   5  -7  -7    2.10    0.12 
   4  -7  -7    0.10    0.09 
   4  -7  -7    0.09    0.07 
   4  -7  -7    0.08    0.05 
   4  -7  -7    0.13    0.05 
   4  -7  -7    0.15    0.09 
   4  -7  -7    0.03    0.08 
   4  -7  -7    0.11    0.05 
   4  -7  -7    0.13    0.06 
   4  -7  -7    0.15    0.07 
   3  -7  -7    0.05    0.06 
   3  -7  -7    0.13    0.06 
   3  -7  -7    0.09    0.12 
   3  -7  -7    0.12    0.07 
   3  -7  -7    0.03    0.07 
   3  -7  -7    0.10    0.05 
   3  -7  -7    0.13    0.08 
   3  -7  -7    0.13    0.06 
   3  -7  -7    0.05    0.09 
  -3   7   7    0.20    0.09 
  -3   7   7    0.15    0.09 
   2  -7  -7    0.76    0.14 
   2  -7  -7    0.77    0.07 
   2  -7  -7    0.79    0.08 
   2  -7  -7    0.54    0.10 
   2  -7  -7    0.72    0.08 
   2  -7  -7    0.76    0.09 
   2  -7  -7    0.79    0.08 
   2  -7  -7    0.74    0.09 
   2  -7  -7    0.82    0.11 
  -2   7   7    0.80    0.11 
  -2   7   7    0.65    0.13 
  -2   7   7    0.87    0.12 
   1  -7  -7    1.88    0.14 
   1  -7  -7    2.01    0.13 
   1  -7  -7    1.85    0.13 
   1  -7  -7    1.82    0.13 
   1  -7  -7    2.05    0.16 
  -1   7   7    2.44    0.17 
   0  -7  -7    0.04    0.05 
   0  -7  -7    0.05    0.07 
   0  -7  -7   -0.04    0.04 
   0  -7  -7    0.00    0.05 
   0   7   7    0.11    0.08 
   0   7   7   -0.01    0.08 
  -1  -7  -7    1.32    0.11 
  -1  -7  -7    1.22    0.10 
  -1  -7  -7    1.07    0.10 
   1   7   7    1.48    0.14 
   1   7   7    1.34    0.13 
  -2  -7  -7    0.05    0.04 
  -2  -7  -7    0.02    0.05 
   2   7   7    0.09    0.05 
   2   7   7   -0.01    0.07 
   3  -8  -7    0.56    0.06 
   3  -8  -7    0.73    0.06 
   2  -8  -7    0.08    0.04 
   2  -8  -7    0.09    0.05 
  -2   8   7    0.10    0.06 
   1  -8  -7    0.35    0.05 
   1  -8  -7    0.32    0.06 
  -1   8   7    0.31    0.08 
   0  -8  -7    1.25    0.10 
   0   8   7    1.32    0.11 
   2   8  -8    6.08    0.31 
  -2  -8   8    5.89    0.27 
  -2  -8   8    6.00    0.26 
   1   8  -8    0.01    0.05 
   1   8  -8   -0.02    0.05 
   1   8  -8    0.00    0.05 
  -1  -8   8    0.00    0.05 
  -1  -8   8   -0.04    0.06 
   0   8  -8   14.31    0.63 
   0   8  -8   14.20    0.79 
   0   8  -8   13.88    0.68 
   0  -8   8   14.17    0.59 
   0  -8   8   14.17    0.60 
  -1   8  -8   18.33    0.83 
  -1   8  -8   19.34    1.03 
   1  -8   8   18.43    0.76 
   1  -8   8   18.71    0.78 
  -2   8  -8   -0.03    0.05 
   2  -8   8    0.01    0.03 
   2  -8   8   -0.02    0.04 
   4   7  -8    3.00    0.19 
   4   7  -8    2.56    0.16 
   4   7  -8    2.84    0.13 
  -4  -7   8    2.83    0.14 
   3   7  -8   10.27    0.41 
   3   7  -8    9.15    0.45 
   3   7  -8    9.96    0.53 
   3   7  -8   10.59    0.50 
  -3  -7   8    9.83    0.45 
  -3  -7   8   10.43    0.43 
  -3  -7   8    9.89    0.43 
   2   7  -8    0.33    0.06 
   2   7  -8    0.29    0.07 
   2   7  -8    0.12    0.08 
   2   7  -8    0.14    0.07 
  -2  -7   8    0.20    0.07 
  -2  -7   8    0.28    0.08 
  -2  -7   8    0.20    0.08 
   1   7  -8    3.62    0.23 
   1   7  -8    3.77    0.27 
   1   7  -8    3.85    0.21 
  -1  -7   8    4.00    0.19 
  -1  -7   8    3.38    0.20 
  -1  -7   8    3.11    0.21 
   0   7  -8    4.20    0.23 
   0   7  -8    4.20    0.28 
   0   7  -8    4.04    0.24 
   0  -7   8    3.50    0.21 
   0  -7   8    4.00    0.22 
   0  -7   8    4.22    0.21 
  -1   7  -8    2.84    0.16 
  -1   7  -8    2.70    0.23 
   1  -7   8    2.64    0.17 
   1  -7   8    2.76    0.16 
   1  -7   8    2.74    0.17 
  -2   7  -8    0.31    0.08 
  -2   7  -8    0.50    0.07 
   2  -7   8    0.39    0.11 
   2  -7   8    0.53    0.07 
   2  -7   8    0.44    0.08 
  -3   7  -8    2.98    0.20 
  -3   7  -8    3.37    0.18 
   3  -7   8    3.04    0.22 
   3  -7   8    3.20    0.16 
   3  -7   8    3.19    0.16 
  -4   7  -8    0.03    0.04 
   4  -7   8    0.06    0.04 
   5   6  -8    0.38    0.05 
   5   6  -8    0.23    0.04 
   5   6  -8    0.22    0.06 
  -5  -6   8    0.22    0.05 
  -5  -6   8    0.24    0.06 
   4   6  -8    5.04    0.24 
   4   6  -8    4.79    0.26 
   4   6  -8    4.87    0.22 
   4   6  -8    4.73    0.28 
   4   6  -8    4.91    0.21 
   4   6  -8    4.94    0.30 
  -4  -6   8    4.96    0.27 
  -4  -6   8    4.96    0.23 
   3   6  -8    1.29    0.11 
   3   6  -8    1.43    0.10 
   3   6  -8    1.26    0.12 
   3   6  -8    1.54    0.15 
   3   6  -8    1.24    0.11 
   3   6  -8    1.35    0.14 
  -3  -6   8    1.49    0.11 
  -3  -6   8    1.13    0.12 
   2   6  -8    1.25    0.14 
   2   6  -8    1.34    0.16 
   2   6  -8    1.39    0.14 
   2   6  -8    1.33    0.12 
  -2  -6   8    1.27    0.11 
  -2  -6   8    1.16    0.12 
  -2  -6   8    1.28    0.11 
   1   6  -8    1.86    0.16 
   1   6  -8    1.85    0.16 
   1   6  -8    1.79    0.19 
  -1  -6   8    1.64    0.15 
  -1  -6   8    1.97    0.17 
  -1  -6   8    1.91    0.16 
  -1  -6   8    1.83    0.16 
   0   6  -8    3.53    0.28 
   0   6  -8    3.43    0.21 
   0   6  -8    3.10    0.23 
   0  -6   8    3.14    0.19 
   0  -6   8    3.09    0.21 
  -1   6  -8    0.16    0.06 
  -1   6  -8    0.01    0.09 
  -1   6  -8    0.13    0.06 
   1  -6   8    0.04    0.09 
   1  -6   8    0.07    0.07 
   1  -6   8    0.09    0.10 
   1  -6   8    0.09    0.07 
  -2   6  -8    0.53    0.09 
  -2   6  -8    0.36    0.09 
   2  -6   8    0.42    0.07 
   2  -6   8    0.28    0.08 
   2  -6   8    0.42    0.09 
   2  -6   8    0.55    0.14 
  -3   6  -8    2.52    0.16 
  -3   6  -8    2.68    0.18 
   3  -6   8    2.53    0.17 
   3  -6   8    2.66    0.24 
   3  -6   8    2.93    0.17 
   3  -6   8    2.75    0.17 
  -4   6  -8   -0.01    0.05 
  -4   6  -8   -0.02    0.04 
  -4   6  -8   -0.01    0.04 
   4  -6   8   -0.04    0.04 
   4  -6   8   -0.02    0.05 
   4  -6   8    0.10    0.08 
   4  -6   8    0.00    0.06 
  -5   6  -8    2.70    0.14 
   5  -6   8    2.68    0.13 
   6   5  -8    2.46    0.10 
   6   5  -8    2.26    0.13 
   6   5  -8    2.33    0.12 
   5   5  -8    1.74    0.17 
   5   5  -8    1.49    0.09 
   5   5  -8    1.71    0.12 
   5   5  -8    1.62    0.11 
   5   5  -8    1.79    0.12 
   5   5  -8    1.51    0.12 
   5   5  -8    1.74    0.15 
   5   5  -8    1.67    0.14 
  -5  -5   8    1.66    0.12 
  -5  -5   8    1.72    0.15 
   4   5  -8    0.08    0.05 
   4   5  -8    0.13    0.09 
   4   5  -8    0.08    0.05 
   4   5  -8   -0.04    0.09 
   4   5  -8    0.03    0.08 
   4   5  -8    0.11    0.07 
   4   5  -8    0.06    0.06 
  -4  -5   8    0.11    0.08 
  -4  -5   8   -0.14    0.09 
   3   5  -8   15.32    0.64 
   3   5  -8   14.37    0.59 
   3   5  -8   14.35    0.66 
   3   5  -8   13.78    0.59 
   3   5  -8   14.33    0.77 
   3   5  -8   14.40    0.72 
   3   5  -8   14.11    0.68 
  -3  -5   8   14.24    0.61 
  -3  -5   8   13.28    0.62 
  -3  -5   8   15.48    0.67 
   2   5  -8    1.95    0.15 
   2   5  -8    2.10    0.13 
   2   5  -8    2.18    0.20 
   2   5  -8    1.97    0.16 
   2   5  -8    1.87    0.21 
  -2  -5   8    2.14    0.18 
  -2  -5   8    2.11    0.17 
   1   5  -8    0.13    0.07 
   1   5  -8    0.08    0.12 
   1   5  -8    0.17    0.11 
  -1  -5   8    0.03    0.07 
  -1  -5   8   -0.09    0.07 
  -1  -5   8    0.01    0.10 
   0   5  -8    1.95    0.17 
   0   5  -8    2.06    0.21 
   0   5  -8    1.71    0.16 
   0   5  -8    1.86    0.16 
   0  -5   8    1.80    0.14 
   0  -5   8    2.17    0.18 
   0  -5   8    1.94    0.15 
   0  -5   8    2.19    0.15 
  -1   5  -8   -0.01    0.06 
  -1   5  -8    0.09    0.07 
  -1   5  -8    0.09    0.06 
  -1   5  -8    0.06    0.09 
   1  -5   8    0.04    0.11 
   1  -5   8    0.11    0.09 
   1  -5   8    0.18    0.07 
   1  -5   8    0.19    0.06 
   1  -5   8    0.30    0.09 
   1  -5   8    0.03    0.09 
  -2   5  -8    0.06    0.06 
  -2   5  -8    0.23    0.09 
  -2   5  -8    0.11    0.09 
   2  -5   8    0.22    0.08 
   2  -5   8    0.02    0.06 
   2  -5   8   -0.10    0.14 
   2  -5   8    0.13    0.09 
   2  -5   8    0.09    0.08 
   2  -5   8    0.09    0.06 
  -3   5  -8    1.02    0.08 
  -3   5  -8    0.87    0.09 
  -3   5  -8    1.10    0.11 
   3  -5   8    0.78    0.10 
   3  -5   8    0.83    0.13 
   3  -5   8    0.92    0.08 
   3  -5   8    0.86    0.08 
   3  -5   8    0.72    0.09 
  -4   5  -8    1.24    0.10 
  -4   5  -8    1.37    0.12 
  -4   5  -8    1.20    0.13 
  -4   5  -8    1.11    0.10 
   4  -5   8    1.44    0.13 
   4  -5   8    1.28    0.15 
   4  -5   8    1.12    0.10 
   4  -5   8    1.32    0.12 
   4  -5   8    1.41    0.12 
  -5   5  -8    0.37    0.05 
  -5   5  -8    0.49    0.07 
  -5   5  -8    0.33    0.04 
  -5   5  -8    0.42    0.05 
  -5   5  -8    0.38    0.05 
   5  -5   8    0.39    0.06 
   5  -5   8    0.43    0.05 
   5  -5   8    0.31    0.08 
   5  -5   8    0.35    0.05 
   6   4  -8   -0.04    0.08 
   6   4  -8    0.05    0.04 
   6   4  -8   -0.03    0.04 
   6   4  -8    0.03    0.06 
   6   4  -8   -0.03    0.05 
   6   4  -8    0.01    0.05 
  -6  -4   8   -0.01    0.08 
   5   4  -8   -0.07    0.08 
   5   4  -8   -0.01    0.05 
   5   4  -8    0.05    0.06 
   5   4  -8   -0.03    0.11 
   5   4  -8   -0.03    0.04 
   5   4  -8    0.00    0.06 
   5   4  -8    0.08    0.06 
   5   4  -8    0.03    0.07 
   5   4  -8    0.09    0.06 
  -5  -4   8    0.06    0.09 
   4   4  -8    2.22    0.17 
   4   4  -8    2.46    0.14 
   4   4  -8    2.19    0.17 
   4   4  -8    2.30    0.15 
   4   4  -8    2.19    0.15 
   4   4  -8    2.48    0.23 
   4   4  -8    2.36    0.19 
   4   4  -8    2.47    0.20 
  -4  -4   8    1.97    0.20 
   3   4  -8    3.04    0.24 
   3   4  -8    2.76    0.19 
   3   4  -8    2.87    0.25 
   3   4  -8    2.97    0.21 
   3   4  -8    2.88    0.19 
   3   4  -8    2.82    0.22 
   3   4  -8    3.02    0.18 
   3   4  -8    2.85    0.16 
  -3  -4   8    2.69    0.25 
  -3  -4   8    2.83    0.20 
   2   4  -8    3.49    0.19 
   2   4  -8    3.31    0.22 
  -2  -4   8    3.07    0.21 
  -2  -4   8    3.55    0.23 
  -2  -4   8    2.95    0.22 
   1   4  -8    0.24    0.07 
   1   4  -8    0.33    0.08 
  -1  -4   8    0.15    0.09 
  -1  -4   8    0.21    0.08 
  -1  -4   8    0.15    0.10 
   0   4  -8    3.40    0.22 
   0   4  -8    3.52    0.23 
   0  -4   8    3.33    0.25 
   0  -4   8    3.54    0.21 
  -1   4  -8    1.93    0.16 
  -1   4  -8    1.89    0.16 
   1  -4   8    1.80    0.14 
   1  -4   8    1.41    0.16 
   1  -4   8    2.16    0.20 
  -2   4  -8    5.13    0.32 
  -2   4  -8    5.51    0.29 
  -2   4  -8    5.33    0.29 
   2  -4   8    5.01    0.28 
   2  -4   8    5.26    0.25 
   2  -4   8    5.01    0.34 
   2  -4   8    5.46    0.26 
   2  -4   8    5.38    0.29 
  -3   4  -8   10.01    0.47 
  -3   4  -8   10.44    0.51 
  -3   4  -8   10.29    0.51 
  -3   4  -8   10.78    0.44 
   3  -4   8   10.80    0.49 
   3  -4   8   10.36    0.45 
   3  -4   8   10.30    0.51 
   3  -4   8   10.08    0.43 
   3  -4   8    9.48    0.55 
   3  -4   8   10.44    0.46 
  -4   4  -8    0.48    0.07 
  -4   4  -8    0.68    0.07 
  -4   4  -8    0.49    0.07 
  -4   4  -8    0.44    0.07 
   4  -4   8    0.63    0.10 
   4  -4   8    0.54    0.07 
   4  -4   8    0.48    0.11 
   4  -4   8    0.41    0.10 
   4  -4   8    0.58    0.07 
  -5   4  -8   14.83    0.70 
  -5   4  -8   15.15    0.57 
  -5   4  -8   15.25    0.60 
  -5   4  -8   15.06    0.65 
   5  -4   8   14.91    0.61 
   5  -4   8   14.97    0.54 
   5  -4   8   13.58    0.58 
   5  -4   8   14.86    0.65 
   5  -4   8   14.80    0.67 
   6  -4   8    7.03    0.29 
   7   3  -8    1.56    0.12 
   7   3  -8    1.86    0.12 
   6   3  -8    0.06    0.08 
   6   3  -8    0.05    0.08 
   6   3  -8    0.06    0.04 
   6   3  -8    0.06    0.08 
   6   3  -8    0.11    0.05 
   6   3  -8    0.06    0.06 
   6   3  -8    0.07    0.04 
   6   3  -8    0.01    0.06 
  -6  -3   8    0.07    0.09 
   5   3  -8    1.50    0.14 
   5   3  -8    1.89    0.18 
   5   3  -8    1.57    0.13 
   5   3  -8    1.49    0.15 
   5   3  -8    1.62    0.13 
   5   3  -8    1.46    0.12 
   5   3  -8    1.62    0.15 
   5   3  -8    1.48    0.12 
   5   3  -8    1.42    0.13 
   5   3  -8    1.33    0.09 
  -5  -3   8    1.59    0.15 
   4   3  -8    8.46    0.34 
   4   3  -8    8.21    0.59 
   4   3  -8    8.22    0.44 
   4   3  -8    8.25    0.37 
   4   3  -8    8.65    0.42 
   4   3  -8    8.43    0.43 
   4   3  -8    8.72    0.46 
   4   3  -8    9.06    0.40 
   4   3  -8    8.50    0.49 
   4   3  -8    8.08    0.39 
   4   3  -8    8.72    0.43 
  -4  -3   8    8.54    0.43 
   3   3  -8   12.94    0.57 
   3   3  -8   12.25    0.84 
   3   3  -8   13.11    0.60 
   3   3  -8   13.26    0.61 
   3   3  -8   12.81    0.57 
   3   3  -8   12.30    0.69 
  -3  -3   8   12.35    0.61 
  -3  -3   8   12.73    0.60 
   2   3  -8    5.75    0.30 
   2   3  -8    5.73    0.28 
   2   3  -8    5.67    0.34 
  -2  -3   8    5.37    0.30 
  -2  -3   8    5.59    0.30 
  -2  -3   8    5.82    0.32 
   1   3  -8    5.56    0.33 
   1   3  -8    5.13    0.28 
   1   3  -8    6.02    0.27 
  -1  -3   8    5.49    0.30 
  -1  -3   8    5.60    0.28 
  -1  -3   8    4.97    0.30 
   0   3  -8    0.11    0.07 
   0  -3   8    0.22    0.10 
  -1   3  -8   -0.13    0.06 
   1  -3   8    0.10    0.09 
   1  -3   8    0.03    0.07 
   1  -3   8    0.05    0.07 
  -2   3  -8    2.55    0.18 
  -2   3  -8    2.83    0.21 
   2  -3   8    2.92    0.18 
   2  -3   8    2.58    0.21 
   2  -3   8    2.59    0.19 
   2  -3   8    2.28    0.24 
  -3   3  -8    6.51    0.34 
  -3   3  -8    7.25    0.30 
  -3   3  -8    7.13    0.33 
  -3   3  -8    7.00    0.35 
  -3   3  -8    5.97    0.38 
  -3   3  -8    6.54    0.36 
   3  -3   8    6.60    0.37 
   3  -3   8    7.13    0.30 
   3  -3   8    6.08    0.38 
   3  -3   8    7.32    0.34 
   3  -3   8    6.90    0.31 
   3  -3   8    6.81    0.33 
   3  -3   8    6.20    0.35 
  -4   3  -8   10.97    0.48 
  -4   3  -8   10.50    0.44 
  -4   3  -8   10.19    0.51 
   4  -3   8   10.36    0.51 
   4  -3   8   10.28    0.46 
   4  -3   8   10.58    0.49 
   4  -3   8   10.73    0.44 
  -5   3  -8    5.56    0.25 
  -5   3  -8    5.54    0.27 
  -5   3  -8    5.89    0.23 
  -5   3  -8    4.97    0.28 
   5  -3   8    5.42    0.25 
   5  -3   8    5.48    0.28 
   5  -3   8    5.38    0.30 
   5  -3   8    5.67    0.25 
  -6   3  -8    2.12    0.11 
  -6   3  -8    2.29    0.11 
   6  -3   8    2.33    0.12 
   6  -3   8    2.18    0.13 
   6  -3   8    2.25    0.10 
   6  -3   8    2.10    0.11 
   7   2  -8   -0.04    0.06 
   7   2  -8   -0.02    0.06 
   7   2  -8   -0.02    0.05 
   6   2  -8    2.17    0.18 
   6   2  -8    1.89    0.15 
   6   2  -8    1.73    0.17 
   6   2  -8    1.79    0.16 
   6   2  -8    1.96    0.12 
   6   2  -8    2.13    0.21 
   6   2  -8    1.50    0.17 
   5   2  -8    4.70    0.28 
   5   2  -8    4.40    0.27 
   5   2  -8    4.37    0.20 
   5   2  -8    4.63    0.32 
   5   2  -8    4.53    0.27 
   5   2  -8    4.51    0.29 
   5   2  -8    4.46    0.23 
   5   2  -8    4.32    0.26 
   5   2  -8    4.90    0.24 
   4   2  -8    0.33    0.09 
   4   2  -8    0.39    0.12 
   4   2  -8    0.25    0.11 
   4   2  -8    0.45    0.07 
   4   2  -8    0.27    0.06 
   4   2  -8    0.34    0.11 
   4   2  -8    0.43    0.09 
   4   2  -8    0.38    0.12 
   4   2  -8    0.30    0.09 
   4   2  -8    0.37    0.11 
   4   2  -8    0.41    0.14 
  -4  -2   8    0.23    0.11 
   3   2  -8   -0.05    0.08 
   3   2  -8    0.09    0.05 
   3   2  -8    0.00    0.09 
   3   2  -8    0.02    0.07 
   3   2  -8    0.03    0.05 
  -3  -2   8    0.08    0.10 
   2   2  -8    2.28    0.19 
   2   2  -8    2.39    0.15 
  -2  -2   8    2.41    0.19 
  -2  -2   8    2.83    0.20 
   1   2  -8   12.56    0.66 
   1   2  -8   12.30    0.56 
  -1  -2   8   11.84    0.58 
  -1  -2   8   13.23    0.59 
   0   2  -8    2.85    0.19 
   0  -2   8    2.42    0.18 
   0  -2   8    2.73    0.19 
  -1   2  -8    7.22    0.40 
   1  -2   8    6.61    0.35 
   1  -2   8    7.16    0.36 
  -2   2  -8    1.77    0.14 
  -2   2  -8    1.52    0.15 
  -2   2  -8    1.60    0.13 
   2  -2   8    1.92    0.16 
   2  -2   8    1.38    0.15 
   2  -2   8    1.68    0.13 
   2  -2   8    1.79    0.16 
  -3   2  -8    0.26    0.08 
  -3   2  -8    0.20    0.08 
  -3   2  -8    0.14    0.06 
  -3   2  -8    0.09    0.06 
   3  -2   8    0.40    0.10 
   3  -2   8    0.24    0.08 
   3  -2   8    0.28    0.11 
   3  -2   8    0.13    0.07 
   3  -2   8    0.24    0.08 
   3  -2   8    0.07    0.13 
  -4   2  -8    1.88    0.15 
  -4   2  -8    2.27    0.14 
  -4   2  -8    2.31    0.14 
  -4   2  -8    2.16    0.16 
   4  -2   8    2.11    0.16 
   4  -2   8    2.24    0.19 
   4  -2   8    2.06    0.18 
   4  -2   8    2.26    0.19 
   4  -2   8    2.11    0.14 
   4  -2   8    2.31    0.16 
  -5   2  -8    0.36    0.07 
  -5   2  -8    0.42    0.06 
  -5   2  -8    0.22    0.05 
  -5   2  -8    0.26    0.06 
  -5   2  -8    0.29    0.06 
   5  -2   8    0.22    0.05 
   5  -2   8    0.60    0.09 
   5  -2   8    0.19    0.08 
   5  -2   8    0.27    0.07 
   5  -2   8    0.23    0.08 
   5  -2   8    0.27    0.06 
   5  -2   8    0.41    0.09 
  -6   2  -8    2.29    0.12 
  -6   2  -8    2.65    0.14 
  -6   2  -8    2.60    0.12 
   6  -2   8    2.38    0.14 
   6  -2   8    2.57    0.13 
   6  -2   8    2.36    0.12 
   6  -2   8    2.57    0.11 
   7   1  -8    0.00    0.09 
   7   1  -8    0.04    0.06 
   7   1  -8    0.15    0.07 
   6   1  -8    3.33    0.23 
   6   1  -8    3.29    0.26 
   6   1  -8    3.43    0.15 
   6   1  -8    3.39    0.22 
   6   1  -8    3.45    0.22 
   6   1  -8    3.44    0.18 
   6   1  -8    3.23    0.22 
   5   1  -8   28.44    1.16 
   5   1  -8   30.06    1.26 
   5   1  -8   28.51    1.04 
   5   1  -8   29.64    1.35 
   5   1  -8   28.99    1.39 
   5   1  -8   29.57    1.33 
   5   1  -8   28.77    1.48 
   5   1  -8   28.38    1.29 
   5   1  -8   28.12    1.33 
   4   1  -8   11.97    0.79 
   4   1  -8   11.19    0.64 
   4   1  -8   11.45    0.58 
   4   1  -8   12.12    0.55 
   4   1  -8   12.20    0.53 
   4   1  -8   10.92    0.48 
   4   1  -8   12.11    0.58 
  -4  -1   8   12.19    0.57 
   3   1  -8    0.03    0.07 
   3   1  -8    0.14    0.05 
   3   1  -8    0.10    0.07 
   3   1  -8    0.01    0.07 
   3   1  -8    0.04    0.04 
   3   1  -8   -0.01    0.07 
  -3  -1   8    0.19    0.10 
  -3  -1   8   -0.01    0.10 
   2   1  -8    4.13    0.26 
   2   1  -8    4.38    0.21 
  -2  -1   8    4.35    0.27 
  -2  -1   8    3.74    0.31 
  -2  -1   8    3.94    0.25 
   1   1  -8   24.06    1.04 
   1   1  -8   24.14    1.21 
  -1  -1   8   22.78    1.06 
  -1  -1   8   24.84    1.06 
   0   1  -8    0.49    0.09 
   0  -1   8    0.52    0.09 
   0  -1   8    0.49    0.10 
  -1   1  -8    1.83    0.16 
  -1   1  -8    1.94    0.14 
   1  -1   8    1.79    0.15 
   1  -1   8    1.93    0.15 
  -2   1  -8    2.45    0.16 
  -2   1  -8    2.49    0.19 
  -2   1  -8    2.54    0.17 
   2  -1   8    2.15    0.17 
   2  -1   8    2.19    0.18 
   2  -1   8    2.35    0.18 
   2  -1   8    2.33    0.19 
   2  -1   8    2.49    0.24 
  -3   1  -8    7.17    0.39 
  -3   1  -8    7.88    0.37 
  -3   1  -8    7.92    0.38 
  -3   1  -8    7.60    0.32 
  -3   1  -8    7.57    0.34 
   3  -1   8    7.09    0.34 
   3  -1   8    7.21    0.37 
   3  -1   8    7.34    0.37 
   3  -1   8    7.61    0.42 
   3  -1   8    7.23    0.39 
   3  -1   8    7.48    0.35 
   3  -1   8    7.23    0.37 
   3  -1   8    7.79    0.36 
  -4   1  -8    2.96    0.18 
  -4   1  -8    3.22    0.20 
  -4   1  -8    3.13    0.17 
  -4   1  -8    3.13    0.16 
  -4   1  -8    3.02    0.19 
  -4   1  -8    3.50    0.20 
   4  -1   8    3.36    0.23 
   4  -1   8    3.28    0.19 
   4  -1   8    3.16    0.25 
   4  -1   8    3.32    0.19 
   4  -1   8    3.03    0.19 
   4  -1   8    3.09    0.18 
   4  -1   8    3.07    0.19 
  -5   1  -8    6.51    0.31 
  -5   1  -8    6.79    0.27 
  -5   1  -8    6.29    0.29 
  -5   1  -8    6.35    0.28 
  -5   1  -8    5.96    0.28 
   5  -1   8    6.06    0.30 
   5  -1   8    6.41    0.31 
   5  -1   8    6.56    0.28 
   5  -1   8    6.53    0.32 
   5  -1   8    6.05    0.34 
   5  -1   8    6.12    0.29 
  -6   1  -8    0.39    0.05 
  -6   1  -8    0.55    0.05 
   6  -1   8    0.50    0.05 
   6  -1   8    0.59    0.06 
   6  -1   8    0.41    0.07 
   7   0  -8    0.98    0.12 
   7   0  -8    0.90    0.09 
   7   0  -8    1.06    0.10 
   6   0  -8    0.34    0.09 
   6   0  -8    0.51    0.10 
   6   0  -8    0.36    0.13 
   6   0  -8    0.49    0.09 
   6   0  -8    0.34    0.09 
   6   0  -8    0.28    0.08 
   6   0  -8    0.36    0.06 
   6   0  -8    0.37    0.04 
   5   0  -8    5.39    0.42 
   5   0  -8    5.98    0.38 
   5   0  -8    6.21    0.33 
   5   0  -8    5.87    0.33 
   5   0  -8    5.73    0.39 
   5   0  -8    5.89    0.28 
   5   0  -8    5.77    0.23 
   5   0  -8    5.59    0.33 
   5   0  -8    5.73    0.33 
   5   0  -8    5.83    0.31 
   4   0  -8   25.32    1.29 
   4   0  -8   25.61    1.13 
   4   0  -8   26.46    1.16 
   4   0  -8   24.35    0.99 
   4   0  -8   26.03    1.10 
   4   0  -8   25.76    1.19 
   4   0  -8   24.74    1.28 
  -4   0   8   24.27    1.12 
  -4   0   8   24.17    1.12 
   3   0  -8    4.00    0.25 
   3   0  -8    4.12    0.20 
   3   0  -8    3.63    0.23 
   3   0  -8    3.78    0.30 
   3   0  -8    3.66    0.18 
   3   0  -8    3.92    0.23 
  -3   0   8    3.69    0.24 
  -3   0   8    3.76    0.33 
  -3   0   8    3.85    0.24 
   2   0  -8   10.42    0.69 
   2   0  -8   10.88    0.57 
   2   0  -8   10.21    0.43 
   2   0  -8   11.10    0.48 
  -2   0   8   10.36    0.51 
  -2   0   8   10.35    0.51 
  -2   0   8   10.26    0.65 
   1   0  -8   21.61    0.91 
   1   0  -8   21.64    1.06 
  -1   0   8   21.21    0.93 
  -1   0   8   19.42    1.19 
  -1   0   8   20.41    0.93 
   0   0  -8    1.96    0.14 
   0   0  -8    1.98    0.16 
   0   0   8    2.12    0.18 
   0   0   8    2.11    0.16 
  -1   0  -8   55.78    2.88 
  -1   0  -8   59.49    2.66 
   1   0   8   58.46    2.52 
   1   0   8   59.66    2.50 
  -2   0  -8    5.28    0.29 
  -2   0  -8    5.50    0.29 
   2   0   8    5.56    0.28 
   2   0   8    5.46    0.29 
   2   0   8    4.90    0.33 
   2   0   8    5.54    0.30 
  -3   0  -8   11.98    0.53 
  -3   0  -8   11.11    0.48 
  -3   0  -8   10.48    0.50 
  -3   0  -8   11.62    0.45 
  -3   0  -8   11.10    0.56 
  -3   0  -8   11.91    0.55 
   3   0   8   11.93    0.51 
   3   0   8   11.14    0.54 
   3   0   8   11.50    0.53 
   3   0   8   10.81    0.53 
   3   0   8   12.21    0.57 
   3   0   8   10.88    0.50 
   3   0   8   10.48    0.52 
   3   0   8   11.03    0.47 
  -4   0  -8   16.46    0.68 
  -4   0  -8   16.38    0.71 
  -4   0  -8   17.23    0.66 
  -4   0  -8   16.51    0.73 
  -4   0  -8   16.40    0.80 
  -4   0  -8   17.17    0.75 
   4   0   8   16.45    0.67 
   4   0   8   17.13    0.77 
   4   0   8   16.39    0.75 
   4   0   8   17.60    0.72 
   4   0   8   16.83    0.69 
   4   0   8   17.39    0.73 
   4   0   8   16.84    0.75 
  -5   0  -8    1.44    0.12 
  -5   0  -8    1.46    0.11 
  -5   0  -8    1.56    0.11 
  -5   0  -8    1.59    0.12 
  -5   0  -8    1.90    0.13 
   5   0   8    1.53    0.12 
   5   0   8    1.75    0.13 
   5   0   8    1.72    0.13 
   5   0   8    1.49    0.13 
   5   0   8    1.66    0.11 
   5   0   8    1.48    0.14 
   5   0   8    1.82    0.16 
  -6   0  -8    0.38    0.05 
  -6   0  -8    0.46    0.04 
   6   0   8    0.39    0.05 
   6   0   8    0.40    0.05 
   7  -1  -8    0.31    0.06 
   7  -1  -8    0.50    0.10 
   7  -1  -8    0.24    0.07 
   7  -1  -8    0.37    0.08 
   6  -1  -8    2.42    0.21 
   6  -1  -8    2.45    0.17 
   6  -1  -8    2.47    0.22 
   6  -1  -8    2.64    0.21 
   6  -1  -8    2.53    0.11 
   6  -1  -8    2.42    0.16 
   6  -1  -8    2.58    0.17 
   6  -1  -8    2.48    0.18 
  -6   1   8    2.21    0.28 
   5  -1  -8    0.83    0.10 
   5  -1  -8    0.83    0.16 
   5  -1  -8    0.76    0.12 
   5  -1  -8    0.66    0.11 
   5  -1  -8    0.84    0.11 
   5  -1  -8    0.66    0.11 
   5  -1  -8    0.80    0.14 
   5  -1  -8    0.68    0.13 
   5  -1  -8    0.72    0.06 
  -5   1   8    0.69    0.17 
   4  -1  -8    6.69    0.36 
   4  -1  -8    5.87    0.37 
   4  -1  -8    6.58    0.35 
   4  -1  -8    6.36    0.33 
   4  -1  -8    6.38    0.40 
   4  -1  -8    6.31    0.46 
   4  -1  -8    6.19    0.30 
  -4   1   8    6.21    0.33 
  -4   1   8    6.22    0.46 
   3  -1  -8    0.30    0.05 
   3  -1  -8    0.33    0.09 
   3  -1  -8    0.30    0.06 
   3  -1  -8    0.31    0.07 
   3  -1  -8    0.38    0.10 
   3  -1  -8    0.21    0.08 
  -3   1   8    0.39    0.09 
  -3   1   8    0.22    0.13 
   2  -1  -8    2.50    0.15 
   2  -1  -8    2.73    0.20 
   2  -1  -8    2.27    0.23 
   2  -1  -8    2.24    0.13 
  -2   1   8    2.20    0.20 
  -2   1   8    2.29    0.26 
  -2   1   8    2.69    0.18 
   1  -1  -8    0.05    0.08 
  -1   1   8    0.01    0.07 
  -1   1   8    0.09    0.08 
  -1   1   8    0.07    0.13 
   0  -1  -8    2.46    0.19 
   0  -1  -8    2.67    0.18 
   0   1   8    2.73    0.18 
   0   1   8    2.60    0.24 
   0   1   8    2.73    0.18 
  -1  -1  -8    0.89    0.10 
  -1  -1  -8    0.84    0.10 
   1   1   8    0.92    0.11 
   1   1   8    0.91    0.10 
   1   1   8    0.80    0.09 
  -2  -1  -8   70.08    3.16 
  -2  -1  -8   70.36    2.99 
   2   1   8   69.45    2.96 
   2   1   8   70.93    2.98 
   2   1   8   65.66    2.82 
  -3  -1  -8    0.42    0.09 
  -3  -1  -8    0.23    0.08 
  -3  -1  -8    0.37    0.08 
  -3  -1  -8    0.28    0.07 
  -3  -1  -8    0.44    0.07 
  -3  -1  -8    0.38    0.08 
   3   1   8    0.29    0.09 
   3   1   8    0.40    0.11 
   3   1   8    0.28    0.09 
   3   1   8    0.35    0.08 
   3   1   8    0.28    0.09 
  -4  -1  -8   14.72    0.64 
  -4  -1  -8   14.84    0.58 
  -4  -1  -8   14.48    0.66 
  -4  -1  -8   14.40    0.63 
  -4  -1  -8   14.29    0.60 
  -4  -1  -8   15.48    0.66 
   4   1   8   14.92    0.67 
   4   1   8   15.13    0.60 
   4   1   8   14.83    0.62 
   4   1   8   14.86    0.69 
   4   1   8   14.20    0.66 
   4   1   8   15.12    0.64 
  -5  -1  -8    2.18    0.14 
  -5  -1  -8    2.39    0.15 
  -5  -1  -8    2.42    0.13 
  -5  -1  -8    2.56    0.13 
  -5  -1  -8    2.31    0.14 
  -5  -1  -8    2.52    0.16 
   5   1   8    2.28    0.16 
   5   1   8    2.60    0.15 
   5   1   8    2.46    0.14 
   5   1   8    2.44    0.14 
   5   1   8    2.31    0.16 
   5   1   8    2.57    0.14 
  -6  -1  -8    3.17    0.15 
   7  -2  -8    0.44    0.09 
   7  -2  -8    0.48    0.07 
   7  -2  -8    0.65    0.08 
   6  -2  -8    1.35    0.07 
   6  -2  -8    1.45    0.13 
   6  -2  -8    1.40    0.15 
   6  -2  -8    1.20    0.13 
   6  -2  -8    1.48    0.14 
   6  -2  -8    1.21    0.15 
   6  -2  -8    1.46    0.14 
   6  -2  -8    1.39    0.15 
   5  -2  -8    0.24    0.06 
   5  -2  -8    0.11    0.10 
   5  -2  -8    0.45    0.12 
   5  -2  -8    0.21    0.11 
   5  -2  -8    0.05    0.08 
   5  -2  -8    0.18    0.07 
   5  -2  -8    0.09    0.08 
   5  -2  -8    0.23    0.09 
   5  -2  -8    0.24    0.13 
  -5   2   8    0.20    0.15 
   4  -2  -8    0.09    0.09 
   4  -2  -8    0.27    0.12 
   4  -2  -8    0.16    0.08 
   4  -2  -8    0.32    0.08 
   4  -2  -8    0.21    0.07 
   4  -2  -8    0.13    0.08 
   4  -2  -8    0.14    0.09 
   4  -2  -8    0.42    0.12 
   4  -2  -8    0.15    0.12 
   4  -2  -8    0.20    0.11 
   4  -2  -8    0.32    0.09 
  -4   2   8    0.37    0.15 
  -4   2   8    0.05    0.14 
   3  -2  -8   17.03    0.87 
   3  -2  -8   17.07    0.76 
   3  -2  -8   17.36    1.08 
   3  -2  -8   16.00    0.66 
   3  -2  -8   16.83    0.78 
  -3   2   8   13.58    1.11 
  -3   2   8   18.07    0.99 
   2  -2  -8    6.93    0.35 
   2  -2  -8    7.09    0.40 
  -2   2   8    7.13    0.34 
  -2   2   8    5.46    0.51 
  -2   2   8    7.14    0.47 
   1  -2  -8    9.13    0.51 
  -1   2   8    9.17    0.45 
  -1   2   8    9.72    0.59 
   0  -2  -8   11.10    0.54 
   0  -2  -8   10.86    0.51 
   0  -2  -8   10.53    0.59 
   0   2   8   11.50    0.67 
   0   2   8   11.01    0.52 
  -1  -2  -8    6.96    0.35 
  -1  -2  -8    6.73    0.34 
   1   2   8    6.67    0.44 
   1   2   8    6.55    0.34 
   1   2   8    6.56    0.34 
  -2  -2  -8    1.61    0.15 
  -2  -2  -8    1.37    0.12 
  -2  -2  -8    1.68    0.16 
  -2  -2  -8    1.44    0.12 
  -2  -2  -8    1.04    0.11 
  -2  -2  -8    1.44    0.11 
   2   2   8    1.62    0.12 
   2   2   8    1.43    0.17 
   2   2   8    1.64    0.15 
   2   2   8    1.73    0.16 
   2   2   8    1.82    0.15 
   2   2   8    1.36    0.12 
   2   2   8    1.84    0.15 
  -3  -2  -8    0.96    0.09 
  -3  -2  -8    0.75    0.08 
  -3  -2  -8    1.09    0.11 
  -3  -2  -8    0.76    0.08 
  -3  -2  -8    0.81    0.09 
  -3  -2  -8    1.11    0.11 
  -3  -2  -8    1.05    0.12 
   3   2   8    0.83    0.10 
   3   2   8    0.92    0.13 
   3   2   8    0.75    0.11 
   3   2   8    0.84    0.10 
   3   2   8    0.73    0.10 
   3   2   8    0.96    0.11 
   3   2   8    0.74    0.09 
  -4  -2  -8    0.32    0.07 
  -4  -2  -8    0.26    0.08 
  -4  -2  -8    0.19    0.06 
  -4  -2  -8    0.14    0.05 
  -4  -2  -8    0.24    0.07 
   4   2   8    0.31    0.08 
   4   2   8    0.28    0.07 
   4   2   8    0.27    0.09 
   4   2   8    0.20    0.07 
   4   2   8    0.15    0.06 
   4   2   8    0.24    0.07 
   4   2   8    0.33    0.09 
  -5  -2  -8    3.64    0.17 
  -5  -2  -8    3.46    0.17 
  -5  -2  -8    4.01    0.20 
   5   2   8    3.80    0.19 
   5   2   8    3.96    0.19 
   5   2   8    3.72    0.18 
   7  -3  -8    1.64    0.12 
   7  -3  -8    1.49    0.15 
   7  -3  -8    1.87    0.14 
   7  -3  -8    1.71    0.17 
   6  -3  -8    1.06    0.10 
   6  -3  -8    1.10    0.11 
   6  -3  -8    1.20    0.14 
   6  -3  -8    1.18    0.12 
   6  -3  -8    1.16    0.11 
   6  -3  -8    1.12    0.11 
   6  -3  -8    1.35    0.16 
   5  -3  -8    1.79    0.17 
   5  -3  -8    1.84    0.14 
   5  -3  -8    1.85    0.19 
   5  -3  -8    1.63    0.20 
   5  -3  -8    1.53    0.15 
   5  -3  -8    1.67    0.17 
   5  -3  -8    1.51    0.14 
   5  -3  -8    1.67    0.16 
   5  -3  -8    1.44    0.11 
  -5   3   8    1.45    0.20 
   4  -3  -8   -0.05    0.06 
   4  -3  -8   -0.03    0.07 
   4  -3  -8    0.15    0.11 
   4  -3  -8   -0.03    0.09 
   4  -3  -8   -0.07    0.10 
   4  -3  -8   -0.02    0.11 
   4  -3  -8   -0.02    0.09 
   4  -3  -8    0.06    0.11 
   4  -3  -8    0.14    0.11 
   4  -3  -8    0.03    0.07 
  -4   3   8    0.15    0.12 
  -4   3   8    0.02    0.14 
   3  -3  -8   13.73    0.77 
   3  -3  -8   15.05    0.71 
   3  -3  -8   14.71    0.67 
   3  -3  -8   15.18    0.72 
   3  -3  -8   14.97    0.68 
   3  -3  -8   14.71    0.69 
   3  -3  -8   14.68    0.79 
  -3   3   8   12.74    1.01 
  -3   3   8   15.20    0.88 
   2  -3  -8    2.11    0.19 
   2  -3  -8    2.10    0.19 
   2  -3  -8    2.24    0.18 
   2  -3  -8    2.00    0.18 
  -2   3   8    2.47    0.26 
   1  -3  -8    1.01    0.11 
   1  -3  -8    0.90    0.12 
   1  -3  -8    0.88    0.11 
  -1   3   8    0.87    0.15 
  -1   3   8    1.13    0.21 
   0  -3  -8   24.99    1.22 
   0  -3  -8   26.15    1.14 
   0   3   8   27.27    1.46 
   0   3   8   26.13    1.14 
   0   3   8   24.15    1.23 
  -1  -3  -8    9.62    0.49 
  -1  -3  -8    9.55    0.47 
  -1  -3  -8   10.53    0.45 
  -1  -3  -8   10.64    0.43 
  -1  -3  -8    9.98    0.54 
  -1  -3  -8   10.91    0.50 
   1   3   8   10.48    0.50 
   1   3   8   10.62    0.58 
   1   3   8   10.85    0.49 
   1   3   8   10.56    0.56 
   1   3   8   11.31    0.65 
  -2  -3  -8    0.69    0.10 
  -2  -3  -8    0.77    0.09 
  -2  -3  -8    0.69    0.09 
  -2  -3  -8    0.88    0.09 
  -2  -3  -8    0.66    0.09 
  -2  -3  -8    0.57    0.07 
   2   3   8    0.69    0.13 
   2   3   8    0.79    0.12 
   2   3   8    0.81    0.10 
   2   3   8    0.75    0.10 
   2   3   8    0.84    0.11 
   2   3   8    0.70    0.12 
  -3  -3  -8    1.41    0.10 
  -3  -3  -8    1.43    0.13 
  -3  -3  -8    1.49    0.13 
  -3  -3  -8    1.48    0.14 
  -3  -3  -8    1.60    0.13 
   3   3   8    1.39    0.13 
   3   3   8    1.29    0.12 
   3   3   8    1.60    0.13 
   3   3   8    1.46    0.13 
   3   3   8    1.54    0.15 
  -4  -3  -8    0.67    0.07 
  -4  -3  -8    0.76    0.08 
  -4  -3  -8    0.85    0.07 
  -4  -3  -8    0.98    0.10 
  -4  -3  -8    0.57    0.07 
   4   3   8    0.91    0.09 
   4   3   8    0.97    0.08 
   4   3   8    0.99    0.10 
   4   3   8    0.81    0.09 
   4   3   8    0.73    0.09 
  -5  -3  -8    0.48    0.06 
   5   3   8    0.37    0.05 
   5   3   8    0.53    0.05 
   7  -4  -8    0.78    0.09 
   7  -4  -8    1.01    0.10 
   6  -4  -8    0.02    0.07 
   6  -4  -8    0.05    0.09 
   6  -4  -8    0.05    0.06 
   6  -4  -8    0.01    0.06 
   6  -4  -8    0.19    0.09 
   6  -4  -8    0.06    0.10 
   5  -4  -8    0.38    0.09 
   5  -4  -8    0.44    0.12 
   5  -4  -8    0.64    0.14 
   5  -4  -8    0.54    0.06 
   5  -4  -8    0.64    0.08 
   5  -4  -8    0.49    0.14 
   5  -4  -8    0.63    0.09 
   5  -4  -8    0.43    0.09 
   5  -4  -8    0.44    0.10 
   4  -4  -8    0.62    0.10 
   4  -4  -8    0.63    0.09 
   4  -4  -8    0.51    0.10 
   4  -4  -8    0.55    0.13 
   4  -4  -8    0.62    0.10 
   4  -4  -8    0.52    0.09 
   4  -4  -8    0.75    0.11 
   4  -4  -8    0.51    0.07 
   4  -4  -8    0.62    0.13 
   4  -4  -8    0.65    0.11 
   4  -4  -8    0.62    0.13 
  -4   4   8    0.36    0.12 
   3  -4  -8   10.00    0.39 
   3  -4  -8   10.67    0.50 
   3  -4  -8    9.78    0.58 
   3  -4  -8    9.96    0.47 
   3  -4  -8    9.97    0.53 
   3  -4  -8    9.45    0.55 
   3  -4  -8    9.95    0.49 
   3  -4  -8   10.40    0.60 
   3  -4  -8   10.14    0.48 
   3  -4  -8   10.02    0.43 
   3  -4  -8    9.86    0.50 
   3  -4  -8   10.16    0.42 
   3  -4  -8   10.05    0.51 
  -3   4   8    9.76    0.62 
  -3   4   8    9.23    0.54 
  -3   4   8    9.21    0.74 
   2  -4  -8   18.29    0.87 
   2  -4  -8   18.58    0.73 
   2  -4  -8   19.32    0.83 
   2  -4  -8   17.15    0.96 
   2  -4  -8   19.64    0.90 
   2  -4  -8   18.36    0.88 
   2  -4  -8   19.64    0.88 
  -2   4   8   18.01    0.94 
  -2   4   8   18.57    0.92 
  -2   4   8   16.39    1.23 
  -2   4   8   19.81    1.09 
   1  -4  -8    0.22    0.09 
   1  -4  -8    0.17    0.08 
   1  -4  -8    0.09    0.09 
   1  -4  -8    0.21    0.10 
   1  -4  -8    0.17    0.12 
  -1   4   8    0.14    0.16 
  -1   4   8    0.10    0.11 
  -1   4   8    0.00    0.11 
   0  -4  -8    0.09    0.12 
   0  -4  -8    0.22    0.08 
   0  -4  -8    0.14    0.13 
   0  -4  -8    0.40    0.09 
   0  -4  -8    0.21    0.09 
   0  -4  -8    0.33    0.09 
   0  -4  -8    0.23    0.07 
   0  -4  -8    0.20    0.08 
   0   4   8    0.27    0.14 
   0   4   8    0.25    0.16 
   0   4   8    0.19    0.11 
   0   4   8    0.21    0.11 
  -1  -4  -8   11.46    0.53 
  -1  -4  -8   12.65    0.50 
  -1  -4  -8   11.95    0.60 
  -1  -4  -8   11.64    0.54 
  -1  -4  -8   11.77    0.57 
  -1  -4  -8   12.16    0.56 
  -1  -4  -8   12.46    0.52 
   1   4   8   13.08    0.73 
   1   4   8   11.26    0.60 
   1   4   8   13.03    0.63 
   1   4   8   13.25    0.64 
  -2  -4  -8    1.14    0.11 
  -2  -4  -8    0.99    0.08 
  -2  -4  -8    0.88    0.09 
  -2  -4  -8    1.16    0.11 
  -2  -4  -8    1.23    0.11 
   2   4   8    1.15    0.13 
   2   4   8    1.22    0.11 
   2   4   8    1.03    0.14 
   2   4   8    1.26    0.15 
  -3  -4  -8    4.53    0.24 
  -3  -4  -8    4.08    0.21 
  -3  -4  -8    4.36    0.22 
  -3  -4  -8    4.01    0.19 
   3   4   8    4.27    0.23 
   3   4   8    4.38    0.23 
   3   4   8    4.50    0.21 
   3   4   8    4.37    0.27 
   3   4   8    4.48    0.27 
  -4  -4  -8    0.10    0.05 
  -4  -4  -8    0.13    0.05 
  -4  -4  -8    0.06    0.06 
   4   4   8    0.18    0.05 
   4   4   8    0.03    0.05 
   4   4   8    0.08    0.05 
   6  -5  -8    0.67    0.08 
   6  -5  -8    0.71    0.11 
   6  -5  -8    0.87    0.12 
   6  -5  -8    0.68    0.10 
   6  -5  -8    0.58    0.07 
   5  -5  -8    1.90    0.16 
   5  -5  -8    1.92    0.15 
   5  -5  -8    2.23    0.17 
   5  -5  -8    2.08    0.22 
   5  -5  -8    2.06    0.11 
   5  -5  -8    2.37    0.20 
   5  -5  -8    2.07    0.13 
   5  -5  -8    1.95    0.15 
   5  -5  -8    1.90    0.14 
   4  -5  -8   -0.04    0.08 
   4  -5  -8   -0.05    0.07 
   4  -5  -8    0.05    0.06 
   4  -5  -8    0.03    0.11 
   4  -5  -8    0.09    0.06 
   4  -5  -8    0.03    0.07 
   4  -5  -8   -0.01    0.11 
   4  -5  -8   -0.01    0.07 
   4  -5  -8    0.05    0.09 
   4  -5  -8    0.08    0.08 
   4  -5  -8   -0.02    0.07 
   3  -5  -8    2.00    0.17 
   3  -5  -8    2.18    0.16 
   3  -5  -8    2.07    0.15 
   3  -5  -8    2.01    0.14 
   3  -5  -8    2.00    0.17 
   3  -5  -8    2.04    0.15 
   3  -5  -8    2.09    0.19 
   3  -5  -8    2.14    0.23 
   3  -5  -8    2.14    0.19 
   3  -5  -8    1.94    0.22 
   3  -5  -8    1.79    0.19 
   3  -5  -8    2.01    0.17 
  -3   5   8    2.16    0.20 
   2  -5  -8    0.04    0.09 
   2  -5  -8   -0.02    0.09 
   2  -5  -8   -0.06    0.07 
   2  -5  -8    0.03    0.09 
   2  -5  -8   -0.03    0.08 
   2  -5  -8   -0.12    0.13 
   2  -5  -8   -0.02    0.10 
   2  -5  -8    0.03    0.07 
  -2   5   8    0.06    0.14 
  -2   5   8    0.02    0.09 
  -2   5   8    0.17    0.11 
  -2   5   8   -0.02    0.11 
   1  -5  -8    0.24    0.12 
   1  -5  -8    0.12    0.07 
   1  -5  -8    0.05    0.08 
   1  -5  -8    0.00    0.08 
   1  -5  -8    0.17    0.08 
   1  -5  -8    0.16    0.10 
  -1   5   8    0.07    0.09 
  -1   5   8    0.17    0.12 
  -1   5   8    0.14    0.14 
  -1   5   8    0.10    0.11 
   0  -5  -8    2.09    0.14 
   0  -5  -8    2.25    0.16 
   0  -5  -8    2.36    0.17 
   0  -5  -8    1.84    0.16 
   0  -5  -8    2.03    0.15 
   0  -5  -8    2.29    0.21 
   0   5   8    2.44    0.22 
   0   5   8    2.32    0.21 
   0   5   8    2.36    0.23 
   0   5   8    2.21    0.22 
  -1  -5  -8    2.04    0.16 
  -1  -5  -8    2.31    0.16 
  -1  -5  -8    1.98    0.13 
  -1  -5  -8    1.95    0.14 
  -1  -5  -8    1.97    0.14 
   1   5   8    1.94    0.19 
   1   5   8    2.40    0.20 
   1   5   8    2.29    0.21 
  -2  -5  -8    0.12    0.06 
  -2  -5  -8    0.06    0.06 
  -2  -5  -8    0.03    0.06 
  -2  -5  -8    0.03    0.06 
   2   5   8    0.10    0.09 
   2   5   8    0.15    0.06 
   2   5   8    0.14    0.08 
  -3  -5  -8    3.34    0.17 
  -3  -5  -8    3.57    0.19 
   3   5   8    3.45    0.19 
   3   5   8    3.38    0.21 
   3   5   8    3.75    0.22 
   5  -6  -8   -0.04    0.03 
   5  -6  -8    0.01    0.05 
   5  -6  -8    0.06    0.08 
   5  -6  -8   -0.01    0.07 
   5  -6  -8    0.03    0.05 
   5  -6  -8    0.07    0.06 
   5  -6  -8    0.05    0.05 
   5  -6  -8    0.03    0.08 
   4  -6  -8    0.35    0.09 
   4  -6  -8    0.46    0.09 
   4  -6  -8    0.27    0.07 
   4  -6  -8    0.25    0.07 
   4  -6  -8    0.35    0.07 
   4  -6  -8    0.41    0.08 
   4  -6  -8    0.25    0.08 
   4  -6  -8    0.46    0.13 
   4  -6  -8    0.46    0.06 
   4  -6  -8    0.25    0.09 
   4  -6  -8    0.23    0.07 
  -4   6   8    0.45    0.10 
  -4   6   8    0.44    0.09 
   3  -6  -8   -0.12    0.12 
   3  -6  -8    0.08    0.06 
   3  -6  -8   -0.07    0.05 
   3  -6  -8    0.12    0.08 
   3  -6  -8    0.03    0.07 
   3  -6  -8   -0.01    0.07 
   3  -6  -8   -0.04    0.05 
   3  -6  -8    0.02    0.09 
  -3   6   8    0.01    0.10 
  -3   6   8   -0.11    0.09 
   2  -6  -8    0.44    0.08 
   2  -6  -8    0.59    0.08 
   2  -6  -8    0.56    0.11 
   2  -6  -8    0.55    0.11 
   2  -6  -8    0.74    0.09 
   2  -6  -8    0.49    0.08 
   2  -6  -8    0.80    0.09 
  -2   6   8    0.36    0.08 
  -2   6   8    0.87    0.13 
   1  -6  -8    0.09    0.08 
   1  -6  -8    0.12    0.07 
   1  -6  -8    0.13    0.07 
   1  -6  -8    0.08    0.07 
   1  -6  -8    0.09    0.07 
   1  -6  -8    0.07    0.05 
  -1   6   8    0.04    0.09 
  -1   6   8    0.16    0.11 
   0  -6  -8    0.04    0.07 
   0  -6  -8    0.03    0.06 
   0  -6  -8    0.05    0.07 
   0  -6  -8    0.01    0.06 
   0  -6  -8    0.08    0.06 
   0   6   8    0.09    0.08 
   0   6   8   -0.06    0.09 
  -1  -6  -8   -0.03    0.05 
  -1  -6  -8   -0.03    0.05 
  -1  -6  -8   -0.02    0.07 
  -1  -6  -8   -0.01    0.05 
   1   6   8    0.02    0.06 
   1   6   8   -0.03    0.08 
   1   6   8    0.02    0.08 
  -2  -6  -8   -0.02    0.04 
  -2  -6  -8    0.01    0.06 
   2   6   8    0.01    0.06 
   2   6   8   -0.03    0.06 
   2   6   8    0.03    0.07 
   4  -7  -8    1.45    0.08 
   4  -7  -8    1.16    0.14 
   4  -7  -8    1.53    0.09 
   4  -7  -8    1.50    0.08 
   4  -7  -8    1.35    0.13 
  -4   7   8    1.63    0.14 
   3  -7  -8    5.39    0.22 
   3  -7  -8    5.33    0.26 
   3  -7  -8    5.38    0.21 
   3  -7  -8    4.46    0.31 
   3  -7  -8    5.62    0.23 
   3  -7  -8    4.88    0.26 
  -3   7   8    5.86    0.28 
  -3   7   8    5.09    0.30 
   2  -7  -8    0.05    0.05 
   2  -7  -8   -0.04    0.06 
   2  -7  -8   -0.05    0.05 
   2  -7  -8    0.01    0.05 
  -2   7   8   -0.11    0.07 
   1  -7  -8    0.79    0.08 
   1  -7  -8    0.64    0.07 
   1  -7  -8    0.70    0.07 
  -1   7   8    0.92    0.11 
   0  -7  -8    1.70    0.10 
   0  -7  -8    1.27    0.09 
   0  -7  -8    1.80    0.12 
   0   7   8    1.83    0.14 
   0   7   8    2.10    0.14 
  -1  -7  -8    0.57    0.06 
   1   7   8    0.57    0.07 
  -1  -8   9   -0.01    0.04 
   0   8  -9    4.29    0.25 
   0  -8   9    4.05    0.19 
  -1   8  -9   12.38    0.67 
   1  -8   9   11.99    0.50 
   3   7  -9    0.99    0.10 
  -3  -7   9    1.04    0.09 
   2   7  -9    0.16    0.07 
   2   7  -9    0.12    0.05 
   2   7  -9    0.10    0.06 
  -2  -7   9    0.18    0.06 
  -2  -7   9    0.09    0.06 
   1   7  -9    0.09    0.07 
   1   7  -9    0.16    0.08 
   1   7  -9    0.14    0.06 
  -1  -7   9    0.13    0.06 
  -1  -7   9    0.09    0.07 
  -1  -7   9    0.13    0.06 
   0   7  -9    0.09    0.07 
   0   7  -9    0.06    0.06 
   0   7  -9    0.06    0.05 
   0  -7   9    0.02    0.07 
   0  -7   9    0.03    0.06 
   0  -7   9    0.05    0.06 
  -1   7  -9    0.03    0.05 
  -1   7  -9    0.03    0.08 
   1  -7   9    0.04    0.06 
   1  -7   9    0.01    0.05 
   1  -7   9    0.06    0.06 
  -2   7  -9   -0.04    0.04 
  -2   7  -9    0.07    0.06 
   2  -7   9    0.01    0.04 
   2  -7   9    0.01    0.05 
   2  -7   9    0.04    0.05 
  -3   7  -9    3.58    0.18 
   3  -7   9    3.41    0.16 
   3  -7   9    3.45    0.16 
   4   6  -9    0.04    0.06 
   4   6  -9    0.08    0.07 
   4   6  -9    0.01    0.04 
  -4  -6   9    0.01    0.06 
  -4  -6   9    0.03    0.05 
   3   6  -9    0.84    0.10 
   3   6  -9    1.00    0.09 
   3   6  -9    0.91    0.08 
   3   6  -9    1.03    0.11 
  -3  -6   9    0.75    0.09 
  -3  -6   9    1.06    0.12 
   2   6  -9    1.87    0.17 
   2   6  -9    1.76    0.16 
   2   6  -9    1.63    0.14 
  -2  -6   9    1.43    0.13 
  -2  -6   9    1.80    0.15 
  -2  -6   9    1.64    0.13 
   1   6  -9    1.14    0.14 
   1   6  -9    1.15    0.12 
   1   6  -9    0.98    0.10 
  -1  -6   9    0.89    0.09 
  -1  -6   9    1.12    0.10 
  -1  -6   9    0.89    0.10 
   0   6  -9    0.18    0.09 
   0   6  -9    0.16    0.07 
   0  -6   9    0.28    0.10 
   0  -6   9    0.13    0.07 
   0  -6   9    0.09    0.07 
   0  -6   9    0.05    0.07 
  -1   6  -9    0.17    0.10 
  -1   6  -9    0.14    0.07 
  -1   6  -9    0.10    0.06 
   1  -6   9   -0.04    0.07 
   1  -6   9    0.04    0.07 
   1  -6   9    0.04    0.05 
   1  -6   9    0.13    0.07 
  -2   6  -9    0.58    0.09 
  -2   6  -9    0.52    0.08 
   2  -6   9    0.52    0.08 
   2  -6   9    0.55    0.07 
   2  -6   9    0.56    0.07 
  -3   6  -9    1.39    0.11 
  -3   6  -9    1.69    0.11 
   3  -6   9    1.62    0.12 
   3  -6   9    1.52    0.11 
   3  -6   9    1.67    0.12 
  -4   6  -9    0.38    0.05 
  -4   6  -9    0.30    0.05 
   4  -6   9    0.37    0.05 
   5   5  -9    2.18    0.11 
   5   5  -9    2.06    0.12 
   5   5  -9    1.85    0.14 
   5   5  -9    2.06    0.15 
  -5  -5   9    1.57    0.13 
  -5  -5   9    2.19    0.15 
   4   5  -9    0.51    0.10 
   4   5  -9    0.71    0.09 
   4   5  -9    0.48    0.08 
   4   5  -9    0.49    0.07 
   4   5  -9    0.87    0.12 
  -4  -5   9    0.28    0.07 
  -4  -5   9    0.52    0.09 
   3   5  -9    1.15    0.11 
   3   5  -9    0.95    0.11 
   3   5  -9    0.94    0.13 
   3   5  -9    0.94    0.13 
   3   5  -9    1.04    0.09 
  -3  -5   9    0.78    0.11 
  -3  -5   9    0.94    0.12 
  -3  -5   9    0.95    0.10 
   2   5  -9   -0.03    0.06 
   2   5  -9    0.04    0.09 
   2   5  -9    0.00    0.08 
  -2  -5   9   -0.08    0.11 
  -2  -5   9    0.05    0.09 
  -2  -5   9   -0.01    0.08 
   1   5  -9    2.94    0.22 
   1   5  -9    3.12    0.19 
   1   5  -9    2.90    0.24 
  -1  -5   9    3.30    0.21 
  -1  -5   9    2.94    0.18 
  -1  -5   9    2.72    0.18 
   0   5  -9    4.92    0.27 
   0   5  -9    5.32    0.34 
   0   5  -9    4.68    0.27 
   0  -5   9    4.72    0.24 
   0  -5   9    5.08    0.25 
   0  -5   9    5.41    0.28 
  -1   5  -9    0.08    0.06 
  -1   5  -9   -0.12    0.08 
   1  -5   9    0.07    0.10 
   1  -5   9    0.21    0.08 
   1  -5   9   -0.04    0.08 
  -2   5  -9    0.77    0.09 
  -2   5  -9    0.76    0.09 
   2  -5   9    0.86    0.09 
   2  -5   9    0.77    0.08 
   2  -5   9    0.92    0.11 
  -3   5  -9    1.47    0.10 
  -3   5  -9    1.76    0.14 
  -3   5  -9    1.35    0.13 
   3  -5   9    1.41    0.10 
   3  -5   9    1.58    0.13 
   3  -5   9    1.79    0.12 
   3  -5   9    1.43    0.13 
  -4   5  -9    3.42    0.19 
  -4   5  -9    3.49    0.16 
  -4   5  -9    3.74    0.20 
   4  -5   9    3.46    0.19 
   4  -5   9    3.78    0.18 
   4  -5   9    3.21    0.16 
   6   4  -9    7.46    0.40 
   6   4  -9    7.22    0.35 
   6   4  -9    7.37    0.27 
   6   4  -9    7.43    0.31 
   5   4  -9    2.94    0.16 
   5   4  -9    3.15    0.14 
   5   4  -9    2.95    0.16 
   5   4  -9    3.27    0.18 
   5   4  -9    3.20    0.21 
   5   4  -9    3.23    0.22 
   5   4  -9    2.88    0.19 
   5   4  -9    3.23    0.17 
  -5  -4   9    3.49    0.21 
  -5  -4   9    2.86    0.20 
  -5  -4   9    3.04    0.20 
   4   4  -9    0.32    0.07 
   4   4  -9    0.36    0.07 
   4   4  -9    0.36    0.10 
   4   4  -9    0.42    0.09 
   4   4  -9    0.58    0.10 
   4   4  -9    0.47    0.08 
   4   4  -9    0.38    0.07 
   4   4  -9    0.49    0.06 
  -4  -4   9    0.35    0.10 
  -4  -4   9    0.09    0.11 
  -4  -4   9    0.30    0.10 
   3   4  -9    1.04    0.11 
   3   4  -9    1.15    0.13 
   3   4  -9    1.36    0.13 
   3   4  -9    1.13    0.09 
   3   4  -9    1.36    0.14 
   3   4  -9    1.26    0.14 
   3   4  -9    1.30    0.13 
   3   4  -9    1.31    0.12 
  -3  -4   9    1.46    0.15 
  -3  -4   9    1.02    0.12 
  -3  -4   9    1.04    0.13 
   2   4  -9    2.11    0.16 
   2   4  -9    1.82    0.17 
   2   4  -9    1.96    0.21 
  -2  -4   9    2.25    0.19 
  -2  -4   9    2.05    0.19 
  -2  -4   9    2.15    0.18 
   1   4  -9    6.50    0.32 
   1   4  -9    5.57    0.36 
   1   4  -9    6.35    0.42 
   1   4  -9    6.46    0.36 
  -1  -4   9    6.64    0.30 
  -1  -4   9    6.12    0.32 
  -1  -4   9    6.22    0.34 
  -1  -4   9    6.54    0.35 
   0   4  -9    3.18    0.23 
   0   4  -9    3.51    0.20 
   0   4  -9    3.59    0.21 
   0   4  -9    3.17    0.26 
   0  -4   9    3.19    0.19 
   0  -4   9    3.68    0.19 
   0  -4   9    3.74    0.20 
   0  -4   9    3.48    0.24 
   0  -4   9    3.64    0.25 
  -1   4  -9   -0.01    0.07 
  -1   4  -9    0.03    0.07 
  -1   4  -9    0.05    0.07 
  -1   4  -9    0.15    0.09 
   1  -4   9   -0.06    0.09 
   1  -4   9    0.20    0.09 
   1  -4   9    0.08    0.07 
  -2   4  -9    0.04    0.06 
  -2   4  -9   -0.01    0.06 
   2  -4   9    0.05    0.08 
   2  -4   9    0.02    0.06 
   2  -4   9    0.02    0.07 
  -3   4  -9   13.79    0.67 
  -3   4  -9   13.75    0.58 
  -3   4  -9   14.76    0.67 
   3  -4   9   14.11    0.57 
   3  -4   9   14.65    0.64 
   3  -4   9   13.77    0.59 
  -4   4  -9    1.50    0.11 
  -4   4  -9    1.43    0.09 
  -4   4  -9    1.33    0.11 
  -4   4  -9    1.57    0.10 
  -4   4  -9    1.71    0.14 
   4  -4   9    1.62    0.14 
   4  -4   9    1.35    0.10 
   4  -4   9    1.43    0.10 
  -5   4  -9    4.01    0.17 
  -5   4  -9    4.26    0.18 
  -5   4  -9    4.42    0.22 
   5  -4   9    4.29    0.21 
   5  -4   9    4.36    0.19 
   5  -4   9    3.96    0.18 
   6   3  -9    6.47    0.36 
   6   3  -9    5.81    0.33 
   6   3  -9    6.52    0.32 
   6   3  -9    6.53    0.24 
   6   3  -9    6.31    0.32 
   5   3  -9    2.03    0.18 
   5   3  -9    1.87    0.12 
   5   3  -9    2.08    0.16 
   5   3  -9    2.02    0.15 
   5   3  -9    1.81    0.13 
   5   3  -9    1.89    0.16 
   5   3  -9    1.97    0.16 
   5   3  -9    1.82    0.13 
   5   3  -9    1.81    0.12 
  -5  -3   9    1.83    0.17 
  -5  -3   9    2.15    0.18 
   4   3  -9    1.39    0.11 
   4   3  -9    1.20    0.15 
   4   3  -9    1.26    0.11 
   4   3  -9    1.46    0.12 
   4   3  -9    1.54    0.16 
   4   3  -9    1.45    0.12 
   4   3  -9    1.14    0.15 
   4   3  -9    1.42    0.15 
   4   3  -9    1.21    0.13 
   4   3  -9    1.27    0.13 
  -4  -3   9    1.35    0.15 
  -4  -3   9    1.27    0.14 
   3   3  -9   12.60    0.65 
   3   3  -9   11.94    0.57 
   3   3  -9   12.87    0.69 
   3   3  -9   13.27    0.62 
   3   3  -9   13.26    0.59 
   3   3  -9   11.81    0.56 
   3   3  -9   13.03    0.75 
   3   3  -9   13.22    0.54 
  -3  -3   9   12.64    0.59 
  -3  -3   9   12.67    0.60 
  -3  -3   9   13.33    0.57 
   2   3  -9    3.14    0.20 
   2   3  -9    2.78    0.21 
   2   3  -9    2.95    0.21 
   2   3  -9    2.92    0.28 
   2   3  -9    2.99    0.17 
  -2  -3   9    2.80    0.22 
  -2  -3   9    3.18    0.24 
  -2  -3   9    3.01    0.21 
  -2  -3   9    3.06    0.20 
   1   3  -9    7.45    0.39 
   1   3  -9    7.61    0.48 
   1   3  -9    7.63    0.44 
   1   3  -9    7.71    0.36 
   1   3  -9    7.78    0.39 
  -1  -3   9    7.98    0.41 
  -1  -3   9    7.44    0.38 
  -1  -3   9    7.95    0.40 
  -1  -3   9    8.36    0.38 
   0   3  -9    0.17    0.09 
   0   3  -9    0.33    0.09 
   0  -3   9    0.38    0.10 
   0  -3   9    0.08    0.10 
   0  -3   9    0.15    0.10 
   0  -3   9    0.20    0.08 
   0  -3   9    0.26    0.09 
  -1   3  -9    4.52    0.29 
  -1   3  -9    4.69    0.26 
  -1   3  -9    4.97    0.27 
   1  -3   9    4.71    0.28 
   1  -3   9    4.82    0.28 
   1  -3   9    4.72    0.25 
   1  -3   9    4.75    0.25 
   1  -3   9    4.51    0.26 
  -2   3  -9    8.95    0.39 
  -2   3  -9    9.50    0.46 
  -2   3  -9    9.58    0.46 
   2  -3   9    8.39    0.44 
   2  -3   9    9.59    0.39 
   2  -3   9    8.51    0.41 
   2  -3   9    8.99    0.43 
  -3   3  -9    6.44    0.33 
  -3   3  -9    6.68    0.35 
  -3   3  -9    7.47    0.36 
  -3   3  -9    7.35    0.31 
  -3   3  -9    6.24    0.28 
   3  -3   9    7.27    0.31 
   3  -3   9    7.37    0.35 
   3  -3   9    6.36    0.31 
   3  -3   9    7.03    0.31 
   3  -3   9    6.44    0.34 
   3  -3   9    6.81    0.37 
  -4   3  -9    0.43    0.07 
  -4   3  -9    0.41    0.07 
  -4   3  -9    0.38    0.06 
  -4   3  -9    0.36    0.08 
   4  -3   9    0.27    0.06 
   4  -3   9    0.23    0.06 
   4  -3   9    0.22    0.06 
   4  -3   9    0.27    0.07 
   4  -3   9    0.37    0.10 
  -5   3  -9    0.27    0.05 
  -5   3  -9    0.29    0.05 
  -5   3  -9    0.28    0.04 
  -5   3  -9    0.16    0.05 
   5  -3   9    0.38    0.06 
   5  -3   9    0.23    0.06 
   5  -3   9    0.21    0.04 
   7   2  -9    0.01    0.04 
   7   2  -9    0.04    0.04 
   6   2  -9    4.82    0.19 
   6   2  -9    4.73    0.27 
   6   2  -9    4.98    0.27 
   6   2  -9    4.72    0.23 
   6   2  -9    4.66    0.29 
   6   2  -9    4.49    0.25 
   6   2  -9    4.68    0.26 
  -6  -2   9    4.53    0.26 
   5   2  -9    0.35    0.10 
   5   2  -9    0.28    0.06 
   5   2  -9    0.37    0.12 
   5   2  -9    0.28    0.09 
   5   2  -9    0.38    0.11 
   5   2  -9    0.30    0.07 
   5   2  -9    0.28    0.08 
   5   2  -9    0.41    0.08 
  -5  -2   9    0.27    0.10 
   4   2  -9   -0.05    0.09 
   4   2  -9   -0.15    0.08 
   4   2  -9    0.05    0.10 
   4   2  -9    0.07    0.12 
   4   2  -9    0.00    0.09 
   4   2  -9   -0.01    0.07 
   4   2  -9    0.04    0.05 
   4   2  -9    0.03    0.09 
   4   2  -9   -0.05    0.06 
   4   2  -9    0.04    0.07 
  -4  -2   9   -0.12    0.10 
   3   2  -9    0.38    0.06 
   3   2  -9    0.36    0.08 
   3   2  -9    0.38    0.13 
   3   2  -9    0.33    0.12 
   3   2  -9    0.28    0.07 
   3   2  -9    0.16    0.11 
   3   2  -9    0.39    0.10 
  -3  -2   9    0.34    0.11 
  -3  -2   9    0.23    0.10 
  -3  -2   9    0.22    0.11 
  -3  -2   9    0.27    0.13 
   2   2  -9    0.66    0.08 
   2   2  -9    0.60    0.11 
   2   2  -9    0.53    0.07 
  -2  -2   9    0.71    0.13 
  -2  -2   9    0.59    0.11 
  -2  -2   9    0.66    0.11 
   1   2  -9    0.81    0.11 
   1   2  -9    0.92    0.10 
   1   2  -9    0.74    0.07 
  -1  -2   9    0.74    0.11 
  -1  -2   9    0.59    0.10 
  -1  -2   9    0.67    0.12 
   0   2  -9    8.66    0.47 
   0  -2   9    7.44    0.40 
   0  -2   9    8.15    0.42 
   0  -2   9    8.72    0.40 
   0  -2   9    8.49    0.41 
  -1   2  -9    0.05    0.07 
  -1   2  -9   -0.02    0.06 
   1  -2   9   -0.17    0.07 
   1  -2   9    0.01    0.07 
   1  -2   9    0.11    0.07 
   1  -2   9   -0.07    0.07 
   1  -2   9   -0.06    0.10 
  -2   2  -9    0.09    0.07 
  -2   2  -9    0.19    0.09 
  -2   2  -9    0.13    0.06 
  -2   2  -9    0.11    0.07 
  -2   2  -9    0.07    0.07 
  -2   2  -9    0.29    0.09 
   2  -2   9    0.24    0.09 
   2  -2   9    0.21    0.08 
   2  -2   9    0.14    0.09 
   2  -2   9    0.01    0.11 
   2  -2   9    0.17    0.09 
   2  -2   9    0.08    0.07 
   2  -2   9    0.11    0.10 
  -3   2  -9    0.13    0.08 
  -3   2  -9    0.24    0.06 
  -3   2  -9    0.03    0.06 
  -3   2  -9    0.10    0.07 
  -3   2  -9    0.07    0.06 
   3  -2   9   -0.12    0.11 
   3  -2   9    0.04    0.07 
   3  -2   9    0.07    0.08 
   3  -2   9    0.27    0.09 
   3  -2   9    0.12    0.09 
  -4   2  -9    3.93    0.23 
  -4   2  -9    4.07    0.19 
  -4   2  -9    4.05    0.21 
  -4   2  -9    4.06    0.19 
   4  -2   9    4.15    0.20 
   4  -2   9    4.09    0.23 
   4  -2   9    3.51    0.20 
   4  -2   9    3.68    0.26 
   4  -2   9    3.91    0.23 
  -5   2  -9    2.71    0.15 
  -5   2  -9    2.89    0.14 
  -5   2  -9    3.07    0.14 
  -5   2  -9    2.84    0.16 
  -5   2  -9    2.71    0.16 
   5  -2   9    3.06    0.16 
   5  -2   9    3.01    0.14 
   5  -2   9    2.60    0.14 
   5  -2   9    2.80    0.17 
   7   1  -9    0.24    0.06 
   7   1  -9    0.24    0.05 
   7   1  -9    0.27    0.07 
   6   1  -9    6.20    0.33 
   6   1  -9    6.37    0.33 
   6   1  -9    5.63    0.31 
   6   1  -9    6.22    0.35 
   6   1  -9    6.27    0.23 
   6   1  -9    5.98    0.30 
   6   1  -9    5.87    0.28 
   6   1  -9    6.18    0.31 
  -6  -1   9    5.45    0.28 
  -6  -1   9    5.58    0.30 
   5   1  -9    2.31    0.15 
   5   1  -9    2.47    0.19 
   5   1  -9    2.22    0.16 
   5   1  -9    2.23    0.21 
   5   1  -9    2.21    0.13 
   5   1  -9    2.15    0.18 
   5   1  -9    2.31    0.21 
   5   1  -9    2.30    0.19 
   5   1  -9    2.21    0.22 
  -5  -1   9    2.03    0.24 
  -5  -1   9    2.14    0.18 
   4   1  -9   16.76    0.81 
   4   1  -9   16.96    0.70 
   4   1  -9   16.44    0.80 
   4   1  -9   17.45    0.78 
   4   1  -9   17.68    0.75 
   4   1  -9   16.51    0.90 
   4   1  -9   18.03    0.97 
   4   1  -9   16.73    0.84 
   4   1  -9   17.56    0.80 
  -4  -1   9   16.13    0.73 
  -4  -1   9   15.82    1.01 
  -4  -1   9   17.29    0.78 
   3   1  -9   17.61    0.91 
   3   1  -9   16.64    0.82 
   3   1  -9   17.46    0.81 
   3   1  -9   17.26    0.78 
   3   1  -9   17.03    0.99 
   3   1  -9   17.20    0.82 
   3   1  -9   18.74    0.76 
   3   1  -9   16.57    0.90 
  -3  -1   9   17.21    0.74 
  -3  -1   9   15.48    1.00 
  -3  -1   9   18.48    0.79 
  -3  -1   9   16.58    0.79 
   2   1  -9    7.26    0.41 
   2   1  -9    7.18    0.36 
   2   1  -9    7.52    0.34 
  -2  -1   9    6.23    0.48 
  -2  -1   9    7.04    0.35 
  -2  -1   9    7.47    0.38 
  -2  -1   9    7.53    0.38 
   1   1  -9   15.74    0.82 
  -1  -1   9   15.22    0.67 
  -1  -1   9   15.40    0.72 
  -1  -1   9   16.02    0.72 
   0   1  -9    3.66    0.25 
   0  -1   9    3.95    0.24 
   0  -1   9    4.05    0.22 
   0  -1   9    3.71    0.23 
  -1   1  -9    5.46    0.30 
  -1   1  -9    5.69    0.29 
  -1   1  -9    5.45    0.34 
   1  -1   9    5.97    0.31 
   1  -1   9    6.16    0.29 
   1  -1   9    6.34    0.32 
  -2   1  -9    2.64    0.18 
  -2   1  -9    2.78    0.16 
  -2   1  -9    2.75    0.19 
  -2   1  -9    2.54    0.20 
  -2   1  -9    2.86    0.16 
  -2   1  -9    2.89    0.18 
   2  -1   9    2.93    0.20 
   2  -1   9    2.94    0.20 
   2  -1   9    2.66    0.18 
   2  -1   9    2.68    0.22 
   2  -1   9    2.79    0.20 
  -3   1  -9   10.31    0.45 
  -3   1  -9    9.45    0.48 
  -3   1  -9   10.15    0.40 
  -3   1  -9    9.93    0.41 
  -3   1  -9    9.42    0.48 
   3  -1   9    9.64    0.45 
   3  -1   9    9.99    0.47 
   3  -1   9    9.06    0.43 
   3  -1   9    9.36    0.41 
   3  -1   9    9.26    0.45 
   3  -1   9    9.66    0.44 
  -4   1  -9    0.03    0.06 
  -4   1  -9    0.01    0.06 
  -4   1  -9    0.05    0.05 
  -4   1  -9   -0.08    0.06 
  -4   1  -9   -0.02    0.06 
   4  -1   9    0.06    0.07 
   4  -1   9    0.05    0.07 
   4  -1   9    0.08    0.06 
   4  -1   9   -0.02    0.07 
   4  -1   9   -0.05    0.07 
  -5   1  -9    0.44    0.06 
  -5   1  -9    0.29    0.04 
  -5   1  -9    0.24    0.05 
  -5   1  -9    0.44    0.06 
   5  -1   9    0.44    0.06 
   5  -1   9    0.32    0.05 
   5  -1   9    0.48    0.07 
   7   0  -9    0.01    0.06 
   7   0  -9    0.03    0.07 
   7   0  -9    0.05    0.06 
   7   0  -9    0.01    0.05 
   6   0  -9    4.65    0.25 
   6   0  -9    4.92    0.32 
   6   0  -9    4.94    0.28 
   6   0  -9    4.98    0.28 
   6   0  -9    4.47    0.25 
   6   0  -9    5.09    0.27 
   6   0  -9    4.87    0.18 
   6   0  -9    4.98    0.30 
   6   0  -9    4.24    0.22 
  -6   0   9    4.12    0.25 
   5   0  -9    6.01    0.32 
   5   0  -9    5.62    0.23 
   5   0  -9    5.37    0.27 
   5   0  -9    5.73    0.32 
   5   0  -9    5.82    0.36 
   5   0  -9    5.97    0.34 
   5   0  -9    5.78    0.30 
   5   0  -9    5.98    0.39 
   5   0  -9    6.17    0.31 
  -5   0   9    5.36    0.31 
  -5   0   9    5.08    0.41 
   4   0  -9    3.70    0.25 
   4   0  -9    3.61    0.20 
   4   0  -9    3.45    0.31 
   4   0  -9    3.69    0.25 
   4   0  -9    3.80    0.24 
   4   0  -9    3.68    0.29 
   4   0  -9    3.54    0.26 
   4   0  -9    3.96    0.27 
   4   0  -9    3.86    0.22 
   4   0  -9    3.82    0.18 
   4   0  -9    3.61    0.23 
  -4   0   9    3.39    0.32 
  -4   0   9    3.70    0.23 
  -4   0   9    3.32    0.24 
   3   0  -9   34.38    1.58 
   3   0  -9   34.45    1.72 
   3   0  -9   34.52    1.73 
   3   0  -9   33.49    1.87 
   3   0  -9   34.29    1.55 
   3   0  -9   34.72    1.57 
   3   0  -9   36.32    1.48 
   3   0  -9   34.51    1.51 
   3   0  -9   31.26    2.13 
  -3   0   9   32.90    1.49 
  -3   0   9   33.58    1.41 
  -3   0   9   34.35    1.50 
  -3   0   9   34.03    1.92 
   2   0  -9    4.36    0.28 
   2   0  -9    4.71    0.23 
   2   0  -9    3.97    0.25 
  -2   0   9    4.21    0.26 
  -2   0   9    4.44    0.37 
  -2   0   9    4.08    0.28 
  -2   0   9    4.43    0.27 
   1   0  -9    5.52    0.33 
  -1   0   9    5.26    0.29 
  -1   0   9    5.00    0.38 
  -1   0   9    5.37    0.31 
  -1   0   9    5.90    0.30 
   0   0  -9   13.56    0.72 
   0   0  -9   13.25    0.65 
   0   0  -9   12.64    0.62 
   0   0   9   13.33    0.59 
   0   0   9   14.87    0.63 
   0   0   9   14.20    0.63 
  -1   0  -9    0.12    0.09 
  -1   0  -9    0.03    0.06 
  -1   0  -9    0.13    0.07 
  -1   0  -9    0.08    0.08 
   1   0   9    0.13    0.08 
   1   0   9    0.03    0.09 
   1   0   9    0.06    0.08 
   1   0   9    0.12    0.08 
  -2   0  -9   12.31    0.61 
  -2   0  -9   12.79    0.52 
  -2   0  -9   11.91    0.61 
  -2   0  -9   12.86    0.58 
  -2   0  -9   12.92    0.50 
   2   0   9   12.13    0.54 
   2   0   9   12.65    0.56 
   2   0   9   12.98    0.58 
   2   0   9   12.36    0.60 
   2   0   9   13.04    0.52 
   2   0   9   12.04    0.58 
  -3   0  -9    4.18    0.20 
  -3   0  -9    3.79    0.23 
  -3   0  -9    3.68    0.22 
  -3   0  -9    4.42    0.23 
  -3   0  -9    4.00    0.21 
   3   0   9    3.66    0.25 
   3   0   9    4.31    0.25 
   3   0   9    4.10    0.24 
   3   0   9    3.97    0.22 
   3   0   9    4.43    0.22 
   3   0   9    3.93    0.21 
  -4   0  -9    3.52    0.20 
  -4   0  -9    3.92    0.18 
  -4   0  -9    3.47    0.20 
  -4   0  -9    3.33    0.17 
   4   0   9    3.54    0.20 
   4   0   9    3.50    0.18 
   4   0   9    3.66    0.19 
   4   0   9    3.51    0.21 
   4   0   9    3.24    0.19 
  -5   0  -9    0.04    0.05 
  -5   0  -9    0.03    0.05 
  -5   0  -9    0.16    0.04 
   5   0   9    0.06    0.04 
   5   0   9    0.07    0.05 
   5   0   9    0.04    0.05 
   7  -1  -9    1.67    0.13 
   7  -1  -9    1.71    0.15 
   7  -1  -9    1.56    0.12 
   7  -1  -9    1.57    0.13 
   6  -1  -9    0.29    0.07 
   6  -1  -9    0.21    0.09 
   6  -1  -9    0.24    0.04 
   6  -1  -9    0.27    0.08 
   6  -1  -9    0.15    0.09 
   6  -1  -9    0.31    0.08 
   6  -1  -9    0.15    0.07 
   6  -1  -9    0.27    0.11 
   5  -1  -9    2.53    0.21 
   5  -1  -9    1.99    0.12 
   5  -1  -9    2.15    0.17 
   5  -1  -9    1.84    0.20 
   5  -1  -9    2.21    0.16 
   5  -1  -9    2.25    0.22 
   5  -1  -9    1.92    0.17 
   5  -1  -9    2.20    0.18 
  -5   1   9    1.91    0.25 
   4  -1  -9    0.61    0.10 
   4  -1  -9    0.50    0.10 
   4  -1  -9    0.55    0.10 
   4  -1  -9    0.71    0.12 
   4  -1  -9    0.52    0.11 
   4  -1  -9    0.57    0.08 
   4  -1  -9    0.57    0.10 
   4  -1  -9    0.75    0.13 
   4  -1  -9    0.66    0.12 
   4  -1  -9    0.46    0.11 
   4  -1  -9    0.58    0.07 
   4  -1  -9    0.39    0.06 
  -4   1   9    0.50    0.10 
  -4   1   9    0.61    0.16 
  -4   1   9    0.25    0.15 
   3  -1  -9   -0.05    0.09 
   3  -1  -9    0.03    0.08 
   3  -1  -9   -0.13    0.12 
   3  -1  -9    0.11    0.07 
   3  -1  -9    0.00    0.10 
   3  -1  -9   -0.02    0.05 
   3  -1  -9    0.01    0.12 
   3  -1  -9    0.12    0.07 
   3  -1  -9    0.00    0.07 
   3  -1  -9   -0.09    0.09 
   3  -1  -9    0.06    0.09 
   3  -1  -9    0.02    0.08 
  -3   1   9    0.22    0.16 
  -3   1   9    0.03    0.09 
  -3   1   9    0.06    0.13 
   2  -1  -9    0.18    0.10 
   2  -1  -9    0.15    0.09 
   2  -1  -9    0.03    0.07 
  -2   1   9    0.15    0.15 
  -2   1   9    0.03    0.09 
   1  -1  -9    0.90    0.13 
   1  -1  -9    0.56    0.11 
   1  -1  -9    0.89    0.10 
  -1   1   9    0.80    0.11 
  -1   1   9    0.63    0.16 
  -1   1   9    0.79    0.10 
   0  -1  -9   20.21    0.99 
   0  -1  -9   21.75    1.01 
   0  -1  -9   21.54    0.94 
   0   1   9   21.78    0.89 
   0   1   9   20.62    1.20 
   0   1   9   18.66    1.02 
   0   1   9   22.38    0.95 
   0   1   9   21.39    0.94 
  -1  -1  -9   21.05    0.91 
  -1  -1  -9   20.76    0.83 
  -1  -1  -9   20.80    0.96 
  -1  -1  -9   20.46    0.79 
  -1  -1  -9   19.15    0.96 
   1   1   9   20.26    0.93 
   1   1   9   22.15    0.92 
   1   1   9   20.06    0.84 
   1   1   9   20.27    0.86 
   1   1   9   20.67    0.91 
   1   1   9   19.35    1.02 
  -2  -1  -9    0.20    0.07 
  -2  -1  -9    0.23    0.08 
  -2  -1  -9    0.28    0.08 
  -2  -1  -9    0.20    0.07 
  -2  -1  -9    0.25    0.06 
   2   1   9    0.15    0.10 
   2   1   9    0.23    0.08 
   2   1   9    0.14    0.09 
   2   1   9    0.10    0.07 
   2   1   9    0.27    0.11 
  -3  -1  -9    4.52    0.25 
  -3  -1  -9    4.74    0.21 
  -3  -1  -9    4.15    0.24 
  -3  -1  -9    4.47    0.22 
   3   1   9    4.61    0.24 
   3   1   9    4.55    0.25 
   3   1   9    4.62    0.24 
   3   1   9    4.31    0.25 
   3   1   9    4.49    0.27 
  -4  -1  -9    5.49    0.27 
  -4  -1  -9    5.69    0.24 
  -4  -1  -9    5.00    0.25 
  -4  -1  -9    5.15    0.24 
  -4  -1  -9    5.30    0.27 
   4   1   9    5.49    0.25 
   4   1   9    5.01    0.27 
   4   1   9    5.61    0.28 
   4   1   9    5.59    0.26 
   4   1   9    5.22    0.27 
  -5  -1  -9    3.75    0.16 
  -5  -1  -9    3.40    0.18 
   5   1   9    3.44    0.18 
   5   1   9    3.60    0.17 
   7  -2  -9    0.09    0.06 
   7  -2  -9    0.03    0.07 
   7  -2  -9    0.06    0.05 
   6  -2  -9   -0.01    0.05 
   6  -2  -9    0.05    0.08 
   6  -2  -9   -0.07    0.08 
   6  -2  -9   -0.01    0.07 
   6  -2  -9    0.04    0.06 
   6  -2  -9   -0.07    0.07 
   6  -2  -9    0.08    0.08 
   5  -2  -9   11.12    0.51 
   5  -2  -9   10.17    0.53 
   5  -2  -9   10.47    0.49 
   5  -2  -9   10.25    0.50 
   5  -2  -9   10.16    0.51 
   5  -2  -9   10.70    0.58 
   5  -2  -9   10.55    0.53 
   5  -2  -9   10.25    0.39 
   5  -2  -9   10.77    0.63 
  -5   2   9    9.21    0.64 
   4  -2  -9    0.53    0.06 
   4  -2  -9    0.71    0.12 
   4  -2  -9    0.59    0.15 
   4  -2  -9    0.58    0.12 
   4  -2  -9    0.45    0.10 
   4  -2  -9    0.50    0.11 
   4  -2  -9    0.66    0.10 
   4  -2  -9    0.47    0.09 
   4  -2  -9    0.69    0.10 
  -4   2   9    0.49    0.14 
   3  -2  -9    7.25    0.40 
   3  -2  -9    6.93    0.38 
   3  -2  -9    7.17    0.30 
   3  -2  -9    6.86    0.41 
   3  -2  -9    7.78    0.43 
   3  -2  -9    7.59    0.41 
   3  -2  -9    7.28    0.36 
   3  -2  -9    7.16    0.46 
   3  -2  -9    7.49    0.39 
   3  -2  -9    7.48    0.38 
  -3   2   9    5.42    0.57 
  -3   2   9    7.77    0.50 
  -3   2   9    6.94    0.38 
   2  -2  -9    5.29    0.34 
   2  -2  -9    6.06    0.34 
   2  -2  -9    5.76    0.33 
   2  -2  -9    6.05    0.29 
   2  -2  -9    5.79    0.33 
   2  -2  -9    5.99    0.33 
  -2   2   9    5.64    0.30 
  -2   2   9    5.29    0.32 
  -2   2   9    6.06    0.42 
   1  -2  -9    7.31    0.37 
   1  -2  -9    7.17    0.38 
   1  -2  -9    7.09    0.39 
   1  -2  -9    7.42    0.35 
   1  -2  -9    6.90    0.31 
   1  -2  -9    6.56    0.40 
  -1   2   9    7.52    0.49 
  -1   2   9    6.97    0.36 
  -1   2   9    6.88    0.44 
  -1   2   9    6.60    0.36 
   0  -2  -9    0.35    0.08 
   0  -2  -9    0.43    0.08 
   0  -2  -9    0.32    0.10 
   0  -2  -9    0.33    0.09 
   0  -2  -9    0.42    0.07 
   0   2   9    0.39    0.11 
   0   2   9    0.30    0.10 
   0   2   9    0.42    0.14 
   0   2   9    0.47    0.13 
   0   2   9    0.33    0.09 
   0   2   9    0.37    0.09 
  -1  -2  -9    8.68    0.43 
  -1  -2  -9    8.86    0.37 
  -1  -2  -9    8.83    0.36 
  -1  -2  -9    8.08    0.46 
  -1  -2  -9    9.05    0.42 
  -1  -2  -9    7.65    0.42 
   1   2   9    8.00    0.47 
   1   2   9    8.22    0.39 
   1   2   9    8.82    0.42 
   1   2   9    9.03    0.43 
   1   2   9    8.75    0.49 
   1   2   9    8.08    0.53 
  -2  -2  -9    0.07    0.08 
  -2  -2  -9    0.11    0.07 
  -2  -2  -9    0.01    0.07 
  -2  -2  -9    0.19    0.07 
  -2  -2  -9    0.15    0.07 
   2   2   9    0.10    0.09 
   2   2   9    0.19    0.07 
   2   2   9    0.12    0.09 
   2   2   9    0.04    0.09 
   2   2   9    0.22    0.09 
  -3  -2  -9    0.11    0.06 
  -3  -2  -9    0.18    0.07 
  -3  -2  -9    0.09    0.06 
  -3  -2  -9    0.08    0.05 
  -3  -2  -9    0.11    0.07 
   3   2   9    0.16    0.07 
   3   2   9    0.10    0.07 
   3   2   9    0.15    0.07 
   3   2   9    0.13    0.08 
   3   2   9    0.01    0.06 
   3   2   9    0.19    0.10 
  -4  -2  -9    0.02    0.05 
  -4  -2  -9    0.06    0.05 
  -4  -2  -9    0.01    0.04 
  -4  -2  -9    0.08    0.05 
  -4  -2  -9   -0.04    0.03 
   4   2   9    0.02    0.05 
   4   2   9    0.11    0.05 
   4   2   9    0.05    0.06 
   5   2   9    1.32    0.08 
   6  -3  -9    0.22    0.10 
   6  -3  -9    0.12    0.06 
   6  -3  -9    0.21    0.07 
   6  -3  -9    0.16    0.08 
   6  -3  -9    0.06    0.09 
   6  -3  -9    0.23    0.07 
   6  -3  -9    0.22    0.07 
   5  -3  -9    0.98    0.13 
   5  -3  -9    1.13    0.07 
   5  -3  -9    0.99    0.10 
   5  -3  -9    1.42    0.16 
   5  -3  -9    0.86    0.11 
   5  -3  -9    0.84    0.10 
   5  -3  -9    1.01    0.13 
   5  -3  -9    1.03    0.12 
   5  -3  -9    1.09    0.12 
   4  -3  -9    3.47    0.22 
   4  -3  -9    3.25    0.17 
   4  -3  -9    3.55    0.23 
   4  -3  -9    3.11    0.23 
   4  -3  -9    3.13    0.23 
   4  -3  -9    3.53    0.24 
   4  -3  -9    3.47    0.20 
   4  -3  -9    3.46    0.26 
   4  -3  -9    3.34    0.29 
  -4   3   9    3.65    0.32 
   3  -3  -9   13.45    0.63 
   3  -3  -9   14.03    0.67 
   3  -3  -9   14.56    0.69 
   3  -3  -9   12.88    0.66 
   3  -3  -9   13.87    0.58 
   3  -3  -9   13.67    0.74 
   3  -3  -9   13.52    0.80 
   3  -3  -9   13.93    0.66 
   3  -3  -9   13.72    0.52 
   3  -3  -9   13.74    0.69 
  -3   3   9   13.84    0.82 
   2  -3  -9    1.61    0.17 
   2  -3  -9    1.70    0.15 
   2  -3  -9    1.66    0.16 
   2  -3  -9    1.85    0.19 
   2  -3  -9    1.82    0.16 
   2  -3  -9    1.72    0.13 
   2  -3  -9    1.78    0.16 
  -2   3   9    2.04    0.23 
  -2   3   9    1.38    0.18 
   1  -3  -9    1.11    0.14 
   1  -3  -9    0.79    0.12 
   1  -3  -9    0.91    0.11 
   1  -3  -9    0.76    0.10 
   1  -3  -9    1.11    0.10 
   1  -3  -9    0.88    0.11 
   1  -3  -9    0.95    0.09 
  -1   3   9    0.82    0.15 
  -1   3   9    1.12    0.16 
  -1   3   9    0.84    0.10 
  -1   3   9    1.07    0.18 
   0  -3  -9    2.97    0.17 
   0  -3  -9    2.76    0.18 
   0  -3  -9    2.64    0.22 
   0  -3  -9    2.80    0.20 
   0  -3  -9    2.66    0.21 
   0   3   9    2.86    0.28 
   0   3   9    2.69    0.20 
   0   3   9    2.82    0.19 
   0   3   9    2.84    0.27 
   0   3   9    3.23    0.28 
  -1  -3  -9    2.33    0.17 
  -1  -3  -9    2.22    0.18 
  -1  -3  -9    2.58    0.18 
  -1  -3  -9    2.64    0.19 
  -1  -3  -9    2.60    0.16 
   1   3   9    2.51    0.16 
   1   3   9    2.35    0.21 
   1   3   9    2.75    0.23 
   1   3   9    2.48    0.22 
   1   3   9    2.68    0.18 
   1   3   9    2.40    0.25 
  -2  -3  -9    0.01    0.07 
  -2  -3  -9    0.08    0.06 
  -2  -3  -9    0.02    0.07 
  -2  -3  -9   -0.07    0.07 
  -2  -3  -9   -0.06    0.07 
   2   3   9    0.07    0.08 
   2   3   9   -0.11    0.08 
   2   3   9    0.09    0.11 
   2   3   9    0.09    0.10 
   2   3   9    0.04    0.11 
  -3  -3  -9    2.11    0.13 
  -3  -3  -9    2.20    0.15 
  -3  -3  -9    2.29    0.15 
  -3  -3  -9    2.27    0.14 
  -3  -3  -9    2.12    0.13 
   3   3   9    2.32    0.15 
   3   3   9    2.29    0.19 
   3   3   9    2.70    0.16 
   3   3   9    2.39    0.16 
  -4  -3  -9    3.64    0.17 
  -4  -3  -9    3.95    0.20 
   4   3   9    4.04    0.20 
   4   3   9    4.05    0.18 
   6  -4  -9    2.39    0.15 
   6  -4  -9    2.78    0.17 
   6  -4  -9    2.69    0.15 
   6  -4  -9    2.90    0.22 
   6  -4  -9    2.86    0.21 
   6  -4  -9    2.85    0.17 
   5  -4  -9    0.19    0.11 
   5  -4  -9    0.27    0.08 
   5  -4  -9    0.37    0.12 
   5  -4  -9    0.11    0.05 
   5  -4  -9    0.05    0.06 
   5  -4  -9    0.22    0.07 
   5  -4  -9    0.07    0.07 
   5  -4  -9    0.05    0.09 
   4  -4  -9    1.91    0.15 
   4  -4  -9    2.13    0.21 
   4  -4  -9    2.14    0.13 
   4  -4  -9    2.37    0.15 
   4  -4  -9    2.12    0.16 
   4  -4  -9    2.01    0.22 
   4  -4  -9    1.80    0.16 
   4  -4  -9    1.85    0.18 
   4  -4  -9    1.87    0.16 
   4  -4  -9    2.06    0.16 
  -4   4   9    1.67    0.17 
   3  -4  -9   -0.10    0.09 
   3  -4  -9    0.03    0.08 
   3  -4  -9    0.12    0.10 
   3  -4  -9    0.06    0.11 
   3  -4  -9    0.10    0.07 
   3  -4  -9    0.01    0.08 
   3  -4  -9    0.07    0.08 
   3  -4  -9    0.08    0.08 
   3  -4  -9    0.01    0.07 
   3  -4  -9   -0.02    0.06 
   3  -4  -9   -0.03    0.07 
  -3   4   9    0.02    0.11 
  -3   4   9    0.20    0.13 
  -3   4   9    0.11    0.12 
   2  -4  -9    0.23    0.07 
   2  -4  -9    0.28    0.08 
   2  -4  -9    0.27    0.08 
   2  -4  -9    0.26    0.09 
   2  -4  -9    0.29    0.12 
   2  -4  -9    0.36    0.11 
  -2   4   9    0.31    0.11 
  -2   4   9    0.21    0.11 
  -2   4   9    0.56    0.17 
   1  -4  -9    6.68    0.39 
   1  -4  -9    6.81    0.34 
   1  -4  -9    6.77    0.31 
   1  -4  -9    6.81    0.30 
  -1   4   9    6.64    0.43 
  -1   4   9    6.62    0.39 
  -1   4   9    6.62    0.44 
  -1   4   9    6.18    0.37 
   0  -4  -9   -0.01    0.08 
   0  -4  -9   -0.11    0.07 
   0  -4  -9    0.12    0.10 
   0  -4  -9    0.10    0.08 
   0   4   9   -0.08    0.14 
   0   4   9    0.08    0.12 
   0   4   9    0.00    0.11 
   0   4   9    0.03    0.07 
   0   4   9    0.07    0.09 
  -1  -4  -9    2.91    0.16 
  -1  -4  -9    2.34    0.17 
  -1  -4  -9    2.34    0.18 
  -1  -4  -9    2.37    0.16 
   1   4   9    2.88    0.21 
   1   4   9    2.55    0.22 
   1   4   9    2.69    0.17 
  -2  -4  -9    0.48    0.08 
  -2  -4  -9    0.36    0.07 
  -2  -4  -9    0.40    0.08 
  -2  -4  -9    0.39    0.07 
   2   4   9    0.50    0.09 
   2   4   9    0.55    0.09 
   2   4   9    0.37    0.11 
  -3  -4  -9    7.33    0.33 
  -3  -4  -9    6.77    0.29 
  -3  -4  -9    6.28    0.31 
   3   4   9    6.76    0.36 
   3   4   9    7.63    0.33 
   3   4   9    7.74    0.37 
   6  -5  -9    0.37    0.07 
   6  -5  -9    0.34    0.08 
   5  -5  -9    0.40    0.11 
   5  -5  -9    0.32    0.06 
   5  -5  -9    0.33    0.07 
   5  -5  -9    0.23    0.05 
   5  -5  -9    0.25    0.04 
   5  -5  -9    0.11    0.06 
   5  -5  -9    0.29    0.08 
   5  -5  -9    0.24    0.06 
   4  -5  -9    0.69    0.10 
   4  -5  -9    0.61    0.09 
   4  -5  -9    0.57    0.08 
   4  -5  -9    0.61    0.07 
   4  -5  -9    0.81    0.09 
   4  -5  -9    0.79    0.06 
   4  -5  -9    0.76    0.10 
   4  -5  -9    0.75    0.08 
   4  -5  -9    0.44    0.09 
   4  -5  -9    0.69    0.13 
   4  -5  -9    0.51    0.09 
  -4   5   9    0.81    0.12 
   3  -5  -9    0.00    0.11 
   3  -5  -9    0.16    0.06 
   3  -5  -9    0.04    0.06 
   3  -5  -9    0.04    0.07 
   3  -5  -9    0.03    0.07 
   3  -5  -9    0.04    0.08 
   3  -5  -9    0.10    0.06 
   3  -5  -9    0.08    0.07 
   3  -5  -9    0.22    0.08 
  -3   5   9    0.11    0.10 
  -3   5   9    0.06    0.09 
  -3   5   9    0.01    0.12 
   2  -5  -9    0.24    0.07 
   2  -5  -9    0.22    0.08 
   2  -5  -9    0.32    0.07 
   2  -5  -9    0.30    0.10 
   2  -5  -9    0.25    0.10 
  -2   5   9    0.44    0.13 
  -2   5   9    0.35    0.13 
   1  -5  -9    2.92    0.18 
   1  -5  -9    2.97    0.22 
   1  -5  -9    3.28    0.18 
   1  -5  -9    3.29    0.18 
  -1   5   9    2.94    0.21 
  -1   5   9    3.52    0.25 
  -1   5   9    3.16    0.25 
   0  -5  -9    0.41    0.07 
   0  -5  -9    0.47    0.10 
   0  -5  -9    0.37    0.08 
   0  -5  -9    0.34    0.07 
   0  -5  -9    0.50    0.08 
   0   5   9    0.42    0.09 
   0   5   9    0.54    0.11 
   0   5   9    0.48    0.11 
  -1  -5  -9    0.16    0.04 
  -1  -5  -9    0.18    0.07 
  -1  -5  -9    0.12    0.06 
  -1  -5  -9    0.23    0.06 
   1   5   9    0.12    0.07 
   1   5   9    0.46    0.10 
   1   5   9    0.14    0.09 
  -2  -5  -9    1.30    0.12 
  -2  -5  -9    1.54    0.10 
  -2  -5  -9    1.29    0.10 
   2   5   9    1.64    0.13 
   2   5   9    1.42    0.15 
   4  -6  -9    1.09    0.10 
   4  -6  -9    1.05    0.10 
   4  -6  -9    1.12    0.11 
   4  -6  -9    1.12    0.13 
   4  -6  -9    1.17    0.09 
   4  -6  -9    0.90    0.12 
   4  -6  -9    1.12    0.08 
   4  -6  -9    1.13    0.08 
  -4   6   9    1.20    0.11 
   3  -6  -9    0.46    0.07 
   3  -6  -9    0.31    0.10 
   3  -6  -9    0.54    0.09 
   3  -6  -9    0.54    0.07 
   3  -6  -9    0.50    0.07 
   3  -6  -9    0.43    0.06 
   3  -6  -9    0.47    0.06 
  -3   6   9    0.51    0.10 
   2  -6  -9    1.35    0.10 
   2  -6  -9    1.36    0.12 
   2  -6  -9    1.17    0.12 
   2  -6  -9    1.30    0.10 
  -2   6   9    1.68    0.14 
  -2   6   9    1.53    0.14 
   1  -6  -9    1.16    0.08 
   1  -6  -9    0.84    0.11 
   1  -6  -9    0.98    0.09 
   1  -6  -9    0.91    0.08 
   1  -6  -9    0.61    0.07 
  -1   6   9    1.15    0.11 
  -1   6   9    1.20    0.12 
   0  -6  -9    0.00    0.04 
   0  -6  -9    0.03    0.05 
   0  -6  -9    0.00    0.05 
   0   6   9    0.05    0.07 
   0   6   9    0.05    0.08 
   0   6   9    0.09    0.07 
  -1  -6  -9    0.02    0.04 
  -1  -6  -9   -0.03    0.04 
   1   6   9   -0.01    0.06 
   1   6   9    0.03    0.06 
   1   6   9   -0.11    0.07 
  -2   7   9    6.68    0.32 
   1   7 -10    0.11    0.06 
   1   7 -10    0.15    0.05 
  -1  -7  10    0.11    0.04 
   0   7 -10    0.15    0.07 
   0  -7  10    0.17    0.05 
  -1   7 -10   -0.02    0.04 
   1  -7  10    0.04    0.04 
   3   6 -10    1.19    0.09 
   3   6 -10    1.05    0.12 
   3   6 -10    1.31    0.12 
  -3  -6  10    1.29    0.10 
  -3  -6  10    1.06    0.10 
  -3  -6  10    0.99    0.08 
   2   6 -10    0.03    0.07 
   2   6 -10   -0.03    0.07 
   2   6 -10    0.01    0.06 
  -2  -6  10   -0.08    0.06 
  -2  -6  10   -0.02    0.04 
  -2  -6  10    0.04    0.07 
   1   6 -10    0.09    0.06 
   1   6 -10    0.00    0.09 
   1   6 -10    0.03    0.07 
  -1  -6  10    0.07    0.06 
  -1  -6  10    0.00    0.08 
  -1  -6  10    0.07    0.05 
   0   6 -10    0.55    0.11 
   0   6 -10    0.60    0.08 
   0  -6  10    0.50    0.07 
   0  -6  10    0.42    0.07 
   0  -6  10    0.36    0.07 
  -1   6 -10    1.39    0.13 
  -1   6 -10    1.30    0.11 
   1  -6  10    1.36    0.10 
   1  -6  10    1.56    0.13 
   1  -6  10    1.42    0.11 
  -2   6 -10    0.06    0.05 
   2  -6  10    0.06    0.06 
   2  -6  10    0.05    0.04 
  -3   6 -10    5.51    0.26 
   3  -6  10    5.29    0.23 
   4   5 -10    1.70    0.15 
   4   5 -10    1.70    0.10 
   4   5 -10    1.45    0.11 
   4   5 -10    1.72    0.13 
  -4  -5  10    1.56    0.14 
  -4  -5  10    1.55    0.12 
  -4  -5  10    1.54    0.15 
   3   5 -10    7.31    0.35 
   3   5 -10    6.86    0.44 
   3   5 -10    7.55    0.39 
  -3  -5  10    7.13    0.36 
  -3  -5  10    8.07    0.36 
  -3  -5  10    6.91    0.33 
  -3  -5  10    7.74    0.32 
   2   5 -10    3.15    0.18 
   2   5 -10    3.07    0.25 
   2   5 -10    2.77    0.20 
  -2  -5  10    3.31    0.20 
  -2  -5  10    2.92    0.20 
  -2  -5  10    3.01    0.18 
   1   5 -10    4.82    0.25 
   1   5 -10    5.10    0.34 
   1   5 -10    5.00    0.28 
  -1  -5  10    4.51    0.27 
  -1  -5  10    4.84    0.23 
  -1  -5  10    5.25    0.27 
  -1  -5  10    5.07    0.24 
   0   5 -10    0.79    0.08 
   0   5 -10    1.01    0.10 
   0   5 -10    0.94    0.12 
   0  -5  10    1.15    0.12 
   0  -5  10    0.99    0.09 
   0  -5  10    0.99    0.09 
  -1   5 -10    3.53    0.20 
  -1   5 -10    3.19    0.24 
   1  -5  10    3.77    0.22 
   1  -5  10    3.47    0.18 
   1  -5  10    3.20    0.18 
  -2   5 -10    2.05    0.15 
  -2   5 -10    1.89    0.13 
   2  -5  10    2.33    0.16 
   2  -5  10    1.96    0.13 
   2  -5  10    1.88    0.12 
  -3   5 -10    0.00    0.05 
  -3   5 -10    0.02    0.04 
   3  -5  10   -0.03    0.05 
   3  -5  10    0.02    0.04 
   3  -5  10    0.00    0.06 
   5   4 -10    0.28    0.05 
   5   4 -10    0.22    0.07 
   5   4 -10    0.32    0.06 
   5   4 -10    0.49    0.08 
  -5  -4  10    0.30    0.07 
  -5  -4  10    0.26    0.06 
  -5  -4  10    0.28    0.07 
   4   4 -10    0.12    0.04 
   4   4 -10    0.09    0.06 
   4   4 -10    0.15    0.05 
   4   4 -10    0.10    0.09 
   4   4 -10    0.17    0.05 
   4   4 -10    0.14    0.07 
   4   4 -10    0.12    0.07 
  -4  -4  10    0.15    0.07 
  -4  -4  10    0.19    0.07 
  -4  -4  10    0.19    0.11 
  -4  -4  10    0.13    0.09 
   3   4 -10    1.40    0.14 
   3   4 -10    1.33    0.12 
   3   4 -10    1.30    0.16 
   3   4 -10    1.12    0.10 
  -3  -4  10    1.18    0.13 
  -3  -4  10    1.21    0.13 
  -3  -4  10    1.48    0.14 
  -3  -4  10    1.11    0.11 
   2   4 -10   -0.02    0.08 
   2   4 -10    0.02    0.10 
   2   4 -10   -0.01    0.07 
  -2  -4  10    0.18    0.10 
  -2  -4  10    0.02    0.07 
  -2  -4  10    0.14    0.11 
  -2  -4  10   -0.05    0.08 
   1   4 -10    6.63    0.36 
   1   4 -10    6.96    0.34 
   1   4 -10    7.20    0.44 
  -1  -4  10    7.49    0.31 
  -1  -4  10    7.10    0.35 
  -1  -4  10    6.96    0.37 
  -1  -4  10    6.59    0.32 
   0   4 -10    1.28    0.16 
   0   4 -10    1.38    0.12 
   0  -4  10    1.34    0.12 
   0  -4  10    1.33    0.11 
   0  -4  10    1.12    0.10 
   0  -4  10    0.98    0.11 
  -1   4 -10    8.11    0.43 
  -1   4 -10    9.31    0.44 
   1  -4  10    9.28    0.43 
   1  -4  10    8.07    0.42 
   1  -4  10    9.34    0.38 
  -2   4 -10   -0.04    0.07 
  -2   4 -10   -0.03    0.07 
   2  -4  10   -0.02    0.07 
   2  -4  10    0.05    0.05 
   2  -4  10   -0.06    0.07 
  -3   4 -10    0.02    0.05 
  -3   4 -10    0.05    0.06 
  -3   4 -10    0.09    0.06 
   3  -4  10    0.05    0.06 
   3  -4  10   -0.02    0.07 
   3  -4  10    0.00    0.05 
  -4   4 -10    2.12    0.11 
  -4   4 -10    2.29    0.13 
  -4   4 -10    2.05    0.12 
   4  -4  10    2.06    0.12 
   4  -4  10    2.03    0.11 
   4  -4  10    2.15    0.11 
   6   3 -10    4.87    0.26 
   6   3 -10    5.00    0.25 
   6   3 -10    5.46    0.30 
   6   3 -10    5.49    0.19 
  -6  -3  10    5.41    0.26 
   5   3 -10   10.08    0.51 
   5   3 -10   10.46    0.50 
   5   3 -10   10.23    0.49 
   5   3 -10   11.14    0.53 
   5   3 -10   10.47    0.50 
   5   3 -10   10.66    0.40 
   5   3 -10   10.87    0.57 
  -5  -3  10   11.46    0.47 
   4   3 -10    4.35    0.23 
   4   3 -10    4.50    0.25 
   4   3 -10    4.82    0.28 
   4   3 -10    4.74    0.31 
   4   3 -10    4.82    0.22 
   4   3 -10    4.65    0.30 
   4   3 -10    4.96    0.26 
  -4  -3  10    4.98    0.27 
  -4  -3  10    4.68    0.26 
   3   3 -10    0.21    0.07 
   3   3 -10    0.09    0.05 
   3   3 -10    0.12    0.10 
   3   3 -10    0.26    0.10 
  -3  -3  10    0.20    0.09 
  -3  -3  10    0.21    0.09 
  -3  -3  10    0.06    0.10 
  -3  -3  10    0.26    0.11 
   2   3 -10    0.47    0.08 
   2   3 -10    0.60    0.12 
   2   3 -10    0.37    0.06 
   2   3 -10    0.46    0.09 
  -2  -3  10    0.37    0.09 
  -2  -3  10    0.39    0.09 
  -2  -3  10    0.61    0.12 
  -2  -3  10    0.43    0.14 
  -2  -3  10    0.66    0.11 
   1   3 -10    4.51    0.25 
   1   3 -10    4.80    0.33 
   1   3 -10    4.70    0.25 
  -1  -3  10    3.84    0.24 
  -1  -3  10    4.36    0.23 
  -1  -3  10    4.70    0.27 
  -1  -3  10    4.68    0.27 
  -1  -3  10    4.63    0.24 
   0   3 -10    0.52    0.11 
   0   3 -10    0.38    0.08 
   0  -3  10    0.38    0.08 
   0  -3  10    0.49    0.10 
   0  -3  10    0.53    0.10 
   0  -3  10    0.35    0.10 
  -1   3 -10    1.12    0.12 
  -1   3 -10    1.23    0.12 
   1  -3  10    1.11    0.11 
   1  -3  10    1.16    0.11 
   1  -3  10    1.10    0.11 
   1  -3  10    0.95    0.11 
  -2   3 -10    1.65    0.16 
  -2   3 -10    1.85    0.11 
  -2   3 -10    1.96    0.15 
   2  -3  10    1.94    0.15 
   2  -3  10    1.74    0.13 
   2  -3  10    1.64    0.17 
   2  -3  10    1.88    0.13 
  -3   3 -10    3.21    0.17 
  -3   3 -10    3.07    0.19 
  -3   3 -10    3.44    0.16 
  -3   3 -10    3.35    0.20 
   3  -3  10    2.82    0.19 
   3  -3  10    2.84    0.17 
   3  -3  10    3.26    0.20 
   3  -3  10    3.33    0.17 
  -4   3 -10    3.04    0.14 
  -4   3 -10    3.04    0.16 
  -4   3 -10    3.40    0.15 
  -4   3 -10    3.19    0.18 
   4  -3  10    2.97    0.17 
   4  -3  10    3.33    0.16 
   4  -3  10    3.24    0.18 
   6   2 -10    5.78    0.22 
   6   2 -10    5.66    0.30 
   6   2 -10    5.74    0.29 
   6   2 -10    5.80    0.28 
   6   2 -10    6.11    0.33 
  -6  -2  10    5.70    0.29 
  -6  -2  10    5.46    0.27 
   5   2 -10   20.24    0.91 
   5   2 -10   20.44    0.97 
   5   2 -10   21.38    0.75 
   5   2 -10   21.29    1.06 
   5   2 -10   20.34    1.15 
   5   2 -10   21.09    0.93 
   5   2 -10   21.27    1.00 
   5   2 -10   19.88    0.95 
   5   2 -10   21.03    0.95 
  -5  -2  10   21.83    0.87 
  -5  -2  10   19.98    0.92 
   4   2 -10   24.45    1.06 
   4   2 -10   23.26    1.11 
   4   2 -10   23.54    1.13 
   4   2 -10   23.98    1.24 
   4   2 -10   23.54    1.11 
   4   2 -10   24.55    1.08 
   4   2 -10   24.15    0.97 
   4   2 -10   24.42    1.34 
   4   2 -10   23.39    0.88 
   4   2 -10   24.95    1.17 
  -4  -2  10   25.29    1.02 
  -4  -2  10   24.68    1.08 
   3   2 -10   14.25    0.64 
   3   2 -10   13.98    0.72 
   3   2 -10   14.44    0.84 
   3   2 -10   14.83    0.67 
  -3  -2  10   15.01    0.63 
  -3  -2  10   14.33    0.67 
  -3  -2  10   14.46    0.69 
   2   2 -10    3.02    0.27 
   2   2 -10    2.99    0.19 
   2   2 -10    3.00    0.17 
   2   2 -10    2.87    0.19 
   2   2 -10    2.81    0.22 
  -2  -2  10    3.24    0.21 
  -2  -2  10    3.36    0.21 
  -2  -2  10    2.94    0.27 
  -2  -2  10    2.58    0.19 
   1   2 -10    0.06    0.07 
   1   2 -10    0.04    0.07 
   1   2 -10   -0.04    0.09 
  -1  -2  10    0.11    0.08 
  -1  -2  10   -0.01    0.10 
  -1  -2  10    0.06    0.09 
  -1  -2  10    0.06    0.09 
  -1  -2  10    0.03    0.08 
   0   2 -10    0.82    0.11 
   0   2 -10    0.67    0.10 
   0   2 -10    0.53    0.10 
   0  -2  10    0.86    0.13 
   0  -2  10    0.73    0.11 
   0  -2  10    0.91    0.11 
   0  -2  10    0.60    0.09 
   0  -2  10    0.64    0.08 
  -1   2 -10    2.23    0.17 
  -1   2 -10    2.16    0.14 
  -1   2 -10    2.31    0.18 
   1  -2  10    1.97    0.15 
   1  -2  10    2.24    0.17 
   1  -2  10    2.16    0.20 
   1  -2  10    2.31    0.18 
   1  -2  10    2.23    0.17 
   1  -2  10    2.47    0.18 
  -2   2 -10    0.10    0.07 
  -2   2 -10    0.25    0.09 
  -2   2 -10    0.25    0.08 
  -2   2 -10    0.16    0.06 
   2  -2  10    0.32    0.10 
   2  -2  10    0.19    0.07 
   2  -2  10    0.19    0.07 
   2  -2  10    0.21    0.07 
   2  -2  10    0.22    0.09 
  -3   2 -10    0.68    0.08 
  -3   2 -10    0.60    0.07 
  -3   2 -10    0.58    0.07 
  -3   2 -10    0.68    0.06 
   3  -2  10    0.65    0.10 
   3  -2  10    0.49    0.08 
   3  -2  10    0.38    0.07 
   3  -2  10    0.45    0.07 
  -4   2 -10    1.84    0.11 
  -4   2 -10    1.85    0.10 
  -4   2 -10    1.65    0.12 
  -4   2 -10    1.80    0.12 
   4  -2  10    1.91    0.12 
   4  -2  10    1.84    0.13 
   4  -2  10    1.73    0.12 
   4  -2  10    1.58    0.11 
   6   1 -10    0.19    0.06 
   6   1 -10    0.35    0.09 
   6   1 -10    0.28    0.06 
   6   1 -10    0.29    0.08 
   6   1 -10    0.25    0.07 
   6   1 -10    0.22    0.03 
   5   1 -10   14.48    0.68 
   5   1 -10   14.83    0.82 
   5   1 -10   14.86    0.76 
   5   1 -10   14.95    0.69 
   5   1 -10   13.79    0.67 
   5   1 -10   14.08    0.63 
   5   1 -10   14.93    0.72 
   5   1 -10   14.40    0.65 
   5   1 -10   14.57    0.53 
  -5  -1  10   13.58    0.61 
  -5  -1  10   13.62    0.66 
   4   1 -10   13.02    0.65 
   4   1 -10   12.47    0.48 
   4   1 -10   12.99    0.62 
   4   1 -10   12.39    0.62 
   4   1 -10   12.80    0.69 
   4   1 -10   13.82    0.75 
   4   1 -10   12.99    0.64 
   4   1 -10   13.18    0.60 
   4   1 -10   13.21    0.58 
  -4  -1  10   13.93    0.61 
  -4  -1  10   12.97    0.57 
  -4  -1  10   11.67    0.77 
  -4  -1  10   11.95    0.62 
   3   1 -10   23.11    1.11 
   3   1 -10   23.32    1.02 
   3   1 -10   23.14    1.00 
   3   1 -10   22.09    1.06 
   3   1 -10   22.61    1.07 
   3   1 -10   24.00    1.27 
  -3  -1  10   20.89    1.30 
  -3  -1  10   23.17    0.96 
  -3  -1  10   23.53    1.02 
  -3  -1  10   21.74    1.03 
   2   1 -10   20.87    1.16 
   2   1 -10   23.17    1.06 
   2   1 -10   23.62    0.99 
   2   1 -10   23.39    1.02 
   2   1 -10   22.28    1.27 
  -2  -1  10   22.69    0.96 
  -2  -1  10   23.88    1.02 
  -2  -1  10   21.41    1.03 
   1   1 -10    2.00    0.18 
   1   1 -10    2.33    0.18 
   1   1 -10    2.40    0.22 
   1   1 -10    2.25    0.17 
  -1  -1  10    2.12    0.17 
  -1  -1  10    2.17    0.21 
  -1  -1  10    2.47    0.20 
  -1  -1  10    2.63    0.19 
   0   1 -10    1.32    0.14 
   0   1 -10    0.88    0.10 
   0   1 -10    0.68    0.10 
   0   1 -10    1.11    0.09 
   0  -1  10    1.24    0.11 
   0  -1  10    0.94    0.12 
   0  -1  10    0.63    0.10 
   0  -1  10    0.88    0.09 
   0  -1  10    0.73    0.11 
   0  -1  10    0.87    0.11 
  -1   1 -10    0.54    0.08 
  -1   1 -10    0.58    0.09 
  -1   1 -10    0.41    0.08 
  -1   1 -10    0.36    0.07 
   1  -1  10    0.65    0.08 
   1  -1  10    0.52    0.12 
   1  -1  10    0.47    0.09 
   1  -1  10    0.54    0.09 
   1  -1  10    0.51    0.11 
   1  -1  10    0.43    0.09 
  -2   1 -10   18.10    0.82 
  -2   1 -10   18.02    0.70 
  -2   1 -10   16.93    0.77 
  -2   1 -10   16.20    0.66 
  -2   1 -10   17.24    0.81 
   2  -1  10   16.11    0.77 
   2  -1  10   17.26    0.71 
   2  -1  10   17.55    0.79 
   2  -1  10   17.52    0.73 
   2  -1  10   17.07    0.69 
  -3   1 -10    2.59    0.18 
  -3   1 -10    2.66    0.14 
  -3   1 -10    2.61    0.16 
  -3   1 -10    2.83    0.15 
   3  -1  10    2.43    0.15 
   3  -1  10    2.61    0.17 
   3  -1  10    2.67    0.17 
   3  -1  10    2.18    0.15 
   3  -1  10    2.62    0.20 
  -4   1 -10    0.04    0.04 
  -4   1 -10    0.06    0.05 
  -4   1 -10    0.05    0.04 
  -4   1 -10    0.07    0.04 
   4  -1  10   -0.05    0.05 
   4  -1  10    0.06    0.05 
   4  -1  10    0.10    0.07 
   4  -1  10    0.13    0.06 
   4  -1  10   -0.03    0.05 
   6   0 -10    2.22    0.15 
   6   0 -10    2.34    0.16 
   6   0 -10    2.39    0.10 
   6   0 -10    2.40    0.18 
   6   0 -10    2.40    0.15 
   6   0 -10    2.36    0.16 
   6   0 -10    2.44    0.20 
   5   0 -10    0.42    0.09 
   5   0 -10    0.53    0.08 
   5   0 -10    0.45    0.06 
   5   0 -10    0.52    0.11 
   5   0 -10    0.40    0.08 
   5   0 -10    0.35    0.09 
   5   0 -10    0.35    0.06 
   5   0 -10    0.32    0.11 
   5   0 -10    0.45    0.08 
  -5   0  10    0.34    0.10 
   4   0 -10    0.25    0.08 
   4   0 -10    0.31    0.09 
   4   0 -10    0.28    0.07 
   4   0 -10    0.31    0.11 
   4   0 -10    0.35    0.09 
   4   0 -10    0.26    0.10 
   4   0 -10    0.28    0.10 
   4   0 -10    0.20    0.05 
   4   0 -10    0.43    0.10 
   4   0 -10    0.36    0.09 
  -4   0  10    0.21    0.09 
  -4   0  10    0.23    0.15 
   3   0 -10    2.26    0.14 
   3   0 -10    2.07    0.17 
   3   0 -10    2.09    0.19 
   3   0 -10    2.17    0.22 
   3   0 -10    1.97    0.19 
   3   0 -10    2.25    0.14 
   3   0 -10    2.10    0.19 
   3   0 -10    2.16    0.19 
  -3   0  10    1.79    0.23 
  -3   0  10    2.26    0.19 
  -3   0  10    1.95    0.19 
   2   0 -10   30.12    1.63 
   2   0 -10   32.68    1.51 
   2   0 -10   31.26    1.50 
   2   0 -10   34.13    1.44 
   2   0 -10   33.82    1.50 
   2   0 -10   32.55    1.79 
  -2   0  10   31.78    1.41 
  -2   0  10   33.00    1.35 
  -2   0  10   34.55    1.43 
  -2   0  10   30.60    1.82 
  -2   0  10   32.77    1.45 
   1   0 -10    7.45    0.38 
   1   0 -10    6.69    0.41 
   1   0 -10    7.19    0.38 
  -1   0  10    7.91    0.38 
  -1   0  10    7.20    0.36 
  -1   0  10    7.25    0.38 
  -1   0  10    7.58    0.38 
  -1   0  10    6.67    0.34 
   0   0 -10   31.44    1.25 
   0   0 -10   32.34    1.46 
   0   0 -10   29.72    1.58 
   0   0 -10   31.67    1.46 
   0   0  10   28.27    1.53 
   0   0  10   32.11    1.30 
   0   0  10   31.42    1.27 
   0   0  10   31.22    1.40 
   0   0  10   34.30    1.39 
   0   0  10   32.28    1.36 
  -1   0 -10    5.51    0.26 
  -1   0 -10    4.90    0.23 
  -1   0 -10    4.29    0.28 
  -1   0 -10    5.50    0.29 
  -1   0 -10    5.18    0.27 
  -1   0 -10    5.16    0.29 
   1   0  10    5.42    0.29 
   1   0  10    5.38    0.28 
   1   0  10    5.63    0.28 
   1   0  10    5.25    0.31 
   1   0  10    5.58    0.30 
  -2   0 -10    8.45    0.35 
  -2   0 -10    8.44    0.37 
  -2   0 -10    8.48    0.40 
  -2   0 -10    7.73    0.42 
   2   0  10    8.35    0.38 
   2   0  10    8.62    0.38 
   2   0  10    8.17    0.41 
   2   0  10    7.94    0.41 
   2   0  10    8.44    0.40 
  -3   0 -10    1.66    0.12 
  -3   0 -10    1.86    0.12 
  -3   0 -10    1.66    0.14 
  -3   0 -10    1.65    0.14 
   3   0  10    1.54    0.13 
   3   0  10    1.54    0.12 
   3   0  10    1.72    0.15 
   3   0  10    1.66    0.17 
   3   0  10    1.56    0.13 
   3   0  10    1.67    0.14 
  -4   0 -10    4.31    0.20 
  -4   0 -10    4.43    0.22 
  -4   0 -10    4.55    0.19 
   4   0  10    4.92    0.24 
   4   0  10    4.27    0.20 
   4   0  10    4.70    0.22 
   4   0  10    4.33    0.20 
   6  -1 -10    2.33    0.18 
   6  -1 -10    2.20    0.17 
   6  -1 -10    2.26    0.14 
   6  -1 -10    2.49    0.15 
   6  -1 -10    2.30    0.16 
   6  -1 -10    2.28    0.20 
   5  -1 -10    0.08    0.06 
   5  -1 -10    0.05    0.09 
   5  -1 -10   -0.02    0.09 
   5  -1 -10    0.06    0.11 
   5  -1 -10    0.01    0.05 
   5  -1 -10    0.02    0.09 
   5  -1 -10    0.09    0.06 
   5  -1 -10    0.09    0.09 
   4  -1 -10    0.04    0.06 
   4  -1 -10    0.07    0.07 
   4  -1 -10    0.15    0.09 
   4  -1 -10    0.11    0.10 
   4  -1 -10   -0.02    0.09 
   4  -1 -10    0.03    0.09 
   4  -1 -10   -0.04    0.09 
   4  -1 -10   -0.01    0.07 
   4  -1 -10    0.12    0.08 
  -4   1  10    0.03    0.11 
  -4   1  10    0.14    0.08 
   3  -1 -10    5.35    0.37 
   3  -1 -10    4.90    0.27 
   3  -1 -10    5.33    0.32 
   3  -1 -10    5.14    0.23 
   3  -1 -10    4.92    0.29 
   3  -1 -10    5.18    0.31 
   3  -1 -10    5.21    0.30 
  -3   1  10    4.91    0.28 
  -3   1  10    4.78    0.31 
  -3   1  10    4.79    0.38 
   2  -1 -10    0.44    0.09 
   2  -1 -10    0.39    0.09 
   2  -1 -10    0.39    0.12 
   2  -1 -10    0.43    0.13 
   2  -1 -10    0.18    0.08 
  -2   1  10    0.38    0.11 
  -2   1  10    0.23    0.12 
  -2   1  10    0.39    0.11 
  -2   1  10    0.18    0.11 
   1  -1 -10    0.46    0.08 
   1  -1 -10    0.37    0.09 
   1  -1 -10    0.46    0.07 
   1  -1 -10    0.31    0.11 
   1  -1 -10    0.49    0.11 
  -1   1  10    0.48    0.17 
  -1   1  10    0.28    0.11 
  -1   1  10    0.62    0.09 
  -1   1  10    0.43    0.08 
  -1   1  10    0.35    0.09 
  -1   1  10    0.53    0.11 
   0  -1 -10    7.55    0.39 
   0  -1 -10    6.95    0.32 
   0  -1 -10    7.48    0.37 
   0  -1 -10    7.70    0.33 
   0  -1 -10    7.64    0.40 
   0   1  10    7.79    0.45 
   0   1  10    7.65    0.38 
   0   1  10    7.28    0.34 
   0   1  10    7.42    0.35 
  -1  -1 -10   29.15    1.11 
  -1  -1 -10   25.59    1.35 
  -1  -1 -10   29.09    1.36 
  -1  -1 -10   29.58    1.28 
  -1  -1 -10   30.05    1.17 
   1   1  10   29.59    1.21 
   1   1  10   30.10    1.27 
   1   1  10   31.91    1.29 
   1   1  10   29.39    1.18 
   1   1  10   27.65    1.42 
   1   1  10   29.11    1.30 
  -2  -1 -10    1.41    0.13 
  -2  -1 -10    1.37    0.14 
  -2  -1 -10    1.51    0.12 
  -2  -1 -10    1.39    0.10 
   2   1  10    1.48    0.14 
   2   1  10    1.15    0.11 
   2   1  10    1.12    0.11 
   2   1  10    1.48    0.11 
   2   1  10    1.42    0.12 
  -3  -1 -10    2.12    0.14 
  -3  -1 -10    2.38    0.14 
  -3  -1 -10    2.10    0.14 
   3   1  10    2.09    0.16 
   3   1  10    2.24    0.14 
   3   1  10    2.07    0.15 
   3   1  10    2.16    0.16 
   3   1  10    2.29    0.16 
  -4  -1 -10    0.95    0.08 
  -4  -1 -10    1.07    0.08 
  -4  -1 -10    0.92    0.07 
   4   1  10    0.97    0.08 
   4   1  10    1.01    0.09 
   4   1  10    0.95    0.08 
   6  -2 -10    6.45    0.38 
   6  -2 -10    6.08    0.30 
   6  -2 -10    6.36    0.33 
   6  -2 -10    6.35    0.35 
   6  -2 -10    6.39    0.31 
   6  -2 -10    5.78    0.31 
   5  -2 -10    0.36    0.07 
   5  -2 -10    0.45    0.10 
   5  -2 -10    0.47    0.10 
   5  -2 -10    0.35    0.10 
   5  -2 -10    0.40    0.08 
   5  -2 -10    0.28    0.08 
   5  -2 -10    0.57    0.09 
   5  -2 -10    0.39    0.05 
   5  -2 -10    0.23    0.07 
   4  -2 -10    0.05    0.09 
   4  -2 -10    0.04    0.05 
   4  -2 -10    0.09    0.07 
   4  -2 -10    0.07    0.08 
   4  -2 -10    0.01    0.09 
   4  -2 -10    0.08    0.09 
   4  -2 -10    0.14    0.08 
   4  -2 -10    0.11    0.09 
   4  -2 -10    0.15    0.11 
  -4   2  10    0.22    0.10 
   3  -2 -10    9.45    0.46 
   3  -2 -10    9.32    0.47 
   3  -2 -10    9.48    0.57 
   3  -2 -10   10.04    0.49 
   3  -2 -10   10.29    0.49 
   3  -2 -10    9.62    0.37 
  -3   2  10    9.30    0.60 
  -3   2  10    9.06    0.45 
   2  -2 -10   10.39    0.50 
   2  -2 -10    9.50    0.43 
   2  -2 -10   10.22    0.52 
   2  -2 -10    9.98    0.50 
   2  -2 -10    9.68    0.49 
  -2   2  10    9.94    0.57 
  -2   2  10    9.65    0.48 
   1  -2 -10    0.04    0.07 
   1  -2 -10   -0.04    0.08 
   1  -2 -10    0.20    0.07 
   1  -2 -10    0.16    0.09 
   1  -2 -10    0.06    0.08 
  -1   2  10    0.14    0.09 
  -1   2  10    0.15    0.09 
  -1   2  10    0.09    0.13 
  -1   2  10    0.12    0.09 
  -1   2  10   -0.01    0.11 
  -1   2  10    0.15    0.12 
   0  -2 -10    0.02    0.09 
   0  -2 -10   -0.02    0.10 
   0  -2 -10    0.04    0.08 
   0  -2 -10   -0.05    0.08 
   0  -2 -10    0.03    0.07 
   0   2  10    0.11    0.09 
   0   2  10    0.07    0.09 
   0   2  10   -0.04    0.08 
   0   2  10    0.15    0.14 
   0   2  10   -0.05    0.09 
   0   2  10    0.02    0.10 
  -1  -2 -10   10.77    0.49 
  -1  -2 -10   10.87    0.45 
  -1  -2 -10   10.63    0.43 
  -1  -2 -10    9.84    0.52 
   1   2  10   10.60    0.55 
   1   2  10   11.14    0.51 
   1   2  10    9.51    0.54 
   1   2  10   10.75    0.49 
   1   2  10   10.59    0.45 
  -2  -2 -10    0.92    0.10 
  -2  -2 -10    0.82    0.08 
  -2  -2 -10    0.77    0.08 
  -2  -2 -10    0.87    0.08 
   2   2  10    1.04    0.10 
   2   2  10    0.82    0.10 
   2   2  10    0.86    0.10 
   2   2  10    1.22    0.12 
   2   2  10    0.87    0.09 
  -3  -2 -10    3.35    0.18 
  -3  -2 -10    3.06    0.18 
  -3  -2 -10    3.19    0.16 
  -3  -2 -10    3.55    0.17 
   3   2  10    3.49    0.18 
   3   2  10    3.16    0.20 
   3   2  10    3.63    0.20 
   3   2  10    3.50    0.19 
   3   2  10    3.32    0.17 
   4   2  10    0.14    0.04 
   6  -3 -10    2.52    0.16 
   6  -3 -10    2.27    0.14 
   6  -3 -10    2.62    0.19 
   6  -3 -10    2.64    0.20 
   5  -3 -10   12.00    0.54 
   5  -3 -10   11.82    0.63 
   5  -3 -10   11.17    0.56 
   5  -3 -10   11.25    0.56 
   5  -3 -10   12.61    0.67 
   5  -3 -10   12.21    0.56 
   5  -3 -10   12.18    0.43 
   5  -3 -10   12.04    0.58 
   5  -3 -10   10.84    0.55 
  -5   3  10   10.85    0.59 
   4  -3 -10    2.57    0.19 
   4  -3 -10    2.23    0.18 
   4  -3 -10    2.56    0.21 
   4  -3 -10    2.54    0.19 
   4  -3 -10    2.37    0.15 
   4  -3 -10    2.48    0.13 
   4  -3 -10    2.19    0.18 
   4  -3 -10    2.38    0.23 
  -4   3  10    2.36    0.24 
   3  -3 -10    0.03    0.07 
   3  -3 -10    0.09    0.08 
   3  -3 -10    0.04    0.07 
   3  -3 -10    0.10    0.10 
   3  -3 -10    0.04    0.09 
   3  -3 -10    0.00    0.07 
  -3   3  10   -0.06    0.15 
   2  -3 -10    1.80    0.16 
   2  -3 -10    2.20    0.15 
   2  -3 -10    1.87    0.18 
   2  -3 -10    2.11    0.19 
   2  -3 -10    1.79    0.15 
  -2   3  10    2.13    0.20 
  -2   3  10    1.70    0.19 
  -2   3  10    1.90    0.23 
  -2   3  10    1.92    0.18 
   1  -3 -10    1.05    0.14 
   1  -3 -10    1.11    0.10 
   1  -3 -10    0.92    0.12 
   1  -3 -10    1.18    0.11 
   1  -3 -10    1.00    0.09 
   1  -3 -10    0.88    0.10 
   1  -3 -10    1.06    0.11 
  -1   3  10    0.78    0.14 
  -1   3  10    1.03    0.11 
  -1   3  10    0.94    0.13 
  -1   3  10    1.14    0.14 
  -1   3  10    1.04    0.17 
   0  -3 -10    0.08    0.08 
   0  -3 -10   -0.01    0.10 
   0  -3 -10    0.02    0.06 
   0  -3 -10    0.12    0.06 
   0  -3 -10    0.00    0.08 
   0   3  10    0.05    0.10 
   0   3  10    0.01    0.10 
   0   3  10   -0.02    0.13 
   0   3  10   -0.04    0.08 
  -1  -3 -10    0.10    0.07 
  -1  -3 -10    0.03    0.07 
  -1  -3 -10    0.01    0.06 
  -1  -3 -10    0.07    0.07 
   1   3  10    0.08    0.06 
   1   3  10    0.02    0.11 
   1   3  10   -0.01    0.07 
   1   3  10    0.16    0.08 
   1   3  10    0.14    0.09 
  -2  -3 -10    0.05    0.06 
  -2  -3 -10    0.03    0.05 
  -2  -3 -10    0.03    0.06 
  -2  -3 -10   -0.05    0.04 
   2   3  10   -0.05    0.06 
   2   3  10    0.04    0.05 
   2   3  10   -0.01    0.07 
   2   3  10   -0.11    0.08 
   2   3  10   -0.03    0.05 
  -3  -3 -10    0.90    0.07 
  -3  -3 -10    0.77    0.06 
   3   3  10    0.92    0.08 
   3   3  10    0.95    0.09 
   3   3  10    0.88    0.09 
   5  -4 -10    0.16    0.06 
   5  -4 -10    0.11    0.09 
   5  -4 -10    0.23    0.06 
   5  -4 -10    0.14    0.06 
   5  -4 -10    0.15    0.04 
   5  -4 -10    0.18    0.05 
   5  -4 -10    0.15    0.09 
   4  -4 -10    0.09    0.09 
   4  -4 -10    0.01    0.05 
   4  -4 -10    0.06    0.06 
   4  -4 -10    0.12    0.06 
   4  -4 -10    0.10    0.07 
   4  -4 -10   -0.07    0.06 
   4  -4 -10    0.06    0.06 
   4  -4 -10   -0.03    0.08 
   4  -4 -10    0.07    0.06 
   4  -4 -10    0.00    0.06 
  -4   4  10    0.11    0.09 
   3  -4 -10    1.10    0.09 
   3  -4 -10    1.30    0.13 
   3  -4 -10    0.99    0.10 
   3  -4 -10    1.32    0.12 
   3  -4 -10    0.81    0.10 
   3  -4 -10    1.25    0.10 
  -3   4  10    1.10    0.14 
  -3   4  10    1.17    0.13 
   2  -4 -10    1.47    0.11 
   2  -4 -10    1.08    0.10 
   2  -4 -10    1.29    0.13 
   2  -4 -10    0.89    0.11 
   2  -4 -10    1.33    0.11 
   2  -4 -10    1.39    0.12 
  -2   4  10    1.46    0.15 
  -2   4  10    1.29    0.15 
  -2   4  10    1.33    0.14 
   1  -4 -10    2.20    0.14 
   1  -4 -10    2.42    0.14 
   1  -4 -10    2.28    0.15 
   1  -4 -10    2.33    0.19 
  -1   4  10    2.63    0.22 
  -1   4  10    2.05    0.21 
  -1   4  10    2.30    0.18 
   0  -4 -10   -0.02    0.06 
   0  -4 -10    0.03    0.07 
   0  -4 -10    0.11    0.07 
   0  -4 -10    0.07    0.06 
   0   4  10    0.09    0.08 
   0   4  10    0.11    0.08 
   0   4  10    0.05    0.09 
   0   4  10    0.08    0.07 
  -1  -4 -10    1.48    0.12 
  -1  -4 -10    1.80    0.12 
  -1  -4 -10    1.74    0.13 
  -1  -4 -10    1.56    0.11 
   1   4  10    1.51    0.16 
   1   4  10    1.77    0.14 
   1   4  10    1.82    0.17 
  -2  -4 -10    0.90    0.07 
  -2  -4 -10    0.82    0.07 
   2   4  10    0.81    0.09 
   2   4  10    0.84    0.09 
   2   4  10    0.85    0.08 
   4  -5 -10    3.35    0.19 
   4  -5 -10    3.07    0.15 
   4  -5 -10    3.20    0.22 
   4  -5 -10    3.11    0.19 
   4  -5 -10    3.35    0.14 
   4  -5 -10    2.86    0.22 
  -4   5  10    3.47    0.21 
   3  -5 -10    0.22    0.07 
   3  -5 -10    0.23    0.05 
   3  -5 -10    0.22    0.06 
   3  -5 -10    0.19    0.07 
   3  -5 -10    0.43    0.06 
   3  -5 -10    0.19    0.05 
   3  -5 -10    0.26    0.06 
  -3   5  10    0.24    0.08 
  -3   5  10    0.42    0.10 
   2  -5 -10    0.06    0.05 
   2  -5 -10   -0.01    0.08 
   2  -5 -10    0.23    0.05 
   2  -5 -10    0.16    0.05 
  -2   5  10    0.21    0.10 
  -2   5  10    0.21    0.10 
  -2   5  10    0.24    0.08 
   1  -5 -10    4.52    0.24 
   1  -5 -10    4.81    0.22 
   1  -5 -10    4.52    0.21 
   1  -5 -10    4.43    0.26 
  -1   5  10    4.96    0.27 
  -1   5  10    4.59    0.27 
  -1   5  10    5.46    0.28 
   0  -5 -10    1.40    0.11 
   0  -5 -10    1.56    0.12 
   0  -5 -10    1.42    0.10 
   0   5  10    1.63    0.16 
   0   5  10    1.79    0.13 
   0   5  10    1.39    0.12 
  -1  -5 -10    0.91    0.07 
  -1  -5 -10    0.51    0.06 
   1   5  10    0.65    0.09 
   1   5  10    0.77    0.09 
   3  -6 -10   -0.05    0.04 
   3  -6 -10   -0.03    0.05 
  -3   6  10    0.03    0.06 
   2  -6 -10    0.03    0.04 
   2  -6 -10    0.04    0.05 
   2  -6 -10    0.01    0.04 
  -2   6  10   -0.02    0.05 
   1  -6 -10    1.48    0.09 
  -1   6  10    1.74    0.11 
   2   6 -11    0.00    0.04 
  -2  -6  11    0.07    0.03 
   1   6 -11   10.48    0.56 
  -1  -6  11    9.71    0.40 
  -1  -6  11    9.77    0.44 
   0   6 -11    0.02    0.06 
   0  -6  11   -0.03    0.05 
   0  -6  11    0.02    0.04 
   0  -6  11   -0.03    0.04 
   3   5 -11    8.45    0.48 
   3   5 -11    8.12    0.38 
   3   5 -11    8.46    0.42 
  -3  -5  11    8.44    0.38 
  -3  -5  11    8.09    0.39 
  -3  -5  11    8.73    0.34 
   2   5 -11    0.54    0.10 
   2   5 -11    0.52    0.08 
   2   5 -11    0.58    0.07 
  -2  -5  11    0.59    0.09 
  -2  -5  11    0.42    0.08 
  -2  -5  11    0.59    0.08 
   1   5 -11    0.41    0.06 
   1   5 -11    0.49    0.09 
  -1  -5  11    0.52    0.08 
  -1  -5  11    0.61    0.08 
  -1  -5  11    0.39    0.08 
   0   5 -11    1.86    0.16 
   0   5 -11    1.85    0.12 
   0  -5  11    1.80    0.11 
   0  -5  11    1.77    0.15 
  -1   5 -11    0.13    0.06 
  -1   5 -11    0.17    0.06 
   1  -5  11    0.13    0.06 
   1  -5  11    0.16    0.07 
  -2   5 -11    4.46    0.22 
   2  -5  11    4.27    0.19 
   2  -5  11    4.30    0.21 
   4   4 -11    3.70    0.20 
   4   4 -11    4.00    0.17 
   4   4 -11    4.25    0.22 
   4   4 -11    3.70    0.26 
  -4  -4  11    4.11    0.19 
  -4  -4  11    3.92    0.20 
  -4  -4  11    4.77    0.24 
   3   4 -11    0.96    0.09 
   3   4 -11    0.96    0.12 
   3   4 -11    0.94    0.10 
  -3  -4  11    0.90    0.11 
  -3  -4  11    0.97    0.10 
  -3  -4  11    0.99    0.09 
  -3  -4  11    0.93    0.11 
   2   4 -11    0.35    0.09 
   2   4 -11    0.22    0.08 
   2   4 -11    0.44    0.08 
  -2  -4  11    0.38    0.07 
  -2  -4  11    0.42    0.09 
  -2  -4  11    0.41    0.09 
  -2  -4  11    0.47    0.10 
   1   4 -11    1.29    0.12 
   1   4 -11    1.27    0.12 
   1   4 -11    1.36    0.16 
  -1  -4  11    1.35    0.12 
  -1  -4  11    1.50    0.13 
  -1  -4  11    1.65    0.12 
  -1  -4  11    1.22    0.11 
   0   4 -11    1.93    0.18 
   0   4 -11    1.92    0.15 
   0  -4  11    1.98    0.14 
   0  -4  11    1.96    0.16 
   0  -4  11    1.68    0.12 
   0  -4  11    2.11    0.16 
  -1   4 -11    0.76    0.08 
  -1   4 -11    0.63    0.07 
   1  -4  11    0.64    0.08 
   1  -4  11    0.71    0.09 
   1  -4  11    0.43    0.06 
   1  -4  11    0.69    0.07 
  -2   4 -11    0.34    0.06 
  -2   4 -11    0.31    0.06 
   2  -4  11    0.28    0.05 
   2  -4  11    0.20    0.06 
   2  -4  11    0.30    0.06 
  -3   4 -11    1.27    0.09 
  -3   4 -11    1.27    0.09 
  -3   4 -11    1.12    0.07 
   3  -4  11    1.26    0.08 
   5   3 -11   11.02    0.57 
   5   3 -11   11.00    0.54 
   5   3 -11   11.21    0.40 
  -5  -3  11   10.17    0.43 
  -5  -3  11   11.59    0.51 
   4   3 -11    2.11    0.12 
   4   3 -11    2.04    0.17 
   4   3 -11    1.90    0.17 
   4   3 -11    2.06    0.16 
   4   3 -11    2.10    0.13 
  -4  -3  11    2.02    0.12 
  -4  -3  11    2.37    0.17 
  -4  -3  11    2.16    0.14 
   3   3 -11    0.30    0.09 
   3   3 -11    0.33    0.09 
   3   3 -11    0.37    0.07 
  -3  -3  11    0.36    0.08 
  -3  -3  11    0.29    0.07 
  -3  -3  11    0.45    0.10 
  -3  -3  11    0.41    0.10 
   2   3 -11    1.81    0.15 
   2   3 -11    2.34    0.20 
   2   3 -11    2.14    0.14 
  -2  -3  11    2.03    0.14 
  -2  -3  11    2.25    0.17 
  -2  -3  11    1.96    0.17 
  -2  -3  11    2.33    0.20 
   1   3 -11    1.14    0.11 
   1   3 -11    1.20    0.14 
  -1  -3  11    1.01    0.11 
  -1  -3  11    1.25    0.13 
  -1  -3  11    1.14    0.11 
  -1  -3  11    1.02    0.10 
  -1  -3  11    1.25    0.11 
  -1  -3  11    0.98    0.09 
   0   3 -11    0.24    0.07 
   0   3 -11    0.17    0.08 
   0  -3  11    0.35    0.08 
   0  -3  11    0.22    0.07 
   0  -3  11    0.19    0.07 
   0  -3  11    0.10    0.10 
   0  -3  11    0.22    0.09 
  -1   3 -11    0.50    0.08 
  -1   3 -11    0.58    0.08 
   1  -3  11    0.52    0.09 
   1  -3  11    0.39    0.07 
   1  -3  11    0.52    0.10 
   1  -3  11    0.47    0.08 
  -2   3 -11    1.08    0.10 
  -2   3 -11    0.85    0.08 
  -2   3 -11    1.06    0.09 
   2  -3  11    0.90    0.08 
   2  -3  11    0.94    0.10 
   2  -3  11    1.01    0.10 
   2  -3  11    0.75    0.07 
  -3   3 -11    3.03    0.17 
  -3   3 -11    2.68    0.16 
  -3   3 -11    2.75    0.14 
   3  -3  11    3.08    0.14 
   3  -3  11    2.74    0.16 
   3  -3  11    2.68    0.15 
   5   2 -11    0.26    0.08 
   5   2 -11    0.34    0.05 
   5   2 -11    0.26    0.06 
   5   2 -11    0.47    0.09 
   5   2 -11    0.21    0.06 
   5   2 -11    0.36    0.06 
   5   2 -11    0.32    0.08 
  -5  -2  11    0.25    0.06 
  -5  -2  11    0.26    0.07 
   4   2 -11   16.60    0.86 
   4   2 -11   17.44    0.94 
   4   2 -11   16.66    0.79 
   4   2 -11   15.24    0.73 
   4   2 -11   17.63    0.82 
   4   2 -11   15.99    0.61 
   4   2 -11   16.66    0.75 
  -4  -2  11   16.71    0.75 
  -4  -2  11   17.83    0.71 
  -4  -2  11   17.13    0.76 
   3   2 -11    6.68    0.33 
   3   2 -11    6.49    0.36 
   3   2 -11    6.85    0.43 
  -3  -2  11    6.82    0.36 
  -3  -2  11    6.21    0.30 
  -3  -2  11    7.03    0.35 
  -3  -2  11    6.73    0.33 
   2   2 -11    0.37    0.07 
   2   2 -11    0.47    0.10 
   2   2 -11    0.28    0.09 
  -2  -2  11    0.39    0.12 
  -2  -2  11    0.34    0.09 
  -2  -2  11    0.43    0.09 
  -2  -2  11    0.43    0.09 
  -2  -2  11    0.23    0.08 
   1   2 -11    1.02    0.14 
   1   2 -11    1.21    0.12 
  -1  -2  11    1.38    0.13 
  -1  -2  11    1.12    0.12 
  -1  -2  11    1.08    0.09 
  -1  -2  11    0.91    0.10 
  -1  -2  11    1.06    0.11 
  -1  -2  11    1.09    0.11 
   0   2 -11    0.11    0.06 
   0   2 -11   -0.11    0.08 
   0  -2  11    0.12    0.06 
   0  -2  11    0.03    0.08 
   0  -2  11    0.18    0.09 
   0  -2  11    0.06    0.08 
   0  -2  11    0.13    0.07 
  -1   2 -11    5.94    0.31 
  -1   2 -11    5.34    0.25 
  -1   2 -11    5.74    0.30 
   1  -2  11    5.75    0.28 
   1  -2  11    5.11    0.28 
   1  -2  11    5.51    0.25 
   1  -2  11    5.57    0.27 
   1  -2  11    6.08    0.31 
  -2   2 -11    0.03    0.05 
  -2   2 -11    0.10    0.05 
  -2   2 -11    0.12    0.07 
   2  -2  11    0.05    0.08 
   2  -2  11    0.14    0.06 
   2  -2  11    0.03    0.06 
   2  -2  11    0.20    0.06 
   2  -2  11    0.21    0.07 
  -3   2 -11    5.68    0.24 
  -3   2 -11    5.79    0.29 
  -3   2 -11    5.41    0.26 
   3  -2  11    5.13    0.25 
   3  -2  11    6.14    0.25 
   3  -2  11    5.95    0.28 
   3  -2  11    5.42    0.27 
   6   1 -11    0.27    0.05 
   5   1 -11    8.36    0.40 
   5   1 -11    8.68    0.43 
   5   1 -11    9.24    0.44 
   5   1 -11    9.02    0.47 
   5   1 -11    8.22    0.41 
   5   1 -11    8.74    0.32 
   5   1 -11    8.77    0.50 
  -5  -1  11    8.04    0.37 
  -5  -1  11    7.90    0.40 
   4   1 -11   11.18    0.55 
   4   1 -11   10.85    0.53 
   4   1 -11   11.63    0.64 
   4   1 -11   11.57    0.51 
   4   1 -11   10.42    0.41 
   4   1 -11   10.39    0.49 
   4   1 -11   11.25    0.52 
   4   1 -11   10.62    0.59 
  -4  -1  11   10.72    0.48 
  -4  -1  11   10.76    0.52 
  -4  -1  11   11.34    0.51 
   3   1 -11    0.02    0.06 
   3   1 -11    0.13    0.11 
   3   1 -11    0.06    0.07 
   3   1 -11    0.18    0.09 
   3   1 -11    0.04    0.08 
  -3  -1  11   -0.08    0.10 
  -3  -1  11    0.04    0.08 
  -3  -1  11    0.07    0.09 
  -3  -1  11    0.04    0.09 
   2   1 -11    8.54    0.53 
   2   1 -11    8.57    0.43 
   2   1 -11    8.64    0.42 
  -2  -1  11    8.62    0.42 
  -2  -1  11    8.83    0.40 
  -2  -1  11    8.69    0.43 
  -2  -1  11    9.05    0.43 
   1   1 -11    0.27    0.08 
   1   1 -11    0.26    0.09 
   1   1 -11    0.30    0.09 
  -1  -1  11    0.31    0.08 
  -1  -1  11    0.28    0.08 
  -1  -1  11    0.20    0.11 
  -1  -1  11    0.32    0.09 
  -1  -1  11    0.29    0.09 
   0   1 -11    0.77    0.11 
   0   1 -11    0.66    0.08 
   0   1 -11    1.03    0.11 
   0  -1  11    0.81    0.11 
   0  -1  11    0.88    0.10 
   0  -1  11    0.93    0.12 
   0  -1  11    0.91    0.10 
   0  -1  11    0.68    0.09 
  -1   1 -11   12.11    0.51 
  -1   1 -11   12.79    0.60 
  -1   1 -11   12.08    0.59 
   1  -1  11   12.20    0.50 
   1  -1  11   12.05    0.57 
   1  -1  11   11.45    0.55 
   1  -1  11   13.01    0.59 
   1  -1  11   13.07    0.54 
   1  -1  11   12.85    0.52 
  -2   1 -11   16.04    0.75 
  -2   1 -11   17.49    0.80 
  -2   1 -11   17.15    0.68 
  -2   1 -11   16.44    0.79 
   2  -1  11   16.29    0.67 
   2  -1  11   17.49    0.71 
   2  -1  11   18.39    0.77 
   2  -1  11   15.83    0.75 
   2  -1  11   17.10    0.69 
  -3   1 -11    0.30    0.06 
  -3   1 -11    0.37    0.06 
  -3   1 -11    0.35    0.05 
  -3   1 -11    0.47    0.06 
   3  -1  11    0.40    0.06 
   3  -1  11    0.37    0.05 
   3  -1  11    0.46    0.07 
   3  -1  11    0.37    0.08 
   6   0 -11   -0.01    0.04 
   6   0 -11   -0.03    0.05 
   5   0 -11    2.39    0.16 
   5   0 -11    2.26    0.20 
   5   0 -11    2.24    0.15 
   5   0 -11    2.35    0.16 
   5   0 -11    2.45    0.12 
   5   0 -11    2.35    0.19 
   5   0 -11    2.50    0.17 
   4   0 -11    2.68    0.17 
   4   0 -11    2.23    0.17 
   4   0 -11    2.56    0.18 
   4   0 -11    2.36    0.14 
   4   0 -11    2.46    0.17 
   4   0 -11    2.63    0.23 
   4   0 -11    2.65    0.21 
   4   0 -11    2.55    0.20 
  -4   0  11    2.66    0.19 
  -4   0  11    2.74    0.19 
   3   0 -11    1.57    0.14 
   3   0 -11    1.62    0.14 
   3   0 -11    1.59    0.16 
   3   0 -11    2.01    0.15 
   3   0 -11    1.76    0.21 
  -3   0  11    1.66    0.15 
  -3   0  11    1.63    0.15 
  -3   0  11    1.67    0.14 
   2   0 -11    0.61    0.10 
   2   0 -11    0.41    0.08 
   2   0 -11    0.43    0.07 
   2   0 -11    0.68    0.10 
  -2   0  11    0.42    0.11 
  -2   0  11    0.51    0.11 
  -2   0  11    0.51    0.11 
  -2   0  11    0.50    0.10 
  -2   0  11    0.34    0.08 
   1   0 -11   16.60    0.75 
   1   0 -11   15.27    0.75 
  -1   0  11   14.71    0.80 
  -1   0  11   16.78    0.72 
  -1   0  11   15.52    0.73 
  -1   0  11   15.69    0.66 
  -1   0  11   16.58    0.71 
  -1   0  11   15.42    0.68 
   0   0 -11   -0.02    0.07 
   0   0 -11    0.06    0.08 
   0   0 -11    0.16    0.08 
   0   0  11   -0.02    0.09 
   0   0  11    0.05    0.07 
   0   0  11    0.21    0.08 
   0   0  11    0.23    0.10 
   0   0  11    0.00    0.07 
  -1   0 -11    2.98    0.19 
  -1   0 -11    3.74    0.22 
  -1   0 -11    3.14    0.21 
  -1   0 -11    3.27    0.17 
   1   0  11    3.34    0.20 
   1   0  11    3.62    0.21 
   1   0  11    3.49    0.21 
   1   0  11    3.33    0.20 
   1   0  11    3.54    0.21 
  -2   0 -11    0.08    0.06 
  -2   0 -11    0.14    0.06 
  -2   0 -11    0.19    0.07 
  -2   0 -11    0.08    0.05 
   2   0  11    0.14    0.08 
   2   0  11    0.03    0.06 
   2   0  11   -0.01    0.07 
   2   0  11    0.01    0.06 
   2   0  11    0.04    0.07 
  -3   0 -11    0.81    0.06 
  -3   0 -11    0.96    0.09 
  -3   0 -11    0.89    0.09 
  -3   0 -11    0.88    0.09 
   3   0  11    0.79    0.08 
   3   0  11    1.03    0.08 
   3   0  11    1.02    0.09 
   3   0  11    1.05    0.09 
   6  -1 -11    0.99    0.09 
   6  -1 -11    0.92    0.10 
   5  -1 -11    0.01    0.07 
   5  -1 -11    0.10    0.07 
   5  -1 -11    0.08    0.06 
   5  -1 -11    0.00    0.06 
   5  -1 -11   -0.06    0.08 
   5  -1 -11    0.02    0.04 
   5  -1 -11    0.04    0.07 
  -5   1  11    0.04    0.06 
   4  -1 -11    0.50    0.09 
   4  -1 -11    0.64    0.08 
   4  -1 -11    0.53    0.08 
   4  -1 -11    0.60    0.07 
   4  -1 -11    0.47    0.09 
   4  -1 -11    0.67    0.12 
   4  -1 -11    0.62    0.09 
   4  -1 -11    0.61    0.10 
   4  -1 -11    0.56    0.08 
  -4   1  11    0.53    0.10 
  -4   1  11    0.81    0.09 
  -4   1  11    0.58    0.09 
   3  -1 -11   14.20    0.66 
   3  -1 -11   13.88    0.67 
   3  -1 -11   13.88    0.63 
   3  -1 -11   13.98    0.79 
   3  -1 -11   13.82    0.65 
   3  -1 -11   13.99    0.52 
  -3   1  11   14.16    0.63 
  -3   1  11   13.35    0.57 
  -3   1  11   12.96    0.63 
   2  -1 -11    0.71    0.10 
   2  -1 -11    0.61    0.09 
   2  -1 -11    0.88    0.13 
   2  -1 -11    0.46    0.09 
  -2   1  11    0.79    0.16 
  -2   1  11    0.80    0.12 
  -2   1  11    0.72    0.10 
   1  -1 -11    1.55    0.16 
   1  -1 -11    1.54    0.14 
   1  -1 -11    1.58    0.12 
   1  -1 -11    1.63    0.16 
  -1   1  11    1.82    0.15 
  -1   1  11    1.48    0.13 
  -1   1  11    1.85    0.17 
  -1   1  11    1.78    0.17 
  -1   1  11    1.41    0.15 
   0  -1 -11    1.91    0.14 
   0  -1 -11    1.84    0.17 
   0  -1 -11    1.71    0.14 
   0  -1 -11    1.98    0.16 
   0   1  11    1.81    0.15 
   0   1  11    2.03    0.15 
   0   1  11    1.63    0.18 
   0   1  11    1.81    0.17 
   0   1  11    2.08    0.15 
  -1  -1 -11    0.58    0.08 
  -1  -1 -11    0.54    0.06 
  -1  -1 -11    0.49    0.07 
  -1  -1 -11    0.48    0.08 
   1   1  11    0.73    0.09 
   1   1  11    0.59    0.07 
   1   1  11    0.76    0.10 
   1   1  11    0.62    0.10 
   1   1  11    0.55    0.09 
   1   1  11    0.54    0.10 
  -2  -1 -11    0.08    0.06 
  -2  -1 -11    0.04    0.06 
  -2  -1 -11   -0.02    0.05 
  -2  -1 -11   -0.02    0.06 
   2   1  11    0.03    0.05 
   2   1  11    0.19    0.06 
   2   1  11   -0.10    0.06 
   2   1  11    0.03    0.06 
   2   1  11    0.03    0.06 
  -3  -1 -11    1.09    0.08 
  -3  -1 -11    0.94    0.08 
   3   1  11    1.30    0.10 
   3   1  11    1.23    0.09 
   3   1  11    1.29    0.11 
   5  -2 -11    0.61    0.09 
   5  -2 -11    0.37    0.07 
   5  -2 -11    0.55    0.10 
   5  -2 -11    0.55    0.05 
   5  -2 -11    0.65    0.10 
   5  -2 -11    0.53    0.08 
   5  -2 -11    0.32    0.07 
   5  -2 -11    0.44    0.07 
  -5   2  11    0.29    0.09 
   4  -2 -11    0.07    0.06 
   4  -2 -11    0.00    0.06 
   4  -2 -11    0.03    0.07 
   4  -2 -11   -0.04    0.08 
   4  -2 -11    0.06    0.08 
   4  -2 -11   -0.06    0.06 
   4  -2 -11   -0.05    0.09 
   4  -2 -11    0.03    0.05 
  -4   2  11    0.01    0.08 
  -4   2  11   -0.01    0.11 
   3  -2 -11    0.09    0.07 
   3  -2 -11    0.23    0.10 
   3  -2 -11    0.28    0.09 
   3  -2 -11    0.21    0.07 
   3  -2 -11    0.21    0.08 
  -3   2  11    0.39    0.10 
  -3   2  11    0.48    0.15 
   2  -2 -11    0.47    0.09 
   2  -2 -11    0.42    0.09 
   2  -2 -11    0.29    0.06 
   2  -2 -11    0.45    0.08 
  -2   2  11    0.39    0.12 
  -2   2  11    0.53    0.11 
  -2   2  11    0.36    0.07 
  -2   2  11    0.50    0.09 
   1  -2 -11    2.76    0.18 
   1  -2 -11    2.46    0.18 
   1  -2 -11    2.28    0.16 
   1  -2 -11    2.64    0.21 
   1  -2 -11    2.48    0.16 
  -1   2  11    2.55    0.17 
  -1   2  11    2.47    0.18 
  -1   2  11    2.89    0.21 
  -1   2  11    2.46    0.25 
   0  -2 -11    0.10    0.07 
   0  -2 -11   -0.06    0.06 
   0  -2 -11   -0.05    0.05 
   0  -2 -11   -0.08    0.06 
   0   2  11    0.15    0.08 
   0   2  11    0.03    0.07 
   0   2  11    0.05    0.07 
   0   2  11    0.08    0.10 
   0   2  11    0.11    0.09 
  -1  -2 -11    1.49    0.12 
  -1  -2 -11    1.47    0.11 
  -1  -2 -11    1.47    0.12 
  -1  -2 -11    1.48    0.12 
   1   2  11    1.49    0.12 
   1   2  11    1.69    0.13 
   1   2  11    1.75    0.16 
   1   2  11    1.43    0.14 
  -2  -2 -11    1.33    0.10 
  -2  -2 -11    1.41    0.10 
  -2  -2 -11    1.19    0.10 
   2   2  11    1.49    0.10 
   2   2  11    1.45    0.13 
   2   2  11    1.16    0.12 
   3   2  11   10.12    0.41 
   5  -3 -11    0.71    0.05 
   5  -3 -11    0.58    0.07 
   5  -3 -11    0.74    0.08 
   5  -3 -11    0.80    0.09 
   5  -3 -11    0.69    0.08 
   4  -3 -11    1.48    0.14 
   4  -3 -11    1.54    0.10 
   4  -3 -11    1.42    0.11 
   4  -3 -11    1.59    0.14 
   4  -3 -11    1.44    0.13 
   4  -3 -11    1.42    0.13 
   4  -3 -11    1.51    0.13 
   4  -3 -11    1.48    0.14 
  -4   3  11    1.51    0.15 
  -4   3  11    1.41    0.14 
   3  -3 -11    3.37    0.20 
   3  -3 -11    3.13    0.20 
   3  -3 -11    2.75    0.16 
   3  -3 -11    3.42    0.22 
   3  -3 -11    3.08    0.15 
  -3   3  11    3.46    0.24 
  -3   3  11    3.23    0.21 
   2  -3 -11    0.21    0.08 
   2  -3 -11    0.44    0.08 
   2  -3 -11    0.42    0.06 
   2  -3 -11    0.22    0.06 
   2  -3 -11    0.38    0.10 
  -2   3  11    0.37    0.10 
  -2   3  11    0.51    0.10 
  -2   3  11    0.26    0.08 
  -2   3  11    0.50    0.14 
   1  -3 -11    0.02    0.06 
   1  -3 -11    0.07    0.09 
   1  -3 -11    0.07    0.07 
   1  -3 -11    0.09    0.05 
   1  -3 -11    0.07    0.05 
  -1   3  11    0.17    0.07 
  -1   3  11   -0.03    0.10 
  -1   3  11    0.32    0.12 
   0  -3 -11    0.01    0.05 
   0  -3 -11    0.07    0.05 
   0  -3 -11    0.05    0.05 
   0   3  11    0.04    0.08 
   0   3  11    0.03    0.08 
   0   3  11    0.05    0.08 
  -1  -3 -11    0.34    0.05 
  -1  -3 -11    0.39    0.06 
  -1  -3 -11    0.31    0.05 
   1   3  11    0.25    0.06 
   1   3  11    0.34    0.08 
   1   3  11    0.35    0.07 
   1   3  11    0.42    0.08 
  -2  -3 -11    0.86    0.07 
  -2  -3 -11    0.95    0.08 
   2   3  11    0.98    0.09 
   2   3  11    1.06    0.08 
   2   3  11    1.20    0.10 
   4  -4 -11    0.77    0.10 
   4  -4 -11    0.97    0.07 
   4  -4 -11    0.83    0.07 
   4  -4 -11    1.06    0.09 
   4  -4 -11    0.89    0.09 
   4  -4 -11    0.60    0.08 
  -4   4  11    0.90    0.10 
  -4   4  11    0.90    0.09 
   3  -4 -11    0.75    0.06 
   3  -4 -11    0.58    0.06 
   3  -4 -11    0.57    0.09 
   3  -4 -11    0.67    0.08 
   3  -4 -11    0.57    0.07 
  -3   4  11    0.78    0.12 
  -3   4  11    0.72    0.09 
  -3   4  11    0.66    0.09 
   2  -4 -11    1.88    0.14 
   2  -4 -11    1.65    0.15 
   2  -4 -11    1.48    0.11 
   2  -4 -11    1.58    0.11 
   2  -4 -11    1.81    0.11 
   2  -4 -11    1.64    0.13 
  -2   4  11    1.84    0.14 
  -2   4  11    1.58    0.15 
  -2   4  11    2.24    0.19 
   1  -4 -11    2.02    0.12 
   1  -4 -11    1.90    0.12 
   1  -4 -11    2.19    0.12 
  -1   4  11    2.02    0.15 
  -1   4  11    2.19    0.19 
  -1   4  11    2.24    0.16 
   0  -4 -11    1.23    0.09 
   0  -4 -11    1.16    0.09 
   0  -4 -11    1.11    0.10 
   0   4  11    1.20    0.10 
   0   4  11    1.36    0.13 
   0   4  11    1.35    0.13 
  -1  -4 -11   -0.03    0.03 
  -1  -4 -11    0.03    0.04 
   1   4  11   -0.05    0.05 
   2  -5 -11    0.15    0.04 
   2  -5 -11    0.23    0.06 
  -2   5  11    0.25    0.06 
   1  -5 -11    0.47    0.05 
   1   5 -12    1.55    0.13 
  -1  -5  12    1.33    0.09 
   0  -5  12    0.06    0.04 
   3   4 -12    0.03    0.05 
  -3  -4  12    0.06    0.05 
  -3  -4  12   -0.02    0.06 
   2   4 -12    0.05    0.07 
  -2  -4  12    0.10    0.06 
  -2  -4  12    0.01    0.04 
   1   4 -12   -0.06    0.05 
   1   4 -12    0.01    0.04 
  -1  -4  12    0.02    0.05 
  -1  -4  12    0.02    0.06 
  -1  -4  12    0.04    0.06 
  -1  -4  12    0.02    0.05 
   0   4 -12    0.06    0.05 
   0   4 -12    0.02    0.05 
   0  -4  12   -0.10    0.04 
   0  -4  12   -0.02    0.06 
   0  -4  12   -0.03    0.04 
  -1   4 -12    0.06    0.05 
   1  -4  12    0.00    0.04 
   1  -4  12    0.00    0.05 
   4   3 -12    1.89    0.15 
   4   3 -12    1.87    0.13 
  -4  -3  12    2.18    0.14 
  -4  -3  12    2.03    0.12 
   3   3 -12    0.86    0.08 
   3   3 -12    0.84    0.07 
   3   3 -12    0.92    0.10 
  -3  -3  12    0.92    0.09 
  -3  -3  12    0.76    0.07 
  -3  -3  12    0.70    0.07 
  -3  -3  12    0.86    0.09 
   2   3 -12    1.50    0.16 
   2   3 -12    1.41    0.11 
  -2  -3  12    1.51    0.11 
  -2  -3  12    1.44    0.13 
  -2  -3  12    1.55    0.11 
  -2  -3  12    1.38    0.12 
   1   3 -12    1.38    0.13 
   1   3 -12    1.39    0.11 
  -1  -3  12    1.29    0.11 
  -1  -3  12    1.19    0.10 
  -1  -3  12    1.50    0.13 
  -1  -3  12    1.19    0.10 
   0   3 -12    1.64    0.13 
   0  -3  12    1.43    0.11 
   0  -3  12    1.65    0.10 
   0  -3  12    1.49    0.11 
   0  -3  12    1.56    0.15 
  -1   3 -12    0.22    0.06 
  -1   3 -12    0.22    0.05 
   1  -3  12    0.17    0.06 
   1  -3  12    0.16    0.07 
   1  -3  12    0.25    0.06 
  -2   3 -12    9.92    0.48 
  -2   3 -12    9.96    0.48 
   2  -3  12   10.11    0.46 
   2  -3  12   10.75    0.41 
   4   2 -12    1.90    0.12 
   4   2 -12    1.72    0.09 
   4   2 -12    1.86    0.16 
  -4  -2  12    1.74    0.14 
  -4  -2  12    1.83    0.12 
  -4  -2  12    1.64    0.14 
   3   2 -12    2.91    0.16 
   3   2 -12    2.87    0.18 
   3   2 -12    3.02    0.22 
  -3  -2  12    3.40    0.17 
  -3  -2  12    3.10    0.19 
  -3  -2  12    2.97    0.17 
  -3  -2  12    3.17    0.18 
   2   2 -12    2.16    0.15 
   2   2 -12    2.33    0.19 
  -2  -2  12    2.46    0.17 
  -2  -2  12    2.30    0.16 
  -2  -2  12    2.59    0.15 
  -2  -2  12    2.52    0.15 
  -2  -2  12    2.42    0.17 
   1   2 -12    2.34    0.15 
   1   2 -12    2.26    0.19 
  -1  -2  12    2.18    0.15 
  -1  -2  12    2.38    0.15 
  -1  -2  12    2.32    0.16 
  -1  -2  12    2.56    0.17 
  -1  -2  12    2.17    0.16 
  -1  -2  12    2.29    0.14 
   0   2 -12    0.03    0.07 
   0   2 -12   -0.07    0.05 
   0  -2  12    0.05    0.07 
   0  -2  12   -0.01    0.05 
   0  -2  12    0.02    0.07 
   0  -2  12    0.06    0.06 
  -1   2 -12    0.09    0.05 
  -1   2 -12    0.05    0.06 
   1  -2  12    0.15    0.06 
   1  -2  12    0.08    0.06 
   1  -2  12    0.09    0.07 
   1  -2  12    0.04    0.06 
  -2   2 -12    0.81    0.06 
  -2   2 -12    0.81    0.07 
  -2   2 -12    0.85    0.08 
   2  -2  12    0.76    0.07 
   2  -2  12    0.86    0.08 
   2  -2  12    0.72    0.06 
   5   1 -12    0.32    0.03 
   5   1 -12    0.30    0.05 
   5   1 -12    0.28    0.06 
   4   1 -12    1.18    0.11 
   4   1 -12    1.14    0.10 
   4   1 -12    1.23    0.12 
   4   1 -12    1.07    0.09 
   4   1 -12    1.30    0.13 
  -4  -1  12    1.25    0.12 
  -4  -1  12    1.26    0.11 
  -4  -1  12    1.22    0.10 
   3   1 -12    1.31    0.14 
   3   1 -12    1.15    0.11 
   3   1 -12    1.04    0.11 
  -3  -1  12    1.14    0.10 
  -3  -1  12    1.15    0.10 
  -3  -1  12    1.20    0.11 
  -3  -1  12    1.08    0.10 
  -3  -1  12    1.14    0.11 
   2   1 -12    0.51    0.10 
   2   1 -12    0.63    0.08 
  -2  -1  12    0.55    0.10 
  -2  -1  12    0.54    0.09 
  -2  -1  12    0.35    0.08 
  -2  -1  12    0.62    0.09 
  -2  -1  12    0.57    0.08 
   1   1 -12    0.96    0.09 
   1   1 -12    0.67    0.08 
  -1  -1  12    0.94    0.10 
  -1  -1  12    0.83    0.09 
  -1  -1  12    0.96    0.10 
  -1  -1  12    0.82    0.09 
  -1  -1  12    0.99    0.11 
   0   1 -12   13.01    0.62 
   0   1 -12   13.71    0.62 
   0  -1  12   13.21    0.60 
   0  -1  12   12.61    0.59 
   0  -1  12   13.31    0.56 
   0  -1  12   12.34    0.58 
   0  -1  12   13.52    0.54 
  -1   1 -12   11.55    0.54 
  -1   1 -12   10.74    0.46 
  -1   1 -12   10.87    0.53 
   1  -1  12   11.26    0.48 
   1  -1  12   11.58    0.46 
   1  -1  12   11.84    0.52 
   1  -1  12   10.65    0.50 
  -2   1 -12    0.40    0.06 
  -2   1 -12    0.32    0.05 
   2  -1  12    0.43    0.06 
   2  -1  12    0.40    0.07 
   2  -1  12    0.37    0.05 
   5   0 -12    0.05    0.05 
   5   0 -12    0.03    0.03 
   5   0 -12    0.04    0.05 
   4   0 -12    0.31    0.07 
   4   0 -12    0.23    0.06 
   4   0 -12    0.35    0.07 
   4   0 -12    0.36    0.08 
   4   0 -12    0.24    0.05 
   4   0 -12    0.16    0.04 
  -4   0  12    0.30    0.07 
  -4   0  12    0.21    0.07 
   3   0 -12    6.78    0.39 
   3   0 -12    6.14    0.33 
   3   0 -12    6.52    0.32 
   3   0 -12    6.29    0.31 
  -3   0  12    7.04    0.32 
  -3   0  12    6.64    0.30 
  -3   0  12    6.03    0.35 
   2   0 -12    5.36    0.34 
   2   0 -12    5.55    0.29 
   2   0 -12    4.90    0.28 
  -2   0  12    5.22    0.26 
  -2   0  12    5.11    0.30 
  -2   0  12    5.32    0.27 
  -2   0  12    5.32    0.28 
  -2   0  12    5.77    0.29 
  -2   0  12    5.63    0.26 
   1   0 -12    0.04    0.07 
   1   0 -12   -0.07    0.07 
  -1   0  12    0.03    0.07 
  -1   0  12    0.08    0.06 
  -1   0  12    0.12    0.08 
  -1   0  12    0.03    0.06 
  -1   0  12    0.12    0.09 
  -1   0  12    0.05    0.07 
   0   0 -12    0.13    0.07 
   0   0 -12    0.07    0.04 
   0   0 -12    0.08    0.07 
   0   0  12    0.15    0.06 
   0   0  12   -0.02    0.05 
   0   0  12    0.06    0.07 
   0   0  12    0.07    0.08 
   0   0  12    0.08    0.07 
  -1   0 -12    5.90    0.30 
  -1   0 -12    5.18    0.27 
  -1   0 -12    5.96    0.25 
  -1   0 -12    5.33    0.28 
   1   0  12    5.79    0.27 
   1   0  12    5.88    0.27 
   1   0  12    6.07    0.26 
   1   0  12    5.61    0.28 
  -2   0 -12    0.07    0.04 
  -2   0 -12    0.08    0.05 
   2   0  12    0.06    0.04 
   2   0  12    0.14    0.05 
   2   0  12    0.00    0.04 
   5  -1 -12    6.28    0.36 
   4  -1 -12    0.52    0.07 
   4  -1 -12    0.50    0.08 
   4  -1 -12    0.39    0.07 
   4  -1 -12    0.64    0.09 
   4  -1 -12    0.63    0.05 
   4  -1 -12    0.48    0.07 
  -4   1  12    0.49    0.11 
  -4   1  12    0.52    0.08 
   3  -1 -12    0.22    0.06 
   3  -1 -12    0.28    0.07 
   3  -1 -12    0.28    0.07 
   3  -1 -12    0.32    0.06 
  -3   1  12    0.39    0.10 
  -3   1  12    0.28    0.07 
  -3   1  12    0.22    0.09 
  -3   1  12    0.20    0.08 
   2  -1 -12    1.43    0.14 
   2  -1 -12    1.09    0.11 
  -2   1  12    1.50    0.14 
  -2   1  12    1.58    0.13 
  -2   1  12    1.11    0.14 
  -2   1  12    1.68    0.15 
  -2   1  12    1.44    0.12 
   1  -1 -12    1.21    0.11 
   1  -1 -12    1.11    0.11 
   1  -1 -12    1.17    0.10 
  -1   1  12    1.12    0.10 
  -1   1  12    1.15    0.10 
  -1   1  12    1.30    0.13 
   0  -1 -12   -0.10    0.06 
   0  -1 -12    0.00    0.06 
   0  -1 -12   -0.04    0.04 
   0   1  12    0.10    0.06 
   0   1  12    0.07    0.06 
   0   1  12   -0.03    0.06 
  -1  -1 -12    1.02    0.08 
  -1  -1 -12    1.02    0.09 
  -1  -1 -12    0.87    0.09 
  -1  -1 -12    0.91    0.08 
   1   1  12    1.06    0.10 
   1   1  12    1.05    0.09 
   1   1  12    1.20    0.09 
  -2  -1 -12    0.27    0.05 
   2   1  12    0.31    0.05 
   4  -2 -12    0.02    0.05 
   4  -2 -12    0.12    0.05 
   4  -2 -12    0.05    0.05 
   4  -2 -12    0.10    0.04 
   4  -2 -12    0.08    0.06 
  -4   2  12    0.03    0.07 
  -4   2  12    0.05    0.06 
   3  -2 -12    0.03    0.05 
   3  -2 -12   -0.02    0.06 
   3  -2 -12    0.04    0.05 
   3  -2 -12    0.04    0.04 
   3  -2 -12    0.05    0.05 
  -3   2  12    0.08    0.06 
  -3   2  12    0.26    0.09 
  -3   2  12    0.02    0.09 
   2  -2 -12    0.37    0.06 
   2  -2 -12    0.23    0.07 
   2  -2 -12    0.36    0.06 
  -2   2  12    0.38    0.09 
  -2   2  12    0.38    0.10 
  -2   2  12    0.44    0.07 
   1  -2 -12    1.75    0.12 
   1  -2 -12    1.80    0.13 
  -1   2  12    1.81    0.15 
  -1   2  12    1.98    0.14 
  -1   2  12    2.03    0.15 
  -1   2  12    1.83    0.12 
   0  -2 -12    0.07    0.05 
   0  -2 -12    0.12    0.05 
   0   2  12    0.06    0.07 
   0   2  12    0.16    0.07 
   0   2  12    0.01    0.04 
  -1  -2 -12    2.19    0.12 
  -1  -2 -12    2.04    0.11 
   1   2  12    2.31    0.12 
   1   2  12    2.20    0.14 
   1   2  12    2.36    0.14 
   3  -3 -12    0.24    0.06 
   3  -3 -12    0.28    0.05 
   3  -3 -12    0.13    0.05 
   3  -3 -12    0.12    0.05 
  -3   3  12    0.09    0.08 
  -3   3  12    0.14    0.06 
  -3   3  12    0.19    0.07 
   2  -3 -12    1.57    0.11 
   2  -3 -12    1.39    0.11 
   2  -3 -12    1.50    0.09 
  -2   3  12    1.62    0.13 
  -2   3  12    1.76    0.14 
  -2   3  12    1.70    0.11 
   1  -3 -12    3.25    0.16 
  -1   3  12    3.60    0.18 
  -1   3  12    3.62    0.21 
  -1   3  12    3.36    0.21 
   0  -3 -12    0.65    0.06 
   0   3  12    0.85    0.08 
   0   3  12    0.80    0.08 
  -1  -3  13   -0.02    0.05 
   2   2 -13    8.21    0.43 
   2   2 -13    9.45    0.52 
  -2  -2  13    9.64    0.38 
  -2  -2  13   10.04    0.43 
   1   2 -13    2.14    0.13 
  -1  -2  13    2.42    0.14 
  -1  -2  13    2.18    0.13 
   0   2 -13    6.56    0.31 
   0  -2  13    6.68    0.30 
   0  -2  13    6.09    0.27 
  -3  -1  13    7.72    0.32 
   2   1 -13    1.28    0.09 
  -2  -1  13    1.47    0.11 
  -2  -1  13    1.35    0.11 
  -2  -1  13    1.51    0.10 
   1   1 -13    0.18    0.04 
   1   1 -13    0.16    0.05 
  -1  -1  13    0.18    0.06 
  -1  -1  13    0.30    0.05 
  -1  -1  13    0.18    0.05 
   0   1 -13    0.61    0.07 
   0   1 -13    0.47    0.06 
   0  -1  13    0.53    0.07 
   0  -1  13    0.60    0.06 
  -3   0  13    0.72    0.07 
   2   0 -13    0.37    0.05 
  -2   0  13    0.39    0.05 
  -2   0  13    0.36    0.06 
  -2   0  13    0.36    0.07 
   1   0 -13   -0.03    0.04 
  -1   0  13   -0.01    0.05 
  -1   0  13    0.03    0.06 
   0   0 -13    0.11    0.05 
   0   0  13    0.15    0.05 
   0   0  13    0.14    0.04 
   2  -1 -13    0.76    0.07 
  -2   1  13    0.65    0.08 
  -2   1  13    0.72    0.06 
  -1   1  13    0.24    0.05 
  -1   1  13    0.07    0.04 
   0   0   0    0.00    0.00 
;
_shelx_hkl_checksum              29383
#END Tags that were not found in dictionaries
loop_
_space_group_symop_operation_xyz
'x, y, z'
'-x, -y, -z'
loop_
_atom_site_label
_atom_site_type_symbol
_atom_site_fract_x
_atom_site_fract_y
_atom_site_fract_z
_atom_site_U_iso_or_equiv
_atom_site_adp_type
_atom_site_occupancy
_atom_site_site_symmetry_order
_atom_site_calc_flag
O1 O -0.01919(11) 0.29120(10) 0.54913(8) 0.0221(2) Uani 1 1 d
O2 O 0.26645(12) 0.21276(10) 0.84093(8) 0.0230(2) Uani 1 1 d
N1 N 0.58876(14) 0.26787(12) 0.51873(9) 0.0198(2) Uani 1 1 d
C2 C 0.48744(16) 0.33592(14) 0.59794(11) 0.0192(2) Uani 1 1 d
C3 C 0.29822(16) 0.28175(14) 0.55633(11) 0.0187(2) Uani 1 1 d
C4 C 0.28909(16) 0.17206(13) 0.44405(10) 0.0184(2) Uani 1 1 d
C5 C 0.14455(17) 0.07612(14) 0.36180(11) 0.0201(3) Uani 1 1 d
C6 C 0.18920(17) -0.01864(14) 0.26247(11) 0.0224(3) Uani 1 1 d
C7 C 0.37350(17) -0.02070(14) 0.24408(11) 0.0226(3) Uani 1 1 d
C8 C 0.52005(17) 0.07092(14) 0.32518(11) 0.0212(3) Uani 1 1 d
C9 C 0.47350(16) 0.16618(14) 0.42410(11) 0.0186(2) Uani 1 1 d
C10 C 0.58597(17) 0.44940(15) 0.70727(11) 0.0225(3) Uani 1 1 d
C11 C 0.14058(16) 0.32791(14) 0.60787(10) 0.0182(2) Uani 1 1 d
C12 C 0.16338(16) 0.42865(14) 0.73226(11) 0.0194(3) Uani 1 1 d
C13 C 0.22453(16) 0.36907(14) 0.84722(11) 0.0202(3) Uani 1 1 d
C14 C 0.23725(17) 0.46658(15) 0.95895(11) 0.0237(3) Uani 1 1 d
C15 C 0.18799(18) 0.62266(16) 0.95710(12) 0.0256(3) Uani 1 1 d
C16 C 0.12446(17) 0.68185(15) 0.84481(12) 0.0245(3) Uani 1 1 d
C17 C 0.11155(16) 0.58398(15) 0.73303(11) 0.0221(3) Uani 1 1 d
C18 C 0.30260(19) 0.14293(16) 0.95730(12) 0.0262(3) Uani 1 1 d
H1 H 0.711(2) 0.2804(19) 0.5318(15) 0.031(4) Uiso 1 1 d
H7 H 0.404(2) -0.0885(18) 0.1750(14) 0.023(3) Uiso 1 1 d
H5 H 0.018(2) 0.0772(17) 0.3741(13) 0.020(3) Uiso 1 1 d
H6 H 0.090(2) -0.0871(19) 0.2046(14) 0.028(4) Uiso 1 1 d
H8 H 0.647(2) 0.0647(17) 0.3143(13) 0.022(3) Uiso 1 1 d
H10C H 0.539(2) 0.550(2) 0.7146(15) 0.033(4) Uiso 1 1 d
H10A H 0.574(2) 0.401(2) 0.7853(17) 0.041(5) Uiso 1 1 d
H10B H 0.719(3) 0.475(2) 0.7018(17) 0.046(5) Uiso 1 1 d
H16 H 0.089(2) 0.7921(19) 0.8460(14) 0.026(4) Uiso 1 1 d
H17 H 0.064(2) 0.6231(18) 0.6544(14) 0.026(4) Uiso 1 1 d
H15 H 0.195(2) 0.6869(18) 1.0371(15) 0.027(4) Uiso 1 1 d
H14 H 0.280(2) 0.4247(19) 1.0380(15) 0.029(4) Uiso 1 1 d
H18A H 0.320(2) 0.031(2) 0.9349(14) 0.028(4) Uiso 1 1 d
H18B H 0.197(2) 0.1445(19) 1.0031(15) 0.032(4) Uiso 1 1 d
H18C H 0.414(2) 0.1999(18) 1.0111(14) 0.027(4) Uiso 1 1 d
loop_
_atom_site_aniso_label
_atom_site_aniso_U_11
_atom_site_aniso_U_22
_atom_site_aniso_U_33
_atom_site_aniso_U_23
_atom_site_aniso_U_13
_atom_site_aniso_U_12
O1 0.0137(4) 0.0291(4) 0.0226(4) 0.0018(3) 0.0020(3) 0.0011(3)
O2 0.0237(5) 0.0249(4) 0.0205(4) 0.0042(3) 0.0024(3) 0.0045(3)
N1 0.0133(5) 0.0245(5) 0.0212(5) 0.0034(4) 0.0025(4) 0.0005(4)
C2 0.0171(6) 0.0212(5) 0.0196(5) 0.0051(4) 0.0030(4) 0.0016(4)
C3 0.0162(6) 0.0206(5) 0.0190(5) 0.0042(4) 0.0021(4) 0.0008(4)
C4 0.0170(6) 0.0200(5) 0.0189(5) 0.0061(4) 0.0033(4) 0.0025(4)
C5 0.0153(6) 0.0226(6) 0.0222(6) 0.0046(4) 0.0019(4) 0.0013(4)
C6 0.0215(6) 0.0220(6) 0.0221(6) 0.0020(4) 0.0002(5) 0.0002(5)
C7 0.0252(7) 0.0229(6) 0.0204(6) 0.0024(5) 0.0052(5) 0.0039(5)
C8 0.0176(6) 0.0244(6) 0.0236(6) 0.0063(5) 0.0061(5) 0.0043(4)
C9 0.0157(6) 0.0200(5) 0.0201(5) 0.0057(4) 0.0021(4) 0.0011(4)
C10 0.0164(6) 0.0266(6) 0.0227(6) 0.0007(5) 0.0012(4) -0.0011(5)
C11 0.0158(6) 0.0194(5) 0.0194(5) 0.0057(4) 0.0026(4) 0.0003(4)
C12 0.0125(5) 0.0241(6) 0.0211(6) 0.0021(4) 0.0040(4) -0.0009(4)
C13 0.0131(6) 0.0237(6) 0.0236(6) 0.0022(5) 0.0038(4) 0.0005(4)
C14 0.0195(6) 0.0307(6) 0.0200(6) 0.0024(5) 0.0020(4) 0.0006(5)
C15 0.0217(6) 0.0291(6) 0.0241(6) -0.0041(5) 0.0041(5) -0.0002(5)
C16 0.0207(6) 0.0232(6) 0.0294(6) 0.0005(5) 0.0051(5) 0.0016(5)
C17 0.0167(6) 0.0258(6) 0.0238(6) 0.0046(5) 0.0038(4) 0.0008(4)
C18 0.0259(7) 0.0297(7) 0.0232(6) 0.0071(5) 0.0025(5) 0.0037(5)
loop_
_atom_type_symbol
_atom_type_description
_atom_type_scat_dispersion_real
_atom_type_scat_dispersion_imag
_atom_type_scat_source
C C 0.0181 0.0091 'International Tables Vol C Tables 4.2.6.8 and 6.1.1.4'
H H 0.0000 0.0000 'International Tables Vol C Tables 4.2.6.8 and 6.1.1.4'
N N 0.0311 0.0180 'International Tables Vol C Tables 4.2.6.8 and 6.1.1.4'
O O 0.0492 0.0322 'International Tables Vol C Tables 4.2.6.8 and 6.1.1.4'
loop_
_geom_angle_atom_site_label_1
_geom_angle_atom_site_label_2
_geom_angle_atom_site_label_3
_geom_angle
C13 O2 C18 116.70(9)
C2 N1 C9 110.43(10)
C2 N1 H1 123.1(11)
C9 N1 H1 126.1(11)
N1 C2 C3 109.08(10)
N1 C2 C10 118.87(10)
C3 C2 C10 132.04(11)
C2 C3 C11 128.44(11)
C2 C3 C4 106.25(10)
C11 C3 C4 125.25(10)
C5 C4 C9 118.85(11)
C5 C4 C3 134.46(11)
C9 C4 C3 106.66(10)
C6 C5 C4 118.50(11)
C6 C5 H5 121.2(8)
C4 C5 H5 120.3(8)
C5 C6 C7 121.42(11)
C5 C6 H6 119.4(9)
C7 C6 H6 119.2(9)
C8 C7 C6 121.45(12)
C8 C7 H7 117.7(9)
C6 C7 H7 120.8(9)
C7 C8 C9 116.61(11)
C7 C8 H8 120.9(8)
C9 C8 H8 122.4(9)
N1 C9 C8 129.28(11)
N1 C9 C4 107.57(10)
C8 C9 C4 123.15(11)
C2 C10 H10C 113.8(10)
C2 C10 H10A 110.2(10)
H10C C10 H10A 106.1(14)
C2 C10 H10B 111.0(11)
H10C C10 H10B 106.9(14)
H10A C10 H10B 108.6(14)
O1 C11 C3 120.94(11)
O1 C11 C12 117.54(10)
C3 C11 C12 121.47(10)
C17 C12 C13 118.92(11)
C17 C12 C11 118.13(10)
C13 C12 C11 122.86(10)
O2 C13 C14 123.69(11)
O2 C13 C12 116.30(10)
C14 C13 C12 120.00(11)
C13 C14 C15 119.98(11)
C13 C14 H14 119.5(9)
C15 C14 H14 120.5(9)
C16 C15 C14 120.63(12)
C16 C15 H15 121.2(9)
C14 C15 H15 118.1(9)
C15 C16 C17 119.31(12)
C15 C16 H16 119.1(9)
C17 C16 H16 121.6(9)
C12 C17 C16 121.12(11)
C12 C17 H17 119.1(9)
C16 C17 H17 119.8(9)
O2 C18 H18A 105.5(9)
O2 C18 H18B 110.9(9)
H18A C18 H18B 109.8(13)
O2 C18 H18C 111.9(9)
H18A C18 H18C 109.8(13)
H18B C18 H18C 108.8(13)
loop_
_geom_bond_atom_site_label_1
_geom_bond_atom_site_label_2
_geom_bond_distance
O1 C11 1.2394(14)
O2 C13 1.3717(15)
O2 C18 1.4288(14)
N1 C2 1.3507(16)
N1 C9 1.3863(15)
N1 H1 0.881(17)
C2 C3 1.4026(16)
C2 C10 1.4931(16)
C3 C11 1.4357(17)
C3 C4 1.4521(16)
C4 C5 1.4018(16)
C4 C9 1.4071(17)
C5 C6 1.3868(17)
C5 H5 0.956(16)
C6 C7 1.3973(18)
C6 H6 0.980(16)
C7 C8 1.3896(17)
C7 H7 0.970(15)
C8 C9 1.3916(17)
C8 H8 0.966(16)
C10 H10C 0.943(17)
C10 H10A 0.973(18)
C10 H10B 0.988(19)
C11 C12 1.5075(16)
C12 C17 1.3908(17)
C12 C13 1.4056(16)
C13 C14 1.3892(17)
C14 C15 1.3907(19)
C14 H14 0.971(16)
C15 C16 1.3835(18)
C15 H15 0.975(16)
C16 C17 1.3910(17)
C16 H16 0.983(15)
C17 H17 0.967(15)
C18 H18A 0.973(16)
C18 H18B 0.982(17)
C18 H18C 0.979(16)
loop_
_geom_torsion_atom_site_label_1
_geom_torsion_atom_site_label_2
_geom_torsion_atom_site_label_3
_geom_torsion_atom_site_label_4
_geom_torsion
C9 N1 C2 C3 -0.75(13)
C9 N1 C2 C10 179.70(10)
N1 C2 C3 C11 -176.87(11)
C10 C2 C3 C11 2.6(2)
N1 C2 C3 C4 0.46(12)
C10 C2 C3 C4 179.94(11)
C2 C3 C4 C5 177.81(12)
C11 C3 C4 C5 -4.7(2)
C2 C3 C4 C9 -0.02(12)
C11 C3 C4 C9 177.42(10)
C9 C4 C5 C6 -1.18(16)
C3 C4 C5 C6 -178.80(12)
C4 C5 C6 C7 0.48(17)
C5 C6 C7 C8 0.61(18)
C6 C7 C8 C9 -0.92(17)
C2 N1 C9 C8 -178.76(11)
C2 N1 C9 C4 0.72(12)
C7 C8 C9 N1 179.58(11)
C7 C8 C9 C4 0.18(17)
C5 C4 C9 N1 -178.64(9)
C3 C4 C9 N1 -0.41(12)
C5 C4 C9 C8 0.88(17)
C3 C4 C9 C8 179.11(10)
C2 C3 C11 O1 167.66(11)
C4 C3 C11 O1 -9.21(17)
C2 C3 C11 C12 -9.63(18)
C4 C3 C11 C12 173.51(10)
O1 C11 C12 C17 -62.70(14)
C3 C11 C12 C17 114.67(13)
O1 C11 C12 C13 113.63(13)
C3 C11 C12 C13 -68.99(15)
C18 O2 C13 C14 7.89(17)
C18 O2 C13 C12 -171.21(10)
C17 C12 C13 O2 177.40(10)
C11 C12 C13 O2 1.09(16)
C17 C12 C13 C14 -1.75(17)
C11 C12 C13 C14 -178.06(11)
O2 C13 C14 C15 -178.54(11)
C12 C13 C14 C15 0.54(19)
C13 C14 C15 C16 0.6(2)
C14 C15 C16 C17 -0.51(19)
C13 C12 C17 C16 1.86(18)
C11 C12 C17 C16 178.34(11)
C15 C16 C17 C12 -0.74(19)
