#------------------------------------------------------------------------------
#$Date: 2016-02-18 17:37:37 +0200 (Thu, 18 Feb 2016) $
#$Revision: 176729 $
#$URL: svn://www.crystallography.net/cod/cif/1/51/34/1513461.cif $
#------------------------------------------------------------------------------
#
# This file is available in the Crystallography Open Database (COD),
# http://www.crystallography.net/
#
# All data on this site have been placed in the public domain by the
# contributors.
#
data_1513461
loop_
_publ_author_name
'Yasu, Yusuke'
'Arai, Yusuke'
'Tomita, Ren'
'Koike, Takashi'
'Akita, Munetaka'
_publ_section_title
;
 Highly Regio- and Diastereoselective Synthesis of CF3-Substituted
 Lactones via Photoredox-Catalyzed Carbolactonization of Alkenoic Acids.
;
_journal_issue                   3
_journal_name_full               'Organic letters'
_journal_page_first              780
_journal_page_last               783
_journal_paper_doi               10.1021/ol403500y
_journal_volume                  16
_journal_year                    2014
_chemical_formula_sum            'C13 H9 F3 O2 S'
_chemical_formula_weight         286.26
_chemical_name_systematic
;
 ?
;
_space_group_crystal_system      triclinic
_space_group_IT_number           2
_space_group_name_Hall           '-P 1'
_space_group_name_H-M_alt        'P -1'
_symmetry_space_group_name_Hall  '-P 1'
_symmetry_space_group_name_H-M   'P -1'
_atom_sites_solution_hydrogens   geom
_audit_creation_method           SHELXL-2013
_cell_angle_alpha                74.729(5)
_cell_angle_beta                 80.666(5)
_cell_angle_gamma                79.881(5)
_cell_formula_units_Z            2
_cell_length_a                   5.119(2)
_cell_length_b                   8.730(3)
_cell_length_c                   14.233(6)
_cell_measurement_temperature    90(2)
_cell_volume                     599.5(4)
_computing_structure_refinement  'SHELXL-2013 (Sheldrick, 2013)'
_diffrn_ambient_temperature      90(2)
_diffrn_measured_fraction_theta_full 0.977
_diffrn_measured_fraction_theta_max 0.868
_diffrn_radiation_type           MoK\a
_diffrn_radiation_wavelength     0.71073
_diffrn_reflns_av_R_equivalents  0.0188
_diffrn_reflns_av_unetI/netI     0.0420
_diffrn_reflns_Laue_measured_fraction_full 0.977
_diffrn_reflns_Laue_measured_fraction_max 0.868
_diffrn_reflns_limit_h_max       6
_diffrn_reflns_limit_h_min       -6
_diffrn_reflns_limit_k_max       11
_diffrn_reflns_limit_k_min       -6
_diffrn_reflns_limit_l_max       18
_diffrn_reflns_limit_l_min       -19
_diffrn_reflns_number            3564
_diffrn_reflns_point_group_measured_fraction_full 0.977
_diffrn_reflns_point_group_measured_fraction_max 0.868
_diffrn_reflns_theta_full        25.242
_diffrn_reflns_theta_max         28.934
_diffrn_reflns_theta_min         1.494
_exptl_absorpt_coefficient_mu    0.302
_exptl_crystal_density_diffrn    1.586
_exptl_crystal_F_000             292
_exptl_crystal_size_max          0.200
_exptl_crystal_size_mid          0.100
_exptl_crystal_size_min          0.100
_refine_diff_density_max         0.579
_refine_diff_density_min         -0.290
_refine_diff_density_rms         0.076
_refine_ls_extinction_method     none
_refine_ls_goodness_of_fit_ref   1.100
_refine_ls_hydrogen_treatment    constr
_refine_ls_matrix_type           full
_refine_ls_number_parameters     172
_refine_ls_number_reflns         2745
_refine_ls_number_restraints     0
_refine_ls_restrained_S_all      1.100
_refine_ls_R_factor_all          0.0599
_refine_ls_R_factor_gt           0.0447
_refine_ls_shift/su_max          0.000
_refine_ls_shift/su_mean         0.000
_refine_ls_structure_factor_coef Fsqd
_refine_ls_weighting_details
;
 w=1/[\s^2^(Fo^2^)+(0.0320P)^2^+1.0842P]
 where P=(Fo^2^+2Fc^2^)/3
;
_refine_ls_weighting_scheme      calc
_refine_ls_wR_factor_gt          0.1175
_refine_ls_wR_factor_ref         0.1234
_reflns_Friedel_coverage         0.000
_reflns_number_gt                2188
_reflns_number_total             2745
_reflns_threshold_expression     'I > 2\s(I)'
_cod_data_source_file            ol403500y_si_002.cif
_cod_data_source_block           2421_0maa
_cod_original_cell_volume        599.6(4)
_cod_database_code               1513461
#BEGIN Tags that were not found in dictionaries:
_shelx_space_group_comment
;
The symmetry employed for this shelxl refinement is uniquely defined
by the following loop, which should always be used as a source of
symmetry information in preference to the above space-group names.
They are only intended as comments.
;
_shelx_estimated_absorpt_t_min   0.942
_shelx_estimated_absorpt_t_max   0.970
_shelxl_version_number           2013-2
_shelx_res_file
;
TITL 2421_0maa in P-1
CELL 0.71073   5.1190   8.7304  14.2330  74.729  80.666  79.881
ZERR    2.00   0.0020   0.0034   0.0056   0.005   0.005   0.005
LATT 1
SFAC C  H  O  F  S
UNIT 26  18  4  6  2
L.S. 32
ACTA
BOND $h
FMAP 2
PLAN 20
SIZE 0.2 0.1 0.1
TEMP -183.000
WGHT    0.032000    1.084200
FVAR       0.26875
MOLE 1
S1    5    0.505976    0.728841    0.457597    11.00000    0.02880    0.02087 =
         0.01866   -0.00033   -0.00116   -0.00728
O2    3    1.111407    1.067569    0.310485    11.00000    0.01525    0.01690 =
         0.02453   -0.00534   -0.00689   -0.00039
O1    3    1.123890    1.273999    0.373203    11.00000    0.02712    0.02320 =
         0.02485   -0.00516   -0.00678   -0.00847
C5    1    0.922394    1.255644    0.101640    11.00000    0.02143    0.02518 =
         0.01917    0.00010   -0.00442   -0.00360
C3    1    0.786274    1.182188    0.200532    11.00000    0.01224    0.01883 =
         0.01768   -0.00189   -0.00312   -0.00096
AFIX  13
H3    2    0.602494    1.164203    0.194787    11.00000   -1.20000
AFIX   0
C1    1    1.017255    1.215994    0.325179    11.00000    0.01533    0.01625 =
         0.01570   -0.00049    0.00143   -0.00479
C4    1    0.949490    1.022257    0.250387    11.00000    0.01423    0.01688 =
         0.01608   -0.00373   -0.00242    0.00004
AFIX  13
H4    2    1.067675    0.974204    0.199277    11.00000   -1.20000
AFIX   0
C2    1    0.772730    1.285172    0.272870    11.00000    0.01550    0.01618 =
         0.01904   -0.00212   -0.00100    0.00052
AFIX  23
H2A   2    0.779012    1.398999    0.238163    11.00000   -1.20000
H2B   2    0.607123    1.277252    0.319656    11.00000   -1.20000
AFIX   0
F1    4    0.782714    1.392722    0.058093    11.00000    0.03756    0.03057 =
         0.02668    0.00989   -0.00913   -0.00399
F2    4    1.167661    1.289043    0.106060    11.00000    0.02205    0.04159 =
         0.02618    0.00220    0.00189   -0.01330
F3    4    0.957853    1.157878    0.040465    11.00000    0.04694    0.04237 =
         0.01753   -0.00967    0.00179   -0.00866
C12   1    0.626247    0.822445    0.169627    11.00000    0.01846    0.02309 =
         0.02075   -0.00758   -0.00106   -0.00070
AFIX  43
H12   2    0.733420    0.888235    0.119896    11.00000   -1.20000
AFIX   0
C8    1    0.468271    0.718687    0.340406    11.00000    0.01863    0.01309 =
         0.02267   -0.00384   -0.00357    0.00267
C6    1    0.771559    0.904634    0.312036    11.00000    0.01306    0.01455 =
         0.02036   -0.00416   -0.00193    0.00176
C7    1    0.726401    0.867396    0.410662    11.00000    0.02026    0.01705 =
         0.02142   -0.00164   -0.00371   -0.00337
AFIX  43
H7    2    0.807460    0.912666    0.450529    11.00000   -1.20000
AFIX   0
C13   1    0.627055    0.819013    0.268385    11.00000    0.01331    0.01447 =
         0.02167   -0.00499   -0.00241    0.00174
C10   1    0.307014    0.633233    0.217348    11.00000    0.02016    0.01806 =
         0.03904   -0.01213   -0.00912    0.00051
AFIX  43
H10   2    0.197649    0.571543    0.198763    11.00000   -1.20000
AFIX   0
C9    1    0.304385    0.626652    0.315758    11.00000    0.01637    0.01503 =
         0.03497   -0.00517   -0.00195   -0.00164
AFIX  43
H9    2    0.194701    0.561663    0.364947    11.00000   -1.20000
AFIX   0
C11   1    0.467826    0.729090    0.144874    11.00000    0.02222    0.02410 =
         0.02721   -0.01195   -0.00839    0.00240
AFIX  43
H11   2    0.468574    0.730283    0.077896    11.00000   -1.20000
AFIX   0
HKLF 4

REM  2421_0maa in P-1
REM R1 =  0.0447 for    2188 Fo > 4sig(Fo)  and  0.0599 for all    2745 data
REM    172 parameters refined using      0 restraints

END

WGHT      0.0321      1.0903

REM Highest difference peak  0.579,  deepest hole -0.290,  1-sigma level  0.076
Q1    1   0.5089  0.7237  0.3959  11.00000  0.05    0.58
Q2    1   0.4714  0.7279  0.5288  11.00000  0.05    0.37
Q3    1   0.8485  1.1053  0.2249  11.00000  0.05    0.36
Q4    1   0.8549  1.2122  0.1543  11.00000  0.05    0.36
Q5    1   0.7670  1.2358  0.2315  11.00000  0.05    0.36
Q6    1   0.5575  0.7482  0.0672  11.00000  0.05    0.31
Q7    1   0.7359  0.9204  0.3562  11.00000  0.05    0.31
Q8    1   0.7160  0.8663  0.2876  11.00000  0.05    0.30
Q9    1   0.5090  0.7795  0.1641  11.00000  0.05    0.30
Q10   1   0.3745  0.6937  0.3201  11.00000  0.05    0.30
Q11   1   1.1110  1.0950  0.2369  11.00000  0.05    0.29
Q12   1   1.1428  1.2728  0.1894  11.00000  0.05    0.28
Q13   1   0.5640  0.7581  0.3053  11.00000  0.05    0.27
Q14   1   0.8587  0.9589  0.2813  11.00000  0.05    0.27
Q15   1   0.3620  0.7050  0.1815  11.00000  0.05    0.26
Q16   1   0.8990  1.2733  0.2830  11.00000  0.05    0.26
Q17   1   0.7662  0.7463  0.2236  11.00000  0.05    0.25
Q18   1   0.0875  0.5815  0.2547  11.00000  0.05    0.25
Q19   1   0.5030  0.6055  0.1976  11.00000  0.05    0.25
Q20   1   0.6152  0.8110  0.2231  11.00000  0.05    0.25
;
_shelx_res_checksum              43662
_shelx_hkl_file
;
  -1   0   0    7.92    0.18
  -2   0   0    1.06    0.07
   2   0   0    1.31    0.18
  -3   0   0   39.88    0.84
   3   0   0   39.81    1.24
  -4   0   0   19.06    0.44
   4   0   0   17.82    0.75
  -5   0   0    4.27    0.21
   5   0   0    3.62    0.42
   5  -1   0    9.43    0.66
  -5   1   0    9.38    0.30
   4  -1   0    3.41    0.37
  -4   1   0    3.55    0.18
   3  -1   0   24.92    0.85
  -3   1   0   23.84    0.54
   2  -1   0   34.07    1.06
  -2   1   0   35.20    0.73
   1  -1   0   55.04    1.53
  -1   1   0   52.73    1.57
  -1   1   0   52.83    1.10
   0   1   0   36.77    0.78
   0   1   0   35.65    1.11
  -1  -1   0   70.97    1.46
  -2  -1   0    6.49    0.17
  -3  -1   0    0.04    0.06
  -4  -1   0    0.00    0.07
   4   1   0    0.16    0.27
   4   1   0   -0.20    0.26
  -5  -1   0   21.62    0.50
   5   1   0   21.06    0.90
  -6   2   0    9.14    0.33
  -5   2   0    1.39    0.14
   4  -2   0    3.42    0.38
  -4   2   0    3.57    0.19
   3  -2   0    4.19    0.34
  -3   2   0    4.02    0.17
   2  -2   0  125.62    3.56
  -2   2   0  126.91    2.58
   1  -2   0  464.29   12.85
  -1   2   0  452.19    9.32
  -1   2   0  451.03   13.33
   0   2   0  665.20   14.62
   0   2   0  695.23   19.95
   1   2   0   38.79    0.80
   2   2   0    4.74    0.15
  -3  -2   0  107.39    2.22
   3   2   0  110.21    3.33
  -4  -2   0   11.85    0.30
   4   2   0   12.78    0.68
   5   2   0    0.40    0.32
   6   2   0    4.12    0.49
  -6   3   0    0.64    0.15
  -5   3   0    1.55    0.16
   4  -3   0    0.21    0.30
  -4   3   0    0.26    0.10
   3  -3   0   22.93    0.85
  -3   3   0   22.50    0.53
   2  -3   0    0.09    0.23
  -2   3   0    0.10    0.12
  -2   3   0    0.08    0.08
  -1   3   0   12.68    0.47
  -1   3   0   12.50    0.30
   0   3   0   20.05    0.73
   0   3   0   19.38    0.43
   1   3   0    0.55    0.06
   1   3   0    0.51    0.25
   2   3   0    0.77    0.32
   2   3   0    1.01    0.08
   3   3   0   43.72    0.94
   3   3   0   46.38    1.54
   4   3   0    0.55    0.35
   5   3   0   35.10    1.38
   6   3   0    2.48    0.45
  -5   4   0    3.25    0.21
   4  -4   0    0.03    0.34
  -4   4   0    0.40    0.13
   3  -4   0   43.30    1.43
  -3   4   0   44.33    0.96
  -2   4   0  309.27    6.40
  -1   4   0    5.10    0.18
  -1   4   0    4.84    0.34
   0   4   0   14.15    0.61
   0   4   0   13.99    0.33
   1   4   0   45.17    1.51
   2   4   0    5.96    0.18
   2   4   0    5.54    0.51
   3   4   0   36.47    1.36
   3   4   0   35.12    0.76
   4   4   0    7.65    0.67
   5   4   0    1.44    0.48
  -5   5   0    1.65    0.18
  -4   5   0    0.73    0.14
  -3   5   0   32.75    0.74
  -2   5   0    0.84    0.11
  -1   5   0   20.41    0.47
  -1   5   0   20.56    0.77
   0   5   0   10.92    0.29
   0   5   0   12.39    0.59
   1   5   0    0.16    0.32
   1   5   0   -0.01    0.07
   2   5   0   33.87    1.29
   2   5   0   33.46    0.72
   3   5   0   64.68    2.21
   4   5   0    1.83    0.52
   5   5   0   17.28    1.08
  -4   6   0    6.70    0.30
  -3   6   0   70.78    1.52
  -2   6   0    8.05    0.28
  -1   6   0    9.54    0.60
  -1   6   0    9.69    0.28
   0   6   0   45.73    1.03
   0   6   0   52.37    1.64
   1   6   0   35.14    1.32
   1   6   0   35.92    0.77
   2   6   0    0.07    0.08
   2   6   0    0.33    0.40
   3   6   0   12.08    0.81
   4   6   0    3.30    0.56
   5   6   0    4.36    0.64
   6   6   0    2.76    0.67
  -4   7   0    5.30    0.30
  -3   7   0    7.53    0.31
  -2   7   0    0.48    0.14
  -1   7   0    1.72    0.14
   0   7   0   53.52    1.27
   0   7   0   67.86    2.02
   1   7   0   12.28    0.80
   1   7   0   13.39    0.33
   2   7   0   31.50    1.34
   3   7   0   34.54    1.50
   4   7   0    3.61    0.66
   5   7   0   -0.18    0.57
  -3   8   0   -0.05    0.15
  -2   8   0    0.12    0.14
  -1   8   0    5.68    0.27
   0   8   0   12.67    0.85
   0   8   0    9.22    0.32
   1   8   0    0.20    0.10
   1   8   0    0.07    0.43
   2   8   0    2.39    0.50
   3   8   0    0.52    0.54
   4   8   0   11.55    1.10
   5   8   0    0.05    0.60
  -3   9   0    1.41    0.20
  -2   9   0    1.40    0.18
  -1   9   0    1.34    0.16
   0   9   0   52.93    1.15
   1   9   0   18.58    1.07
   2   9   0    1.49    0.57
   3   9   0   36.59    1.66
   4   9   0    1.56    0.64
  -2  10   0    4.41    0.30
  -1  10   0    0.73    0.16
   0  10   0    0.79    0.15
   1  10   0    0.64    0.54
   2  10   0    0.48    0.57
   3  10   0    3.33    0.69
  -1  11   0   12.65    0.44
   2  11   0    0.17    0.56
   3  10  -1    0.20    0.56
   2  10  -1    0.33    0.57
   1  10  -1   19.24    1.18
  -1  10  -1    1.76    0.19
  -2  10  -1    3.34    0.23
   4   9  -1   -0.02    0.56
   3   9  -1    2.75    0.68
   2   9  -1    9.72    0.89
   1   9  -1    4.77    0.63
   0   9  -1    0.07    0.13
  -1   9  -1    5.05    0.27
  -2   9  -1   15.09    0.46
   5   8  -1    0.96    0.68
   4   8  -1    0.26    0.62
   3   8  -1    0.14    0.56
   2   8  -1   34.16    1.50
   1   8  -1   38.21    1.53
   0   8  -1   -0.22    0.46
   0   8  -1    0.11    0.12
  -1   8  -1    6.06    0.27
  -2   8  -1    0.78    0.15
  -3   8  -1    0.64    0.15
   5   7  -1    0.24    0.59
   4   7  -1    1.38    0.53
   3   7  -1    3.90    0.63
   2   7  -1    3.35    0.51
   1   7  -1    0.53    0.10
   1   7  -1    0.66    0.37
   0   7  -1    0.55    0.11
   0   7  -1    0.15    0.42
  -1   7  -1   49.84    1.08
  -2   7  -1    0.89    0.13
  -3   7  -1    0.31    0.14
  -4   7  -1    8.40    0.36
   6   6  -1    3.02    0.68
   5   6  -1    0.81    0.57
   4   6  -1    5.86    0.64
   3   6  -1   38.74    1.52
   2   6  -1   60.92    2.07
   1   6  -1    2.27    0.42
   1   6  -1    2.68    0.14
   0   6  -1   21.21    0.49
   0   6  -1   20.71    0.93
  -1   6  -1   -0.53    0.28
  -1   6  -1    0.14    0.10
  -2   6  -1   21.51    0.53
  -3   6  -1    0.17    0.13
  -4   6  -1   14.45    0.44
   5   5  -1    1.30    0.53
   4   5  -1    1.82    0.52
   3   5  -1    1.85    0.48
   2   5  -1    8.75    0.64
   1   5  -1    0.96    0.08
   1   5  -1    0.73    0.32
   0   5  -1  118.99    3.72
   0   5  -1  126.79    2.52
  -1   5  -1   10.93    0.29
  -1   5  -1   10.86    0.56
  -2   5  -1    0.78    0.10
  -3   5  -1    4.99    0.22
  -4   5  -1    2.79    0.20
  -5   5  -1    4.59    0.28
   5   4  -1    0.19    0.45
   4   4  -1   99.31    3.19
   3   4  -1   17.37    0.84
   2   4  -1   29.05    1.11
   2   4  -1   29.32    0.62
   1   4  -1   15.48    0.70
   1   4  -1   15.10    0.34
   0   4  -1    9.95    0.25
   0   4  -1    9.52    0.55
  -1   4  -1   18.58    0.70
  -1   4  -1   18.32    0.42
  -2   4  -1   20.77    0.48
  -2   4  -1   21.04    0.74
  -3   4  -1    3.76    0.20
  -4   4  -1   13.03    0.37
  -5   4  -1    0.19    0.13
   6   3  -1   -0.17    0.37
   5   3  -1    6.22    0.57
   4   3  -1    8.86    0.68
   3   3  -1   23.60    0.51
   3   3  -1   23.40    0.99
   2   3  -1   -0.06    0.27
   2   3  -1   -0.15    0.05
   1   3  -1   56.94    1.80
   0   3  -1   41.73    1.39
   0   3  -1   45.11    0.90
  -1   3  -1  270.57    5.56
  -1   3  -1  271.50    7.94
  -2   3  -1    9.63    0.26
  -2   3  -1    9.99    0.41
  -3   3  -1   -0.03    0.08
   3  -3   1    0.27    0.25
  -4   3  -1    0.42    0.12
   4  -3   1    0.13    0.30
  -5   3  -1    1.90    0.17
  -6   3  -1    0.09    0.15
   6   2  -1   10.03    0.76
   5   2  -1   22.41    0.91
   4   2  -1   37.02    1.34
   3   2  -1    2.21    0.31
  -3  -2   1    2.54    0.11
   2   2  -1   64.47    1.31
   2   2  -1   63.33    2.01
   1   2  -1    2.94    0.09
   1   2  -1    2.57    0.27
   0   2  -1   14.17    0.31
   0   2  -1   14.24    0.56
  -1   2  -1   83.01    2.48
  -1   2  -1   84.86    1.74
  -2   2  -1   62.31    1.29
  -2   2  -1   62.36    1.85
   2  -2   1   61.27    1.81
  -3   2  -1    2.23    0.15
   3  -2   1    2.49    0.28
  -4   2  -1    3.45    0.20
   4  -2   1    4.29    0.37
  -5   2  -1   15.48    0.42
  -6   2  -1    1.77    0.17
   6   1  -1    2.05    0.43
   5   1  -1   11.24    0.69
   4   1  -1    0.40    0.26
   4   1  -1    0.12    0.24
  -4  -1   1    0.14    0.07
   3   1  -1    3.96    0.33
  -3  -1   1    3.89    0.14
   2   1  -1  104.86    3.13
  -2  -1   1  104.64    2.16
   1   1  -1  283.87    8.49
  -1  -1   1  285.81    5.77
   0   1  -1    4.68    0.27
   0   1  -1    4.51    0.11
  -1   1  -1  383.70   11.12
  -1   1  -1  369.05    7.73
   1  -1   1  384.59   10.56
  -2   1  -1   18.56    0.42
   2  -1   1   18.56    0.63
  -3   1  -1   13.95    0.35
   3  -1   1   14.67    0.57
  -4   1  -1    2.42    0.14
   4  -1   1    2.03    0.30
  -5   1  -1   -0.10    0.11
  -6   1  -1    0.39    0.13
   6   0  -1   35.45    1.40
   5   0  -1    2.52    0.39
  -5   0   1    3.40    0.20
   4   0  -1    3.14    0.34
  -4   0   1    3.08    0.15
   3   0  -1   33.89    1.13
   3   0  -1   34.88    1.12
  -3   0   1   34.75    0.74
   2   0  -1    0.97    0.19
   2   0  -1    1.27    0.18
  -2   0   1    0.86    0.07
   1   0  -1   42.71    1.26
  -1   0   1   40.70    0.85
   0   0  -1    1.18    0.12
  -1   0  -1  209.45    4.28
  -2   0  -1   66.41    1.34
   2   0   1   64.33    1.87
  -3   0  -1    0.52    0.08
   3   0   1    0.70    0.21
  -4   0  -1   10.98    0.31
   4   0   1   11.74    0.57
  -5   0  -1   36.54    0.80
   5   0   1   34.69    1.26
   5  -1  -1   30.00    1.18
  -5   1   1   30.11    0.69
   4  -1  -1    3.03    0.37
  -4   1   1    2.85    0.17
   3  -1  -1   12.85    0.59
   3  -1  -1   13.32    0.51
  -3   1   1   13.18    0.32
   2  -1  -1   45.79    1.43
   2  -1  -1   50.76    1.43
  -2   1   1   47.53    1.00
   1  -1  -1 1000.00   27.74
   0   1   1   15.14    0.32
  -1  -1  -1   72.60    1.51
  -2  -1  -1   60.16    1.23
  -3  -1  -1   28.23    0.61
  -4  -1  -1   12.07    0.30
   4   1   1   11.63    0.57
  -5  -1  -1    0.30    0.09
   5   1   1    0.46    0.30
   5  -2  -1    0.81    0.41
  -5   2   1    0.83    0.13
   4  -2  -1    2.04    0.36
  -4   2   1    2.27    0.15
   3  -2  -1   24.27    0.87
  -3   2   1   25.39    0.56
   2  -2  -1   10.85    0.47
  -2   2   1   10.91    0.27
   1  -2  -1   87.89    2.51
  -1   2   1   89.13    1.83
   0   2   1    0.29    0.06
   1   2   1   91.72    1.90
   2   2   1   19.40    0.43
  -3  -2  -1    4.40    0.15
  -4  -2  -1   13.96    0.34
  -5  -2  -1    3.41    0.19
   5   2   1    3.28    0.38
  -6   3   1    3.61    0.25
   5  -3  -1    0.75    0.41
  -5   3   1    0.77    0.14
   4  -3  -1    1.52    0.35
  -4   3   1    1.95    0.15
   3  -3  -1   24.67    0.93
  -3   3   1   25.48    0.57
   2  -3  -1  221.43    6.17
  -2   3   1  219.30    4.53
  -1   3   1   94.72    1.89
  -1   3   1   89.90    2.71
   0   3   1    0.26    0.06
   0   3   1    0.47    0.20
   1   3   1    5.90    0.17
   2   3   1   86.57    1.77
   3   3   1    6.89    0.20
   4   3   1    2.02    0.12
   4   3   1    1.30    0.42
   5   3   1   15.68    0.89
   6   3   1    0.25    0.35
  -5   4   1    1.20    0.15
   4  -4  -1    0.85    0.36
  -4   4   1    0.78    0.12
   3  -4  -1    0.89    0.33
  -3   4   1    0.66    0.11
  -2   4   1    0.34    0.10
  -1   4   1    4.33    0.32
  -1   4   1    4.60    0.18
   0   4   1   77.76    2.35
   0   4   1   76.66    1.59
   1   4   1   14.68    0.70
   1   4   1   15.08    0.35
   2   4   1   39.13    1.39
   2   4   1   40.22    0.84
   3   4   1   13.78    0.33
   3   4   1   13.08    0.75
   4   4   1   36.63    1.41
   5   4   1    0.71    0.46
  -5   5   1    1.30    0.17
  -4   5   1   22.92    0.58
  -3   5   1  101.86    2.13
  -2   5   1    0.74    0.11
  -1   5   1   44.25    1.40
  -1   5   1   43.64    0.94
   0   5   1    0.59    0.26
   0   5   1    0.38    0.07
   1   5   1   23.14    0.51
   1   5   1   22.52    0.94
   2   5   1   23.80    0.53
   2   5   1   23.57    0.99
   3   5   1    0.02    0.08
   3   5   1    0.24    0.37
   4   5   1   12.63    0.90
   5   5   1    5.47    0.66
   6   5   1    0.31    0.52
  -5   6   1    0.08    0.15
  -4   6   1    0.27    0.15
  -3   6   1    3.35    0.19
  -2   6   1    3.52    0.21
  -1   6   1   11.58    0.33
   0   6   1   10.22    0.59
   0   6   1   10.08    0.28
   1   6   1    2.07    0.38
   1   6   1    2.29    0.14
   2   6   1    2.11    0.44
   2   6   1    1.99    0.12
   3   6   1    4.00    0.52
   4   6   1    9.46    0.89
   5   6   1    7.71    0.79
   6   6   1    7.63    0.83
  -4   7   1   38.49    0.90
  -3   7   1    8.82    0.33
  -2   7   1   -0.07    0.12
  -1   7   1   15.27    0.41
   0   7   1    7.04    0.24
   0   7   1    6.92    0.61
   1   7   1   13.06    0.78
   1   7   1   13.16    0.34
   2   7   1    2.60    0.46
   3   7   1   10.05    0.89
   4   7   1    1.42    0.56
   5   7   1   11.50    0.99
  -3   8   1    0.53    0.16
  -2   8   1   -0.17    0.14
  -1   8   1    0.15    0.12
   0   8   1    4.47    0.23
   0   8   1    5.43    0.55
   1   8   1    3.17    0.50
   1   8   1    2.93    0.18
   2   8   1   44.10    1.71
   3   8   1    5.73    0.68
   4   8   1   -0.33    0.51
   5   8   1    1.94    0.69
  -3   9   1    8.08    0.33
  -2   9   1   -0.06    0.13
  -1   9   1   10.53    0.36
   0   9   1    2.45    0.18
   1   9   1    4.80    0.22
   1   9   1    4.59    0.57
   2   9   1    4.50    0.63
   3   9   1    2.91    0.64
   4   9   1    3.77    0.74
  -2  10   1    2.64    0.22
  -1  10   1   -0.03    0.15
   0  10   1    1.95    0.18
   1  10   1    8.49    0.75
   2  10   1   14.58    1.08
   3  10   1   22.63    1.34
  -1  11   1    0.24    0.16
   2  11   1    4.91    0.74
   2  10  -2    1.91    0.65
   1  10  -2    1.24    0.58
  -2  10  -2    2.85    0.24
   3   9  -2    5.19    0.71
   2   9  -2    0.02    0.56
   1   9  -2    0.66    0.54
  -1   9  -2    0.14    0.15
  -2   9  -2    6.35    0.31
   4   8  -2    4.86    0.72
   3   8  -2    6.80    0.79
   2   8  -2    0.75    0.52
   1   8  -2    2.56    0.57
   0   8  -2   26.87    1.22
   0   8  -2   27.02    0.63
  -1   8  -2    0.72    0.14
  -2   8  -2    9.81    0.35
  -3   8  -2    3.91    0.24
   5   7  -2    5.76    0.78
   4   7  -2    0.59    0.58
   3   7  -2    0.28    0.52
   2   7  -2   -0.16    0.46
   1   7  -2    1.80    0.49
   0   7  -2    4.70    0.54
   0   7  -2    4.22    0.21
  -1   7  -2    0.87    0.14
  -2   7  -2   11.75    0.35
  -3   7  -2    1.05    0.16
  -4   7  -2    0.58    0.17
   6   6  -2    9.09    0.96
   5   6  -2    0.44    0.54
   4   6  -2    8.68    0.84
   3   6  -2   10.10    0.90
   2   6  -2    0.33    0.39
   1   6  -2   33.99    0.72
   1   6  -2   32.86    1.33
   0   6  -2   28.20    0.63
   0   6  -2   28.17    1.14
  -1   6  -2    4.64    0.21
  -1   6  -2    5.13    0.45
  -2   6  -2   22.51    0.55
  -3   6  -2    0.12    0.13
  -4   6  -2    0.30    0.15
   5   5  -2    0.30    0.50
   4   5  -2    5.39    0.62
   3   5  -2    1.57    0.43
   2   5  -2    2.07    0.44
   1   5  -2   18.00    0.85
   1   5  -2   20.30    0.43
   0   5  -2   24.88    1.01
   0   5  -2   25.12    0.55
  -1   5  -2    8.55    0.25
  -1   5  -2    6.87    0.52
  -2   5  -2    2.44    0.16
  -3   5  -2    9.86    0.31
  -4   5  -2    3.18    0.21
  -5   5  -2    3.62    0.23
   6   4  -2    5.24    0.56
   5   4  -2   10.35    0.86
   4   4  -2    0.80    0.39
   3   4  -2   24.92    1.05
   2   4  -2    8.97    0.61
   1   4  -2  115.21    2.33
   1   4  -2  113.14    3.49
   0   4  -2    0.30    0.07
   0   4  -2    0.45    0.28
  -1   4  -2   58.27    1.83
  -1   4  -2   58.55    1.22
  -2   4  -2    0.67    0.22
  -2   4  -2    0.71    0.10
  -3   4  -2    0.12    0.10
  -4   4  -2    7.81    0.28
  -5   4  -2    0.45    0.15
   6   3  -2    1.14    0.44
   4   3  -2   14.59    0.82
   3   3  -2   -0.21    0.29
   2   3  -2    1.33    0.08
   2   3  -2    2.33    0.35
   1   3  -2    0.12    0.04
   1   3  -2   -0.02    0.24
   0   3  -2    0.27    0.22
   0   3  -2   -0.03    0.05
  -1   3  -2   60.00    1.85
  -1   3  -2   60.46    1.25
  -2   3  -2   62.80    1.91
  -2   3  -2   62.40    1.31
  -3   3  -2    0.11    0.10
   3  -3   2    0.16    0.22
  -4   3  -2   16.08    0.42
  -5   3  -2    6.79    0.27
  -6   3  -2    1.40    0.18
   6   2  -2    2.68    0.45
   5   2  -2   15.28    0.78
   4   2  -2   15.82    0.77
   3   2  -2   82.00    2.65
  -3  -2   2   88.00    1.74
   2   2  -2   71.23    2.20
   2   2  -2   69.37    1.43
   1   2  -2   13.14    0.58
   0   2  -2   40.56    0.83
   0   2  -2   39.80    1.29
  -1   2  -2   25.04    0.84
  -1   2  -2   24.88    0.53
  -2   2  -2   37.23    1.19
  -2   2  -2   37.92    0.80
   2  -2   2   38.34    1.15
  -3   2  -2    0.07    0.09
   3  -2   2    0.37    0.20
  -4   2  -2   15.71    0.41
  -5   2  -2   10.39    0.33
  -6   2  -2    4.03    0.23
   6   1  -2    5.92    0.56
   5   1  -2    2.57    0.40
   4   1  -2   22.20    0.88
   4   1  -2   23.14    0.87
  -4  -1   2   21.40    0.50
   3   1  -2    0.92    0.25
  -3  -1   2    1.29    0.08
   2   1  -2    8.92    0.45
  -2  -1   2    8.33    0.20
   1   1  -2   17.66    0.65
   0   1  -2    6.85    0.35
   0   1  -2    6.68    0.15
  -1   1  -2   15.12    0.55
  -1   1  -2   14.89    0.33
  -2   1  -2    8.98    0.25
   2  -1   2   11.16    0.39
  -3   1  -2    1.63    0.10
   3  -1   2    2.15    0.23
  -4   1  -2    7.02    0.24
   4  -1   2    7.11    0.48
  -5   1  -2    2.36    0.16
  -6   1  -2    0.56    0.14
   6   0  -2    1.48    0.46
   5   0  -2    4.12    0.49
   4   0  -2    0.28    0.29
  -4   0   2    0.07    0.08
   3   0  -2   83.45    2.45
   3   0  -2   82.79    2.52
  -3   0   2   84.19    1.71
   2   0  -2    5.93    0.33
   2   0  -2    5.88    0.35
  -2   0   2    5.70    0.16
   1   0  -2   37.14    1.15
   1   0  -2   37.62    1.10
  -1   0   2   36.92    0.76
   0   0  -2   90.87    2.64
   0   0  -2   98.18    2.81
   0   0   2   93.76    1.93
  -1   0  -2    1.73    0.19
  -1   0  -2    2.29    0.11
   1   0   2    2.50    0.14
  -2   0  -2  130.85    2.64
   2   0   2  124.47    3.55
  -3   0  -2   -0.06    0.08
   3   0   2   -0.07    0.16
  -4   0  -2   34.52    0.77
   4   0   2   35.88    1.15
  -5   0  -2    3.52    0.19
  -6   0  -2    3.68    0.23
   6  -1  -2    2.24    0.54
   5  -1  -2    2.39    0.44
  -5   1   2    2.11    0.15
   4  -1  -2   17.11    0.78
  -4   1   2   17.26    0.42
   3  -1  -2    0.27    0.26
  -3   1   2    0.68    0.08
   2  -1  -2    1.15    0.22
   2  -1  -2    0.70    0.13
  -2   1   2    1.22    0.08
   1  -1  -2   10.81    0.47
   1  -1  -2   11.52    0.38
  -1   1   2   11.03    0.25
   0  -1  -2  236.01    7.13
   0  -1  -2  252.02    6.81
   0   1   2  237.02    4.93
  -1  -1  -2   45.11    0.93
  -2  -1  -2   22.39    0.48
  -3  -1  -2  188.92    3.86
  -4  -1  -2    0.76    0.10
   4   1   2    0.37    0.22
  -5  -1  -2    5.82    0.22
   5   1   2    5.99    0.53
   5  -2  -2   14.32    0.79
  -5   2   2   15.83    0.42
   4  -2  -2    5.37    0.48
  -4   2   2    5.82    0.22
   3  -2  -2    0.54    0.28
  -3   2   2    0.50    0.09
   2  -2  -2   11.64    0.51
  -2   2   2   11.59    0.28
   1  -2  -2   51.19    1.51
  -1   2   2   50.92    1.05
   0   2   2    3.92    0.14
   1   2   2    7.67    0.20
   2   2   2   88.67    1.82
  -3  -2  -2    4.82    0.16
  -4  -2  -2    7.54    0.23
  -5  -2  -2    4.77    0.20
   5   2   2    3.56    0.38
   5  -3  -2    1.48    0.45
  -5   3   2    1.55    0.16
   4  -3  -2    0.39    0.32
  -4   3   2    0.09    0.11
   3  -3  -2   10.26    0.61
  -3   3   2    9.83    0.29
   2  -3  -2   -0.10    0.22
  -2   3   2    0.20    0.08
   1  -3  -2   92.67    2.66
  -1   3   2   90.01    2.70
  -1   3   2   94.07    1.89
   0   3   2    8.13    0.21
   1   3   2   24.48    0.53
   2   3   2   48.46    1.01
   3   3   2   71.37    1.48
   4   3   2   16.34    0.40
   5   3   2    0.89    0.47
   5  -4  -2    7.10    0.66
  -5   4   2    6.90    0.29
   4  -4  -2    2.43    0.44
  -4   4   2    2.27    0.16
   3  -4  -2   -0.01    0.31
  -3   4   2    0.30    0.11
   2  -4  -2   17.63    0.71
  -2   4   2   17.19    0.42
  -1   4   2    1.56    0.18
  -1   4   2    1.73    0.11
   0   4   2    1.91    0.11
   0   4   2    2.08    0.27
   1   4   2   40.88    0.86
   2   4   2    8.43    0.24
   3   4   2    5.68    0.20
   4   4   2    0.13    0.09
   5   4   2   15.12    0.98
  -5   5   2    0.45    0.14
   4  -5  -2   -0.13    0.39
  -4   5   2    0.10    0.14
  -3   5   2   10.99    0.33
  -2   5   2   16.55    0.42
  -1   5   2    0.24    0.19
  -1   5   2    0.72    0.11
   0   5   2    0.37    0.24
   0   5   2    0.30    0.08
   1   5   2  134.73    4.12
   1   5   2  138.23    2.79
   2   5   2   23.17    0.52
   3   5   2   22.97    1.07
   3   5   2   24.67    0.55
   4   5   2    3.30    0.56
   5   5   2    1.37    0.53
   6   5   2    5.90    0.71
  -5   6   2    0.65    0.17
  -4   6   2   11.14    0.38
  -3   6   2    0.64    0.14
  -2   6   2    8.12    0.28
  -1   6   2    8.43    0.27
   0   6   2    0.41    0.28
   0   6   2    0.49    0.10
   1   6   2   19.63    0.88
   1   6   2   19.02    0.45
   2   6   2    0.33    0.09
   2   6   2    0.39    0.36
   3   6   2    0.39    0.10
   3   6   2    0.50    0.40
   4   6   2    8.64    0.75
   5   6   2    0.51    0.52
   6   6   2    1.52    0.60
  -4   7   2    0.46    0.15
  -3   7   2    3.04    0.20
  -2   7   2   11.70    0.36
  -1   7   2   -0.07    0.12
   0   7   2   45.99    1.57
   0   7   2   45.73    0.99
   1   7   2   11.21    0.73
   1   7   2   11.34    0.31
   2   7   2    1.88    0.43
   3   7   2    3.63    0.58
   4   7   2   12.80    0.94
   5   7   2   16.05    1.17
   6   7   2    0.35    0.64
  -3   8   2    1.50    0.18
  -2   8   2    0.73    0.16
  -1   8   2    0.58    0.14
   0   8   2    0.20    0.12
   1   8   2    3.20    0.48
   1   8   2    2.75    0.16
   2   8   2    0.98    0.12
   2   8   2    0.64    0.48
   3   8   2    1.52    0.49
   4   8   2    0.61    0.57
   5   8   2    0.99    0.65
  -3   9   2    0.66    0.18
  -2   9   2    9.61    0.36
  -1   9   2    9.98    0.34
   0   9   2    2.74    0.18
   1   9   2   10.90    0.32
   1   9   2   10.97    0.84
   2   9   2   13.07    0.97
   3   9   2   -0.12    0.52
   4   9   2   20.11    1.33
  -2  10   2    3.12    0.23
  -1  10   2    0.26    0.14
   0  10   2    0.20    0.14
   1  10   2    0.78    0.14
   2  10   2    0.46    0.52
   3  10   2    6.33    0.76
  -1  11   2    0.68    0.19
   0  11   2    3.01    0.20
   2  11   2   13.20    1.08
   2  10  -3   11.28    1.13
   1  10  -3    1.71    0.55
   3   9  -3    1.26    0.65
   2   9  -3    1.65    0.60
   1   9  -3   -0.11    0.53
  -1   9  -3    0.58    0.16
  -2   9  -3   -0.06    0.16
   4   8  -3   12.79    1.18
   3   8  -3    7.54    0.80
   2   8  -3    8.59    0.78
   1   8  -3    4.03    0.64
   0   8  -3    3.09    0.55
  -1   8  -3   13.46    0.39
  -2   8  -3   15.68    0.45
  -3   8  -3    0.25    0.16
   5   7  -3    0.28    0.54
   4   7  -3    0.54    0.59
   3   7  -3    3.87    0.63
   2   7  -3    4.19    0.55
   1   7  -3    1.09    0.44
   0   7  -3    8.67    0.28
   0   7  -3    8.67    0.70
  -1   7  -3   15.31    0.41
  -2   7  -3    0.73    0.14
  -3   7  -3    0.55    0.15
  -4   7  -3    0.89    0.18
   5   6  -3    9.84    0.92
   4   6  -3   26.74    1.35
   3   6  -3   -0.11    0.48
   2   6  -3    3.73    0.51
   1   6  -3   34.60    1.34
   0   6  -3    2.36    0.44
   0   6  -3    2.06    0.13
  -1   6  -3   52.72    1.14
  -1   6  -3   54.28    1.81
  -2   6  -3    6.48    0.26
  -3   6  -3    2.34    0.18
  -4   6  -3    5.79    0.30
   5   5  -3    1.15    0.53
   4   5  -3    0.85    0.49
   3   5  -3    0.22    0.44
   2   5  -3   25.47    1.09
   1   5  -3    7.20    0.20
   1   5  -3    7.17    0.61
   0   5  -3   12.75    0.31
   0   5  -3   13.03    0.73
  -1   5  -3   33.83    0.74
  -1   5  -3   33.72    1.22
  -2   5  -3   10.05    0.30
  -3   5  -3    0.24    0.13
  -4   5  -3   -0.07    0.14
  -5   5  -3   -0.03    0.16
   6   4  -3   -0.06    0.37
   5   4  -3   10.27    0.88
   4   4  -3   23.97    1.15
   3   4  -3    4.10    0.52
   2   4  -3   15.07    0.81
   1   4  -3   83.86    1.66
   1   4  -3   79.03    2.56
   0   4  -3   59.26    1.93
   0   4  -3   60.79    1.24
  -1   4  -3    0.97    0.28
  -1   4  -3    0.61    0.09
  -2   4  -3   14.02    0.35
  -2   4  -3   13.55    0.62
  -3   4  -3   22.15    0.53
  -4   4  -3    3.36    0.22
  -5   4  -3    0.22    0.14
   6   3  -3    1.38    0.41
   4   3  -3   23.57    1.08
   2   3  -3    0.23    0.29
   1   3  -3   88.84    1.79
   1   3  -3   86.88    2.71
   0   3  -3    5.12    0.45
   0   3  -3    4.62    0.14
  -1   3  -3   66.11    1.35
  -1   3  -3   64.69    2.02
  -2   3  -3   45.02    1.45
  -2   3  -3   45.64    0.96
  -3   3  -3   22.59    0.53
  -4   3  -3    2.38    0.16
  -5   3  -3    0.64    0.13
  -6   3  -3    0.37    0.16
   6   2  -3    0.47    0.44
   5   2  -3    0.28    0.32
   4   2  -3   30.86    1.20
   3   2  -3    0.54    0.28
   2   2  -3    9.67    0.21
   2   2  -3    9.57    0.58
   0   2  -3    1.43    0.27
   0   2  -3    1.24    0.08
  -1   2  -3   13.10    0.56
  -1   2  -3   13.28    0.30
  -2   2  -3   97.23    2.00
  -2   2  -3   97.56    2.92
  -3   2  -3   45.31    0.97
   3  -2   3   44.66    1.36
  -4   2  -3   14.08    0.38
  -5   2  -3    3.11    0.19
  -6   2  -3    0.18    0.14
   6   1  -3    0.86    0.46
   5   1  -3    1.36    0.38
   4   1  -3   29.72    1.05
   3   1  -3    1.43    0.26
  -3  -1   3    1.00    0.07
   2   1  -3   31.72    1.10
  -2  -1   3   32.81    0.67
   1   1  -3  221.10    6.56
   0   1  -3   38.01    0.77
   0   1  -3   37.54    1.20
  -1   1  -3  136.53    2.89
  -1   1  -3  143.56    4.13
  -2   1  -3   16.76    0.63
  -2   1  -3   16.19    0.38
   2  -1   3   16.57    0.53
  -3   1  -3   12.88    0.33
   3  -1   3   13.19    0.50
  -4   1  -3   21.16    0.51
  -5   1  -3    0.08    0.12
  -6   1  -3    3.37    0.23
   6   0  -3    0.27    0.46
   5   0  -3    0.28    0.39
   4   0  -3   15.71    0.74
  -4   0   3   15.22    0.38
   3   0  -3   18.12    0.70
   3   0  -3   17.44    0.72
  -3   0   3   18.67    0.41
   2   0  -3    0.22    0.17
   2   0  -3   -0.08    0.18
  -2   0   3    0.12    0.05
   1   0  -3  165.08    4.91
   1   0  -3  163.36    4.72
  -1   0   3  168.03    3.37
   0   0  -3   41.01    1.16
   0   0  -3   39.63    1.26
   0   0   3   41.44    0.84
  -1   0  -3  154.07    3.16
  -1   0  -3  153.41    4.51
  -2   0  -3   12.01    0.29
   2   0   3   12.47    0.42
  -3   0  -3   10.74    0.28
  -4   0  -3    7.86    0.24
   4   0   3    7.01    0.42
  -5   0  -3    4.03    0.21
  -6   0  -3   13.49    0.39
   6  -1  -3    1.42    0.54
   5  -1  -3    1.14    0.42
   4  -1  -3   28.00    1.08
  -4   1   3   28.99    0.64
   3  -1  -3   14.67    0.65
  -3   1   3   13.44    0.33
   2  -1  -3   47.15    1.43
   2  -1  -3   47.31    1.41
  -2   1   3   45.47    0.97
   1  -1  -3   17.31    0.61
   1  -1  -3   16.37    0.57
  -1   1   3   16.98    0.37
   0  -1  -3    0.75    0.17
   0  -1  -3    0.74    0.17
   0   1   3    0.55    0.06
  -2  -1  -3   20.43    0.45
  -3  -1  -3    8.32    0.23
  -4  -1  -3   21.05    0.49
   4   1   3   21.77    0.76
  -5  -1  -3    9.06    0.28
  -6  -1  -3    1.24    0.14
   6  -2  -3   -0.32    0.46
   5  -2  -3   -0.07    0.40
   4  -2  -3    5.84    0.54
  -4   2   3    5.52    0.22
   3  -2  -3   28.62    1.05
  -3   2   3   29.75    0.64
   2  -2  -3   28.51    0.96
  -2   2   3   29.13    0.62
   1  -2  -3   12.09    0.51
  -1   2   3   12.68    0.29
   0   2   3  130.86    2.72
   1   2   3    9.68    0.24
   2   2   3   71.65    1.48
  -3  -2  -3   23.35    0.52
  -4  -2  -3    1.50    0.11
  -5  -2  -3   28.64    0.65
   5  -3  -3    3.30    0.54
  -5   3   3    2.62    0.17
   4  -3  -3   36.82    1.34
  -4   3   3   39.09    0.85
   2  -3  -3    0.14    0.26
  -2   3   3    0.20    0.08
   1  -3  -3   47.89    1.46
  -1   3   3   48.63    1.01
   0   3   3    4.63    0.16
   1   3   3   25.98    0.56
   2   3   3  115.96    2.37
   3   3   3    1.47    0.10
   4   3   3   49.31    1.06
   5  -4  -3    0.38    0.43
  -5   4   3    0.29    0.13
   4  -4  -3    0.11    0.41
  -4   4   3    0.36    0.11
   3  -4  -3    5.89    0.53
  -3   4   3    6.74    0.24
   2  -4  -3   25.65    0.94
  -2   4   3   26.18    0.58
  -1   4   3   66.67    1.40
  -1   4   3   68.52    2.02
   0   4   3    0.78    0.09
   1   4   3   96.24    1.98
   2   4   3    1.50    0.11
   3   4   3    7.68    0.24
   4   4   3   10.76    0.31
   5   4   3    1.04    0.14
   5  -5  -3    1.71    0.54
  -5   5   3    2.07    0.18
   4  -5  -3   22.89    1.09
  -4   5   3   26.16    0.62
   3  -5  -3   17.41    0.86
  -3   5   3   17.09    0.45
  -2   5   3   30.34    0.68
  -1   5   3   18.39    0.66
  -1   5   3   18.46    0.43
   0   5   3   20.49    0.80
   0   5   3   20.95    0.47
   1   5   3    6.63    0.22
   2   5   3   49.05    1.04
   3   5   3   19.74    0.48
   4   5   3    0.35    0.10
   5   5   3    3.32    0.62
   6   5   3   10.18    0.96
  -5   6   3    0.22    0.16
  -4   6   3    1.01    0.16
  -3   6   3    5.75    0.26
  -2   6   3   25.62    0.60
  -1   6   3   18.06    0.45
   0   6   3   18.49    0.45
   0   6   3   18.99    0.77
   1   6   3    7.40    0.61
   1   6   3    7.21    0.22
   2   6   3   17.72    0.43
   3   6   3    8.42    0.28
   4   6   3    1.11    0.54
   5   6   3    0.35    0.48
   6   6   3    0.93    0.59
  -4   7   3    0.53    0.17
  -3   7   3    0.28    0.15
  -2   7   3    4.06    0.21
  -1   7   3   30.50    0.70
   0   7   3    4.30    0.42
   0   7   3    4.62    0.19
   1   7   3    3.56    0.20
   1   7   3    3.88    0.45
   2   7   3   31.71    0.72
   2   7   3   33.02    1.32
   3   7   3    6.19    0.66
   3   7   3    5.59    0.24
   4   7   3    0.17    0.51
   5   7   3    6.08    0.76
   6   7   3    3.05    0.73
  -3   8   3    1.38    0.16
  -2   8   3    0.03    0.14
  -1   8   3   40.90    0.92
   0   8   3    0.37    0.11
   1   8   3    1.90    0.14
   1   8   3    2.36    0.45
   2   8   3    5.11    0.60
   3   8   3    2.17    0.55
   4   8   3    5.55    0.73
   5   8   3    2.91    0.69
  -3   9   3    1.38    0.20
  -2   9   3    1.53    0.18
  -1   9   3   14.25    0.42
   0   9   3    2.63    0.18
   1   9   3    3.23    0.52
   1   9   3    3.21    0.21
   2   9   3    7.73    0.71
   2   9   3    6.61    0.26
   3   9   3    3.57    0.65
   4   9   3    3.76    0.71
  -2  10   3    2.92    0.22
  -1  10   3    3.84    0.27
   0  10   3    2.65    0.19
   1  10   3   -0.03    0.13
   2  10   3    0.30    0.45
   3  10   3    4.85    0.71
   4  10   3    0.25    0.66
   0  11   3    0.72    0.16
   2  11   3    0.73    0.55
   3  11   3    3.50    0.70
   1  10  -4   -0.59    0.55
   3   9  -4    2.12    0.73
   2   9  -4   -0.29    0.51
   1   9  -4   -0.60    0.52
   0   9  -4    0.42    0.52
  -2   9  -4    0.62    0.16
   4   8  -4    9.23    0.88
   3   8  -4   14.71    1.10
   2   8  -4    1.81    0.61
   1   8  -4    1.90    0.51
   0   8  -4    9.17    0.87
  -1   8  -4    3.46    0.23
  -2   8  -4   -0.01    0.14
  -3   8  -4    1.04    0.18
   5   7  -4    4.74    0.77
   4   7  -4    1.05    0.61
   3   7  -4    7.87    0.74
   2   7  -4    0.55    0.53
   1   7  -4    0.85    0.50
   0   7  -4    8.57    0.81
  -1   7  -4    2.44    0.16
  -1   7  -4    2.54    0.47
  -2   7  -4    1.73    0.16
  -3   7  -4    5.42    0.28
  -4   7  -4    0.24    0.17
   5   6  -4   12.29    1.06
   4   6  -4    7.57    0.75
   3   6  -4    1.58    0.52
   2   6  -4    3.99    0.53
   1   6  -4   24.89    1.17
   0   6  -4    1.14    0.11
   0   6  -4    0.70    0.42
  -1   6  -4   17.86    0.44
  -1   6  -4   17.51    0.89
  -2   6  -4    4.50    0.23
  -3   6  -4   10.37    0.33
  -4   6  -4    2.03    0.20
   5   5  -4    4.75    0.65
   4   5  -4    0.14    0.43
   3   5  -4   19.39    0.99
   2   5  -4    2.74    0.49
   1   5  -4    0.40    0.40
   0   5  -4   50.41    1.04
   0   5  -4   48.52    1.68
  -1   5  -4    1.76    0.36
  -1   5  -4    1.45    0.12
  -2   5  -4    3.45    0.19
  -3   5  -4    2.86    0.18
  -4   5  -4    0.28    0.13
  -5   5  -4    0.74    0.18
   5   4  -4    5.63    0.61
   4   4  -4    1.98    0.49
   3   4  -4   12.54    0.84
   2   4  -4    9.22    0.65
   1   4  -4    0.11    0.34
   1   4  -4    0.13    0.05
   0   4  -4    1.69    0.35
   0   4  -4    1.40    0.08
  -1   4  -4   44.32    1.47
  -1   4  -4   42.91    0.92
  -2   4  -4    6.70    0.52
  -2   4  -4    6.52    0.22
  -3   4  -4    4.40    0.22
  -4   4  -4    7.48    0.29
  -5   4  -4    0.47    0.16
   6   3  -4   10.66    0.77
   5   3  -4    2.48    0.44
   4   3  -4    0.71    0.41
   3   3  -4   35.26    1.34
   2   3  -4   40.81    1.42
   1   3  -4    0.43    0.04
   1   3  -4    0.25    0.28
   0   3  -4   12.17    0.63
   0   3  -4   12.02    0.28
  -1   3  -4   34.43    0.73
  -1   3  -4   34.12    1.17
  -2   3  -4    6.11    0.20
  -2   3  -4    5.98    0.44
  -3   3  -4    1.13    0.12
  -4   3  -4    5.82    0.23
  -5   3  -4    2.31    0.17
   6   2  -4    0.36    0.46
   5   2  -4    0.61    0.34
   4   2  -4    2.08    0.40
   3   2  -4   25.60    1.02
   2   2  -4   44.50    1.50
   1   2  -4   27.87    1.02
   0   2  -4   25.48    0.53
   0   2  -4   24.68    0.90
  -1   2  -4  141.42    2.84
  -1   2  -4  134.08    4.09
  -2   2  -4   32.98    0.71
  -2   2  -4   32.89    1.10
  -3   2  -4    1.17    0.11
  -3   2  -4    0.67    0.24
  -4   2  -4   45.03    0.99
  -5   2  -4   11.82    0.37
  -6   2  -4    0.21    0.15
   6   1  -4    3.02    0.55
   5   1  -4    4.94    0.49
   4   1  -4    0.86    0.30
   3   1  -4   18.46    0.76
   2   1  -4  210.96    6.36
  -2  -1   4  220.57    4.39
   1   1  -4  249.88    7.32
   0   1  -4  320.25    9.39
   0   1  -4  324.02    6.55
  -1   1  -4   35.12    0.72
  -1   1  -4   32.95    1.12
  -2   1  -4    0.22    0.22
  -2   1  -4    0.67    0.09
  -3   1  -4    0.24    0.08
   3  -1   4    0.47    0.16
  -4   1  -4    3.19    0.18
  -5   1  -4    0.17    0.11
  -6   1  -4    0.89    0.16
   6   0  -4    2.79    0.53
   5   0  -4    0.74    0.37
   4   0  -4    5.51    0.50
   3   0  -4   23.77    0.88
   3   0  -4   25.38    0.88
  -3   0   4   24.15    0.53
   2   0  -4   -0.08    0.21
   2   0  -4    0.49    0.20
  -2   0   4   -0.05    0.05
   1   0  -4    1.46    0.21
   1   0  -4    1.62    0.23
  -1   0   4    1.32    0.07
   0   0  -4    1.55    0.24
   0   0  -4    1.95    0.16
   0   0   4    1.90    0.09
  -1   0  -4    7.54    0.45
  -1   0  -4    7.21    0.19
  -2   0  -4    3.70    0.14
  -2   0  -4    3.28    0.30
   2   0   4    3.63    0.20
  -3   0  -4    0.75    0.09
   3   0   4    0.25    0.15
  -4   0  -4    9.67    0.29
  -5   0  -4    4.01    0.20
  -6   0  -4    3.28    0.23
   6  -1  -4    3.36    0.54
   5  -1  -4    5.38    0.52
   4  -1  -4    8.84    0.59
  -4   1   4    9.43    0.27
   3  -1  -4   13.67    0.64
  -3   1   4   12.41    0.32
   2  -1  -4   40.73    1.26
   2  -1  -4   40.51    1.25
  -2   1   4   39.78    0.84
   1  -1  -4    3.36    0.30
   1  -1  -4    3.49    0.31
  -1   1   4    3.51    0.12
   0  -1  -4  190.00    5.30
   0  -1  -4  186.26    5.50
   0   1   4  182.17    3.84
  -1  -1  -4   27.83    0.94
   1   1   4   27.08    0.59
  -2  -1  -4    3.96    0.14
  -3  -1  -4    0.15    0.08
  -4  -1  -4    7.57    0.24
   4   1   4    8.32    0.43
  -5  -1  -4    1.98    0.14
  -6  -1  -4    0.57    0.13
   6  -2  -4    0.37    0.51
   5  -2  -4    0.17    0.38
   4  -2  -4    1.57    0.41
  -4   2   4    1.41    0.13
   3  -2  -4   17.72    0.76
  -3   2   4   17.63    0.42
   2  -2  -4    1.97    0.31
   2  -2  -4    2.34    0.21
  -2   2   4    2.21    0.12
   1  -2  -4    6.00    0.30
   1  -2  -4    5.68    0.37
  -1   2   4    5.87    0.17
   0  -2  -4   59.36    1.76
   0   2   4   62.38    1.26
   1   2   4    7.40    0.20
   2   2   4   32.72    0.70
  -3  -2  -4   56.22    1.18
  -4  -2  -4    3.21    0.17
  -5  -2  -4   13.85    0.37
  -6  -2  -4    0.38    0.13
   6  -3  -4    0.51    0.56
   5  -3  -4    7.53    0.68
   4  -3  -4   15.00    0.82
  -4   3   4   16.08    0.42
   3  -3  -4    1.69    0.33
  -3   3   4    1.82    0.12
   2  -3  -4   57.02    1.75
  -2   3   4   55.93    1.18
   1  -3  -4   34.84    1.12
  -1   3   4   35.27    0.75
   0   3   4    2.85    0.13
   1   3   4   18.47    0.42
   2   3   4    7.69    0.23
   3   3   4    0.62    0.10
   4   3   4   35.15    0.78
   5  -4  -4    8.93    0.85
  -5   4   4    8.91    0.32
  -4   4   4    4.66    0.24
   3  -4  -4   13.08    0.74
  -3   4   4   12.82    0.35
   2  -4  -4   -0.03    0.27
  -2   4   4    0.11    0.09
  -1   4   4    6.16    0.21
   0   4   4   35.09    0.75
   1   4   4   -0.02    0.09
   2   4   4    0.35    0.09
   3   4   4   32.49    0.72
   4   4   4   25.72    0.60
   5   4   4   -0.03    0.10
   5  -5  -4    4.13    0.63
  -5   5   4    4.54    0.27
   4  -5  -4    1.33    0.47
  -4   5   4    1.49    0.16
   3  -5  -4    1.55    0.44
  -3   5   4    1.83    0.15
  -2   5   4   22.96    0.53
  -1   5   4    6.71    0.22
   0   5   4    1.74    0.11
   1   5   4   14.24    0.36
   2   5   4    0.27    0.10
   3   5   4   21.87    0.52
   4   5   4   11.24    0.33
   6   5   4    2.19    0.63
  -5   6   4    1.65    0.18
  -4   6   4    1.75    0.18
  -3   6   4   12.77    0.38
  -2   6   4    3.97    0.22
  -1   6   4   10.24    0.30
   0   6   4   22.85    0.53
   0   6   4   24.08    0.90
   1   6   4   16.04    0.40
   2   6   4    0.04    0.10
   3   6   4    9.77    0.31
   4   6   4    7.57    0.28
   5   6   4   -0.04    0.50
   6   6   4    2.11    0.61
  -4   7   4    1.56    0.17
  -3   7   4    8.50    0.33
  -2   7   4    0.74    0.13
  -1   7   4    1.22    0.14
   0   7   4    0.38    0.11
   0   7   4    0.52    0.30
   1   7   4    2.57    0.42
   1   7   4    2.70    0.17
   2   7   4   25.84    1.17
   2   7   4   25.61    0.60
   3   7   4    0.53    0.45
   3   7   4    1.28    0.14
   4   7   4   33.35    1.54
   5   7   4    2.23    0.57
   6   7   4    1.77    0.66
  -3   8   4    1.57    0.17
  -2   8   4    7.93    0.31
  -1   8   4    3.10    0.21
   0   8   4   17.79    0.45
   1   8   4   18.34    0.96
   1   8   4   18.31    0.46
   2   8   4   23.40    1.13
   3   8   4    9.97    0.91
   3   8   4    9.65    0.33
   4   8   4    2.88    0.57
   5   8   4   -0.42    0.56
  -2   9   4    1.18    0.17
  -1   9   4    0.05    0.14
   0   9   4    3.33    0.23
   1   9   4    8.31    0.77
   1   9   4    8.16    0.30
   2   9   4    0.56    0.14
   2   9   4    1.03    0.51
   3   9   4    0.73    0.52
   4   9   4    9.13    0.87
  -2  10   4    2.34    0.21
  -1  10   4    1.38    0.18
   0  10   4    2.59    0.20
   1  10   4    0.68    0.14
   2  10   4   -0.04    0.51
   2  10   4    0.30    0.13
   3  10   4    5.13    0.72
   4  10   4    0.60    0.64
   0  11   4    2.59    0.19
   1  11   4    0.29    0.15
   2  11   4    2.77    0.62
   3  11   4    0.14    0.60
   1  10  -5    2.89    0.67
   2   9  -5    0.79    0.59
   1   9  -5    0.12    0.54
   0   9  -5    0.33    0.52
   3   8  -5    8.06    0.90
   2   8  -5    1.21    0.54
   1   8  -5    1.63    0.57
   0   8  -5    0.73    0.51
  -2   8  -5    0.26    0.14
  -3   8  -5    0.88    0.18
   4   7  -5    1.54    0.59
   3   7  -5    2.23    0.58
   2   7  -5   12.87    1.04
   1   7  -5    1.96    0.50
   0   7  -5    2.83    0.53
  -1   7  -5    2.88    0.50
  -1   7  -5    2.88    0.17
  -2   7  -5    4.01    0.24
  -3   7  -5    1.27    0.18
   5   6  -5    0.01    0.55
   4   6  -5    2.03    0.61
   3   6  -5    7.34    0.74
   2   6  -5    0.42    0.48
   1   6  -5    2.67    0.49
   0   6  -5   37.92    1.48
  -1   6  -5    2.96    0.18
  -1   6  -5    2.75    0.46
  -2   6  -5    0.33    0.12
  -3   6  -5    4.88    0.26
  -4   6  -5    4.01    0.25
   5   5  -5    1.11    0.53
   4   5  -5    3.05    0.54
   3   5  -5    0.98    0.50
   2   5  -5   22.14    1.05
   1   5  -5    0.39    0.39
   0   5  -5    0.27    0.07
   0   5  -5    0.39    0.38
  -1   5  -5   -0.07    0.09
  -1   5  -5   -0.24    0.33
  -2   5  -5    7.20    0.26
  -2   5  -5    7.26    0.63
  -3   5  -5    2.41    0.17
  -4   5  -5    1.23    0.17
  -5   5  -5    3.27    0.23
   4   4  -5    0.69    0.48
   3   4  -5   -0.17    0.41
   2   4  -5    1.43    0.43
   1   4  -5    0.33    0.32
   0   4  -5   33.89    0.71
   0   4  -5   33.65    1.23
  -1   4  -5    2.33    0.14
  -1   4  -5    2.27    0.35
  -2   4  -5   11.14    0.64
  -2   4  -5   11.21    0.31
  -3   4  -5    9.52    0.30
  -4   4  -5    1.57    0.16
  -5   4  -5   11.15    0.39
   5   3  -5    0.37    0.40
   4   3  -5   13.21    0.85
   3   3  -5    2.70    0.46
   2   3  -5   26.99    1.10
   1   3  -5   -0.19    0.27
   0   3  -5    2.03    0.10
   0   3  -5    1.83    0.35
  -1   3  -5    0.60    0.08
  -1   3  -5    0.32    0.26
  -2   3  -5    2.17    0.32
  -2   3  -5    2.36    0.15
  -3   3  -5    4.87    0.41
  -3   3  -5    4.90    0.21
  -4   3  -5    1.39    0.15
  -5   3  -5    0.03    0.14
   6   2  -5    1.39    0.51
   5   2  -5    1.81    0.45
   4   2  -5    0.55    0.37
   4   2  -5    0.28    0.33
   3   2  -5    2.14    0.38
   2   2  -5   59.16    1.92
   1   2  -5   28.66    1.06
   0   2  -5    4.85    0.43
   0   2  -5    4.51    0.13
  -1   2  -5   20.48    0.45
  -1   2  -5   21.13    0.83
  -2   2  -5   16.39    0.38
  -2   2  -5   15.83    0.71
  -3   2  -5    0.99    0.29
  -3   2  -5    1.24    0.11
  -4   2  -5   10.80    0.32
  -5   2  -5    5.31    0.27
  -6   2  -5    2.37    0.20
   6   1  -5    0.52    0.49
   5   1  -5    1.78    0.41
   4   1  -5    9.00    0.64
   3   1  -5    0.91    0.31
   3   1  -5    0.44    0.25
   2   1  -5    9.24    0.54
  -2  -1   5    8.80    0.19
   1   1  -5   17.57    0.73
   0   1  -5    0.15    0.26
   0   1  -5    0.08    0.04
  -1   1  -5    7.80    0.20
  -1   1  -5    8.11    0.46
  -2   1  -5   26.66    0.98
  -2   1  -5   27.93    0.60
  -3   1  -5   39.66    0.86
  -4   1  -5   36.29    0.81
  -5   1  -5   15.06    0.42
  -6   1  -5    5.40    0.28
   6   0  -5    0.35    0.48
   5   0  -5    4.89    0.51
   4   0  -5    0.41    0.34
   3   0  -5    0.86    0.25
   3   0  -5   -0.05    0.24
   2   0  -5   33.06    1.08
   2   0  -5   33.39    1.13
  -2   0   5   34.16    0.70
   1   0  -5  116.89    3.49
   1   0  -5  118.13    3.30
  -1   0   5  115.61    2.39
   0   0  -5   77.51    2.11
   0   0  -5   72.42    2.28
   0   0   5   74.35    1.53
  -1   0  -5   64.59    2.02
  -1   0  -5   65.42    1.34
  -2   0  -5   13.95    0.33
  -2   0  -5   13.29    0.63
  -3   0  -5   38.19    0.82
  -4   0  -5    1.30    0.13
  -5   0  -5   10.30    0.32
  -6   0  -5    0.18    0.12
   6  -1  -5    0.17    0.45
   5  -1  -5    1.37    0.42
   4  -1  -5   -0.37    0.34
   3  -1  -5   11.41    0.59
  -3   1   5   11.69    0.29
   2  -1  -5   -0.06    0.18
   2  -1  -5    0.19    0.24
  -2   1   5    0.05    0.05
   1  -1  -5   13.80    0.56
   1  -1  -5   14.01    0.54
  -1   1   5   13.49    0.30
   0  -1  -5    0.07    0.22
   0  -1  -5    0.16    0.17
   0   1   5    0.11    0.06
  -1  -1  -5   23.78    0.88
   1   1   5   24.60    0.53
  -2  -1  -5   34.67    0.74
  -3  -1  -5    0.64    0.08
  -4  -1  -5    3.23    0.18
  -5  -1  -5    6.60    0.25
  -6  -1  -5   14.05    0.40
   6  -2  -5    1.33    0.49
   5  -2  -5    0.73    0.47
   4  -2  -5   -0.41    0.33
  -4   2   5    0.00    0.09
   3  -2  -5    0.57    0.30
  -3   2   5    1.08    0.10
   2  -2  -5   16.24    0.69
   2  -2  -5   17.50    0.60
  -2   2   5   17.04    0.39
   1  -2  -5   11.66    0.48
   1  -2  -5   11.32    0.54
  -1   2   5   11.93    0.28
   0  -2  -5   13.43    0.52
   0  -2  -5   14.29    0.56
   0   2   5   13.94    0.32
   1   2   5    3.75    0.16
   2   2   5    0.40    0.09
  -3  -2  -5    8.58    0.24
  -4  -2  -5   12.06    0.32
  -5  -2  -5    1.58    0.13
  -6  -2  -5    8.39    0.30
   5  -3  -5    0.35    0.42
   4  -3  -5    2.50    0.45
  -4   3   5    2.55    0.16
   3  -3  -5    1.57    0.34
  -3   3   5    1.97    0.13
   2  -3  -5    8.06    0.56
  -2   3   5    7.05    0.22
   1  -3  -5   31.26    1.04
  -1   3   5   31.94    0.68
   0   3   5  219.75    4.53
   1   3   5   13.16    0.33
   2   3   5   25.53    0.57
   3   3   5   55.62    1.18
   4   3   5   12.36    0.35
   5   3   5    1.32    0.15
   6   3   5    4.48    0.24
   5  -4  -5    0.89    0.53
   4  -4  -5    1.91    0.48
  -4   4   5    1.07    0.14
   3  -4  -5   13.28    0.78
  -3   4   5   12.81    0.35
   2  -4  -5    3.57    0.39
  -2   4   5    3.40    0.16
   1  -4  -5    0.03    0.26
  -1   4   5    0.01    0.08
   0   4   5    1.54    0.11
   1   4   5   10.07    0.28
   2   4   5    0.37    0.11
   3   4   5    0.90    0.12
   4   4   5    6.15    0.24
   5   4   5    1.70    0.15
   5  -5  -5   -0.07    0.49
  -5   5   5   -0.26    0.13
   4  -5  -5    0.44    0.46
  -4   5   5    0.24    0.13
   3  -5  -5    6.31    0.60
  -3   5   5    6.58    0.26
   2  -5  -5    0.21    0.35
  -2   5   5    0.57    0.11
  -1   5   5    0.05    0.10
   0   5   5   76.92    1.60
   1   5   5    5.34    0.20
   2   5   5    5.09    0.22
   3   5   5   60.54    1.29
   4   5   5    5.70    0.24
   5   5   5    0.95    0.14
  -5   6   5   -0.08    0.14
  -4   6   5    0.92    0.16
  -3   6   5    0.13    0.14
  -2   6   5    0.74    0.12
  -1   6   5    2.25    0.16
   0   6   5   15.03    0.37
   1   6   5    3.35    0.19
   2   6   5    0.08    0.11
   3   6   5    5.66    0.25
   4   6   5   15.66    0.43
   6   6   5   -0.03    0.60
  -4   7   5    0.07    0.15
  -3   7   5   -0.13    0.14
  -2   7   5   13.31    0.39
  -1   7   5    2.81    0.17
   0   7   5    0.22    0.10
   0   7   5    0.62    0.31
   1   7   5   37.85    0.84
   2   7   5    1.78    0.15
   3   7   5   10.93    0.35
   4   7   5    3.73    0.25
   5   7   5    5.76    0.74
   6   7   5    5.69    0.78
  -3   8   5    2.93    0.22
  -2   8   5    0.00    0.14
  -1   8   5    0.30    0.14
   0   8   5    0.77    0.13
   1   8   5    8.78    0.30
   1   8   5    9.33    0.71
   2   8   5    0.06    0.11
   2   8   5    0.28    0.41
   3   8   5    5.59    0.27
   3   8   5    5.84    0.68
   4   8   5    5.51    0.68
   5   8   5    9.46    0.92
  -2   9   5    0.41    0.16
  -1   9   5    1.75    0.18
   0   9   5    1.70    0.16
   1   9   5   45.52    0.99
   1   9   5   43.25    1.65
   2   9   5    7.00    0.69
   3   9   5    8.32    0.32
   3   9   5    8.16    0.77
   4   9   5    4.86    0.73
  -1  10   5    0.72    0.16
   0  10   5    3.34    0.21
   1  10   5    0.20    0.14
   2  10   5    0.88    0.15
   2  10   5    1.19    0.54
   3  10   5    2.64    0.64
   4  10   5    0.73    0.63
   0  11   5    3.21    0.22
   1  11   5    1.13    0.17
   2  11   5    0.50    0.55
   2  11   5    0.31    0.16
   3  11   5    4.98    0.72
   2   9  -6    1.15    0.67
   1   9  -6    3.26    0.68
   0   9  -6    0.31    0.55
   3   8  -6    0.98    0.67
   2   8  -6   15.36    1.08
   1   8  -6    1.65    0.58
   0   8  -6    2.09    0.58
  -3   8  -6    2.44    0.21
   4   7  -6    7.09    0.85
   3   7  -6    3.54    0.69
   2   7  -6    3.27    0.59
   1   7  -6    0.03    0.50
   0   7  -6   19.37    1.10
  -1   7  -6    3.89    0.57
  -2   7  -6    1.04    0.15
  -3   7  -6    1.74    0.18
   5   6  -6    0.22    0.54
   4   6  -6    1.14    0.58
   3   6  -6    1.03    0.56
   2   6  -6   44.13    1.71
   1   6  -6    0.45    0.46
   0   6  -6    6.34    0.62
  -1   6  -6    9.78    0.80
  -1   6  -6    9.98    0.29
  -2   6  -6    8.19    0.29
  -3   6  -6    3.38    0.21
  -4   6  -6    0.76    0.17
   5   5  -6   16.75    1.13
   4   5  -6    0.27    0.52
   3   5  -6    0.23    0.49
   2   5  -6    0.19    0.40
   1   5  -6   56.41    1.96
   0   5  -6    0.42    0.36
  -1   5  -6   -0.26    0.37
  -1   5  -6   -0.07    0.08
  -2   5  -6    9.92    0.70
  -2   5  -6   10.45    0.31
  -3   5  -6    6.14    0.26
  -4   5  -6    4.54    0.26
   4   4  -6    3.22    0.54
   3   4  -6    0.05    0.44
   2   4  -6   12.74    0.77
   1   4  -6   14.30    0.77
   0   4  -6    6.04    0.55
   0   4  -6    6.32    0.18
  -1   4  -6   43.31    0.91
  -1   4  -6   41.97    1.51
  -2   4  -6    2.51    0.17
  -2   4  -6    2.62    0.39
  -3   4  -6    5.07    0.23
  -4   4  -6    8.86    0.31
  -5   4  -6    3.00    0.22
   5   3  -6   11.11    0.81
   4   3  -6    5.00    0.57
   3   3  -6    9.23    0.74
   2   3  -6   34.00    1.27
   1   3  -6   -0.04    0.29
   0   3  -6   17.12    0.38
   0   3  -6   17.36    0.82
  -1   3  -6    6.68    0.19
  -1   3  -6    7.32    0.56
  -2   3  -6   24.70    0.54
  -2   3  -6   22.79    0.95
  -3   3  -6    8.33    0.56
  -3   3  -6    7.72    0.26
  -4   3  -6    9.02    0.31
  -5   3  -6    0.09    0.13
   5   2  -6    2.68    0.46
   4   2  -6    5.49    0.53
   4   2  -6    4.63    0.45
   3   2  -6   11.25    0.72
   2   2  -6   24.91    1.01
   1   2  -6    7.29    0.52
   0   2  -6    0.38    0.31
   0   2  -6    0.75    0.05
  -1   2  -6   15.26    0.72
  -1   2  -6   14.76    0.34
  -2   2  -6   10.06    0.58
  -2   2  -6    9.52    0.25
  -3   2  -6   20.92    0.51
  -3   2  -6   22.42    0.88
  -4   2  -6    0.20    0.12
  -5   2  -6    0.55    0.13
  -6   2  -6    4.70    0.26
   5   1  -6    1.73    0.46
   4   1  -6    0.20    0.32
   3   1  -6   44.69    1.45
   3   1  -6   43.88    1.51
   2   1  -6   -0.12    0.26
   1   1  -6    5.90    0.49
  -1  -1   6    5.35    0.12
   0   1  -6  105.46    3.14
   0   1  -6  101.45    2.14
  -1   1  -6   11.48    0.27
  -1   1  -6   11.58    0.58
  -2   1  -6   37.38    1.27
  -2   1  -6   36.19    0.79
  -3   1  -6    9.59    0.27
  -3   1  -6    9.60    0.61
  -4   1  -6   26.45    0.62
  -5   1  -6   -0.05    0.13
  -6   1  -6    3.79    0.26
   5   0  -6    0.68    0.44
   4   0  -6    0.55    0.33
   3   0  -6    1.82    0.29
   3   0  -6    1.59    0.30
   2   0  -6    0.76    0.24
   2   0  -6    0.67    0.23
   1   0  -6   21.94    0.74
   1   0  -6   21.73    0.83
   0   0   6    4.46    0.14
  -1   0  -6    3.41    0.12
  -1   0  -6    3.34    0.16
  -1   0  -6    3.59    0.35
  -2   0  -6   52.82    1.71
  -2   0  -6   52.76    1.10
  -3   0  -6    0.06    0.08
  -4   0  -6    0.89    0.11
  -5   0  -6    0.09    0.11
  -6   0  -6    5.12    0.26
   5  -1  -6    5.60    0.61
   4  -1  -6    9.35    0.71
   3  -1  -6    0.20    0.28
   2  -1  -6   28.16    0.94
   2  -1  -6   26.87    0.93
  -2   1   6   26.43    0.57
   1  -1  -6   29.86    1.02
   1  -1  -6   28.97    0.95
  -1   1   6   30.39    0.63
   0  -1  -6   64.05    1.80
   0  -1  -6   59.83    1.93
   0   1   6   62.90    1.28
  -1  -1  -6   34.15    1.17
   1   1   6   33.41    0.72
  -2  -1  -6   63.42    1.31
  -3  -1  -6   14.02    0.35
  -4  -1  -6   15.00    0.38
  -5  -1  -6    3.11    0.21
  -6  -1  -6   16.31    0.46
   5  -2  -6    3.47    0.57
   4  -2  -6    4.64    0.50
   3  -2  -6    7.08    0.55
  -3   2   6    6.73    0.22
   2  -2  -6    6.17    0.38
   2  -2  -6    6.33    0.47
  -2   2   6    7.01    0.19
   1  -2  -6    2.64    0.29
   1  -2  -6    2.17    0.25
  -1   2   6    2.26    0.13
   0  -2  -6   11.94    0.49
   0  -2  -6   11.41    0.55
   0   2   6   11.33    0.29
   1   2   6    2.73    0.15
   2   2   6   12.58    0.32
  -3  -2  -6   22.25    0.51
  -4  -2  -6    1.88    0.12
  -5  -2  -6    4.49    0.22
  -6  -2  -6    2.06    0.17
   5  -3  -6   10.77    0.88
   4  -3  -6    1.87    0.45
  -4   3   6    1.57    0.15
   3  -3  -6    3.55    0.43
  -3   3   6    3.66    0.18
   2  -3  -6   53.97    1.69
  -2   3   6   52.65    1.12
   1  -3  -6   24.38    0.90
  -1   3   6   25.32    0.55
   0   3   6   10.49    0.28
   1   3   6  163.18    3.33
   2   3   6   15.22    0.38
   3   3   6   21.25    0.50
   4   3   6    0.51    0.12
   5   3   6   55.15    1.21
   6   3   6    2.27    0.20
   5  -4  -6    3.42    0.63
   4  -4  -6    0.92    0.48
  -4   4   6    1.10    0.14
   3  -4  -6    0.92    0.42
  -3   4   6    1.80    0.14
   2  -4  -6    1.94    0.35
  -2   4   6    2.08    0.13
   1  -4  -6   23.10    0.87
  -1   4   6   22.88    0.52
   0   4   6   13.01    0.33
   1   4   6    4.03    0.19
   2   4   6   51.88    1.11
   3   4   6    0.18    0.10
   4   4   6    3.52    0.22
   5   4   6    0.37    0.13
   6   4   6    0.15    0.14
   5  -5  -6    1.71    0.55
   4  -5  -6    1.83    0.53
  -4   5   6    1.78    0.17
   3  -5  -6   23.67    1.06
  -3   5   6   22.89    0.56
   2  -5  -6    5.04    0.47
  -2   5   6    4.62    0.22
  -1   5   6   36.02    0.79
   0   5   6    0.09    0.09
   1   5   6   69.65    1.46
   2   5   6   14.41    0.37
   3   5   6    3.31    0.19
   4   5   6   25.60    0.62
   5   5   6   17.54    0.48
   4  -6  -6   -0.16    0.49
  -4   6   6   -0.08    0.14
  -3   6   6    1.65    0.15
  -2   6   6    6.08    0.26
  -1   6   6    0.92    0.12
   0   6   6    0.66    0.12
   1   6   6    4.49    0.20
   2   6   6   23.73    0.57
   3   6   6    4.19    0.24
   4   6   6    0.29    0.13
   5   6   6    5.48    0.28
  -4   7   6    1.66    0.19
  -3   7   6    2.32    0.19
  -2   7   6    4.35    0.23
  -1   7   6   20.33    0.49
   0   7   6    1.37    0.14
   2   7   6    3.38    0.21
   3   7   6   33.03    0.77
   4   7   6    0.15    0.14
   6   7   6    9.60    1.06
  -3   8   6    1.42    0.19
  -2   8   6    1.14    0.17
  -1   8   6    0.14    0.12
   0   8   6   28.07    0.65
   1   8   6    0.82    0.14
   2   8   6   34.40    0.80
   3   8   6    0.44    0.15
   4   8   6    6.88    0.31
   5   8   6    8.12    0.85
  -2   9   6    1.74    0.19
  -1   9   6    1.69    0.17
   0   9   6    1.03    0.15
   1   9   6    3.17    0.49
   1   9   6    2.91    0.19
   2   9   6   17.44    1.04
   3   9   6    1.80    0.58
   3   9   6    1.28    0.17
   4   9   6    0.13    0.51
  -1  10   6    3.68    0.23
   0  10   6    9.93    0.35
   1  10   6    1.97    0.18
   2  10   6    6.84    0.70
   2  10   6    7.26    0.31
   3  10   6    5.97    0.68
   4  10   6    4.36    0.67
   0  11   6    0.81    0.16
   1  11   6    4.88    0.28
   2  11   6    0.20    0.14
   3  11   6    0.48    0.52
   1   9  -7    0.50    0.62
   0   9  -7    0.91    0.59
   2   8  -7    7.00    0.77
   1   8  -7    1.63    0.62
   0   8  -7   12.95    1.07
   3   7  -7   13.66    1.07
   2   7  -7   -0.29    0.56
   1   7  -7    7.96    0.79
   0   7  -7   11.55    0.97
  -1   7  -7    2.10    0.55
  -2   7  -7    0.72    0.14
  -3   7  -7    1.90    0.18
   4   6  -7   -0.55    0.54
   3   6  -7   16.53    1.15
   2   6  -7   -0.03    0.45
   1   6  -7    4.50    0.62
   0   6  -7   16.33    0.94
  -1   6  -7    1.64    0.49
  -2   6  -7    4.97    0.24
  -3   6  -7    2.42    0.19
  -4   6  -7    0.23    0.16
   5   5  -7    0.89    0.56
   4   5  -7   19.47    1.09
   3   5  -7   11.31    0.94
   2   5  -7    0.25    0.47
   1   5  -7    7.53    0.70
   0   5  -7   64.86    2.23
  -1   5  -7    3.50    0.51
  -1   5  -7    3.69    0.17
  -2   5  -7    0.02    0.10
  -2   5  -7   -0.35    0.38
  -3   5  -7   12.11    0.36
  -4   5  -7   23.38    0.59
   5   4  -7    1.65    0.48
   4   4  -7    1.77    0.52
   3   4  -7    0.93    0.48
   2   4  -7   -0.18    0.37
   1   4  -7    0.05    0.39
   0   4  -7   30.38    1.20
  -1   4  -7   17.58    0.41
  -1   4  -7   17.47    0.88
  -2   4  -7    5.42    0.49
  -2   4  -7    5.58    0.21
  -3   4  -7    0.59    0.13
  -4   4  -7    1.27    0.16
  -5   4  -7    6.30    0.30
   5   3  -7    1.63    0.47
   4   3  -7   10.39    0.81
   3   3  -7   18.43    0.98
   2   3  -7    1.44    0.42
   1   3  -7   17.23    0.83
   0   3  -7   38.78    0.81
   0   3  -7   38.53    1.39
  -1   3  -7    9.58    0.25
  -1   3  -7    9.45    0.61
  -2   3  -7   30.73    1.16
  -2   3  -7   31.58    0.69
  -3   3  -7   73.03    1.57
  -3   3  -7   76.51    2.41
  -4   3  -7   -0.10    0.11
  -5   3  -7    8.31    0.33
   5   2  -7    6.17    0.59
   4   2  -7    1.53    0.40
   3   2  -7    1.43    0.39
   2   2  -7   15.69    0.81
   1   2  -7   36.72    1.31
   0   2  -7   36.44    1.29
   0   2  -7   36.17    0.75
  -1   2  -7   17.08    0.38
  -1   2  -7   16.44    0.75
  -2   2  -7    0.34    0.08
  -2   2  -7    0.58    0.31
  -3   2  -7    0.57    0.11
  -3   2  -7    0.49    0.32
  -4   2  -7    0.61    0.13
  -5   2  -7    0.86    0.16
   5   1  -7    3.18    0.49
   4   1  -7    0.29    0.34
   3   1  -7   56.98    1.87
   3   1  -7   55.06    1.76
   2   1  -7   -0.23    0.23
   2   1  -7   -0.09    0.29
   1   1  -7   12.69    0.68
  -1  -1   7   13.17    0.28
   0   1  -7    4.48    0.40
   0  -1   7    4.42    0.15
  -1   1  -7   61.02    2.02
  -1   1  -7   64.77    1.77
  -1   1  -7   63.38    1.30
  -2   1  -7   67.75    1.41
  -2   1  -7   67.93    2.15
  -3   1  -7   11.50    0.66
  -3   1  -7   11.71    0.32
  -4   1  -7    1.93    0.15
  -5   1  -7    6.62    0.28
  -6   1  -7    0.24    0.13
   5   0  -7   -0.25    0.38
   4   0  -7   13.91    0.76
   3   0  -7    1.36    0.32
   3   0  -7    1.94    0.32
   2   0  -7    0.12    0.26
   2   0  -7    0.10    0.25
   1   0  -7   38.51    1.21
   1   0  -7   40.85    1.33
  -1   0   7   38.95    0.81
   0   0   7    4.52    0.15
  -1   0  -7    4.50    0.14
  -1   0  -7    4.26    0.21
  -1   0  -7    4.34    0.40
  -2   0  -7   12.95    0.31
  -2   0  -7   12.12    0.63
  -3   0  -7    1.85    0.12
  -4   0  -7   14.87    0.39
  -5   0  -7    3.80    0.23
  -6   0  -7    0.58    0.15
   5  -1  -7    7.20    0.68
   4  -1  -7    1.08    0.42
   3  -1  -7   23.47    0.95
   2  -1  -7   -0.08    0.26
   2  -1  -7    0.11    0.22
  -2   1   7    0.04    0.06
   1  -1  -7    2.59    0.29
   1  -1  -7    1.78    0.26
   0  -1  -7  132.93    3.94
   0  -1  -7  129.38    3.69
   0   1   7  131.92    2.68
  -1  -1  -7  112.31    3.46
   1   1   7  116.83    2.35
  -2  -1  -7    3.27    0.13
  -2  -1  -7    2.77    0.33
  -3  -1  -7   59.22    1.25
  -4  -1  -7    0.23    0.09
  -5  -1  -7   11.77    0.34
  -6  -1  -7    0.40    0.14
   5  -2  -7   -0.11    0.47
   4  -2  -7    2.51    0.45
   3  -2  -7    5.29    0.46
   2  -2  -7    0.45    0.28
   2  -2  -7    0.38    0.21
  -2   2   7    0.28    0.07
   1  -2  -7   38.13    1.24
   1  -2  -7   37.33    1.20
  -1   2   7   36.90    0.79
   0  -2  -7   69.62    2.03
   0  -2  -7   68.24    2.17
   0   2   7   71.63    1.45
  -1  -2  -7   10.17    0.58
   1   2   7   10.00    0.27
   2   2   7   45.66    0.97
  -4  -2  -7    2.85    0.17
  -5  -2  -7    7.63    0.28
  -6  -2  -7    1.18    0.14
   5  -3  -7   17.56    0.99
   4  -3  -7    3.58    0.48
   3  -3  -7   13.18    0.72
  -3   3   7   14.24    0.35
   2  -3  -7    0.38    0.27
  -2   3   7    0.16    0.09
   1  -3  -7   66.93    2.05
   1  -3  -7   64.60    2.00
  -1   3   7   68.25    1.39
   0  -3  -7  115.05    3.28
   0   3   7  114.27    2.35
   1   3   7   13.37    0.34
   2   3   7   26.25    0.60
   3   3   7   21.12    0.51
   4   3   7    0.13    0.11
   5   3   7    3.54    0.22
   6   3   7    1.12    0.17
   5  -4  -7    5.99    0.73
   4  -4  -7   26.73    1.22
   3  -4  -7    0.16    0.37
  -3   4   7    0.42    0.11
   2  -4  -7   10.39    0.63
  -2   4   7    9.87    0.29
   1  -4  -7   11.56    0.60
  -1   4   7   11.57    0.31
   0   4   7  101.04    2.09
   1   4   7    5.60    0.20
   2   4   7    0.09    0.11
   3   4   7   24.07    0.58
   4   4   7   12.51    0.37
   5   4   7    1.46    0.16
   6   4   7    0.41    0.15
   4  -5  -7    0.41    0.45
  -4   5   7   -0.08    0.13
   3  -5  -7    0.24    0.43
  -3   5   7   -0.08    0.11
   2  -5  -7   36.48    1.35
  -2   5   7   36.50    0.81
  -1   5   7    7.06    0.24
   0   5   7   10.24    0.29
   1   5   7    2.24    0.14
   2   5   7   14.60    0.38
   3   5   7    7.49    0.29
   4   5   7   -0.11    0.12
   5   5   7    1.05    0.17
   6   5   7    0.43    0.16
   4  -6  -7    9.76    0.92
  -4   6   7    8.88    0.34
   3  -6  -7    9.02    0.76
  -3   6   7    9.90    0.33
  -2   6   7    4.79    0.24
  -1   6   7   10.02    0.31
   0   6   7   34.98    0.78
   1   6   7    2.70    0.17
   2   6   7    6.58    0.25
   3   6   7   69.84    1.50
   4   6   7    0.77    0.15
   5   6   7    1.03    0.16
  -4   7   7    0.29    0.15
  -3   7   7    1.47    0.17
  -2   7   7   10.19    0.35
  -1   7   7    1.63    0.15
   0   7   7    5.87    0.25
   1   7   7   -0.11    0.10
   2   7   7   -0.02    0.13
   3   7   7    9.97    0.35
   4   7   7    2.66    0.20
   5   7   7    0.30    0.16
  -3   8   7    5.95    0.32
  -2   8   7    4.60    0.28
  -1   8   7    1.89    0.17
   0   8   7    8.51    0.29
   1   8   7    4.92    0.26
   2   8   7   26.20    0.64
   3   8   7    7.76    0.32
   4   8   7    3.48    0.23
  -2   9   7    0.58    0.17
  -1   9   7    1.84    0.19
   0   9   7    2.07    0.18
   1   9   7    1.81    0.18
   2   9   7   -0.16    0.13
   3   9   7   -0.06    0.14
   4   9   7    1.16    0.19
  -1  10   7    0.97    0.17
   0  10   7    7.20    0.31
   1  10   7   17.83    0.49
   2  10   7    1.37    0.18
   2  10   7    1.01    0.53
   3  10   7    3.17    0.65
   4  10   7    6.71    0.76
   0  11   7    1.86    0.20
   1  11   7    0.39    0.15
   2  11   7    3.38    0.23
   3  11   7    0.60    0.52
   3  11   7    0.16    0.19
   0   9  -8    2.20    0.67
   2   8  -8    3.62    0.77
   1   8  -8    1.88    0.59
   0   8  -8    3.10    0.67
   3   7  -8    4.94    0.78
   2   7  -8    2.90    0.68
   1   7  -8   14.66    1.13
   0   7  -8    0.36    0.54
  -1   7  -8   30.26    1.39
  -3   7  -8    0.03    0.14
   4   6  -8    0.62    0.60
   3   6  -8    0.78    0.54
   2   6  -8    0.24    0.54
   1   6  -8    0.08    0.53
   0   6  -8   -0.08    0.50
  -1   6  -8    8.38    0.85
  -2   6  -8   17.55    0.45
  -3   6  -8   -0.11    0.13
  -4   6  -8   -0.03    0.16
   4   5  -8    1.57    0.52
   3   5  -8    8.03    0.75
   2   5  -8   17.47    0.99
   1   5  -8   11.19    0.92
   0   5  -8    0.17    0.41
  -1   5  -8   47.50    1.75
  -2   5  -8    0.12    0.40
  -2   5  -8    0.24    0.10
  -3   5  -8    0.72    0.14
  -4   5  -8    2.02    0.18
   4   4  -8    3.82    0.60
   3   4  -8   -0.21    0.44
   2   4  -8    6.71    0.64
   1   4  -8    7.76    0.69
   0   4  -8   44.48    1.66
  -1   4  -8   11.21    0.29
  -1   4  -8   10.97    0.80
  -2   4  -8    7.43    0.67
  -2   4  -8    7.39    0.24
  -3   4  -8    0.05    0.10
  -4   4  -8    0.42    0.15
  -5   4  -8    1.78    0.20
   5   3  -8    3.43    0.51
   4   3  -8    1.29    0.43
   4   3  -8    1.27    0.46
   3   3  -8   29.08    1.26
   2   3  -8    0.28    0.40
   1   3  -8   60.17    2.03
   0   3  -8    3.88    0.45
  -1   3  -8   48.96    1.72
  -1   3  -8   49.17    1.03
  -2   3  -8    6.18    0.54
  -2   3  -8    5.65    0.21
  -3   3  -8    0.47    0.11
  -3   3  -8    0.43    0.36
  -4   3  -8   11.84    0.37
  -5   3  -8   11.39    0.39
   5   2  -8   -0.10    0.40
   4   2  -8    2.22    0.41
   3   2  -8   -0.21    0.32
   3   2  -8    0.11    0.37
   2   2  -8   49.36    1.73
   1   2  -8   54.09    1.85
   0   2  -8   12.62    0.69
   0   2  -8   13.11    0.29
  -1   2  -8   25.98    0.57
  -1   2  -8   26.86    1.07
  -2   2  -8   15.80    0.76
  -2   2  -8   16.06    0.39
  -3   2  -8    3.92    0.46
  -3   2  -8    3.83    0.18
  -4   2  -8    3.79    0.23
  -5   2  -8    1.25    0.15
   5   1  -8    1.72    0.50
   4   1  -8   13.50    0.77
   3   1  -8    2.37    0.39
   3   1  -8    2.51    0.36
   2   1  -8    6.90    0.48
   2   1  -8    6.47    0.59
   1   1  -8   48.83    1.68
   1   1  -8   50.28    1.50
   0   1  -8   -0.07    0.15
   0   1  -8   -0.14    0.32
   0  -1   8   -0.02    0.06
  -1   1  -8    6.38    0.52
  -1   1  -8    5.82    0.17
  -2   1  -8   15.06    0.74
  -2   1  -8   16.54    0.38
  -3   1  -8    0.54    0.09
  -3   1  -8    0.95    0.35
  -4   1  -8   22.02    0.54
  -5   1  -8   11.32    0.35
   5   0  -8    1.11    0.47
   4   0  -8   12.20    0.81
   3   0  -8    0.60    0.34
   2   0  -8    0.27    0.24
   2   0  -8    0.43    0.29
   1   0  -8   12.66    0.54
   1   0  -8   12.41    0.61
  -1   0   8   12.47    0.29
   0   0  -8   45.45    1.57
   0   0  -8   46.75    1.38
   0   0   8   47.55    0.97
  -1   0  -8   61.93    2.00
  -1   0  -8   62.15    1.75
  -2   0  -8    0.08    0.29
  -2   0  -8   -0.08    0.07
  -3   0  -8   -0.03    0.08
  -3   0  -8   -0.33    0.30
  -4   0  -8    7.27    0.26
  -5   0  -8   -0.06    0.12
  -6   0  -8    0.00    0.13
   5  -1  -8   -0.07    0.42
   4  -1  -8   12.05    0.76
   3  -1  -8    1.89    0.36
   2  -1  -8    1.32    0.31
   2  -1  -8    1.58    0.29
   1  -1  -8   24.67    0.93
   1  -1  -8   24.30    0.86
   0  -1  -8    4.86    0.50
   0  -1  -8    5.08    0.34
   0   1   8    5.31    0.18
  -1  -1  -8    6.91    0.55
   1   1   8    7.20    0.22
  -2  -1  -8   40.21    1.39
  -3  -1  -8   27.99    0.62
  -4  -1  -8    1.53    0.12
  -5  -1  -8   19.71    0.50
  -6  -1  -8   -0.27    0.13
   5  -2  -8    0.90    0.51
   4  -2  -8    7.65    0.70
   3  -2  -8    5.01    0.48
   2  -2  -8   -0.14    0.27
  -2   2   8    0.09    0.07
   1  -2  -8   81.32    2.39
   1  -2  -8   79.79    2.50
  -1   2   8   82.37    1.67
   0  -2  -8    9.93    0.47
   0  -2  -8    9.78    0.56
   0   2   8    9.47    0.26
  -1  -2  -8   29.76    1.08
   1   2   8   30.74    0.67
   2   2   8   11.10    0.31
   3   2   8    5.07    0.23
  -4  -2  -8   28.43    0.65
  -5  -2  -8    0.69    0.13
  -6  -2  -8   -0.04    0.14
   5  -3  -8    0.25    0.46
   4  -3  -8   17.34    0.91
   3  -3  -8    0.76    0.35
  -3   3   8    0.93    0.11
   2  -3  -8    4.71    0.42
  -2   3   8    3.87    0.17
   1  -3  -8   10.31    0.53
   1  -3  -8   10.54    0.58
  -1   3   8    9.70    0.27
   0  -3  -8    5.41    0.42
   0  -3  -8    5.28    0.44
   0   3   8    4.94    0.18
   1   3   8    1.06    0.11
   2   3   8   70.24    1.48
   3   3   8    6.90    0.26
   4   3   8    1.95    0.16
   5   3   8    2.11    0.17
   6   3   8    1.03    0.17
   4  -4  -8    0.20    0.43
   3  -4  -8    1.40    0.40
   2  -4  -8   30.99    1.18
  -2   4   8   30.01    0.68
   1  -4  -8   45.55    1.51
  -1   4   8   46.40    0.98
   0   4   8    8.32    0.26
   1   4   8   86.55    1.81
   2   4   8    2.60    0.16
   3   4   8    0.41    0.12
   4   4   8   17.53    0.46
   5   4   8    0.85    0.14
   6   4   8   -0.04    0.14
   4  -5  -8    7.66    0.73
   3  -5  -8    0.40    0.40
  -3   5   8    0.12    0.12
   2  -5  -8    7.21    0.62
  -2   5   8    7.62    0.26
  -1   5   8    2.22    0.15
   0   5   8    7.15    0.24
   1   5   8   20.23    0.50
   2   5   8    1.27    0.13
   3   5   8   29.87    0.71
   4   5   8    1.69    0.15
   5   5   8    0.06    0.15
   6   5   8    0.12    0.17
   4  -6  -8    0.17    0.48
  -4   6   8    0.11    0.15
   3  -6  -8   31.71    1.34
  -3   6   8   33.61    0.77
  -2   6   8    4.28    0.23
  -1   6   8    6.03    0.23
   0   6   8    9.45    0.29
   1   6   8    4.62    0.22
   2   6   8   35.19    0.80
   3   6   8    9.46    0.32
   4   6   8   28.84    0.70
   5   6   8    0.42    0.16
   6   6   8    0.36    0.16
  -4   7   8    0.56    0.16
  -3   7   8    0.04    0.14
  -2   7   8    6.68    0.29
  -1   7   8    1.38    0.14
   0   7   8   24.01    0.58
   1   7   8    3.50    0.21
   2   7   8   -0.14    0.12
   3   7   8    1.52    0.17
   4   7   8    0.84    0.17
   5   7   8   -0.04    0.16
  -3   8   8    2.71    0.21
  -2   8   8    0.19    0.16
  -1   8   8   11.20    0.36
   0   8   8    3.61    0.23
   1   8   8    1.86    0.15
   2   8   8   15.42    0.43
   3   8   8    0.81    0.16
   4   8   8    9.10    0.37
   5   8   8    3.60    0.24
  -2   9   8    0.07    0.16
  -1   9   8    1.31    0.18
   0   9   8    0.01    0.13
   1   9   8    4.06    0.27
   2   9   8    0.06    0.14
   3   9   8    0.14    0.15
   4   9   8    0.34    0.17
  -1  10   8    4.34    0.29
   0  10   8    2.84    0.20
   1  10   8   -0.03    0.13
   2  10   8    6.97    0.74
   3  10   8   -0.04    0.57
   3  10   8    0.16    0.16
   4  10   8    5.13    0.32
   4  10   8    5.73    0.80
   1  11   8    3.79    0.25
   2  11   8   -0.21    0.15
   3  11   8    0.20    0.17
   3  11   8    0.64    0.57
   1   8  -9    0.65    0.66
   0   8  -9    0.04    0.58
   2   7  -9   11.98    1.21
   1   7  -9    0.68    0.62
   0   7  -9    0.11    0.57
  -1   7  -9   17.36    1.11
   3   6  -9   17.14    1.22
   2   6  -9    2.48    0.68
   1   6  -9    0.00    0.49
   0   6  -9    4.98    0.67
  -1   6  -9    3.07    0.59
  -3   6  -9    0.63    0.15
   4   5  -9    3.60    0.66
   3   5  -9   12.05    1.02
   2   5  -9   -0.17    0.52
   1   5  -9    1.85    0.58
   0   5  -9   39.06    1.60
  -1   5  -9   25.76    1.19
  -2   5  -9   22.07    1.08
  -2   5  -9   20.08    0.50
  -3   5  -9    4.92    0.25
  -4   5  -9    0.16    0.14
   4   4  -9    9.94    0.92
   3   4  -9    1.01    0.49
   2   4  -9    1.34    0.46
   1   4  -9    3.58    0.58
   0   4  -9   12.34    0.89
  -1   4  -9    5.40    0.54
  -2   4  -9   -0.16    0.40
  -2   4  -9    0.20    0.10
  -3   4  -9    5.05    0.24
  -4   4  -9   -0.01    0.14
   4   3  -9    4.29    0.54
   4   3  -9    4.80    0.60
   2   3  -9    5.59    0.59
   1   3  -9   52.40    1.85
   0   3  -9   55.71    1.92
  -1   3  -9    5.75    0.19
  -1   3  -9    5.58    0.55
  -2   3  -9   18.69    0.45
  -2   3  -9   18.59    0.90
  -4   3  -9    6.97    0.29
  -5   3  -9    0.35    0.16
   5   2  -9   -0.06    0.42
   4   2  -9    8.34    0.68
   3   2  -9    0.22    0.35
   3   2  -9   -0.06    0.38
   2   2  -9   11.80    0.80
   1   2  -9    2.61    0.42
   0   2  -9    5.70    0.53
  -1   2  -9    0.83    0.40
  -1   2  -9    0.34    0.07
  -2   2  -9    0.34    0.37
  -2   2  -9   -0.12    0.08
  -3   2  -9   26.89    1.12
  -3   2  -9   26.37    0.61
  -4   2  -9    4.59    0.22
  -5   2  -9    4.65    0.27
   5   1  -9    0.26    0.43
   4   1  -9    0.41    0.38
   3   1  -9    0.16    0.36
   3   1  -9    0.59    0.32
   2   1  -9   87.12    2.56
   2   1  -9   84.60    2.75
   1   1  -9   22.72    0.80
   1   1  -9   22.80    0.99
   0   1  -9    8.82    0.61
   0   1  -9    8.97    0.40
   0  -1   9    9.23    0.24
  -1   1  -9   27.41    1.09
  -1   1  -9   25.28    0.57
  -2   1  -9    0.37    0.36
  -2   1  -9    0.09    0.08
  -3   1  -9   11.17    0.73
  -3   1  -9   11.37    0.32
  -4   1  -9    2.21    0.15
  -5   1  -9    6.23    0.28
   5   0  -9    2.54    0.51
   4   0  -9   -0.12    0.36
   3   0  -9   31.11    1.15
   2   0  -9    5.53    0.48
   2   0  -9    4.98    0.45
   1   0  -9    2.18    0.37
   1   0  -9    1.32    0.24
   0   0  -9    8.52    0.62
   0   0  -9    7.48    0.39
   0   0   9    7.95    0.22
  -1   0  -9    5.03    0.51
   1   0   9    5.40    0.20
  -2   0  -9   18.43    0.84
  -2   0  -9   18.27    0.43
  -4   0  -9   25.18    0.60
  -5   0  -9   12.66    0.39
  -6   0  -9    5.55    0.29
   5  -1  -9    1.48    0.55
   4  -1  -9    0.14    0.39
   3  -1  -9   77.54    2.41
   2  -1  -9    9.36    0.58
   2  -1  -9    9.29    0.54
   1  -1  -9    1.66    0.31
   1  -1  -9    2.26    0.29
  -1   1   9    1.82    0.12
   0  -1  -9    3.30    0.39
   0  -1  -9    3.03    0.26
   0   1   9    2.97    0.15
  -1  -1  -9   15.13    0.51
  -1  -1  -9   13.97    0.71
   1   1   9   14.68    0.36
  -2  -1  -9    2.12    0.36
   2   1   9    2.56    0.15
  -3  -1  -9    0.09    0.08
  -4  -1  -9   27.40    0.63
  -5  -1  -9    0.82    0.12
  -6  -1  -9    0.12    0.14
   5  -2  -9    0.91    0.52
   4  -2  -9    8.12    0.73
   3  -2  -9    3.08    0.44
   2  -2  -9   30.25    1.10
   1  -2  -9    2.32    0.32
   1  -2  -9    1.82    0.28
   0  -2  -9   18.53    0.68
   0  -2  -9   17.41    0.78
   0   2   9   17.59    0.42
  -1  -2  -9   28.92    1.10
   1   2   9   28.39    0.64
   2   2   9    7.23    0.24
   3   2   9   18.44    0.47
  -5  -2  -9    0.90    0.14
   4  -3  -9   17.17    0.99
   3  -3  -9   17.01    0.84
   2  -3  -9    0.28    0.30
  -2   3   9    0.22    0.08
   1  -3  -9    0.14    0.25
   1  -3  -9    0.27    0.26
  -1   3   9    0.18    0.09
   0  -3  -9   -0.13    0.24
   0  -3  -9    0.11    0.26
   0   3   9    0.09    0.09
   1   3   9   11.75    0.33
   2   3   9    2.71    0.17
   3   3   9    5.18    0.24
   4   3   9   26.59    0.64
   5   3   9   -0.02    0.13
   6   3   9    0.02    0.15
   4  -4  -9    0.55    0.46
   3  -4  -9    2.11    0.45
   2  -4  -9   24.83    1.02
  -2   4   9   25.48    0.58
   1  -4  -9    0.38    0.30
  -1   4   9    0.23    0.11
   0   4   9   28.07    0.63
   1   4   9   13.94    0.37
   2   4   9   59.11    1.27
   3   4   9   26.63    0.64
   4   4   9    7.67    0.31
   5   4   9    0.06    0.14
   6   4   9    3.13    0.23
   4  -5  -9    0.08    0.47
   3  -5  -9   -0.37    0.40
  -3   5   9   -0.18    0.11
   2  -5  -9    0.58    0.38
  -2   5   9    0.14    0.12
  -1   5   9    2.37    0.15
   0   5   9    1.02    0.12
   1   5   9    0.31    0.12
   2   5   9   12.46    0.36
   3   5   9   15.20    0.44
   4   5   9   13.21    0.41
   5   5   9    1.22    0.17
   6   5   9    0.14    0.17
   4  -6  -9    1.01    0.53
   3  -6  -9    0.25    0.49
  -3   6   9    0.38    0.14
  -2   6   9   14.57    0.41
  -1   6   9    3.20    0.21
   0   6   9   19.71    0.49
   1   6   9   42.55    0.94
   2   6   9   44.11    0.98
   3   6   9    1.02    0.16
   4   6   9    0.97    0.17
   5   6   9    4.30    0.29
   6   6   9    1.64    0.20
  -4   7   9    0.84    0.17
  -3   7   9    1.36    0.18
  -2   7   9    0.08    0.13
  -1   7   9    3.85    0.24
   0   7   9    1.47    0.16
   1   7   9    9.23    0.32
   2   7   9   12.31    0.39
   3   7   9   16.65    0.48
   4   7   9    8.47    0.35
   5   7   9    0.60    0.17
   6   7   9   15.79    0.53
  -2   8   9    2.75    0.19
  -1   8   9   16.88    0.47
   0   8   9    6.38    0.26
   2   8   9   -0.03    0.14
   3   8   9    1.60    0.19
   4   8   9    4.81    0.31
   5   8   9    2.77    0.23
  -2   9   9    2.12    0.21
  -1   9   9    0.25    0.15
   0   9   9    2.26    0.19
   1   9   9    1.55    0.19
   2   9   9    0.17    0.15
   3   9   9    0.56    0.17
   4   9   9    0.25    0.18
   5   9   9    8.96    0.40
  -1  10   9    6.88    0.30
   0  10   9    7.42    0.33
   1  10   9    0.40    0.15
   2  10   9   -0.08    0.17
   3  10   9    1.17    0.20
   4  10   9    3.30    0.25
   1  11   9    6.10    0.33
   2  11   9    0.88    0.19
   3  11   9    1.39    0.63
   2   7 -10   22.95    1.39
   1   7 -10    4.98    0.80
   0   7 -10    1.15    0.55
  -1   7 -10    0.51    0.57
   3   6 -10    5.75    0.82
   2   6 -10    0.97    0.64
   1   6 -10    0.47    0.61
   0   6 -10    1.56    0.57
  -1   6 -10   11.53    1.00
  -2   6 -10    3.60    0.61
   4   5 -10   14.78    1.15
   3   5 -10    1.97    0.61
   2   5 -10    3.21    0.65
   1   5 -10    9.25    0.89
   0   5 -10   -0.08    0.45
  -1   5 -10   21.08    1.17
  -2   5 -10    7.55    0.70
  -3   5 -10    0.65    0.14
  -4   5 -10    0.76    0.16
   4   4 -10    5.55    0.61
   4   4 -10    3.11    0.62
   3   4 -10    1.00    0.54
   2   4 -10    6.43    0.71
   1   4 -10    1.81    0.51
   0   4 -10   18.56    1.08
  -1   4 -10   38.78    1.57
  -2   4 -10    2.09    0.14
  -2   4 -10    1.78    0.47
  -3   4 -10    0.04    0.12
  -3   4 -10    0.40    0.43
  -4   4 -10    4.98    0.27
   4   3 -10   22.90    1.04
   3   3 -10    0.57    0.38
   3   3 -10    0.02    0.47
   2   3 -10    0.21    0.46
   1   3 -10    7.89    0.68
   0   3 -10   10.57    0.83
  -1   3 -10   14.71    0.86
  -2   3 -10    0.91    0.39
  -2   3 -10    0.62    0.10
  -3   3 -10    6.66    0.26
  -3   3 -10    7.08    0.63
  -4   3 -10   13.15    0.40
   4   2 -10   -0.03    0.43
   3   2 -10    0.65    0.33
   3   2 -10    0.13    0.43
   2   2 -10   30.37    1.11
   2   2 -10   31.90    1.28
   1   2 -10   24.58    0.85
   1   2 -10   22.36    1.10
   0   2 -10   32.41    1.28
  -1   2 -10   13.96    0.80
  -1   2 -10   13.79    0.33
  -2   2 -10    4.30    0.18
  -2   2 -10    3.90    0.47
  -3   2 -10    0.49    0.11
  -3   2 -10   -0.26    0.37
  -4   2 -10    4.85    0.24
  -5   2 -10    0.75    0.16
   4   1 -10    1.92    0.48
   3   1 -10    0.05    0.39
   3   1 -10    0.55    0.34
   2   1 -10    0.17    0.30
   2   1 -10    0.22    0.38
   1   1 -10   17.84    0.69
   1   1 -10   17.22    0.90
   0   1 -10    6.35    0.56
   0   1 -10    5.19    0.35
  -1   1 -10    2.79    0.45
  -2   1 -10   13.45    0.80
  -2   1 -10   12.91    0.33
  -3   1 -10   17.10    0.91
  -3   1 -10   17.07    0.42
  -4   1 -10    1.13    0.14
  -5   1 -10    6.81    0.28
   4   0 -10    9.01    0.72
   3   0 -10    2.47    0.40
   2   0 -10   74.61    2.40
   2   0 -10   72.77    2.25
   1   0 -10   47.49    1.65
   1   0 -10   46.67    1.47
   0   0 -10    9.89    0.70
   0   0 -10   10.25    0.46
   0   0  10    9.91    0.27
  -1   0 -10    2.41    0.40
   1   0  10    3.42    0.18
  -2   0 -10   19.86    0.47
  -2   0 -10   20.87    0.92
  -3   0 -10    1.54    0.13
  -3   0 -10    1.66    0.42
  -4   0 -10    8.67    0.29
  -5   0 -10    0.84    0.15
   4  -1 -10   -0.06    0.39
   3  -1 -10    2.20    0.45
   2  -1 -10   16.50    0.77
   2  -1 -10   15.45    0.77
   1  -1 -10    0.21    0.31
   1  -1 -10    0.50    0.27
   0  -1 -10    0.07    0.20
   0  -1 -10    0.36    0.30
   0   1  10    0.14    0.08
  -1  -1 -10    0.46    0.35
   1   1  10    0.22    0.09
  -2  -1 -10   85.90    2.75
   2   1  10   85.65    1.79
  -3  -1 -10   31.63    0.71
  -4  -1 -10    8.23    0.28
  -5  -1 -10    0.73    0.14
   4  -2 -10   30.66    1.34
   3  -2 -10    7.60    0.66
   2  -2 -10   36.36    1.30
   1  -2 -10   51.68    1.69
   1  -2 -10   49.31    1.59
   0  -2 -10    3.78    0.32
   0  -2 -10    3.80    0.41
   0   2  10    3.44    0.18
  -1  -2 -10   37.26    1.35
   1   2  10   37.91    0.82
  -2  -2 -10    1.87    0.39
   2   2  10    1.70    0.13
   3   2  10   37.89    0.85
   4   2  10    0.39    0.13
   4  -3 -10    0.43    0.47
   3  -3 -10    1.52    0.41
   2  -3 -10    6.45    0.53
   1  -3 -10   13.91    0.70
   1  -3 -10   13.96    0.71
  -1   3  10   14.50    0.36
   0  -3 -10    1.08    0.27
   0  -3 -10    1.56    0.35
   0   3  10    1.61    0.12
  -1  -3 -10   14.64    0.73
   1   3  10   13.30    0.36
   2   3  10   14.56    0.39
   3   3  10   27.45    0.65
   4   3  10    3.24    0.20
   5   3  10    3.62    0.23
   6   3  10    2.71    0.22
   4  -4 -10   16.80    0.98
   3  -4 -10    8.61    0.73
   2  -4 -10    0.05    0.40
  -2   4  10    0.48    0.11
   1  -4 -10   44.08    1.46
  -1   4  10   43.43    0.95
   0   4  10    0.00    0.09
   1   4  10   15.42    0.41
   2   4  10   13.14    0.38
   3   4  10   12.15    0.37
   4   4  10    0.27    0.14
   5   4  10    5.82    0.30
   6   4  10    5.83    0.33
   4  -5 -10    0.92    0.51
   3  -5 -10    0.77    0.51
   2  -5 -10    0.20    0.39
  -2   5  10    0.80    0.13
   1  -5 -10    0.12    0.34
  -1   5  10    0.14    0.11
   0   5  10    2.24    0.15
   1   5  10   39.62    0.89
   2   5  10   21.77    0.54
   3   5  10    2.25    0.19
   4   5  10    0.01    0.14
   5   5  10    1.96    0.20
   6   5  10    0.04    0.16
   3  -6 -10    1.20    0.54
  -3   6  10    1.04    0.16
  -2   6  10   -0.04    0.13
  -1   6  10   33.15    0.75
   0   6  10    0.82    0.13
   1   6  10   27.10    0.65
   2   6  10   -0.01    0.13
   3   6  10   17.94    0.50
   4   6  10    6.10    0.29
   5   6  10    0.33    0.16
   6   6  10    1.25    0.20
  -3   7  10    0.77    0.16
  -2   7  10    0.72    0.15
  -1   7  10    0.11    0.13
   0   7  10   51.13    1.12
   1   7  10   14.44    0.41
   2   7  10    4.19    0.24
   3   7  10    0.76    0.17
   4   7  10    0.45    0.16
   5   7  10    0.31    0.18
  -3   8  10    1.80    0.19
  -2   8  10    1.10    0.16
  -1   8  10    1.32    0.17
   0   8  10    0.97    0.14
   1   8  10    2.84    0.20
   2   8  10    2.26    0.18
   3   8  10   11.24    0.40
   4   8  10    2.55    0.22
   5   8  10    2.03    0.22
  -2   9  10    4.44    0.30
  -1   9  10   21.64    0.57
   0   9  10   12.92    0.39
   1   9  10    1.11    0.18
   2   9  10    0.36    0.16
   3   9  10    0.87    0.19
   4   9  10    0.32    0.18
   0  10  10    0.09    0.16
   1  10  10    6.14    0.32
   3  10  10    0.09    0.18
   4  10  10    1.29    0.20
   0   7 -11   19.96    1.32
  -1   7 -11    1.29    0.60
   2   6 -11    3.64    0.78
   1   6 -11    4.42    0.78
   0   6 -11    6.76    0.78
  -1   6 -11    2.24    0.64
  -2   6 -11    6.02    0.72
   3   5 -11    2.31    0.65
   2   5 -11    6.83    0.83
   1   5 -11    1.46    0.63
   0   5 -11    5.06    0.69
  -1   5 -11    1.60    0.57
  -2   5 -11    0.01    0.51
   4   4 -11    3.63    0.67
   3   4 -11    6.63    0.76
   3   4 -11    7.49    0.63
   2   4 -11    1.13    0.57
   1   4 -11    0.87    0.57
   0   4 -11   37.81    1.55
  -1   4 -11    0.72    0.50
  -2   4 -11    1.92    0.54
  -3   4 -11   10.39    0.32
  -3   4 -11   10.33    0.87
  -4   4 -11    0.78    0.15
   4   3 -11    1.42    0.52
   3   3 -11    0.13    0.38
   3   3 -11    0.36    0.45
   2   3 -11   29.11    1.34
   2   3 -11   27.16    1.06
   1   3 -11    8.48    0.79
   0   3 -11    2.53    0.51
  -1   3 -11    1.21    0.45
  -2   3 -11    0.03    0.09
  -2   3 -11    0.24    0.45
  -3   3 -11    0.42    0.43
  -3   3 -11    0.63    0.12
  -4   3 -11    5.47    0.27
   4   2 -11   -0.44    0.39
   3   2 -11    8.32    0.83
   3   2 -11    9.07    0.66
   2   2 -11    0.39    0.42
   2   2 -11    0.85    0.33
   1   2 -11   19.50    0.77
   1   2 -11   20.56    1.06
   0   2 -11   13.34    0.91
  -1   2 -11    1.00    0.41
  -2   2 -11    9.08    0.79
  -2   2 -11    8.73    0.27
  -3   2 -11   23.40    0.56
  -3   2 -11   23.43    1.13
  -4   2 -11    0.55    0.43
  -4   2 -11    0.44    0.14
  -5   2 -11    2.03    0.20
   4   1 -11    0.31    0.41
   3   1 -11    0.45    0.39
   3   1 -11   -0.38    0.45
   2   1 -11   -0.33    0.31
   2   1 -11    0.25    0.42
   1   1 -11   11.00    0.56
   1   1 -11   11.90    0.75
   0   1 -11    2.89    0.50
  -1   1 -11    2.12    0.42
   1  -1  11    1.97    0.14
  -2   1 -11    2.99    0.49
  -2   1 -11    2.65    0.16
  -3   1 -11    0.69    0.11
  -3   1 -11    0.53    0.43
  -4   1 -11   12.78    0.38
  -5   1 -11    1.08    0.16
   4   0 -11   -0.57    0.38
   3   0 -11   10.02    0.75
   2   0 -11   11.76    0.76
   2   0 -11   10.69    0.66
   1   0 -11    3.73    0.48
   1   0 -11    4.23    0.36
   0   0 -11    1.10    0.36
  -1   0 -11   49.09    1.76
   1   0  11   50.28    1.06
  -2   0 -11    1.14    0.38
  -3   0 -11   15.85    0.87
  -3   0 -11   16.83    0.42
  -4   0 -11    3.26    0.21
  -5   0 -11    2.46    0.17
   4  -1 -11    1.38    0.51
   3  -1 -11   32.54    1.29
   2  -1 -11    7.00    0.61
   2  -1 -11    6.06    0.60
   1  -1 -11    5.57    0.49
   1  -1 -11    5.63    0.48
   0  -1 -11   28.61    0.97
   0  -1 -11   29.66    1.18
   0   1  11   28.71    0.64
  -1  -1 -11    9.58    0.71
   1   1  11    9.16    0.28
  -2  -1 -11   -0.18    0.34
   2   1  11    0.19    0.10
  -4  -1 -11    0.36    0.11
  -5  -1 -11    3.36    0.21
   4  -2 -11    0.34    0.48
   3  -2 -11   28.29    1.21
   2  -2 -11    0.17    0.35
   1  -2 -11   -0.17    0.31
   1  -2 -11    0.16    0.25
   0  -2 -11   62.96    1.91
   0  -2 -11   64.45    2.10
   0   2  11   63.30    1.34
  -1  -2 -11   32.57    1.26
   1   2  11   31.63    0.72
  -2  -2 -11    3.55    0.45
   2   2  11    2.66    0.19
   3   2  11    0.02    0.12
   4   2  11    0.38    0.14
   5   2  11   -0.23    0.13
   4  -3 -11   13.42    0.97
   3  -3 -11   12.01    0.79
   2  -3 -11    6.85    0.66
   1  -3 -11   14.35    0.73
   1  -3 -11   14.18    0.75
  -1   3  11   14.19    0.37
   0  -3 -11   35.90    1.20
   0  -3 -11   36.18    1.33
   0   3  11   35.72    0.80
  -1  -3 -11    2.60    0.41
   1   3  11    1.87    0.14
   2   3  11    1.93    0.14
   3   3  11    0.25    0.12
   4   3  11    0.48    0.15
   5   3  11    1.02    0.17
   4  -4 -11    2.68    0.59
   3  -4 -11    0.15    0.47
   2  -4 -11    0.18    0.37
   1  -4 -11    8.38    0.65
  -1   4  11    9.01    0.29
   0   4  11   51.08    1.11
   1   4  11    0.66    0.13
   2   4  11    6.79    0.26
   3   4  11   -0.19    0.13
   4   4  11    9.74    0.36
   5   4  11    1.52    0.19
   3  -5 -11    2.32    0.57
   2  -5 -11    7.46    0.65
  -2   5  11    7.89    0.28
   1  -5 -11    1.42    0.39
  -1   5  11    1.86    0.15
   0   5  11    8.03    0.29
   1   5  11    0.37    0.13
   2   5  11    3.30    0.20
   3   5  11   11.33    0.38
   4   5  11    0.24    0.13
   5   5  11    0.79    0.17
   3  -6 -11   -0.05    0.47
  -2   6  11   17.21    0.46
  -1   6  11    6.88    0.28
   1   6  11    0.47    0.13
   2   6  11    2.39    0.18
   3   6  11    7.75    0.32
   4   6  11    8.02    0.35
   5   6  11    0.63    0.18
  -3   7  11    1.02    0.17
  -2   7  11    5.32    0.28
  -1   7  11    1.46    0.17
   1   7  11    0.05    0.13
   2   7  11    2.22    0.19
   3   7  11    5.47    0.30
   4   7  11    0.23    0.16
   5   7  11    4.06    0.27
  -2   8  11    8.48    0.35
  -1   8  11    5.91    0.30
   0   8  11    7.82    0.32
   1   8  11    0.03    0.12
   2   8  11    4.15    0.28
   3   8  11    4.04    0.25
   4   8  11    0.38    0.18
   5   8  11    4.36    0.27
  -1   9  11    0.90    0.17
   0   9  11    1.27    0.16
   1   9  11    1.66    0.19
   2   9  11    0.83    0.18
   3   9  11    3.48    0.24
   4   9  11    1.14    0.21
   0  10  11    6.20    0.33
   1  10  11    5.46    0.32
   2  10  11    0.61    0.18
   3  10  11    0.22    0.19
   1   6 -12   17.53    1.34
   0   6 -12    1.00    0.65
  -1   6 -12    1.29    0.61
  -2   6 -12    0.76    0.54
   2   5 -12    9.65    0.89
   1   5 -12    0.47    0.63
   0   5 -12    3.10    0.69
  -1   5 -12    2.54    0.57
  -2   5 -12    2.15    0.61
   3   4 -12   13.82    1.13
   3   4 -12   15.14    0.88
   2   4 -12    2.79    0.60
   1   4 -12   15.55    1.14
   0   4 -12    0.78    0.50
  -1   4 -12    2.89    0.63
  -2   4 -12    1.72    0.56
  -3   4 -12    0.64    0.51
  -4   4 -12    0.50    0.15
   3   3 -12   14.33    0.88
   3   3 -12   16.23    1.06
   2   3 -12    0.88    0.56
   2   3 -12    0.10    0.33
   1   3 -12    0.56    0.46
   0   3 -12   24.06    1.25
  -1   3 -12    0.98    0.51
  -2   3 -12    0.16    0.49
  -3   3 -12    4.31    0.62
  -3   3 -12    4.52    0.23
  -4   3 -12    2.39    0.19
   4   2 -12    9.38    0.78
   3   2 -12   15.83    1.04
   3   2 -12   16.65    0.86
   2   2 -12    0.25    0.48
   2   2 -12    0.05    0.34
   1   2 -12    3.18    0.53
   0   2 -12    7.21    0.67
  -1   2 -12    0.65    0.49
  -2   2 -12    2.61    0.17
  -2   2 -12    2.18    0.48
  -3   2 -12    6.40    0.61
  -3   2 -12    7.01    0.26
  -4   2 -12   10.29    0.34
  -4   2 -12   10.68    0.87
   4   1 -12    0.37    0.49
   3   1 -12    1.41    0.45
   2   1 -12    4.77    0.45
   2   1 -12    4.45    0.58
   1   1 -12    1.39    0.29
   1   1 -12    1.32    0.49
   0   1 -12   11.80    0.87
  -1   1 -12    4.18    0.53
  -2   1 -12    1.19    0.12
  -2   1 -12    1.16    0.47
  -3   1 -12    0.60    0.12
  -3   1 -12    1.03    0.47
  -4   1 -12    2.45    0.17
  -5   1 -12    1.43    0.17
   4   0 -12    9.61    0.79
   3   0 -12    3.31    0.49
   2   0 -12    0.22    0.30
   2   0 -12    0.12    0.40
   1   0 -12    0.62    0.27
   1   0 -12   -0.02    0.36
   0   0 -12   15.34    0.85
  -1   0 -12    1.48    0.41
   1   0  12    0.94    0.12
  -2   0 -12    5.33    0.55
   2   0  12    4.60    0.25
  -3   0 -12   46.21    1.02
  -3   0 -12   46.78    1.75
  -4   0 -12    1.30    0.14
  -5   0 -12    2.37    0.19
   4  -1 -12    0.13    0.44
   3  -1 -12    0.42    0.43
   2  -1 -12   -0.12    0.34
   2  -1 -12    0.18    0.36
   1  -1 -12    0.54    0.38
   1  -1 -12    0.73    0.30
   0  -1 -12    0.83    0.38
  -1  -1 -12    2.70    0.44
   1   1  12    2.58    0.15
  -2  -1 -12   15.40    0.92
   2   1  12   15.15    0.41
  -3  -1 -12   20.22    0.96
   3   1  12   18.40    0.50
   4  -2 -12   -0.13    0.47
   3  -2 -12    1.31    0.42
   2  -2 -12    2.82    0.41
   1  -2 -12    2.27    0.35
   1  -2 -12    1.72    0.40
   0  -2 -12   22.81    0.87
   0  -2 -12   23.81    1.00
   0   2  12   23.37    0.54
  -1  -2 -12    8.23    0.66
   1   2  12    8.06    0.28
  -2  -2 -12   21.33    0.98
   2   2  12   20.11    0.52
   3   2  12    5.19    0.27
   4   2  12    0.83    0.16
   5   2  12   23.28    0.62
   4  -3 -12    2.68    0.55
   3  -3 -12    0.92    0.47
   2  -3 -12    0.75    0.37
   1  -3 -12   31.37    1.17
   1  -3 -12   31.59    1.21
   0  -3 -12    8.90    0.57
   0   3  12    7.97    0.27
  -1  -3 -12    8.87    0.73
   1   3  12    9.55    0.30
   2   3  12    0.02    0.12
   3   3  12   12.68    0.40
   4   3  12    1.40    0.17
   5   3  12    1.50    0.18
   3  -4 -12    0.79    0.52
   2  -4 -12   -0.23    0.43
   1  -4 -12    0.59    0.36
  -1   4  12    0.72    0.13
   0   4  12    9.79    0.32
   1   4  12   50.86    1.11
   2   4  12    6.03    0.26
   3   4  12   15.88    0.45
   4   4  12    3.58    0.24
   5   4  12    6.74    0.34
   3  -5 -12   -0.23    0.45
   2  -5 -12    4.40    0.54
   1  -5 -12   11.44    0.79
  -1   5  12   11.95    0.36
   0   5  12    6.17    0.27
   1   5  12   14.82    0.42
   2   5  12    2.93    0.20
   3   5  12    1.75    0.17
   4   5  12    0.87    0.17
   5   5  12    3.13    0.23
   3  -6 -12    0.07    0.48
  -2   6  12    1.72    0.16
  -1   6  12    1.81    0.17
   1   6  12    0.39    0.13
   2   6  12   -0.12    0.14
   3   6  12   28.02    0.70
   4   6  12   -0.13    0.16
   5   6  12    0.03    0.17
  -2   7  12    3.69    0.26
  -1   7  12    0.99    0.16
   0   7  12   -0.11    0.14
   1   7  12    6.82    0.31
   2   7  12    7.06    0.30
   3   7  12    1.37    0.19
   4   7  12    3.01    0.24
   5   7  12    1.13    0.20
  -2   8  12    2.40    0.20
  -1   8  12    1.65    0.19
   0   8  12    2.18    0.18
   1   8  12   -0.23    0.13
   2   8  12    2.94    0.21
   3   8  12    2.47    0.20
   4   8  12    0.89    0.19
  -1   9  12    4.08    0.29
   0   9  12    1.92    0.19
   1   9  12    0.10    0.17
   2   9  12    2.61    0.23
   3   9  12    3.89    0.26
   4   9  12    3.57    0.26
   1  10  12    0.21    0.18
   2  10  12    0.17    0.17
   1   5 -13    1.40    0.60
   0   5 -13    1.31    0.66
  -1   5 -13    1.79    0.64
  -2   5 -13    1.31    0.61
   3   4 -13    6.39    0.81
   2   4 -13    1.81    0.64
   1   4 -13    8.35    0.79
   0   4 -13    9.42    0.85
  -1   4 -13    0.60    0.58
  -2   4 -13   11.67    1.03
  -3   4 -13   -0.47    0.48
   3   3 -13    0.25    0.44
   3   3 -13   -0.09    0.57
   2   3 -13    1.64    0.61
   1   3 -13    0.07    0.56
   0   3 -13   -0.15    0.54
  -1   3 -13    2.07    0.60
  -2   3 -13    4.35    0.60
  -3   3 -13    3.27    0.59
  -4   3 -13    0.82    0.14
   3   2 -13    2.66    0.46
   3   2 -13    3.49    0.62
   2   2 -13   15.10    1.06
   2   2 -13   15.37    0.80
   1   2 -13    8.24    0.77
   0   2 -13   -0.20    0.50
  -1   2 -13   29.93    1.41
  -2   2 -13    1.03    0.51
  -3   2 -13   -0.01    0.11
  -3   2 -13   -0.33    0.47
  -4   2 -13    1.27    0.16
  -4   2 -13    1.04    0.49
   3   1 -13    2.16    0.48
   2   1 -13    0.43    0.34
   2   1 -13   -0.35    0.47
   1   1 -13    0.89    0.50
   0   1 -13   -0.25    0.47
  -1   1 -13   11.02    0.93
  -2   1 -13   18.14    1.05
   2  -1  13   17.96    0.48
  -3   1 -13    0.71    0.45
  -3   1 -13    1.14    0.13
  -4   1 -13    0.41    0.12
   3   0 -13   10.64    0.75
   2   0 -13    7.57    0.66
   2   0 -13    7.01    0.64
   1   0 -13    8.47    0.79
   0   0 -13    2.48    0.52
  -1   0 -13   10.25    0.79
  -2   0 -13    1.68    0.47
   2   0  13    2.30    0.16
  -3   0 -13    0.32    0.48
   3   0  13    0.34    0.14
  -4   0 -13    7.81    0.30
  -5   0 -13    7.62    0.31
   3  -1 -13    0.14    0.46
   2  -1 -13    2.47    0.45
   1  -1 -13   -0.06    0.30
   1  -1 -13   -0.32    0.40
   0  -1 -13    0.62    0.38
  -1  -1 -13    1.03    0.41
   1   1  13    0.79    0.12
  -2  -1 -13   30.94    1.34
   2   1  13   30.34    0.71
  -3  -1 -13    4.06    0.54
   3   1  13    4.75    0.26
   4   1  13    0.78    0.16
   5   1  13   -0.14    0.17
   3  -2 -13    1.96    0.50
   2  -2 -13    5.85    0.55
   1  -2 -13   12.80    0.69
   1  -2 -13   12.61    0.80
   0  -2 -13    0.75    0.37
  -1  -2 -13    0.41    0.38
   1   2  13    0.41    0.12
  -2  -2 -13   25.65    1.15
   2   2  13   26.12    0.63
   3   2  13    0.80    0.16
   4   2  13    5.41    0.29
   5   2  13    5.22    0.29
   3  -3 -13    0.39    0.48
   2  -3 -13    1.92    0.46
   1  -3 -13   -0.09    0.39
   1  -3 -13   -0.30    0.34
   0  -3 -13   28.29    1.18
   0  -3 -13   30.52    1.09
   0   3  13   29.65    0.69
  -1  -3 -13    1.51    0.46
   1   3  13    1.32    0.15
   2   3  13    3.51    0.24
   3   3  13    0.23    0.14
   4   3  13   12.60    0.42
   5   3  13    0.18    0.16
   3  -4 -13    2.40    0.59
   2  -4 -13    3.47    0.53
   1  -4 -13   -0.30    0.33
   0   4  13   -0.01    0.12
   1   4  13    2.60    0.18
   2   4  13   34.66    0.81
   3   4  13   -0.04    0.14
   4   4  13    3.23    0.23
   5   4  13    0.46    0.15
   3  -5 -13    0.44    0.55
   2  -5 -13    3.99    0.58
   1  -5 -13    5.14    0.54
  -1   5  13    5.32    0.26
   0   5  13   24.86    0.61
   1   5  13    1.82    0.17
   2   5  13   12.29    0.38
   3   5  13    5.41    0.27
   4   5  13    2.13    0.21
   5   5  13   -0.13    0.16
  -1   6  13    4.26    0.25
   1   6  13   -0.11    0.14
   2   6  13   14.42    0.45
   3   6  13    0.14    0.16
   4   6  13    0.04    0.15
   5   6  13    1.48    0.19
  -2   7  13    3.96    0.27
  -1   7  13   13.05    0.40
   0   7  13    0.55    0.16
   1   7  13   12.14    0.40
   2   7  13   14.60    0.46
   3   7  13    0.01    0.14
   4   7  13    0.25    0.17
  -2   8  13    2.15    0.21
  -1   8  13    3.24    0.23
   0   8  13    4.80    0.29
   1   8  13    0.34    0.16
   2   8  13   -0.08    0.15
   3   8  13   -0.04    0.15
   4   8  13    1.02    0.21
  -1   9  13   -0.29    0.16
   0   9  13    2.38    0.20
   2   9  13    2.07    0.20
   3   9  13    1.73    0.21
   1   4 -14    2.53    0.70
   0   4 -14    1.81    0.66
  -1   4 -14    3.70    0.72
  -2   4 -14    5.88    0.69
  -3   4 -14   -0.36    0.52
   3   3 -14    0.19    0.55
   2   3 -14    3.75    0.71
   1   3 -14   -0.09    0.51
   0   3 -14   -0.28    0.59
  -1   3 -14   -0.27    0.56
  -2   3 -14   -0.52    0.52
  -3   3 -14    1.78    0.58
   3   2 -14   -0.04    0.44
   2   2 -14   -0.15    0.55
   1   2 -14    5.93    0.71
   0   2 -14   11.02    0.92
  -1   2 -14   -0.11    0.47
  -2   2 -14    3.86    0.65
  -3   2 -14    3.41    0.22
  -3   2 -14    2.19    0.59
  -4   2 -14    0.38    0.50
  -4   2 -14    0.19    0.14
   3   1 -14    0.16    0.45
   2   1 -14   -0.09    0.47
   1   1 -14    0.87    0.53
   0   1 -14   12.14    1.01
  -1   1 -14    2.90    0.60
  -2   1 -14   -0.10    0.51
  -3   1 -14    0.13    0.51
  -4   1 -14    1.95    0.17
  -4   1 -14    2.30    0.50
   3   0 -14    0.20    0.42
   2   0 -14    4.14    0.58
   2   0 -14    4.37    0.50
   1   0 -14    3.40    0.58
   0   0 -14   31.89    1.43
  -1   0 -14   21.89    1.10
  -2   0 -14   26.42    1.23
   2   0  14   25.57    0.63
  -3   0 -14    2.42    0.58
   3   0  14    1.66    0.18
   3  -1 -14    0.15    0.42
   2  -1 -14   -0.12    0.38
   1  -1 -14   18.73    1.03
   0  -1 -14   -0.24    0.45
  -1  -1 -14    0.89    0.50
  -2  -1 -14    0.50    0.50
   2   1  14    1.21    0.15
  -3  -1 -14    9.56    0.90
   3   1  14   10.24    0.36
   4   1  14    0.36    0.16
   3  -2 -14    0.47    0.46
   2  -2 -14    7.47    0.62
   1  -2 -14    1.36    0.37
   1  -2 -14    1.61    0.45
   0  -2 -14    2.51    0.51
  -1  -2 -14    0.95    0.48
   1   2  14    0.82    0.13
  -2  -2 -14   12.10    0.91
   2   2  14   10.66    0.35
   3   2  14    5.27    0.27
   4   2  14    0.05    0.15
   5   2  14    0.01    0.16
   3  -3 -14    4.02    0.60
   2  -3 -14    0.33    0.39
   1  -3 -14    2.71    0.44
   0  -3 -14   -0.03    0.41
  -1  -3 -14    3.64    0.50
   1   3  14    4.10    0.25
   2   3  14    1.13    0.15
   3   3  14    3.37    0.22
   4   3  14    0.02    0.16
   5   3  14    2.41    0.22
   3  -4 -14    0.46    0.54
   2  -4 -14    4.10    0.58
   1  -4 -14    6.47    0.57
   0  -4 -14    8.87    0.72
   0   4  14    8.75    0.31
   1   4  14    0.12    0.14
   2   4  14    3.45    0.23
   3   4  14    1.18    0.18
   4   4  14   -0.05    0.16
   5   4  14    3.81    0.25
   2  -5 -14    1.53    0.54
   1  -5 -14    7.90    0.67
   0   5  14   -0.02    0.13
   1   5  14   12.31    0.39
   2   5  14    0.14    0.13
   3   5  14    1.94    0.19
   4   5  14    4.10    0.27
  -1   6  14    0.19    0.14
   0   6  14    0.26    0.14
   1   6  14    1.00    0.16
   2   6  14    0.23    0.16
   3   6  14    0.36    0.15
   4   6  14    3.52    0.26
  -1   7  14    5.20    0.29
   1   7  14    1.36    0.19
   2   7  14    4.21    0.27
   3   7  14    3.56    0.24
   4   7  14    0.73    0.19
  -1   8  14    0.10    0.16
   0   8  14    0.18    0.15
   1   8  14    0.04    0.16
   2   8  14    0.07    0.15
   3   8  14    0.19    0.18
   0   9  14    0.39    0.17
   1   9  14    0.45    0.18
   2   9  14    6.31    0.34
   2   3 -15   -0.34    0.63
   1   3 -15   -0.60    0.60
   0   3 -15    1.44    0.65
  -1   3 -15    0.48    0.55
  -2   3 -15    0.45    0.60
   2   2 -15    1.76    0.60
   1   2 -15    5.98    0.74
   0   2 -15    4.82    0.74
  -1   2 -15    4.21    0.74
  -2   2 -15   11.19    1.05
  -3   2 -15    0.28    0.54
   3   1 -15    2.61    0.57
   2   1 -15    1.24    0.58
   1   1 -15    0.63    0.49
   0   1 -15    3.38    0.65
  -1   1 -15   17.19    1.16
  -2   1 -15    0.00    0.55
  -3   1 -15   -0.01    0.54
  -4   1 -15    6.01    0.69
   2   0 -15   -0.42    0.53
   1   0 -15   15.32    1.05
   0   0 -15    3.65    0.57
  -1   0 -15   14.26    1.06
  -2   0 -15    1.79    0.57
  -3   0 -15    4.22    0.66
   3   0  15    3.98    0.27
   4   0  15   14.11    0.46
   3  -1 -15    6.51    0.68
   2  -1 -15    0.67    0.40
   1  -1 -15    0.62    0.49
   0  -1 -15   -0.18    0.46
  -1  -1 -15   21.38    1.19
  -2  -1 -15    0.27    0.52
   2   1  15   -0.24    0.13
  -3  -1 -15   -0.03    0.45
   3   1  15   -0.03    0.15
   4   1  15   12.88    0.44
   3  -2 -15    2.31    0.54
   2  -2 -15    1.93    0.48
   1  -2 -15   20.60    1.07
   0  -2 -15    0.08    0.46
  -1  -2 -15    5.07    0.63
  -2  -2 -15    1.72    0.56
   2   2  15    1.84    0.18
   3   2  15    8.05    0.35
   4   2  15    9.67    0.38
   3  -3 -15    1.58    0.54
   2  -3 -15    1.67    0.51
   0  -3 -15    2.89    0.50
  -1  -3 -15    4.75    0.57
   1   3  15    5.30    0.27
   2   3  15   10.20    0.37
   3   3  15    0.66    0.17
   4   3  15    3.63    0.24
   2  -4 -15    0.15    0.48
   1  -4 -15    6.04    0.58
   0  -4 -15    0.29    0.41
   1   4  15   -0.10    0.14
   2   4  15   19.47    0.53
   3   4  15    0.49    0.17
   4   4  15    0.14    0.17
   2  -5 -15   -0.15    0.50
   0   5  15   -0.09    0.13
   1   5  15   14.65    0.44
   2   5  15    5.53    0.31
   3   5  15    0.35    0.17
   4   5  15   13.35    0.46
   0   6  15    0.44    0.15
   1   6  15    2.35    0.20
   2   6  15    5.52    0.31
   3   6  15    2.52    0.21
   4   6  15    1.70    0.22
  -1   7  15    7.53    0.34
   1   7  15    2.26    0.21
   2   7  15    1.32    0.18
   3   7  15   13.62    0.47
  -1   8  15   -0.07    0.16
   0   8  15    0.50    0.17
   1   8  15    0.70    0.17
   2   8  15    0.11    0.17
   3   8  15    1.71    0.22
   1   2 -16    0.60    0.61
   0   2 -16   22.64    1.42
  -1   2 -16    2.11    0.62
  -2   2 -16    2.00    0.66
   2   1 -16    8.87    0.85
   1   1 -16    3.73    0.70
   0   1 -16    3.43    0.70
  -1   1 -16    8.24    0.84
  -2   1 -16    0.39    0.60
  -3   1 -16    7.43    0.81
   1   0 -16    4.20    0.62
  -1   0 -16    9.25    0.89
  -2   0 -16    1.78    0.56
  -3   0 -16    0.82    0.60
   4   0  16    6.54    0.35
   1  -1 -16    0.96    0.52
   0  -1 -16   11.29    0.89
  -1  -1 -16    2.70    0.61
  -2  -1 -16    5.95    0.73
  -3  -1 -16   18.30    1.19
   3   1  16   19.30    0.54
   4   1  16    0.02    0.17
   1  -2 -16    2.06    0.59
   0  -2 -16    3.16    0.59
  -1  -2 -16    1.19    0.55
  -2  -2 -16   -0.17    0.45
   2   2  16    0.04    0.15
   3   2  16    1.98    0.20
   4   2  16    3.67    0.26
   2  -3 -16    4.47    0.62
   0  -3 -16    0.99    0.48
  -1  -3 -16   25.01    1.27
   2   3  16    1.55    0.19
   3   3  16   20.00    0.57
   4   3  16    0.58    0.18
   2  -4 -16    0.79    0.53
   0  -4 -16    1.68    0.48
   1   4  16    0.22    0.14
   2   4  16    0.27    0.16
   3   4  16   -0.21    0.16
   4   4  16   -0.08    0.16
   2  -5 -16    5.12    0.69
   1   5  16   24.00    0.63
   2   5  16    0.61    0.18
   3   5  16   10.28    0.41
   4   5  16    8.45    0.39
   1   6  16    0.33    0.15
   2   6  16    0.26    0.17
   3   6  16    1.35    0.18
   1   7  16    7.50    0.36
   2   7  16    0.00    0.17
   3   7  16    7.69    0.38
   0   8  16    1.86    0.20
   1   8  16    1.37    0.20
   2   8  16    3.63    0.26
   1   1 -17   23.15    1.38
   0   1 -17    0.47    0.57
  -1   1 -17    8.96    0.90
   1   0 -17    0.48    0.57
   0   0 -17    3.63    0.67
  -1   0 -17    2.84    0.66
  -2   0 -17    1.65    0.64
   1  -1 -17   14.03    1.06
   0  -1 -17    3.93    0.63
  -1  -1 -17    4.73    0.71
  -2  -1 -17    2.43    0.65
  -3  -1 -17    3.72    0.63
   0  -2 -17    2.75    0.62
  -1  -2 -17    0.45    0.54
  -2  -2 -17    0.03    0.49
   3   2  17    2.43    0.22
   0  -3 -17    3.67    0.61
  -1  -3 -17    3.18    0.61
   2   3  17    3.27    0.22
   3   3  17    1.01    0.20
   2   4  17    5.49    0.32
   3   4  17    1.70    0.21
   1   5  17    0.68    0.17
   2   5  17    2.98    0.24
   3   5  17    0.48    0.19
   1   6  17    1.73    0.20
   2   6  17   11.21    0.43
   3   6  17    0.56    0.20
   1   7  17    3.12    0.23
   2   7  17    0.14    0.18
   0   0 -18    2.05    0.73
   1  -1 -18    0.77    0.58
   0  -1 -18    4.30    0.69
  -1  -1 -18    1.04    0.63
   0  -2 -18    2.26    0.60
  -1  -2 -18   -0.13    0.49
  -2  -2 -18    0.02    0.51
   0  -3 -18   12.65    1.04
  -1  -3 -18   10.10    0.87
   3   3  18    1.20    0.20
   3   4  18    0.69    0.19
   2   5  18    0.31    0.19
   2   6  18    0.38    0.19
   0  -3 -19    2.21    0.63
  -1  -3 -19    0.82    0.61
   0   0   0    0.00    0.00
;
_shelx_hkl_checksum              52502
#END Tags that were not found in dictionaries
loop_
_space_group_symop_operation_xyz
'x, y, z'
'-x, -y, -z'
loop_
_atom_site_label
_atom_site_type_symbol
_atom_site_fract_x
_atom_site_fract_y
_atom_site_fract_z
_atom_site_U_iso_or_equiv
_atom_site_adp_type
_atom_site_occupancy
_atom_site_site_symmetry_order
_atom_site_calc_flag
_atom_site_refinement_flags_posn
_atom_site_refinement_flags_adp
S1 S 0.50598(14) 0.72884(8) 0.45760(5) 0.02335(18) Uani 1 1 d . .
O2 O 1.1114(3) 1.0676(2) 0.31049(14) 0.0185(4) Uani 1 1 d . .
O1 O 1.1239(4) 1.2740(2) 0.37320(14) 0.0241(4) Uani 1 1 d . .
C5 C 0.9224(5) 1.2556(3) 0.1016(2) 0.0227(6) Uani 1 1 d . .
C3 C 0.7863(5) 1.1822(3) 0.20053(19) 0.0167(5) Uani 1 1 d . .
H3 H 0.6025 1.1642 0.1948 0.020 Uiso 1 1 calc R U
C1 C 1.0173(5) 1.2160(3) 0.32518(18) 0.0165(5) Uani 1 1 d . .
C4 C 0.9495(5) 1.0223(3) 0.25039(18) 0.0160(5) Uani 1 1 d . .
H4 H 1.0677 0.9742 0.1993 0.019 Uiso 1 1 calc R U
C2 C 0.7727(5) 1.2852(3) 0.27287(19) 0.0178(5) Uani 1 1 d . .
H2A H 0.7790 1.3990 0.2382 0.021 Uiso 1 1 calc R U
H2B H 0.6071 1.2773 0.3197 0.021 Uiso 1 1 calc R U
F1 F 0.7827(4) 1.3927(2) 0.05809(13) 0.0343(4) Uani 1 1 d . .
F2 F 1.1677(3) 1.2890(2) 0.10606(12) 0.0314(4) Uani 1 1 d . .
F3 F 0.9579(4) 1.1579(2) 0.04046(12) 0.0355(4) Uani 1 1 d . .
C12 C 0.6262(5) 0.8224(3) 0.1696(2) 0.0208(5) Uani 1 1 d . .
H12 H 0.7334 0.8882 0.1199 0.025 Uiso 1 1 calc R U
C8 C 0.4683(5) 0.7187(3) 0.3404(2) 0.0187(5) Uani 1 1 d . .
C6 C 0.7716(5) 0.9046(3) 0.31204(19) 0.0165(5) Uani 1 1 d . .
C7 C 0.7264(5) 0.8674(3) 0.4107(2) 0.0199(5) Uani 1 1 d . .
H7 H 0.8075 0.9127 0.4505 0.024 Uiso 1 1 calc R U
C13 C 0.6271(5) 0.8190(3) 0.26839(19) 0.0168(5) Uani 1 1 d . .
C10 C 0.3070(5) 0.6332(3) 0.2173(2) 0.0245(6) Uani 1 1 d . .
H10 H 0.1976 0.5715 0.1988 0.029 Uiso 1 1 calc R U
C9 C 0.3044(5) 0.6267(3) 0.3158(2) 0.0225(6) Uani 1 1 d . .
H9 H 0.1947 0.5617 0.3649 0.027 Uiso 1 1 calc R U
C11 C 0.4678(5) 0.7291(3) 0.1449(2) 0.0235(6) Uani 1 1 d . .
H11 H 0.4686 0.7303 0.0779 0.028 Uiso 1 1 calc R U
loop_
_atom_site_aniso_label
_atom_site_aniso_U_11
_atom_site_aniso_U_22
_atom_site_aniso_U_33
_atom_site_aniso_U_23
_atom_site_aniso_U_13
_atom_site_aniso_U_12
S1 0.0288(4) 0.0209(3) 0.0187(3) -0.0003(3) -0.0012(3) -0.0073(3)
O2 0.0152(8) 0.0169(8) 0.0245(10) -0.0053(7) -0.0069(7) -0.0004(7)
O1 0.0271(10) 0.0232(10) 0.0248(11) -0.0052(8) -0.0068(8) -0.0085(8)
C5 0.0214(13) 0.0252(13) 0.0192(13) 0.0001(11) -0.0044(10) -0.0036(10)
C3 0.0122(11) 0.0188(12) 0.0177(13) -0.0019(10) -0.0031(9) -0.0010(9)
C1 0.0153(11) 0.0162(11) 0.0157(13) -0.0005(10) 0.0014(9) -0.0048(9)
C4 0.0142(11) 0.0169(11) 0.0161(12) -0.0037(10) -0.0024(9) 0.0000(9)
C2 0.0155(11) 0.0162(11) 0.0190(13) -0.0021(10) -0.0010(10) 0.0005(9)
F1 0.0376(10) 0.0306(9) 0.0267(10) 0.0099(8) -0.0091(8) -0.0040(8)
F2 0.0220(8) 0.0416(10) 0.0262(9) 0.0022(8) 0.0019(7) -0.0133(7)
F3 0.0469(11) 0.0424(11) 0.0175(9) -0.0097(8) 0.0018(8) -0.0087(8)
C12 0.0185(12) 0.0231(13) 0.0207(14) -0.0076(11) -0.0011(10) -0.0007(10)
C8 0.0186(12) 0.0131(11) 0.0227(14) -0.0038(10) -0.0036(10) 0.0027(9)
C6 0.0131(11) 0.0145(11) 0.0204(13) -0.0042(10) -0.0019(9) 0.0018(9)
C7 0.0203(12) 0.0170(12) 0.0214(14) -0.0016(10) -0.0037(10) -0.0034(9)
C13 0.0133(11) 0.0145(11) 0.0217(13) -0.0050(10) -0.0024(9) 0.0017(9)
C10 0.0202(13) 0.0181(12) 0.0390(17) -0.0121(12) -0.0091(12) 0.0005(10)
C9 0.0164(12) 0.0150(12) 0.0350(16) -0.0052(11) -0.0019(11) -0.0016(9)
C11 0.0222(13) 0.0241(13) 0.0272(15) -0.0120(12) -0.0084(11) 0.0024(10)
loop_
_atom_type_symbol
_atom_type_description
_atom_type_scat_dispersion_real
_atom_type_scat_dispersion_imag
_atom_type_scat_source
C C 0.0033 0.0016 'International Tables Vol C Tables 4.2.6.8 and 6.1.1.4'
H H 0.0000 0.0000 'International Tables Vol C Tables 4.2.6.8 and 6.1.1.4'
O O 0.0106 0.0060 'International Tables Vol C Tables 4.2.6.8 and 6.1.1.4'
F F 0.0171 0.0103 'International Tables Vol C Tables 4.2.6.8 and 6.1.1.4'
S S 0.1246 0.1234 'International Tables Vol C Tables 4.2.6.8 and 6.1.1.4'
loop_
_geom_angle_atom_site_label_1
_geom_angle_atom_site_label_2
_geom_angle_atom_site_label_3
_geom_angle
C7 S1 C8 91.33(13)
C1 O2 C4 111.53(17)
F1 C5 F3 106.8(2)
F1 C5 F2 106.8(2)
F3 C5 F2 106.3(2)
F1 C5 C3 112.1(2)
F3 C5 C3 111.9(2)
F2 C5 C3 112.5(2)
C5 C3 C2 111.8(2)
C5 C3 C4 111.8(2)
C2 C3 C4 102.53(19)
C5 C3 H3 110.2
C2 C3 H3 110.2
C4 C3 H3 110.2
O1 C1 O2 121.4(2)
O1 C1 C2 129.0(2)
O2 C1 C2 109.6(2)
O2 C4 C6 110.8(2)
O2 C4 C3 104.74(18)
C6 C4 C3 111.87(19)
O2 C4 H4 109.8
C6 C4 H4 109.8
C3 C4 H4 109.8
C1 C2 C3 103.96(19)
C1 C2 H2A 111.0
C3 C2 H2A 111.0
C1 C2 H2B 111.0
C3 C2 H2B 111.0
H2A C2 H2B 109.0
C11 C12 C13 119.5(3)
C11 C12 H12 120.3
C13 C12 H12 120.3
C9 C8 C13 121.9(3)
C9 C8 S1 126.9(2)
C13 C8 S1 111.18(19)
C7 C6 C13 112.9(2)
C7 C6 C4 125.6(2)
C13 C6 C4 121.5(2)
C6 C7 S1 113.3(2)
C6 C7 H7 123.4
S1 C7 H7 123.4
C12 C13 C8 118.8(2)
C12 C13 C6 129.8(3)
C8 C13 C6 111.4(2)
C9 C10 C11 121.1(2)
C9 C10 H10 119.4
C11 C10 H10 119.4
C10 C9 C8 117.9(3)
C10 C9 H9 121.1
C8 C9 H9 121.1
C12 C11 C10 120.8(3)
C12 C11 H11 119.6
C10 C11 H11 119.6
loop_
_geom_bond_atom_site_label_1
_geom_bond_atom_site_label_2
_geom_bond_distance
S1 C7 1.730(3)
S1 C8 1.737(3)
O2 C1 1.359(3)
O2 C4 1.449(3)
O1 C1 1.193(3)
C5 F1 1.334(3)
C5 F3 1.344(3)
C5 F2 1.352(3)
C5 C3 1.497(4)
C3 C2 1.522(3)
C3 C4 1.553(3)
C3 H3 1.0000
C1 C2 1.512(3)
C4 C6 1.500(4)
C4 H4 1.0000
C2 H2A 0.9900
C2 H2B 0.9900
C12 C11 1.386(4)
C12 C13 1.399(4)
C12 H12 0.9500
C8 C9 1.398(4)
C8 C13 1.409(4)
C6 C7 1.346(4)
C6 C13 1.442(3)
C7 H7 0.9500
C10 C9 1.385(4)
C10 C11 1.398(4)
C10 H10 0.9500
C9 H9 0.9500
C11 H11 0.9500
