#------------------------------------------------------------------------------
#$Date: 2016-02-18 17:37:37 +0200 (Thu, 18 Feb 2016) $
#$Revision: 176729 $
#$URL: svn://www.crystallography.net/cod/cif/1/51/34/1513470.cif $
#------------------------------------------------------------------------------
#
# This file is available in the Crystallography Open Database (COD),
# http://www.crystallography.net/
#
# All data on this site have been placed in the public domain by the
# contributors.
#
data_1513470
loop_
_publ_author_name
'Roznyatovskiy, Vladimir V.'
'Gardner, Daniel M.'
'Eaton, Samuel W.'
'Wasielewski, Michael R.'
_publ_section_title
;
 Radical anions of trifluoromethylated perylene and naphthalene imide and
 diimide electron acceptors.
;
_journal_issue                   3
_journal_name_full               'Organic letters'
_journal_page_first              696
_journal_page_last               699
_journal_paper_doi               10.1021/ol403736m
_journal_volume                  16
_journal_year                    2014
_chemical_formula_moiety         'C32 H36 F6 N2 O4'
_chemical_formula_sum            'C32 H36 F6 N2 O4'
_chemical_formula_weight         626.63
_chemical_name_common            bis(CF3)NDI
_chemical_name_systematic
;
N,N'-(n-octyl)-2,6-trifluoromethyl-
1,4,5,8-naphthalenetetracarboxylic diimide
;
_space_group_crystal_system      triclinic
_space_group_IT_number           2
_space_group_name_Hall           '-P 1'
_space_group_name_H-M_alt        'P -1'
_symmetry_space_group_name_Hall  '-P 1'
_symmetry_space_group_name_H-M   'P -1'
_atom_sites_solution_hydrogens   geom
_atom_sites_solution_primary     direct
_audit_creation_date             2013-12-23
_audit_creation_method
;
Olex2 1.2
(compiled 2013.12.10 svn.r2850 for OlexSys, GUI svn.r4736)
;
_cell_angle_alpha                85.639(4)
_cell_angle_beta                 82.595(4)
_cell_angle_gamma                81.820(4)
_cell_formula_units_Z            1
_cell_length_a                   4.9874(7)
_cell_length_b                   8.9169(13)
_cell_length_c                   16.946(2)
_cell_measurement_reflns_used    9970
_cell_measurement_temperature    100(2)
_cell_measurement_theta_max      68.06
_cell_measurement_theta_min      5.02
_cell_volume                     738.46(17)
_computing_cell_refinement       'SAINT V7.23A (Bruker, 2005)'
_computing_data_collection       'APEX2 V2.1-4 (Bruker, 2007)'
_computing_data_reduction        'Bruker SAINT'
_computing_molecular_graphics    'Olex2 (Dolomanov et al., 2009)'
_computing_publication_material  'Olex2 (Dolomanov et al., 2009)'
_computing_structure_refinement  'XL (Sheldrick, 2008)'
_computing_structure_solution    'XS (Sheldrick, 2008)'
_diffrn_ambient_temperature      99.99
_diffrn_detector_area_resol_mean 8
_diffrn_measured_fraction_theta_full 0.993
_diffrn_measured_fraction_theta_max 0.990
_diffrn_measurement_device_type  prospector
_diffrn_measurement_method       '\w and \f scans'
_diffrn_radiation_monochromator  'MX optics'
_diffrn_radiation_type           CuK\a
_diffrn_radiation_wavelength     1.54178
_diffrn_reflns_av_R_equivalents  0.0184
_diffrn_reflns_av_unetI/netI     0.0133
_diffrn_reflns_Laue_measured_fraction_full 0.993
_diffrn_reflns_Laue_measured_fraction_max 0.990
_diffrn_reflns_limit_h_max       4
_diffrn_reflns_limit_h_min       -5
_diffrn_reflns_limit_k_max       10
_diffrn_reflns_limit_k_min       -10
_diffrn_reflns_limit_l_max       20
_diffrn_reflns_limit_l_min       -20
_diffrn_reflns_number            13194
_diffrn_reflns_point_group_measured_fraction_full 0.993
_diffrn_reflns_point_group_measured_fraction_max 0.990
_diffrn_reflns_theta_full        67.679
_diffrn_reflns_theta_max         68.061
_diffrn_reflns_theta_min         5.019
_diffrn_source                   microsource
_diffrn_standards_number         0
_exptl_absorpt_coefficient_mu    1.009
_exptl_absorpt_correction_T_max  0.7530
_exptl_absorpt_correction_T_min  0.6820
_exptl_absorpt_correction_type   multi-scan
_exptl_absorpt_process_details
;
SADABS-2012/1 (Bruker,2012) was used for absorption correction.
wR2(int) was 0.0914 before and 0.0288 after correction.
The Ratio of minimum to maximum transmission is 0.9057.
The \l/2 correction factor is 0.0015.
;
_exptl_crystal_colour            colourless
_exptl_crystal_colour_primary    colourless
_exptl_crystal_density_diffrn    1.409
_exptl_crystal_description       block
_exptl_crystal_F_000             328
_exptl_crystal_size_max          0.266
_exptl_crystal_size_mid          0.179
_exptl_crystal_size_min          0.088
_refine_diff_density_max         0.265
_refine_diff_density_min         -0.275
_refine_diff_density_rms         0.037
_refine_ls_extinction_method     none
_refine_ls_goodness_of_fit_ref   1.060
_refine_ls_hydrogen_treatment    constr
_refine_ls_matrix_type           full
_refine_ls_number_parameters     200
_refine_ls_number_reflns         2646
_refine_ls_number_restraints     0
_refine_ls_restrained_S_all      1.060
_refine_ls_R_factor_all          0.0286
_refine_ls_R_factor_gt           0.0283
_refine_ls_shift/su_max          0.001
_refine_ls_shift/su_mean         0.000
_refine_ls_structure_factor_coef Fsqd
_refine_ls_weighting_details
'w=1/[\s^2^(Fo^2^)+(0.0423P)^2^+0.2458P] where P=(Fo^2^+2Fc^2^)/3'
_refine_ls_weighting_scheme      calc
_refine_ls_wR_factor_gt          0.0791
_refine_ls_wR_factor_ref         0.0793
_reflns_Friedel_coverage         0.000
_reflns_number_gt                2603
_reflns_number_total             2646
_reflns_threshold_expression     'I > 2\s(I)'
_cod_data_source_file            ol403736m_si_002.cif
_cod_data_source_block           cf3ndi
_cod_original_cell_volume        738.47(18)
_cod_database_code               1513470
#BEGIN Tags that were not found in dictionaries:
_shelxl_version_number           2013-3
_shelx_space_group_comment
;
The symmetry employed for this shelxl refinement is uniquely defined
by the following loop, which should always be used as a source of
symmetry information in preference to the above space-group names.
They are only intended as comments.
;
_shelx_estimated_absorpt_t_max   0.916
_shelx_estimated_absorpt_t_min   0.775
_olex2_refinement_description
;
1. Fixed Uiso
 At 1.2 times of:
  All C(H) groups, All C(H,H) groups
 At 1.5 times of:
  All C(H,H,H) groups
2.a Secondary CH2 refined with riding coordinates:
 C2(H2A,H2B), C3(H3A,H3B), C4(H4A,H4B), C5(H5A,H5B), C6(H6A,H6B), C7(H7A,H7B),
 C8(H8A,H8B)
2.b Aromatic/amide H refined with riding coordinates:
 C16(H16)
2.c Idealised Me refined as rotating group:
 C1(H1A,H1B,H1C)
;
_shelx_res_file
;
TITL n3244_0m_x in P-1
CELL 1.54178 4.9874 8.9169 16.9462 85.639 82.5953 81.8197
ZERR 1 0.0007 0.0013 0.0024 0.0038 0.0043 0.0043
LATT 1

SFAC C H N O F
UNIT 32 36 2 4 6

L.S. 4 0 0
PLAN  20
SIZE 0.088 0.179 0.266
TEMP -173.16
BOND $H
fmap 2 53
MORE -1
ACTA
CONF
REM <HKL>C:/frames/guest/Eaton/n3244/work/n3244_0m_x.hkl</HKL>

WGHT    0.042300    0.245800
FVAR       0.48437
C1    1   -0.450139    1.360626    1.123945    11.00000    0.03827    0.03952 =
         0.02291   -0.01395   -0.00357   -0.00213
AFIX 137
H1A   2   -0.634605    1.393660    1.109732    11.00000   -1.50000
H1B   2   -0.395235    1.438411    1.154059    11.00000   -1.50000
H1C   2   -0.448092    1.265137    1.156705    11.00000   -1.50000
AFIX   0
C2    1   -0.251978    1.336802    1.048324    11.00000    0.02882    0.02873 =
         0.02213   -0.00995   -0.00410   -0.00411
AFIX  23
H2A   2   -0.065192    1.307001    1.063048    11.00000   -1.20000
H2B   2   -0.253747    1.433898    1.015791    11.00000   -1.20000
AFIX   0
C3    1   -0.321207    1.215681    0.998413    11.00000    0.02418    0.02842 =
         0.02032   -0.00927   -0.00142   -0.00530
AFIX  23
H3A   2   -0.319315    1.118788    1.031129    11.00000   -1.20000
H3B   2   -0.508525    1.245502    0.984111    11.00000   -1.20000
AFIX   0
C4    1   -0.126225    1.190147    0.922277    11.00000    0.02365    0.02624 =
         0.02003   -0.00841   -0.00115   -0.00566
AFIX  23
H4A   2    0.062134    1.164482    0.936356    11.00000   -1.20000
H4B   2   -0.133984    1.285843    0.888454    11.00000   -1.20000
AFIX   0
C5    1   -0.189716    1.064181    0.874286    11.00000    0.02196    0.02442 =
         0.01956   -0.00707   -0.00211   -0.00443
AFIX  23
H5A   2   -0.172561    0.967211    0.906972    11.00000   -1.20000
H5B   2   -0.380828    1.087146    0.862265    11.00000   -1.20000
AFIX   0
C6    1   -0.001095    1.045655    0.796454    11.00000    0.02014    0.02059 =
         0.01809   -0.00610   -0.00340   -0.00299
AFIX  23
H6A   2    0.190017    1.025872    0.808685    11.00000   -1.20000
H6B   2   -0.021842    1.142235    0.763530    11.00000   -1.20000
AFIX   0
C7    1   -0.054444    0.917566    0.747751    11.00000    0.02020    0.01668 =
         0.01683   -0.00369   -0.00352   -0.00206
AFIX  23
H7A   2   -0.002317    0.818322    0.775868    11.00000   -1.20000
H7B   2   -0.251295    0.927295    0.741993    11.00000   -1.20000
AFIX   0
C8    1    0.110034    0.924720    0.665700    11.00000    0.02125    0.01428 =
         0.01749   -0.00530   -0.00309   -0.00322
AFIX  23
H8A   2    0.052397    1.022898    0.637334    11.00000   -1.20000
H8B   2    0.305658    0.920128    0.672040    11.00000   -1.20000
AFIX   0
C9    1   -0.117518    0.827915    0.563652    11.00000    0.01691    0.01590 =
         0.01481   -0.00258   -0.00015   -0.00183
C10   1   -0.133355    0.702839    0.511952    11.00000    0.01539    0.01547 =
         0.01357   -0.00235    0.00077   -0.00271
C11   1    0.018844    0.558772    0.523650    11.00000    0.01474    0.01564 =
         0.01267   -0.00126    0.00084   -0.00317
C12   1    0.197168    0.531546    0.583576    11.00000    0.01443    0.01638 =
         0.01288   -0.00257    0.00054   -0.00302
C13   1    0.245841    0.663333    0.627142    11.00000    0.01763    0.01637 =
         0.01320   -0.00147    0.00031   -0.00316
C14   1    0.479803    0.335285    0.669425    11.00000    0.01731    0.01466 =
         0.01582   -0.00284   -0.00094   -0.00165
C15   1    0.325988    0.385044    0.597772    11.00000    0.01377    0.01768 =
         0.01340   -0.00175    0.00022   -0.00307
C16   1    0.300279    0.269897    0.547632    11.00000    0.01603    0.01424 =
         0.01542   -0.00162    0.00019   -0.00099
AFIX  43
H16   2    0.399894    0.171895    0.555136    11.00000   -1.20000
AFIX   0
F1    5    0.339306    0.383794    0.737206    11.00000    0.02443    0.02268 =
         0.01276   -0.00388   -0.00090   -0.00220
F2    5    0.728045    0.378927    0.662838    11.00000    0.01660    0.02585 =
         0.02258    0.00048   -0.00520   -0.00447
F3    5    0.519036    0.183299    0.678662    11.00000    0.02897    0.01425 =
         0.02054   -0.00103   -0.00892    0.00027
N1    3    0.075038    0.799637    0.617120    11.00000    0.01860    0.01488 =
         0.01481   -0.00431   -0.00261   -0.00249
O1    4   -0.260611    0.949252    0.558439    11.00000    0.02451    0.01638 =
         0.02331   -0.00652   -0.00646    0.00307
O2    4    0.429580    0.654789    0.668193    11.00000    0.02360    0.01910 =
         0.02192   -0.00375   -0.00961   -0.00300
HKLF 4

REM  n3244_0m_x in P-1
REM R1 =  0.0283 for    2603 Fo > 4sig(Fo)  and  0.0286 for all    2646 data
REM    200 parameters refined using      0 restraints

END

WGHT      0.0421      0.2463

REM Highest difference peak  0.265,  deepest hole -0.275,  1-sigma level  0.037
Q1    1   0.3749  0.3627  0.6324  11.00000  0.05    0.27
Q2    1  -0.2871  1.2752  1.0220  11.00000  0.05    0.22
Q3    1  -0.0499  0.6321  0.5154  11.00000  0.05    0.22
Q4    1   0.2297  0.4547  0.6042  11.00000  0.05    0.21
Q5    1   0.3314  0.4650  0.5805  11.00000  0.05    0.21
Q6    1  -0.0381  0.9802  0.7716  11.00000  0.05    0.21
Q7    1   0.0786  0.5435  0.5624  11.00000  0.05    0.20
Q8    1  -0.1558  1.1234  0.9001  11.00000  0.05    0.19
Q9    1   0.0315  0.9217  0.7051  11.00000  0.05    0.19
Q10   1  -0.0270  0.7990  0.5993  11.00000  0.05    0.19
Q11   1  -0.2255  1.1980  0.9614  11.00000  0.05    0.18
Q12   1  -0.1178  0.7616  0.5372  11.00000  0.05    0.18
Q13   1   0.2236  0.5944  0.6011  11.00000  0.05    0.17
Q14   1   0.0774  0.7238  0.6376  11.00000  0.05    0.17
Q15   1   0.1452  0.5550  0.5452  11.00000  0.05    0.17
Q16   1   0.1429  0.7379  0.6197  11.00000  0.05    0.17
Q17   1  -0.0981  1.0547  0.8361  11.00000  0.05    0.17
Q18   1   0.1983  0.7552  0.6018  11.00000  0.05    0.16
Q19   1  -0.2635  0.6979  0.4971  11.00000  0.05    0.16
Q20   1  -0.1503  0.7181  0.4776  11.00000  0.05    0.15
;
_shelx_res_checksum              30997
_shelx_hkl_file
;
  -1   0   0    5.12    0.14
  -1   0   0    5.39    0.15
  -1   0   0    5.31    0.14
  -2   0   0   17.42    0.57
  -2   0   0   18.17    0.47
  -2   0   0   17.96    0.47
  -2   0   0   18.05    0.49
  -3   0   0    4.56    0.19
  -3   0   0    4.57    0.22
  -4   0   0   36.61    1.02
  -4   0   0   35.89    0.81
  -4   0   0   37.64    1.17
  -4   0   0   36.70    0.93
  -4   0   0   37.06    0.85
  -4   0   0   35.70    0.91
  -4   0   0   37.74    0.70
  -4   0   0   37.82    0.86
  -4   0   0   37.25    0.82
  -5   0   0   41.28    0.87
  -5   0   0   39.23    0.98
  -5   0   0   40.73    0.99
  -5   1   0   52.79    1.27
  -5   1   0   53.53    0.96
  -5   1   0   52.89    1.20
  -5   1   0   53.70    1.28
  -5   1   0   53.59    1.19
  -5   1   0   56.18    1.13
  -4   1   0    6.01    0.22
  -4   1   0    5.89    0.19
  -4   1   0    6.12    0.21
  -4   1   0    6.19    0.28
  -4   1   0    5.88    0.22
  -4   1   0    5.95    0.19
  -4   1   0    5.91    0.21
  -4   1   0    6.27    0.21
  -3   1   0   22.85    0.53
  -3   1   0   23.14    0.66
  -3   1   0   23.32    0.74
  -3   1   0   22.21    0.60
  -2   1   0   36.91    0.95
  -2   1   0   36.75    1.09
  -1   1   0  118.29    3.03
  -1   1   0  124.04    2.96
  -1   1   0  113.49    3.02
   0  -1   0    7.38    0.21
   0  -1   0    6.76    0.19
   0   1   0    7.02    0.21
   0   1   0    6.77    0.19
  -2  -1   0   74.99    1.85
  -2  -1   0   76.65    2.17
  -2  -1   0   75.61    1.93
   2   1   0   73.66    2.15
  -3  -1   0   13.92    0.43
  -3  -1   0   14.66    0.51
  -3  -1   0   14.77    0.40
  -4  -1   0   30.21    0.78
  -4  -1   0   29.46    0.84
  -4  -1   0   30.35    0.70
  -4  -1   0   29.31    0.57
  -4  -1   0   28.82    0.66
  -4  -1   0   28.41    0.67
  -4  -1   0   30.95    0.98
  -4  -1   0   29.82    0.70
  -5  -1   0   30.08    0.75
  -5  -1   0   28.11    0.80
  -5  -1   0   27.99    0.72
  -5  -1   0   29.35    0.65
  -5   2   0  255.63    4.92
  -5   2   0  248.26    5.67
  -5   2   0  251.25    4.16
  -5   2   0  250.49    5.29
  -5   2   0  249.74    5.29
  -5   2   0  250.66    5.64
  -4   2   0    0.10    0.03
  -4   2   0    0.15    0.05
  -4   2   0    0.14    0.04
  -4   2   0    0.10    0.03
  -4   2   0    0.12    0.05
  -4   2   0    0.10    0.04
  -4   2   0    0.32    0.07
  -4   2   0    0.08    0.04
  -3   2   0    3.94    0.16
  -3   2   0    4.23    0.19
  -3   2   0    3.89    0.16
  -3   2   0    3.91    0.14
  -3   2   0    3.84    0.13
  -3   2   0    4.01    0.19
  -3   2   0    3.81    0.16
  -3   2   0    3.79    0.15
  -2   2   0   18.80    0.52
  -2   2   0   18.54    0.58
   1  -2   0  297.71    8.44
  -1   2   0  305.73    7.25
  -1   2   0  283.68    7.56
  -1   2   0  293.66    8.39
   0  -2   0  100.85    2.66
   0  -2   0   99.78    2.85
   0   2   0  101.62    2.46
   0   2   0  100.82    2.83
   0   2   0   98.29    2.90
   0   2   0  101.00    2.67
  -1  -2   0   87.02    2.29
  -1  -2   0   84.97    2.56
   1   2   0   91.65    2.59
   1   2   0   88.60    2.32
   1   2   0   95.70    2.59
  -2  -2   0   47.68    1.37
  -2  -2   0   45.44    1.21
  -2  -2   0   44.94    1.15
   2   2   0   45.53    1.35
   2   2   0   47.63    1.31
  -3  -2   0  151.44    3.89
  -3  -2   0  156.49    4.36
   3   2   0  149.96    4.35
   3   2   0  150.47    4.23
  -4  -2   0   46.99    1.16
  -4  -2   0   44.48    1.01
  -4  -2   0   46.00    1.45
  -4  -2   0   48.13    1.27
  -5  -2   0    4.07    0.15
  -5  -2   0    4.32    0.18
  -5  -2   0    4.01    0.17
  -5  -2   0    4.31    0.18
  -5   3   0    0.02    0.03
  -5   3   0    0.02    0.03
  -5   3   0    0.03    0.03
  -5   3   0    0.05    0.04
  -4   3   0   89.10    1.58
  -4   3   0   90.49    1.98
  -4   3   0   88.81    2.09
  -4   3   0   91.81    1.86
  -4   3   0   90.54    2.09
  -4   3   0   90.09    1.97
  -3   3   0   40.39    0.83
  -3   3   0   40.10    1.07
  -3   3   0   36.99    0.94
  -3   3   0   39.35    0.90
  -3   3   0   40.22    0.86
  -3   3   0   39.24    0.73
  -3   3   0   36.86    0.92
  -3   3   0   37.96    0.87
  -3   3   0   39.55    0.94
  -2   3   0  262.35    6.35
   1  -3   0  164.65    4.53
   1  -3   0  159.23    4.61
  -1   3   0  161.59    4.21
  -1   3   0  158.67    3.89
   0  -3   0  296.09    7.84
   0  -3   0  306.69    8.79
   0  -3   0  315.66    8.50
   0   3   0  300.90    7.35
   0   3   0  296.53    8.49
   0   3   0  310.69    7.93
   0   3   0  300.11    8.75
  -1  -3   0  128.91    3.57
  -1  -3   0  124.87    3.67
  -1  -3   0  127.48    3.34
   1   3   0  128.29    3.36
   1   3   0  127.46    3.69
   1   3   0  131.62    3.67
  -2  -3   0   33.07    1.02
  -2  -3   0   34.35    0.91
   2   3   0   32.62    1.01
   2   3   0   33.80    0.97
  -3  -3   0    7.29    0.25
  -3  -3   0    6.86    0.31
   3   3   0    7.22    0.29
   3   3   0    7.18    0.27
  -4  -3   0    0.07    0.02
  -4  -3   0    0.06    0.04
  -4  -3   0    0.08    0.04
  -4  -3   0    0.06    0.03
  -4  -3   0    0.23    0.07
  -5  -3   0    2.76    0.14
  -5  -3   0    2.97    0.12
  -5  -3   0    3.00    0.10
  -5  -3   0    2.92    0.14
  -5   4   0   14.98    0.34
  -5   4   0   14.65    0.36
  -5   4   0   13.81    0.34
  -4   4   0    6.48    0.19
  -4   4   0    6.51    0.21
  -4   4   0    6.86    0.22
  -4   4   0    6.23    0.21
  -4   4   0    6.63    0.23
  -4   4   0    6.53    0.23
  -3   4   0    1.48    0.09
  -3   4   0    1.51    0.11
  -3   4   0    1.57    0.09
  -3   4   0    1.69    0.10
  -3   4   0    1.92    0.12
  -3   4   0    1.62    0.13
  -3   4   0    1.64    0.09
  -2   4   0   16.86    0.50
   1  -4   0  210.64    6.16
   1  -4   0  226.86    6.30
  -1   4   0  219.39    5.40
  -1   4   0  225.02    5.76
   0  -4   0  277.96    7.20
   0  -4   0  280.33    7.82
   0  -4   0  281.23    8.02
   0   4   0  271.05    7.95
   0   4   0  273.11    7.22
  -1  -4   0   64.07    1.85
  -1  -4   0   65.51    1.71
  -1  -4   0   64.10    1.92
   1   4   0   64.59    1.70
   1   4   0   65.49    1.91
   1   4   0   65.63    1.84
  -2  -4   0    5.34    0.21
  -2  -4   0    5.73    0.25
   2   4   0    5.37    0.22
   2   4   0    5.33    0.23
  -3  -4   0   16.81    0.41
  -3  -4   0   17.43    0.63
  -3  -4   0   17.94    0.52
  -3  -4   0   17.25    0.53
  -3  -4   0   16.45    0.45
  -3  -4   0   16.81    0.42
   3   4   0   18.25    0.60
   3   4   0   17.03    0.57
  -4  -4   0   19.77    0.52
  -4  -4   0   20.20    0.48
  -4  -4   0   19.18    0.72
  -4  -4   0   20.85    0.59
  -4  -4   0   18.44    0.53
  -4  -4   0   19.91    0.55
   4   4   0   19.48    0.68
  -5  -4   0    0.08    0.03
  -5  -4   0    0.12    0.04
  -5  -4   0    0.12    0.03
  -5  -4   0    0.17    0.04
  -4   5   0    0.40    0.06
  -4   5   0    0.50    0.06
  -4   5   0    0.59    0.08
  -4   5   0    0.47    0.06
  -3   5   0    0.15    0.05
  -3   5   0    0.09    0.04
  -3   5   0    0.16    0.05
  -3   5   0    0.09    0.04
  -3   5   0    0.05    0.03
  -2   5   0    9.51    0.28
  -2   5   0    9.14    0.27
  -2   5   0    8.95    0.27
  -2   5   0    8.90    0.25
  -2   5   0    9.17    0.28
  -2   5   0    9.83    0.28
   1  -5   0    0.29    0.07
   1  -5   0    0.19    0.06
  -1   5   0    0.22    0.04
   0  -5   0  117.33    3.39
   0   5   0  114.93    3.00
  -1  -5   0  119.97    3.58
  -1  -5   0  123.78    3.19
   1   5   0  123.79    3.56
   1   5   0  123.53    3.18
  -2  -5   0   53.94    1.45
   2   5   0   51.54    1.56
   2   5   0   54.88    1.63
  -3  -5   0   96.93    2.27
  -3  -5   0   97.55    2.10
  -3  -5   0   99.33    2.35
  -3  -5   0  102.01    2.18
  -3  -5   0  101.81    2.98
  -3  -5   0  105.26    2.62
   3   5   0  101.92    2.98
  -4  -5   0    0.11    0.04
  -4  -5   0    0.01    0.02
  -4  -5   0    0.02    0.04
  -4  -5   0    0.03    0.06
  -4  -5   0   -0.01    0.04
  -4  -5   0    0.02    0.03
  -5  -5   0  106.03    2.52
  -5  -5   0  106.73    2.82
  -5  -5   0  110.76    2.53
  -5  -5   0  115.48    2.35
  -4   6   0    4.57    0.16
  -4   6   0    4.98    0.16
  -4   6   0    4.82    0.16
  -3   6   0  104.63    2.27
  -3   6   0  107.14    2.81
  -3   6   0  107.63    2.30
  -3   6   0  107.42    2.19
  -3   6   0  103.84    2.16
  -2   6   0    2.08    0.10
  -2   6   0    1.83    0.11
  -2   6   0    1.96    0.12
  -2   6   0    1.88    0.11
  -2   6   0    1.78    0.10
  -2   6   0    1.87    0.09
   1  -6   0   67.62    2.02
  -1   6   0   66.01    1.78
  -1   6   0   64.88    1.43
  -1   6   0   65.43    1.45
  -1   6   0   66.04    1.46
  -1   6   0   66.26    1.59
  -1   6   0   65.99    1.38
   0  -6   0   23.01    0.78
   0  -6   0   24.63    0.83
   0   6   0   24.35    0.70
   0   6   0   23.95    0.58
   0   6   0   23.90    0.66
  -1  -6   0   21.39    0.76
  -1  -6   0   21.16    0.75
   1   6   0   23.09    0.73
   1   6   0   21.66    0.65
   1   6   0   20.95    0.53
  -2  -6   0   67.77    1.86
  -2  -6   0   67.10    1.60
  -2  -6   0   68.85    1.51
  -2  -6   0   70.18    1.52
  -2  -6   0   69.48    1.63
   2   6   0   71.92    2.08
   2   6   0   68.05    1.52
   2   6   0   65.40    1.61
  -3  -6   0   34.65    0.93
  -3  -6   0   33.65    0.84
  -3  -6   0   32.56    0.77
  -3  -6   0   32.26    1.10
  -3  -6   0   32.07    0.80
   3   6   0   32.79    1.09
  -4  -6   0    1.18    0.08
  -4  -6   0    1.07    0.15
  -4  -6   0    1.13    0.09
  -4  -6   0    1.11    0.07
  -4  -6   0    1.08    0.09
  -4  -6   0    1.20    0.11
  -5  -6   0    1.50    0.07
  -5  -6   0    1.44    0.07
  -5  -6   0    1.47    0.08
  -3   7   0    0.46    0.07
  -3   7   0    0.54    0.08
  -3   7   0    0.66    0.05
  -3   7   0    0.60    0.07
  -3   7   0    0.60    0.07
  -3   7   0    0.59    0.06
  -2   7   0    9.26    0.28
  -2   7   0    9.22    0.28
  -2   7   0    9.53    0.29
  -2   7   0    9.17    0.31
  -2   7   0    9.16    0.31
  -2   7   0    9.37    0.27
   1  -7   0    1.88    0.17
  -1   7   0    1.84    0.12
  -1   7   0    1.85    0.10
  -1   7   0    2.46    0.12
  -1   7   0    1.76    0.11
   0  -7   0  223.41    6.54
   0   7   0  231.03    5.02
   0   7   0  223.86    5.19
   0   7   0  228.54    4.80
   0   7   0  229.92    4.66
   0   7   0  219.06    4.46
   0   7   0  222.01    4.71
  -1  -7   0   60.84    1.35
  -1  -7   0   57.02    1.83
  -1  -7   0   57.93    1.84
  -1  -7   0   57.64    1.40
   1   7   0   59.86    1.39
   1   7   0   57.97    1.44
   1   7   0   57.76    1.30
   1   7   0   59.45    1.30
  -2  -7   0    1.13    0.10
  -2  -7   0    1.04    0.08
  -2  -7   0    1.10    0.09
  -2  -7   0    1.12    0.10
   2   7   0    1.21    0.10
   2   7   0    1.16    0.13
   2   7   0    1.15    0.09
  -3  -7   0    4.19    0.17
  -3  -7   0    3.90    0.15
  -3  -7   0    3.98    0.16
  -3  -7   0    4.17    0.16
  -3  -7   0    3.94    0.26
   3   7   0    3.87    0.17
  -4  -7   0    1.37    0.08
  -4  -7   0    1.50    0.09
  -4  -7   0    1.30    0.10
  -4  -7   0    1.39    0.08
  -3   8   0   17.05    0.39
  -3   8   0   16.56    0.44
  -3   8   0   17.49    0.40
  -2   8   0   29.94    0.78
  -2   8   0   30.35    0.70
  -2   8   0   29.43    0.69
  -2   8   0   29.54    0.69
  -1   8   0   11.03    0.36
  -1   8   0   11.04    0.32
  -1   8   0   10.52    0.31
  -1   8   0   10.43    0.31
   0  -8   0   71.98    1.65
   0   8   0   72.43    1.67
   0   8   0   72.51    1.63
   0   8   0   73.24    1.77
   0   8   0   74.71    1.60
   0   8   0   71.19    1.51
  -1  -8   0  306.20    9.57
  -1  -8   0  328.86    7.41
  -1  -8   0  332.36    6.99
   1   8   0  340.38    6.82
   1   8   0  342.45    6.95
   1   8   0  344.25    7.39
  -2  -8   0   33.42    0.77
  -2  -8   0   33.77    0.85
  -2  -8   0   33.53    0.81
  -2  -8   0   31.34    1.10
   2   8   0   33.53    0.85
   2   8   0   34.33    0.80
  -3  -8   0   46.38    1.02
  -3  -8   0   46.69    1.08
  -3  -8   0   44.09    1.11
   3   8   0   45.82    1.05
   3   8   0   45.28    1.11
  -4  -8   0    2.01    0.11
  -4  -8   0    2.07    0.09
  -4  -8   0    2.08    0.10
  -4  -8   0    2.18    0.10
   4   8   0    1.82    0.11
  -2   9   0   11.43    0.29
  -2   9   0   11.65    0.30
  -2   9   0   11.37    0.29
  -2   9   0   11.52    0.33
  -1   9   0    0.28    0.06
  -1   9   0    0.33    0.05
  -1   9   0    0.32    0.05
  -1   9   0    0.25    0.05
   0  -9   0   28.70    0.73
   0   9   0   28.98    0.77
   0   9   0   28.49    0.70
   0   9   0   29.30    0.70
  -1  -9   0    1.24    0.10
  -1  -9   0    1.14    0.11
   1   9   0    1.25    0.08
   1   9   0    1.37    0.09
   1   9   0    1.32    0.10
  -2  -9   0   11.93    0.34
  -2  -9   0   12.01    0.36
   2   9   0   11.85    0.35
   2   9   0   11.90    0.33
  -3  -9   0    5.88    0.18
  -3  -9   0    6.02    0.18
   3   9   0    5.86    0.20
   3   9   0    5.92    0.19
  -1  10   0    0.68    0.06
  -1  10   0    0.67    0.05
  -1  10   0    0.76    0.07
   0 -10   0    3.78    0.16
   0  10   0    3.91    0.14
   0  10   0    4.05    0.15
   0  10   0    3.75    0.15
  -1 -10   0    9.27    0.28
  -1 -10   0    9.77    0.29
   1  10   0    9.42    0.25
   1  10   0    9.07    0.26
  -2 -10   0    6.23    0.20
  -2 -10   0    6.13    0.18
   2  10   0    6.41    0.19
   2  10   0    6.09    0.17
   2  10  -1   24.55    0.56
   2  10  -1   24.90    0.60
  -2 -10   1   25.63    0.61
  -2 -10   1   24.61    0.56
   1  10  -1   25.56    0.60
   1  10  -1   25.10    0.59
  -1 -10   1   25.67    0.65
  -1 -10   1   25.44    0.62
   0  10  -1   10.55    0.28
   0  10  -1   10.18    0.28
   0  10  -1    9.60    0.30
   0 -10   1    9.84    0.29
  -1  10  -1   10.85    0.31
  -1  10  -1   11.11    0.28
  -1  10  -1   10.78    0.28
   3   9  -1    0.68    0.06
   3   9  -1    0.78    0.07
  -3  -9   1    0.76    0.06
  -3  -9   1    0.75    0.05
   2   9  -1   76.51    1.78
   2   9  -1   76.07    1.67
  -2  -9   1   77.24    1.79
  -2  -9   1   78.18    1.69
   1   9  -1  117.48    2.49
   1   9  -1  116.30    2.47
   1   9  -1  117.83    2.66
  -1  -9   1  117.53    2.55
  -1  -9   1  117.35    2.69
   0   9  -1    5.32    0.20
   0   9  -1    5.43    0.19
   0   9  -1    5.46    0.20
   0   9  -1    5.76    0.23
   0  -9   1    5.57    0.22
  -1   9  -1    6.52    0.21
  -1   9  -1    6.37    0.22
  -1   9  -1    6.41    0.24
  -1   9  -1    6.61    0.21
  -2   9  -1    2.46    0.10
  -2   9  -1    2.56    0.10
  -2   9  -1    2.51    0.11
  -2   9  -1    2.49    0.12
  -4  -8   1    0.34    0.04
  -4  -8   1    0.33    0.04
  -4  -8   1    0.32    0.05
   3   8  -1   23.21    0.58
   3   8  -1   23.24    0.62
  -3  -8   1   23.47    0.58
  -3  -8   1   23.51    0.56
  -3  -8   1   22.64    0.60
   2   8  -1   85.37    1.83
   2   8  -1   82.43    1.94
  -2  -8   1   79.39    2.50
  -2  -8   1   84.80    1.83
  -2  -8   1   81.20    1.77
  -2  -8   1   85.00    1.94
   1   8  -1    8.16    0.28
   1   8  -1    8.25    0.24
   1   8  -1    8.53    0.28
   1   8  -1    8.37    0.26
  -1  -8   1    8.02    0.29
  -1  -8   1    8.32    0.29
   0   8  -1   25.06    0.62
   0   8  -1   24.48    0.61
   0   8  -1   24.15    0.68
   0   8  -1   24.64    0.61
   0   8  -1   23.68    0.57
   0  -8   1   23.73    0.64
  -1   8  -1    3.03    0.16
  -1   8  -1    3.28    0.15
  -1   8  -1    3.04    0.14
  -1   8  -1    3.00    0.14
  -2   8  -1    0.77    0.08
  -2   8  -1    0.65    0.06
  -2   8  -1    0.59    0.08
  -2   8  -1    0.65    0.06
  -3   8  -1    8.68    0.22
  -3   8  -1    8.46    0.26
  -3   8  -1    9.24    0.24
  -4  -7   1    4.59    0.17
  -4  -7   1    4.39    0.16
  -4  -7   1    4.49    0.16
   3   7  -1   46.83    1.09
  -3  -7   1   45.85    1.15
  -3  -7   1   46.80    1.51
  -3  -7   1   46.92    1.07
  -3  -7   1   48.25    1.12
   2   7  -1   50.26    1.21
   2   7  -1   50.27    1.14
   2   7  -1   46.97    1.56
  -2  -7   1   50.88    1.21
  -2  -7   1   49.44    1.21
  -2  -7   1   50.60    1.15
   1   7  -1    0.01    0.03
   1   7  -1    0.04    0.03
   1   7  -1    0.00    0.03
   1   7  -1    0.18    0.04
   1   7  -1    0.05    0.03
  -1  -7   1    0.01    0.03
  -1  -7   1    0.01    0.05
  -1  -7   1    0.00    0.04
  -1  -7   1    0.02    0.05
   0   7  -1    6.17    0.20
   0   7  -1    6.00    0.21
   0   7  -1    6.41    0.24
   0   7  -1    5.98    0.22
   0   7  -1    5.86    0.21
   0   7  -1    5.90    0.19
   0  -7   1    6.43    0.33
  -1   7  -1   13.91    0.38
  -1   7  -1   14.44    0.38
  -1   7  -1   14.18    0.43
  -1   7  -1   13.85    0.39
  -1   7  -1   14.43    0.39
   1  -7   1   14.19    0.57
  -2   7  -1   85.38    1.87
  -2   7  -1   86.45    1.82
  -2   7  -1   85.96    2.03
  -2   7  -1   84.34    1.76
  -2   7  -1   82.48    2.29
  -2   7  -1   86.73    1.79
  -3   7  -1    0.87    0.08
  -3   7  -1    0.84    0.08
  -3   7  -1    0.64    0.06
  -3   7  -1    0.61    0.07
  -3   7  -1    0.61    0.05
  -3   7  -1    0.68    0.07
  -5  -6   1   37.41    0.82
  -5  -6   1   35.75    0.80
  -5  -6   1   37.61    0.89
  -4  -6   1    0.26    0.05
  -4  -6   1    0.18    0.05
  -4  -6   1    0.19    0.04
  -4  -6   1    0.29    0.06
   3   6  -1    0.39    0.09
  -3  -6   1    0.40    0.05
  -3  -6   1    0.52    0.07
  -3  -6   1    0.33    0.05
  -3  -6   1    0.42    0.05
  -3  -6   1    0.37    0.11
   2   6  -1    0.72    0.10
   2   6  -1    0.62    0.07
   2   6  -1    0.53    0.06
  -2  -6   1    0.62    0.07
  -2  -6   1    0.51    0.06
  -2  -6   1    0.52    0.07
   1   6  -1   28.02    0.67
   1   6  -1   27.77    0.80
   1   6  -1   27.96    0.90
   1   6  -1   27.77    0.66
   1   6  -1   26.87    0.70
  -1  -6   1   27.40    0.68
  -1  -6   1   28.13    0.93
   0   6  -1   84.51    1.97
   0   6  -1   86.26    2.03
   0   6  -1   87.85    2.26
   0   6  -1   85.72    1.87
   0   6  -1   85.80    1.83
   0  -6   1   87.28    2.57
   0  -6   1   82.19    2.48
  -1   6  -1   13.98    0.41
  -1   6  -1   14.24    0.36
  -1   6  -1   14.27    0.37
  -1   6  -1   13.81    0.43
  -1   6  -1   13.80    0.38
  -1   6  -1   14.19    0.37
   1  -6   1   15.18    0.55
  -2   6  -1    0.13    0.04
  -2   6  -1    0.07    0.04
  -2   6  -1    0.22    0.06
  -2   6  -1    0.10    0.03
  -2   6  -1    0.09    0.04
  -2   6  -1    0.07    0.03
  -2   6  -1    0.12    0.03
   2  -6   1    0.20    0.07
  -3   6  -1   10.72    0.29
  -3   6  -1   10.73    0.33
  -3   6  -1   10.64    0.31
  -3   6  -1   11.01    0.27
  -3   6  -1   11.15    0.33
  -3   6  -1   10.34    0.32
  -3   6  -1   11.11    0.31
  -4   6  -1    3.57    0.14
  -4   6  -1    3.55    0.13
  -4   6  -1    3.42    0.13
  -4   6  -1    3.42    0.11
  -5  -5   1    1.16    0.08
  -5  -5   1    1.11    0.08
  -5  -5   1    1.25    0.07
  -5  -5   1    1.16    0.08
  -4  -5   1   24.76    0.63
  -4  -5   1   24.30    0.59
  -4  -5   1   23.26    0.86
  -4  -5   1   24.94    0.71
  -4  -5   1   24.23    0.66
   3   5  -1   93.83    2.79
  -3  -5   1   96.06    2.80
  -3  -5   1   90.53    2.18
  -3  -5   1   93.36    2.19
  -3  -5   1   94.67    2.03
  -3  -5   1   93.69    1.97
  -3  -5   1   97.26    2.44
  -3  -5   1   90.10    2.11
   2   5  -1   48.42    1.47
   2   5  -1   50.50    1.53
  -2  -5   1   50.76    1.37
   1   5  -1    9.90    0.33
   1   5  -1   10.00    0.37
  -1  -5   1   10.02    0.33
  -1  -5   1    9.75    0.39
   0   5  -1   13.34    0.41
   0  -5   1   13.32    0.46
   0  -5   1   12.85    0.48
  -1   5  -1   27.66    0.77
   1  -5   1   26.91    0.86
   1  -5   1   28.75    0.90
  -2   5  -1    0.53    0.06
  -2   5  -1    0.48    0.07
  -2   5  -1    0.52    0.04
  -2   5  -1    0.58    0.05
  -2   5  -1    0.56    0.07
  -2   5  -1    0.50    0.06
  -2   5  -1    0.57    0.05
   2  -5   1    0.60    0.08
  -3   5  -1   20.62    0.44
  -3   5  -1   21.28    0.57
  -3   5  -1   20.12    0.52
  -3   5  -1   20.31    0.51
  -3   5  -1   20.11    0.54
  -3   5  -1   20.43    0.52
  -4   5  -1    0.62    0.08
  -4   5  -1    0.64    0.06
  -4   5  -1    0.55    0.07
  -4   5  -1    0.56    0.06
  -4   5  -1    0.60    0.05
  -4   5  -1    0.69    0.08
  -5  -4   1    6.02    0.17
  -5  -4   1    6.18    0.19
  -5  -4   1    5.78    0.19
  -5  -4   1    6.05    0.21
  -5  -4   1    5.76    0.22
   4   4  -1    5.32    0.27
  -4  -4   1    6.09    0.23
  -4  -4   1    5.49    0.18
  -4  -4   1    5.45    0.19
  -4  -4   1    6.21    0.24
  -4  -4   1    5.40    0.30
  -4  -4   1    5.78    0.18
  -4  -4   1    5.51    0.19
   3   4  -1    2.49    0.16
   3   4  -1    2.36    0.14
  -3  -4   1    2.57    0.13
  -3  -4   1    2.76    0.19
  -3  -4   1    2.40    0.10
  -3  -4   1    2.32    0.13
  -3  -4   1    2.23    0.10
  -3  -4   1    2.33    0.13
  -3  -4   1    2.41    0.11
   2   4  -1   26.12    0.83
   2   4  -1   26.04    0.79
  -2  -4   1   26.25    0.83
  -2  -4   1   25.43    0.73
   1   4  -1   10.78    0.36
   1   4  -1   10.83    0.34
   1   4  -1   10.90    0.38
  -1  -4   1   10.82    0.34
  -1  -4   1   11.06    0.37
  -1  -4   1   10.69    0.39
   0   4  -1  119.68    3.54
   0   4  -1  123.56    3.25
   0  -4   1  126.28    3.45
   0  -4   1  124.38    3.56
   0  -4   1  122.89    3.17
  -1   4  -1  378.79    9.72
  -1   4  -1  371.22    9.10
   1  -4   1  360.54   10.43
   1  -4   1  381.46   10.81
  -2   4  -1   21.62    0.62
   2  -4   1   21.83    0.70
  -3   4  -1    0.08    0.03
  -3   4  -1    0.01    0.04
  -3   4  -1    0.03    0.03
  -3   4  -1    0.07    0.04
  -3   4  -1    0.04    0.04
  -3   4  -1    0.04    0.03
  -3   4  -1    0.02    0.03
  -4   4  -1    1.63    0.10
  -4   4  -1    1.71    0.12
  -4   4  -1    1.80    0.10
  -4   4  -1    1.55    0.09
  -4   4  -1    1.80    0.10
  -4   4  -1    1.73    0.12
  -5   4  -1   26.80    0.57
  -5   4  -1   26.62    0.49
  -5   4  -1   26.24    0.61
  -5  -3   1    6.42    0.20
  -5  -3   1    6.03    0.23
  -5  -3   1    6.31    0.23
  -5  -3   1    6.45    0.18
  -4  -3   1    3.11    0.22
  -4  -3   1    3.26    0.12
  -4  -3   1    3.53    0.17
  -4  -3   1    3.33    0.16
   3   3  -1  268.44    7.46
   3   3  -1  261.19    7.24
  -3  -3   1  258.82    7.41
  -3  -3   1  256.68    6.73
   2   3  -1  325.36    9.38
   2   3  -1  326.26    9.63
  -2  -3   1  332.32    8.63
  -2  -3   1  346.16    9.49
   1   3  -1    5.94    0.20
   1   3  -1    5.71    0.21
   1   3  -1    5.88    0.19
  -1  -3   1    6.03    0.22
  -1  -3   1    5.31    0.22
  -1  -3   1    5.83    0.20
   0   3  -1   25.42    0.74
   0   3  -1   24.96    0.63
   0   3  -1   25.61    0.77
   0   3  -1   25.63    0.69
   0  -3   1   25.95    0.78
   0  -3   1   25.95    0.75
   0  -3   1   26.10    0.69
  -1   3  -1  212.71    5.53
  -1   3  -1  211.21    5.22
   1  -3   1  210.85    6.14
   1  -3   1  214.48    5.94
  -2   3  -1   55.80    1.45
  -2   3  -1   56.96    1.44
  -3   3  -1    3.12    0.17
  -3   3  -1    2.97    0.14
  -3   3  -1    3.25    0.15
  -3   3  -1    3.01    0.13
  -3   3  -1    2.79    0.12
  -3   3  -1    3.12    0.13
  -3   3  -1    3.18    0.12
  -4   3  -1    0.45    0.06
  -4   3  -1    0.22    0.05
  -4   3  -1    0.25    0.05
  -4   3  -1    0.21    0.06
  -4   3  -1    0.29    0.06
  -4   3  -1    0.28    0.07
  -4   3  -1    0.32    0.06
  -4   3  -1    0.32    0.05
  -5   3  -1    1.25    0.08
  -5   3  -1    1.41    0.09
  -5   3  -1    1.24    0.07
  -5   3  -1    1.34    0.07
  -5  -2   1   12.69    0.37
  -5  -2   1   11.88    0.36
  -5  -2   1   12.84    0.40
  -5  -2   1   12.50    0.32
  -4  -2   1   24.45    0.71
  -4  -2   1   23.76    0.56
  -4  -2   1   24.72    0.84
  -4  -2   1   24.84    0.67
   3   2  -1    0.78    0.07
   3   2  -1    0.76    0.07
  -3  -2   1    0.78    0.06
   2   2  -1   27.04    0.77
   2   2  -1   26.32    0.80
  -2  -2   1   26.49    0.83
  -2  -2   1   26.93    0.72
   1   2  -1  224.13    6.15
   1   2  -1  214.97    5.65
   1   2  -1  220.86    6.36
  -1  -2   1  209.71    6.27
  -1  -2   1  220.82    6.08
  -1  -2   1  219.21    5.71
   0   2  -1   18.61    0.47
   0   2  -1   18.28    0.57
   0   2  -1   19.42    0.55
   0   2  -1   18.78    0.51
   0  -2   1   19.80    0.56
   0  -2   1   19.53    0.58
   0  -2   1   19.07    0.51
  -1   2  -1   18.49    0.53
  -1   2  -1   19.89    0.52
  -1   2  -1   20.56    0.51
   1  -2   1   20.17    0.59
  -2   2  -1   16.45    0.43
  -2   2  -1   16.10    0.46
  -2   2  -1   16.47    0.52
  -3   2  -1   99.18    2.02
  -3   2  -1   95.82    2.30
  -3   2  -1   98.04    2.03
  -3   2  -1   98.74    1.72
  -3   2  -1  106.12    2.89
  -3   2  -1  103.71    2.53
  -4   2  -1   21.17    0.56
  -4   2  -1   21.60    0.54
  -4   2  -1   21.15    0.52
  -4   2  -1   20.18    0.54
  -4   2  -1   20.75    0.45
  -4   2  -1   20.53    0.52
  -4   2  -1   21.62    0.70
  -4   2  -1   20.84    0.55
  -4   2  -1   22.01    0.49
  -5   2  -1  121.69    2.78
  -5   2  -1  119.98    2.06
  -5   2  -1  119.61    2.75
  -5   2  -1  120.90    2.59
  -5   2  -1  125.59    2.43
  -5   2  -1  119.92    2.60
  -5  -1   1    2.96    0.14
  -5  -1   1    3.32    0.15
  -5  -1   1    3.23    0.13
  -5  -1   1    3.33    0.15
  -4  -1   1    3.08    0.12
  -4  -1   1    3.02    0.20
  -4  -1   1    3.33    0.13
  -4  -1   1    3.10    0.16
  -4  -1   1    3.47    0.14
  -4  -1   1    3.05    0.16
  -3  -1   1    6.81    0.21
  -3  -1   1    6.72    0.25
  -3  -1   1    7.64    0.31
   2   1  -1   18.16    0.56
  -2  -1   1   18.99    0.59
  -2  -1   1   19.09    0.50
  -2  -1   1   18.31    0.50
   0   1  -1   58.04    1.59
   0   1  -1   54.06    1.47
   0  -1   1   56.50    1.59
   0  -1   1   56.60    1.50
  -1   1  -1  209.98    5.55
  -1   1  -1  225.00    5.33
  -2   1  -1   56.37    1.41
  -2   1  -1   55.64    1.62
  -3   1  -1    1.12    0.09
  -3   1  -1    0.99    0.09
  -3   1  -1    0.89    0.07
  -4   1  -1    2.96    0.15
  -4   1  -1    3.17    0.15
  -4   1  -1    3.29    0.14
  -4   1  -1    3.25    0.14
  -4   1  -1    3.12    0.13
  -4   1  -1    3.17    0.18
  -4   1  -1    2.99    0.13
  -4   1  -1    3.25    0.14
  -4   1  -1    3.47    0.13
  -5   1  -1   86.55    1.88
  -5   1  -1   84.88    1.98
  -5   1  -1   86.20    1.75
  -5   1  -1   86.28    1.49
  -5   1  -1   85.94    1.87
  -5   1  -1   87.39    2.01
  -5   0   1   23.24    0.52
  -5   0   1   22.42    0.65
  -5   0   1   22.91    0.60
  -5   0   1   22.71    0.59
  -4   0   1    7.55    0.33
  -4   0   1    7.55    0.23
  -4   0   1    7.22    0.27
  -4   0   1    7.17    0.23
  -4   0   1    7.10    0.26
  -4   0   1    7.45    0.23
  -4   0   1    7.60    0.21
  -4   0   1    7.32    0.23
  -3   0   1   45.18    1.36
  -3   0   1   44.05    1.17
  -2   0   1  151.35    3.94
  -2   0   1  155.22    4.36
  -2   0   1  155.59    3.77
  -1   0   1  173.74    4.24
  -1   0   1  177.11    5.01
  -1   0   1  167.93    4.42
  -1   0  -1   11.73    0.32
  -1   0  -1   11.48    0.32
  -1   0  -1   11.48    0.32
  -2   0  -1   79.67    1.94
  -2   0  -1   80.05    2.01
   2   0   1   77.04    2.24
  -3   0  -1   32.97    0.89
  -3   0  -1   33.37    1.03
  -4   0  -1    7.93    0.26
  -4   0  -1    7.79    0.24
  -4   0  -1    8.15    0.24
  -4   0  -1    8.23    0.25
  -4   0  -1    7.67    0.31
  -4   0  -1    7.83    0.26
  -4   0  -1    8.25    0.27
  -4   0  -1    8.13    0.24
  -4   0  -1    8.25    0.22
  -4   0  -1    8.38    0.35
  -5   0  -1    5.60    0.17
  -5   0  -1    5.64    0.20
  -5   0  -1    5.35    0.19
  -5   0  -1    5.49    0.17
  -5   1   1   29.05    0.73
  -5   1   1   29.77    0.68
  -5   1   1   29.53    0.64
  -5   1   1   27.59    0.68
  -5   1   1   28.90    0.72
  -4   1   1    0.32    0.06
  -4   1   1    0.35    0.06
  -4   1   1    0.26    0.05
  -4   1   1    0.40    0.07
  -4   1   1    0.43    0.08
  -4   1   1    0.52    0.07
  -4   1   1    0.37    0.06
  -4   1   1    0.40    0.07
  -4   1   1    0.36    0.07
  -3   1   1   34.24    0.89
  -3   1   1   37.42    1.09
  -3   1   1   35.98    0.96
  -3   1   1   33.71    0.76
  -2   1   1   84.85    2.45
  -2   1   1   86.34    2.12
  -1   1   1  125.31    2.93
  -1   1   1  111.46    3.04
  -1   1   1  120.81    3.05
   0  -1  -1  209.86    5.59
   0   1   1  224.24    5.59
  -1  -1  -1   10.72    0.27
  -1  -1  -1   10.39    0.29
   1   1   1   10.63    0.32
   1   1   1   10.41    0.29
   1   1   1   10.89    0.31
  -2  -1  -1    4.46    0.18
  -2  -1  -1    3.83    0.13
  -2  -1  -1    3.91    0.14
   2   1   1    3.84    0.15
  -3  -1  -1    0.64    0.07
  -3  -1  -1    0.45    0.08
  -4  -1  -1   58.50    1.26
  -4  -1  -1   59.04    1.72
  -4  -1  -1   56.41    1.01
  -4  -1  -1   54.95    1.17
  -4  -1  -1   57.22    1.25
  -4  -1  -1   55.91    1.19
  -4  -1  -1   56.67    1.50
  -4  -1  -1   56.11    1.36
  -4  -1  -1   54.61    1.33
  -4  -1  -1   52.68    1.50
  -5  -1  -1   22.25    0.51
  -5  -1  -1   21.68    0.57
  -5  -1  -1   22.96    0.59
  -5   2   1   26.33    0.64
  -5   2   1   26.35    0.61
  -5   2   1   26.10    0.62
  -5   2   1   25.62    0.64
  -4   2   1    5.10    0.19
  -4   2   1    5.71    0.18
  -4   2   1    5.51    0.20
  -4   2   1    5.47    0.20
  -4   2   1    5.48    0.20
  -4   2   1    5.55    0.18
  -4   2   1    5.33    0.25
  -4   2   1    5.36    0.20
  -3   2   1   76.14    1.66
  -3   2   1   76.47    1.56
  -3   2   1   74.36    1.77
  -3   2   1   76.54    1.83
  -3   2   1   75.02    1.32
  -3   2   1   76.50    1.94
  -3   2   1   73.67    1.57
  -3   2   1   81.30    2.22
  -3   2   1   73.17    1.55
  -2   2   1  109.64    2.72
  -2   2   1  111.36    3.14
   1  -2  -1  124.76    3.70
  -1   2   1  130.96    3.64
  -1   2   1  129.33    3.80
  -1   2   1  130.92    3.36
  -1   2   1  130.86    3.15
   0  -2  -1   65.01    1.77
   0  -2  -1   66.98    1.82
   0  -2  -1   61.85    1.63
   0   2   1   61.69    1.64
   0   2   1   59.35    1.81
   0   2   1   61.00    1.77
  -1  -2  -1   32.84    1.04
  -1  -2  -1   35.50    0.93
  -1  -2  -1   33.87    0.86
   1   2   1   35.96    1.04
   1   2   1   36.42    0.93
   1   2   1   36.83    1.00
  -2  -2  -1  336.16    8.52
  -2  -2  -1  364.01   10.01
  -2  -2  -1  351.08    9.13
   2   2   1  349.14   10.14
   2   2   1  354.22    9.85
  -3  -2  -1  271.83    6.65
  -3  -2  -1  278.20    7.76
  -3  -2  -1  270.45    7.10
   3   2   1  277.87    7.61
   3   2   1  274.18    7.80
  -4  -2  -1    4.76    0.20
  -4  -2  -1    4.66    0.14
  -4  -2  -1    4.88    0.26
  -4  -2  -1    4.57    0.19
  -4  -2  -1    4.60    0.19
  -5  -2  -1    3.58    0.14
  -5  -2  -1    3.61    0.16
  -5  -2  -1    3.80    0.16
  -5   3   1    1.84    0.09
  -5   3   1    1.92    0.09
  -4   3   1   21.85    0.57
  -4   3   1   21.44    0.46
  -4   3   1   22.40    0.56
  -4   3   1   22.26    0.54
  -4   3   1   22.19    0.55
  -3   3   1    3.46    0.14
  -3   3   1    3.47    0.13
  -3   3   1    3.43    0.13
  -3   3   1    3.56    0.15
  -3   3   1    3.24    0.15
  -3   3   1    3.33    0.14
  -3   3   1    3.47    0.19
  -3   3   1    3.22    0.14
  -2   3   1  140.24    3.37
  -2   3   1  133.94    3.50
   1  -3  -1    7.00    0.25
   1  -3  -1    6.92    0.23
  -1   3   1    7.04    0.21
  -1   3   1    7.02    0.22
  -1   3   1    6.87    0.26
   0  -3  -1    1.90    0.10
   0  -3  -1    1.99    0.10
   0  -3  -1    2.03    0.09
   0   3   1    1.95    0.08
   0   3   1    1.87    0.09
   0   3   1    1.75    0.08
   0   3   1    1.98    0.08
  -1  -3  -1   40.63    1.09
  -1  -3  -1   40.63    1.22
  -1  -3  -1   40.16    1.21
   1   3   1   40.89    1.21
   1   3   1   41.37    1.17
   1   3   1   41.68    1.08
  -2  -3  -1   85.71    2.46
  -2  -3  -1   84.36    2.21
   2   3   1   83.37    2.47
   2   3   1   87.25    2.39
  -3  -3  -1   63.49    1.94
  -3  -3  -1   64.41    1.72
   3   3   1   66.07    1.87
   3   3   1   66.49    1.93
  -4  -3  -1   15.05    0.46
  -4  -3  -1   14.56    0.43
  -4  -3  -1   13.82    0.42
  -4  -3  -1   14.39    0.36
  -4  -3  -1   14.62    0.56
  -5  -3  -1   27.03    0.77
  -5  -3  -1   28.58    0.71
  -5  -3  -1   27.46    0.63
  -5   4   1   10.49    0.27
  -5   4   1   10.30    0.26
  -4   4   1    1.00    0.07
  -4   4   1    1.11    0.10
  -4   4   1    0.93    0.09
  -4   4   1    1.02    0.08
  -4   4   1    1.02    0.08
  -3   4   1   78.60    1.71
  -3   4   1   78.15    1.62
  -3   4   1   76.59    1.36
  -3   4   1   75.84    1.63
  -3   4   1   77.85    1.80
  -2   4   1   64.69    1.65
  -2   4   1   64.77    1.67
   1  -4  -1    1.33    0.10
   1  -4  -1    1.49    0.10
  -1   4   1    1.50    0.08
  -1   4   1    1.27    0.07
   0  -4  -1   48.09    1.28
   0  -4  -1   49.74    1.45
   0   4   1   47.88    1.28
   0   4   1   47.50    1.42
  -1  -4  -1   64.11    1.89
  -1  -4  -1   65.62    1.83
  -1  -4  -1   61.13    1.88
  -1  -4  -1   64.07    1.68
   1   4   1   64.36    1.88
   1   4   1   63.08    1.81
   1   4   1   63.96    1.67
  -2  -4  -1  114.92    2.95
  -2  -4  -1  114.63    3.26
   2   4   1  112.10    3.19
   2   4   1  112.94    3.29
  -3  -4  -1   11.47    0.45
  -3  -4  -1   11.26    0.29
  -3  -4  -1   10.28    0.28
  -3  -4  -1   11.56    0.36
  -3  -4  -1   10.98    0.32
  -3  -4  -1   11.19    0.37
  -3  -4  -1   10.66    0.31
   3   4   1   11.58    0.42
   3   4   1   11.34    0.40
  -4  -4  -1    0.02    0.02
  -4  -4  -1    0.06    0.04
  -4  -4  -1    0.04    0.05
  -4  -4  -1    0.03    0.02
  -4  -4  -1    0.05    0.03
  -4  -4  -1    0.06    0.04
  -4  -4  -1    0.03    0.02
   4   4   1    0.04    0.04
  -5  -4  -1   45.79    1.11
  -5  -4  -1   46.73    1.12
  -5  -4  -1   45.29    1.24
  -5  -4  -1   47.00    1.02
  -4   5   1   33.85    0.78
  -4   5   1   34.49    0.75
  -4   5   1   34.27    0.79
  -4   5   1   33.54    0.63
  -3   5   1    0.15    0.04
  -3   5   1    0.15    0.04
  -3   5   1    0.21    0.05
  -3   5   1    0.13    0.05
  -2   5   1   16.72    0.46
  -2   5   1   18.53    0.50
  -2   5   1   17.85    0.46
  -2   5   1   17.84    0.44
  -2   5   1   18.12    0.45
  -2   5   1   17.67    0.51
  -2   5   1   17.73    0.43
   1  -5  -1    1.41    0.12
  -1   5   1    1.50    0.09
   0  -5  -1   19.27    0.65
   0  -5  -1   19.43    0.62
   0   5   1   18.66    0.55
  -1  -5  -1   33.98    0.93
  -1  -5  -1   32.99    1.05
  -1  -5  -1   32.26    1.05
   1   5   1   33.88    0.92
   1   5   1   32.93    1.03
  -2  -5  -1   51.96    1.41
   2   5   1   51.17    1.51
   2   5   1   51.57    1.57
  -3  -5  -1   23.78    0.83
  -3  -5  -1   24.70    0.69
  -3  -5  -1   22.75    0.59
  -3  -5  -1   24.18    0.58
  -3  -5  -1   23.79    0.62
   3   5   1   24.31    0.81
  -4  -5  -1    3.19    0.16
  -4  -5  -1    3.03    0.14
  -4  -5  -1    2.88    0.16
  -4  -5  -1    2.94    0.13
  -4  -5  -1    3.20    0.13
  -4  -5  -1    2.95    0.21
  -5  -5  -1   13.11    0.32
  -5  -5  -1   12.10    0.38
  -5  -5  -1   12.70    0.35
  -4   6   1   16.56    0.39
  -4   6   1   16.42    0.47
  -4   6   1   17.18    0.41
  -4   6   1   16.04    0.40
  -3   6   1   72.97    1.55
  -3   6   1   73.39    1.61
  -3   6   1   75.67    1.58
  -3   6   1   74.40    1.65
  -3   6   1   75.99    1.99
  -2   6   1    7.35    0.25
  -2   6   1    7.40    0.26
  -2   6   1    7.69    0.24
  -2   6   1    7.39    0.24
  -2   6   1    7.95    0.25
  -2   6   1    7.69    0.23
   1  -6  -1   18.06    0.64
  -1   6   1   17.15    0.43
  -1   6   1   16.76    0.44
  -1   6   1   17.17    0.44
  -1   6   1   17.68    0.51
  -1   6   1   17.43    0.49
  -1   6   1   16.99    0.44
   0  -6  -1   37.06    1.16
   0   6   1   34.67    0.83
   0   6   1   35.92    1.00
  -1  -6  -1   35.91    1.18
  -1  -6  -1   37.31    1.19
   1   6   1   36.86    1.16
   1   6   1   37.14    1.03
  -2  -6  -1   63.53    1.41
  -2  -6  -1   64.34    1.73
  -2  -6  -1   63.04    1.49
  -2  -6  -1   62.22    1.51
   2   6   1   62.01    1.49
   2   6   1   62.14    1.41
   2   6   1   65.44    1.93
  -3  -6  -1   18.10    0.49
  -3  -6  -1   18.30    0.69
  -3  -6  -1   19.57    0.56
  -3  -6  -1   18.27    0.47
  -3  -6  -1   18.89    0.51
   3   6   1   18.21    0.68
  -4  -6  -1    0.09    0.04
  -4  -6  -1    0.04    0.02
  -4  -6  -1    0.02    0.03
  -4  -6  -1    0.04    0.03
  -4  -6  -1    0.12    0.05
  -4  -6  -1    0.04    0.06
  -5  -6  -1    8.66    0.25
  -5  -6  -1    8.45    0.23
  -5  -6  -1    8.46    0.23
  -3   7   1    0.97    0.06
  -3   7   1    0.77    0.08
  -3   7   1    0.90    0.08
  -3   7   1    0.96    0.07
  -2   7   1   13.90    0.44
  -2   7   1   14.51    0.39
  -2   7   1   14.62    0.43
  -2   7   1   14.18    0.38
  -2   7   1   14.85    0.40
   1  -7  -1    4.05    0.26
   1  -7  -1    4.02    0.25
  -1   7   1    4.23    0.17
  -1   7   1    4.19    0.19
  -1   7   1    4.02    0.16
  -1   7   1    4.21    0.17
  -1   7   1    4.16    0.16
   0  -7  -1   22.32    0.80
   0  -7  -1   22.01    0.79
   0   7   1   21.41    0.55
   0   7   1   21.25    0.55
   0   7   1   21.08    0.55
   0   7   1   22.08    0.61
   0   7   1   21.22    0.51
  -1  -7  -1    2.10    0.18
  -1  -7  -1    1.96    0.12
  -1  -7  -1    2.16    0.13
   1   7   1    2.04    0.11
   1   7   1    2.04    0.13
   1   7   1    1.95    0.11
   1   7   1    2.16    0.12
  -2  -7  -1  195.43    4.57
  -2  -7  -1  208.64    4.24
  -2  -7  -1  198.59    4.49
  -2  -7  -1  203.42    4.12
   2   7   1  201.96    4.23
   2   7   1  193.97    4.49
   2   7   1  195.78    5.79
  -3  -7  -1   84.53    2.63
  -3  -7  -1   88.08    2.06
  -3  -7  -1   88.32    1.87
  -3  -7  -1   85.42    1.91
  -3  -7  -1   90.10    2.01
   3   7   1   87.94    1.93
  -4  -7  -1   11.63    0.32
  -4  -7  -1   11.72    0.32
  -4  -7  -1   11.64    0.34
  -4  -7  -1   11.53    0.36
  -5  -7  -1    0.09    0.03
  -3   8   1    1.35    0.07
  -3   8   1    1.35    0.08
  -3   8   1    1.39    0.08
  -3   8   1    1.47    0.06
  -2   8   1   14.95    0.44
  -2   8   1   14.90    0.39
  -2   8   1   14.68    0.39
  -2   8   1   15.31    0.39
  -2   8   1   14.72    0.39
  -1   8   1   11.66    0.37
  -1   8   1   11.28    0.33
  -1   8   1   11.03    0.32
  -1   8   1   11.59    0.33
   0  -8  -1  118.74    3.58
   0  -8  -1  113.53    2.61
   0   8   1  119.35    2.65
   0   8   1  117.86    2.78
   0   8   1  117.36    2.57
   0   8   1  119.20    2.50
  -1  -8  -1   81.41    1.81
  -1  -8  -1   75.98    2.48
  -1  -8  -1   79.86    1.90
   1   8   1   83.45    1.88
   1   8   1   82.07    1.76
   1   8   1   81.59    1.76
  -2  -8  -1   31.32    0.76
  -2  -8  -1   31.26    0.73
  -2  -8  -1   29.13    1.03
  -2  -8  -1   31.75    0.80
   2   8   1   31.27    0.75
   2   8   1   30.89    0.79
  -3  -8  -1    6.89    0.23
  -3  -8  -1    6.71    0.22
  -3  -8  -1    6.94    0.22
   3   8   1    6.99    0.25
   3   8   1    7.10    0.24
  -4  -8  -1    0.69    0.06
  -4  -8  -1    0.73    0.05
  -4  -8  -1    0.59    0.06
  -4  -8  -1    0.63    0.08
   4   8   1    0.74    0.06
  -2   9   1   15.35    0.43
  -2   9   1   15.93    0.38
  -2   9   1   14.99    0.37
  -2   9   1   15.93    0.38
  -1   9   1    5.63    0.19
  -1   9   1    5.40    0.22
  -1   9   1    5.57    0.19
   0  -9  -1   23.33    0.63
   0   9   1   23.97    0.60
   0   9   1   24.43    0.60
   0   9   1   24.45    0.66
  -1  -9  -1   13.59    0.42
  -1  -9  -1   13.99    0.41
   1   9   1   14.32    0.36
   1   9   1   13.82    0.38
   1   9   1   13.71    0.38
  -2  -9  -1   35.00    0.87
  -2  -9  -1   34.91    0.82
   2   9   1   34.64    0.81
   2   9   1   34.53    0.86
  -3  -9  -1   33.09    0.74
  -3  -9  -1   32.88    0.77
   3   9   1   32.62    0.80
   3   9   1   32.65    0.76
  -1  10   1   16.62    0.41
  -1  10   1   16.85    0.45
  -1  10   1   16.66    0.40
   0  10   1    1.20    0.09
   0  10   1    1.38    0.08
   0  10   1    1.39    0.08
  -1 -10  -1    4.01    0.16
  -1 -10  -1    3.65    0.15
   1  10   1    3.73    0.14
   1  10   1    3.79    0.12
  -2 -10  -1    6.48    0.21
  -2 -10  -1    6.46    0.19
   2  10   1    6.57    0.18
   2  10   1    6.54    0.20
   2  10  -2    7.55    0.22
   2  10  -2    7.29    0.19
  -2 -10   2    7.64    0.22
  -2 -10   2    7.41    0.20
   1  10  -2   33.90    0.79
   1  10  -2   33.21    0.76
  -1 -10   2   34.81    0.79
  -1 -10   2   34.69    0.83
   0  10  -2    3.30    0.13
   0 -10   2    3.04    0.14
  -1  10  -2    3.07    0.11
  -1  10  -2    3.01    0.11
  -1  10  -2    3.01    0.13
   3   9  -2   20.77    0.53
   3   9  -2   20.52    0.50
  -3  -9   2   20.77    0.48
   2   9  -2    2.39    0.12
  -2  -9   2    2.27    0.12
  -2  -9   2    2.29    0.12
   1   9  -2   30.46    0.69
   1   9  -2   28.56    0.66
   1   9  -2   30.43    0.74
   1   9  -2   29.87    0.71
  -1  -9   2   30.60    0.77
  -1  -9   2   29.68    0.74
   0   9  -2   18.87    0.53
   0   9  -2   19.02    0.46
   0   9  -2   18.33    0.48
   0   9  -2   18.88    0.49
   0  -9   2   18.01    0.51
  -1   9  -2    5.03    0.20
  -1   9  -2    5.13    0.18
  -1   9  -2    4.93    0.18
  -1   9  -2    4.89    0.18
  -2   9  -2    0.28    0.04
  -2   9  -2    0.26    0.05
  -2   9  -2    0.19    0.04
  -4  -8   2    0.46    0.04
  -4  -8   2    0.42    0.05
  -4  -8   2    0.41    0.04
   3   8  -2    0.32    0.06
   3   8  -2    0.60    0.07
  -3  -8   2    0.30    0.05
  -3  -8   2    0.58    0.06
  -3  -8   2    0.40    0.05
   2   8  -2   17.10    0.48
   2   8  -2   17.14    0.45
  -2  -8   2   16.46    0.43
  -2  -8   2   15.56    0.63
  -2  -8   2   16.99    0.48
  -2  -8   2   16.58    0.45
   1   8  -2   73.84    1.71
   1   8  -2   74.01    1.61
   1   8  -2   73.65    1.60
   1   8  -2   72.99    1.51
  -1  -8   2   70.51    1.73
  -1  -8   2   73.03    1.65
   0   8  -2    0.32    0.07
   0   8  -2    0.50    0.07
   0   8  -2    0.43    0.06
   0   8  -2    0.40    0.05
   0  -8   2    0.44    0.08
  -1   8  -2   16.92    0.44
  -1   8  -2   17.05    0.50
  -1   8  -2   16.68    0.45
  -1   8  -2   16.80    0.45
  -2   8  -2   43.88    1.09
  -2   8  -2   44.86    0.99
  -2   8  -2   44.02    0.96
  -2   8  -2   42.76    0.97
  -2   8  -2   41.78    0.93
  -3   8  -2    0.88    0.07
  -3   8  -2    0.87    0.05
  -3   8  -2    0.95    0.07
  -4  -7   2    1.96    0.09
  -4  -7   2    1.97    0.10
  -4  -7   2    2.07    0.10
   3   7  -2   85.45    1.91
  -3  -7   2   85.42    1.90
  -3  -7   2   89.22    1.99
  -3  -7   2   88.80    2.05
  -3  -7   2   85.45    2.63
   2   7  -2   68.09    1.51
   2   7  -2   66.75    1.38
   2   7  -2   67.47    1.60
   2   7  -2   65.10    2.06
  -2  -7   2   67.08    1.59
  -2  -7   2   66.94    1.60
  -2  -7   2   69.71    1.51
   1   7  -2   33.78    0.84
   1   7  -2   34.17    0.73
   1   7  -2   33.95    0.80
   1   7  -2   33.52    0.79
  -1  -7   2   32.83    0.85
  -1  -7   2   33.92    0.82
  -1  -7   2   32.04    1.12
   0   7  -2    6.33    0.22
   0   7  -2    6.48    0.25
   0   7  -2    6.00    0.22
   0   7  -2    6.05    0.20
   0   7  -2    6.40    0.23
   0   7  -2    6.52    0.21
   0  -7   2    6.21    0.24
   0  -7   2    6.52    0.34
  -1   7  -2    0.47    0.07
  -1   7  -2    0.47    0.07
  -1   7  -2    0.51    0.06
  -1   7  -2    0.64    0.07
  -1   7  -2    0.49    0.06
   1  -7   2    0.51    0.10
  -2   7  -2  136.46    2.82
  -2   7  -2  131.72    3.05
  -2   7  -2  129.48    2.74
  -2   7  -2  128.04    3.48
  -2   7  -2  130.82    2.67
  -2   7  -2  127.83    2.64
  -3   7  -2   10.11    0.29
  -3   7  -2   10.59    0.31
  -3   7  -2   10.36    0.27
  -3   7  -2   10.25    0.30
  -3   7  -2   10.09    0.32
  -5  -6   2    5.02    0.16
  -5  -6   2    5.07    0.15
  -5  -6   2    5.13    0.15
  -4  -6   2    0.31    0.05
  -4  -6   2    0.36    0.06
  -4  -6   2    0.46    0.06
   3   6  -2    2.05    0.17
  -3  -6   2    2.14    0.10
  -3  -6   2    2.00    0.11
  -3  -6   2    2.09    0.19
  -3  -6   2    2.08    0.10
  -3  -6   2    1.93    0.10
  -3  -6   2    2.17    0.12
   2   6  -2   53.09    1.22
   2   6  -2   52.24    1.29
   2   6  -2   55.03    1.67
  -2  -6   2   55.05    1.22
  -2  -6   2   53.08    1.20
  -2  -6   2   54.18    1.43
  -2  -6   2   53.99    1.29
  -2  -6   2   52.70    1.28
  -2  -6   2   54.85    1.17
   1   6  -2    2.04    0.14
   1   6  -2    2.14    0.14
   1   6  -2    2.02    0.11
   1   6  -2    1.98    0.09
   1   6  -2    2.00    0.11
   1   6  -2    2.01    0.11
  -1  -6   2    2.14    0.12
  -1  -6   2    2.04    0.16
  -1  -6   2    1.91    0.11
   0   6  -2    1.33    0.09
   0   6  -2    1.09    0.09
   0   6  -2    1.13    0.08
   0   6  -2    1.09    0.08
   0   6  -2    1.13    0.08
   0   6  -2    1.51    0.08
   0   6  -2    1.22    0.08
   0  -6   2    1.09    0.12
  -1   6  -2    0.33    0.05
  -1   6  -2    0.16    0.04
  -1   6  -2    0.15    0.04
  -1   6  -2    0.06    0.03
   1  -6   2    0.06    0.05
  -2   6  -2    0.56    0.07
  -2   6  -2    0.43    0.06
  -2   6  -2    0.43    0.07
  -2   6  -2    0.54    0.06
  -2   6  -2    0.52    0.05
  -2   6  -2    0.48    0.07
   2  -6   2    0.58    0.10
  -3   6  -2    0.66    0.06
  -3   6  -2    0.77    0.08
  -3   6  -2    0.71    0.08
  -3   6  -2    0.50    0.06
  -3   6  -2    0.75    0.06
  -3   6  -2    0.55    0.07
  -3   6  -2    0.69    0.06
  -4   6  -2    4.16    0.15
  -4   6  -2    4.13    0.14
  -4   6  -2    4.28    0.16
  -4   6  -2    4.06    0.15
  -4   6  -2    4.01    0.12
  -5  -5   2    1.80    0.10
  -5  -5   2    1.75    0.10
  -5  -5   2    1.80    0.09
  -5  -5   2    1.75    0.08
  -4  -5   2    8.04    0.24
  -4  -5   2    7.98    0.26
  -4  -5   2    8.02    0.29
  -4  -5   2    7.33    0.38
  -4  -5   2    8.27    0.29
   3   5  -2   72.90    2.19
  -3  -5   2   71.86    2.20
  -3  -5   2   72.04    1.71
  -3  -5   2   72.23    1.54
  -3  -5   2   69.96    1.73
  -3  -5   2   73.86    1.91
  -3  -5   2   72.81    1.59
   2   5  -2   57.00    1.73
   2   5  -2   61.01    1.80
  -2  -5   2   59.89    1.60
   1   5  -2    0.12    0.03
   1   5  -2    0.17    0.05
  -1  -5   2    0.11    0.05
  -1  -5   2    0.14    0.04
   0   5  -2  230.12    6.13
   0  -5   2  228.57    6.43
   0  -5   2  233.51    6.62
  -1   5  -2  115.89    3.02
   1  -5   2  113.83    3.30
   1  -5   2  120.78    3.42
  -2   5  -2    2.09    0.10
  -2   5  -2    1.97    0.11
  -2   5  -2    1.81    0.11
  -2   5  -2    2.48    0.10
  -2   5  -2    2.24    0.09
  -2   5  -2    2.04    0.11
  -2   5  -2    2.07    0.12
   2  -5   2    2.08    0.15
  -3   5  -2   16.69    0.44
  -3   5  -2   16.89    0.45
  -3   5  -2   16.96    0.45
  -3   5  -2   16.55    0.37
  -3   5  -2   16.90    0.47
  -3   5  -2   16.13    0.45
  -3   5  -2   17.05    0.41
  -4   5  -2   46.12    0.86
  -4   5  -2   48.26    1.03
  -4   5  -2   46.37    1.12
  -4   5  -2   47.46    1.07
  -4   5  -2   49.44    1.27
  -4   5  -2   47.83    1.03
  -5  -4   2    0.05    0.02
  -5  -4   2    0.01    0.02
  -5  -4   2    0.01    0.03
  -5  -4   2    0.03    0.03
  -5  -4   2    0.01    0.03
  -4  -4   2   11.95    0.51
  -4  -4   2   12.45    0.40
  -4  -4   2   12.46    0.32
  -4  -4   2   12.56    0.41
  -4  -4   2   12.22    0.35
  -4  -4   2   12.09    0.35
  -4  -4   2   12.94    0.33
   3   4  -2    2.86    0.17
  -3  -4   2    2.81    0.15
  -3  -4   2    2.90    0.20
  -3  -4   2    2.97    0.14
  -3  -4   2    2.62    0.11
  -3  -4   2    2.68    0.11
  -3  -4   2    2.77    0.11
   2   4  -2    6.75    0.28
   2   4  -2    7.14    0.27
  -2  -4   2    7.06    0.30
  -2  -4   2    6.83    0.25
   1   4  -2    3.71    0.15
   1   4  -2    3.61    0.17
   1   4  -2    3.74    0.16
  -1  -4   2    3.71    0.18
  -1  -4   2    4.04    0.16
   0   4  -2   93.48    2.42
   0   4  -2   92.03    2.71
   0  -4   2   94.26    2.43
   0  -4   2   94.12    2.73
   0  -4   2   95.38    2.65
  -1   4  -2   67.49    1.71
  -1   4  -2   64.13    1.62
   1  -4   2   65.15    1.86
   1  -4   2   65.06    1.93
  -2   4  -2   16.91    0.50
  -2   4  -2   16.82    0.47
   2  -4   2   15.91    0.52
   2  -4   2   16.60    0.55
  -3   4  -2   17.09    0.38
  -3   4  -2   16.71    0.45
  -3   4  -2   17.22    0.45
  -3   4  -2   16.78    0.55
  -3   4  -2   17.61    0.45
  -3   4  -2   17.12    0.45
  -3   4  -2   17.27    0.45
  -4   4  -2    5.58    0.18
  -4   4  -2    5.78    0.21
  -4   4  -2    5.63    0.21
  -4   4  -2    5.51    0.20
  -4   4  -2    5.15    0.19
  -5   4  -2   37.63    0.84
  -5   4  -2   38.12    0.68
  -5   4  -2   38.18    0.80
  -5  -3   2   19.68    0.47
  -5  -3   2   19.52    0.46
  -5  -3   2   19.55    0.57
  -5  -3   2   20.00    0.54
  -4  -3   2    0.54    0.08
  -4  -3   2    0.62    0.08
  -4  -3   2    0.63    0.06
  -4  -3   2    0.57    0.11
  -4  -3   2    0.58    0.05
   3   3  -2   45.32    1.35
   3   3  -2   47.39    1.41
  -3  -3   2   46.64    1.25
  -3  -3   2   44.78    1.02
  -3  -3   2   46.94    1.44
  -3  -3   2   46.93    1.25
   2   3  -2   61.64    1.73
   2   3  -2   59.64    1.78
  -2  -3   2   60.92    1.79
  -2  -3   2   60.36    1.59
   1   3  -2   23.57    0.69
   1   3  -2   22.98    0.71
   1   3  -2   23.71    0.64
  -1  -3   2   23.65    0.70
  -1  -3   2   22.66    0.72
  -1  -3   2   23.62    0.64
   0   3  -2  149.30    4.16
   0   3  -2  143.30    3.62
   0   3  -2  145.65    4.31
   0   3  -2  153.04    3.98
   0  -3   2  150.62    4.14
   0  -3   2  151.26    4.38
   0  -3   2  150.60    3.94
  -1   3  -2   14.40    0.41
  -1   3  -2   14.84    0.40
   1  -3   2   14.79    0.47
   1  -3   2   14.93    0.45
  -2   3  -2    6.53    0.24
  -2   3  -2    6.63    0.20
   2  -3   2    6.49    0.24
  -3   3  -2   41.31    0.92
  -3   3  -2   42.32    0.92
  -3   3  -2   40.75    0.95
  -3   3  -2   41.42    1.00
  -3   3  -2   42.11    1.14
  -3   3  -2   41.81    0.99
  -3   3  -2   42.01    0.99
  -3   3  -2   41.80    0.78
  -4   3  -2    2.34    0.11
  -4   3  -2    1.88    0.11
  -4   3  -2    1.93    0.11
  -4   3  -2    1.77    0.10
  -4   3  -2    2.19    0.13
  -4   3  -2    1.81    0.12
  -4   3  -2    1.98    0.11
  -4   3  -2    1.77    0.10
  -5   3  -2    6.99    0.21
  -5   3  -2    6.45    0.20
  -5   3  -2    6.73    0.18
  -5  -2   2   38.51    0.94
  -5  -2   2   37.52    0.82
  -5  -2   2   38.30    1.03
  -5  -2   2   36.04    0.92
  -4  -2   2    4.78    0.26
  -4  -2   2    4.86    0.21
  -4  -2   2    4.38    0.14
  -4  -2   2    4.52    0.20
   3   2  -2   29.29    0.86
   3   2  -2   28.02    0.89
  -3  -2   2   29.69    0.94
  -3  -2   2   29.19    0.79
   2   2  -2  232.91    6.87
   2   2  -2  237.20    6.71
  -2  -2   2  245.53    6.81
  -2  -2   2  237.90    6.21
   1   2  -2  369.55   10.49
   1   2  -2  374.20   10.19
  -1  -2   2  344.44   10.43
  -1  -2   2  349.32    9.39
  -1  -2   2  381.54   10.11
  -1   2  -2   91.72    2.16
   1  -2   2   86.87    2.26
   1  -2   2   89.07    2.46
   1  -2   2   85.17    2.46
   1  -2   2   90.35    2.53
  -2   2  -2   27.04    0.72
  -2   2  -2   26.98    0.81
  -2   2  -2   26.74    0.71
  -3   2  -2   59.52    1.50
  -3   2  -2   55.87    1.02
  -3   2  -2   56.05    1.18
  -3   2  -2   58.42    1.68
  -3   2  -2   55.93    1.20
  -4   2  -2   67.70    1.56
  -4   2  -2   64.78    1.48
  -4   2  -2   68.37    1.50
  -4   2  -2   67.27    1.42
  -4   2  -2   66.85    1.57
  -4   2  -2   66.88    1.59
  -4   2  -2   68.00    1.21
  -5   2  -2   84.71    1.93
  -5   2  -2   80.89    1.79
  -5   2  -2   83.51    1.82
  -5   2  -2   84.74    1.70
  -5   2  -2   84.39    1.45
  -5   2  -2   82.48    1.91
  -5  -1   2   34.23    0.95
  -5  -1   2   34.16    0.86
  -5  -1   2   34.92    0.76
  -5  -1   2   34.94    0.87
  -4  -1   2   44.67    1.00
  -4  -1   2   44.31    1.21
  -4  -1   2   44.39    1.39
  -4  -1   2   43.32    1.11
  -4  -1   2   44.48    1.11
  -4  -1   2   43.50    1.00
  -3  -1   2    8.62    0.25
  -3  -1   2    8.22    0.34
  -3  -1   2    7.92    0.27
   2   1  -2   52.70    1.54
  -2  -1   2   54.87    1.57
  -2  -1   2   52.64    1.38
   0   1  -2   73.42    2.07
   0  -1   2   73.13    2.05
   0  -1   2   72.80    1.93
  -2   1  -2  196.73    5.66
  -2   1  -2  201.76    5.12
  -2   1  -2  200.01    4.94
  -3   1  -2    6.57    0.27
  -3   1  -2    6.63    0.26
  -4   1  -2    0.27    0.06
  -4   1  -2    0.30    0.05
  -4   1  -2    0.23    0.05
  -4   1  -2    0.27    0.05
  -4   1  -2    0.27    0.05
  -4   1  -2    0.29    0.06
  -4   1  -2    0.32    0.05
  -4   1  -2    0.24    0.05
  -5   1  -2   19.83    0.51
  -5   1  -2   19.92    0.50
  -5   1  -2   20.53    0.48
  -5   1  -2   19.88    0.42
  -5   1  -2   20.48    0.53
  -5   0   2   11.67    0.38
  -5   0   2   12.31    0.31
  -5   0   2   11.87    0.35
  -5   0   2   11.76    0.34
  -4   0   2    3.76    0.17
  -4   0   2    3.79    0.18
  -4   0   2    4.02    0.16
  -4   0   2    4.18    0.14
  -4   0   2    3.93    0.16
  -4   0   2    3.98    0.16
  -4   0   2    3.98    0.23
  -4   0   2    3.91    0.15
  -4   0   2    4.21    0.18
  -3   0   2   27.21    0.87
  -3   0   2   26.60    0.70
  -2   0   2   88.07    2.15
  -2   0   2   86.35    2.24
  -2   0   2   88.27    2.51
  -1   0   2  639.54   15.26
  -1   0   2  620.54   18.01
   0   0  -2   37.52    1.04
   0   0  -2   36.67    0.97
   0   0   2   33.99    0.93
   0   0   2   36.77    1.02
  -1   0  -2    2.55    0.09
  -1   0  -2    2.93    0.09
  -1   0  -2    2.71    0.09
   1   0   2    2.91    0.09
  -2   0  -2  489.03   14.33
  -2   0  -2  511.17   12.37
  -2   0  -2  524.02   12.91
   2   0   2  496.44   14.33
  -3   0  -2   77.91    1.96
  -3   0  -2   77.45    2.26
  -4   0  -2    2.50    0.17
  -4   0  -2    2.23    0.16
  -4   0  -2    2.41    0.12
  -4   0  -2    2.27    0.11
  -4   0  -2    2.51    0.12
  -4   0  -2    2.56    0.13
  -4   0  -2    2.30    0.13
  -4   0  -2    2.47    0.11
  -4   0  -2    2.40    0.12
  -4   0  -2    2.51    0.11
  -5   0  -2    2.04    0.11
  -5   0  -2    1.90    0.10
  -5   0  -2    1.98    0.09
  -5   0  -2    1.94    0.09
  -5   1   2    0.24    0.05
  -5   1   2    0.12    0.03
  -5   1   2    0.14    0.05
  -5   1   2    0.19    0.05
  -5   1   2    0.11    0.03
  -4   1   2   98.42    2.29
  -4   1   2   93.90    2.21
  -4   1   2   92.79    2.48
  -4   1   2   95.30    1.95
  -4   1   2   91.32    2.22
  -4   1   2   97.04    2.78
  -4   1   2   95.63    1.65
  -4   1   2   94.37    2.07
  -4   1   2   95.68    1.94
  -4   1   2   94.69    2.07
  -3   1   2    0.48    0.06
  -3   1   2    0.49    0.07
  -3   1   2    0.51    0.08
  -3   1   2    0.52    0.06
  -2   1   2    2.27    0.11
  -2   1   2    2.00    0.12
  -1   1   2   33.77    0.89
  -1   1   2   32.21    0.89
  -1   1   2   33.47    1.02
  -1   1   2   36.36    0.87
   0  -1  -2   14.77    0.42
   0  -1  -2   14.72    0.39
   0   1   2   14.46    0.39
   0   1   2   14.44    0.42
  -1  -1  -2   55.10    1.28
  -1  -1  -2   51.75    1.41
   1   1   2   53.10    1.49
   1   1   2   52.72    1.36
   1   1   2   51.10    1.51
  -2  -1  -2  420.29   11.82
  -2  -1  -2  420.96   10.75
  -2  -1  -2  412.81   10.20
   2   1   2  411.85   11.90
  -3  -1  -2   32.28    0.86
  -3  -1  -2   32.21    1.00
  -3  -1  -2   32.31    0.86
  -4  -1  -2   54.26    1.50
  -4  -1  -2   56.90    1.35
  -4  -1  -2   59.55    1.28
  -4  -1  -2   54.90    1.19
  -4  -1  -2   56.59    1.02
  -4  -1  -2   57.85    1.26
  -4  -1  -2   57.43    1.38
  -4  -1  -2   59.70    1.74
  -4  -1  -2   56.40    1.20
  -5  -1  -2    0.14    0.04
  -5  -1  -2    0.09    0.03
  -5  -1  -2    0.09    0.03
  -5   2   2   15.35    0.39
  -5   2   2   15.82    0.41
  -5   2   2   15.12    0.40
  -5   2   2   15.22    0.39
  -4   2   2    0.01    0.04
  -4   2   2    0.04    0.04
  -4   2   2    0.01    0.03
  -4   2   2    0.03    0.03
  -4   2   2    0.04    0.05
  -4   2   2    0.08    0.05
  -4   2   2    0.11    0.03
  -4   2   2    0.29    0.06
  -4   2   2    0.05    0.04
  -3   2   2    0.27    0.05
  -3   2   2    0.28    0.05
  -3   2   2    0.27    0.06
  -3   2   2    0.31    0.06
  -3   2   2    0.31    0.07
  -3   2   2    0.46    0.06
  -3   2   2    0.39    0.05
  -3   2   2    0.34    0.06
  -2   2   2    8.82    0.31
  -2   2   2    8.60    0.23
  -2   2   2    8.46    0.28
   1  -2  -2    0.23    0.04
  -1   2   2    0.17    0.02
  -1   2   2    0.20    0.03
   0  -2  -2  281.30    7.43
   0  -2  -2  249.43    6.62
   0  -2  -2  264.45    7.19
   0   2   2  240.48    7.33
   0   2   2  265.54    6.66
   0   2   2  252.14    7.13
   0   2   2  233.71    7.35
  -1  -2  -2   22.33    0.71
  -1  -2  -2   23.54    0.64
  -1  -2  -2   23.83    0.58
   1   2   2   23.79    0.63
   1   2   2   24.29    0.68
   1   2   2   23.17    0.71
  -2  -2  -2   36.99    1.06
  -2  -2  -2   34.00    0.88
  -2  -2  -2   34.57    0.94
   2   2   2   35.71    1.01
   2   2   2   34.92    1.05
  -3  -2  -2    0.07    0.04
  -3  -2  -2   -0.01    0.02
  -3  -2  -2    0.19    0.04
   3   2   2    0.07    0.04
   3   2   2    0.02    0.03
  -4  -2  -2   50.40    1.25
  -4  -2  -2   49.16    1.12
  -4  -2  -2   51.74    1.10
  -4  -2  -2   51.17    1.23
  -4  -2  -2   52.73    1.58
  -4  -2  -2   52.04    1.37
  -5  -2  -2    0.39    0.06
  -5  -2  -2    0.48    0.07
  -5   3   2    1.86    0.09
  -5   3   2    1.79    0.09
  -5   3   2    1.97    0.09
  -4   3   2    0.45    0.07
  -4   3   2    0.33    0.06
  -4   3   2    0.28    0.06
  -4   3   2    0.30    0.06
  -4   3   2    0.28    0.06
  -4   3   2    0.26    0.05
  -3   3   2   41.89    0.90
  -3   3   2   41.17    0.77
  -3   3   2   41.09    1.03
  -3   3   2   42.02    0.95
  -3   3   2   40.54    0.99
  -3   3   2   40.64    0.88
  -3   3   2   41.95    0.91
  -3   3   2   40.11    1.13
  -2   3   2   60.18    1.73
  -2   3   2   57.98    1.52
  -2   3   2   60.04    1.51
   1  -3  -2    3.92    0.16
  -1   3   2    3.84    0.17
  -1   3   2    3.96    0.14
  -1   3   2    3.93    0.14
   0  -3  -2   27.43    0.79
   0  -3  -2   27.19    0.76
   0  -3  -2   26.45    0.70
   0   3   2   24.24    0.77
   0   3   2   26.28    0.70
   0   3   2   24.86    0.77
   0   3   2   25.16    0.74
  -1  -3  -2   24.81    0.78
  -1  -3  -2   25.58    0.81
  -1  -3  -2   26.53    0.72
   1   3   2   26.70    0.77
   1   3   2   26.59    0.80
   1   3   2   27.08    0.72
  -2  -3  -2   29.06    0.87
  -2  -3  -2   28.43    0.79
   2   3   2   28.51    0.84
   2   3   2   27.82    0.87
  -3  -3  -2   56.28    1.71
  -3  -3  -2   56.43    1.52
   3   3   2   57.60    1.64
   3   3   2   57.85    1.70
  -4  -3  -2   65.94    1.66
  -4  -3  -2   61.73    1.48
  -4  -3  -2   60.78    1.47
  -4  -3  -2   61.79    1.36
  -4  -3  -2   63.78    1.90
  -4  -3  -2   60.71    1.50
  -5  -3  -2    2.82    0.13
  -5  -3  -2    2.98    0.10
  -5  -3  -2    2.98    0.14
  -5  -3  -2    2.87    0.14
  -5   4   2    1.01    0.06
  -5   4   2    1.10    0.06
  -4   4   2   14.24    0.38
  -4   4   2   13.92    0.38
  -4   4   2   13.89    0.32
  -4   4   2   14.64    0.39
  -4   4   2   14.35    0.39
  -3   4   2    0.45    0.07
  -3   4   2    0.39    0.06
  -3   4   2    0.46    0.06
  -3   4   2    0.46    0.08
  -3   4   2    0.37    0.06
  -2   4   2    4.34    0.15
   1  -4  -2    5.04    0.22
   1  -4  -2    4.91    0.20
  -1   4   2    4.92    0.18
  -1   4   2    5.34    0.22
   0  -4  -2  515.10   14.65
   0  -4  -2  517.54   14.20
   0   4   2  493.31   14.52
   0   4   2  516.60   13.13
   0   4   2  485.68   14.51
  -1  -4  -2  574.88   14.86
  -1  -4  -2  555.02   15.96
  -1  -4  -2  555.42   16.52
   1   4   2  565.68   16.02
   1   4   2  588.95   14.85
   1   4   2  593.89   16.60
  -2  -4  -2  118.82    3.34
  -2  -4  -2  115.65    3.02
   2   4   2  114.51    3.26
   2   4   2  115.72    3.37
  -3  -4  -2   49.79    1.55
  -3  -4  -2   51.28    1.35
  -3  -4  -2   49.41    1.12
  -3  -4  -2   49.11    1.21
  -3  -4  -2   50.81    1.38
   3   4   2   52.66    1.55
   3   4   2   50.84    1.49
  -4  -4  -2    0.85    0.12
  -4  -4  -2    0.89    0.07
  -4  -4  -2    0.91    0.07
  -4  -4  -2    0.89    0.06
  -4  -4  -2    0.94    0.08
  -4  -4  -2    0.95    0.08
  -4  -4  -2    0.79    0.09
   4   4   2    0.89    0.10
  -5  -4  -2    0.03    0.03
  -5  -4  -2    0.02    0.02
  -5  -4  -2    0.04    0.03
  -5  -4  -2    0.01    0.03
  -5  -4  -2    0.00    0.03
  -4   5   2   46.99    1.05
  -4   5   2   45.91    0.84
  -4   5   2   47.48    0.99
  -4   5   2   47.08    1.06
  -3   5   2    3.86    0.17
  -3   5   2    3.93    0.16
  -3   5   2    3.93    0.17
  -3   5   2    3.79    0.14
  -2   5   2    1.55    0.09
  -2   5   2    1.68    0.10
  -2   5   2    1.45    0.08
  -2   5   2    1.64    0.11
  -2   5   2    1.74    0.08
  -2   5   2    1.57    0.09
   1  -5  -2   11.85    0.44
   1  -5  -2   13.10    0.47
  -1   5   2   12.78    0.37
  -1   5   2   12.97    0.39
   0  -5  -2   66.56    2.02
   0  -5  -2   67.35    1.96
   0   5   2   69.27    1.79
  -1  -5  -2   37.49    1.18
  -1  -5  -2   36.79    1.04
   1   5   2   37.74    1.03
   1   5   2   37.54    1.15
  -2  -5  -2    9.36    0.33
   2   5   2    8.66    0.33
   2   5   2    8.66    0.35
  -3  -5  -2    0.11    0.06
  -3  -5  -2    0.06    0.03
  -3  -5  -2    0.11    0.03
   3   5   2    0.00    0.04
  -4  -5  -2    2.27    0.14
  -4  -5  -2    2.31    0.11
  -4  -5  -2    2.37    0.11
  -4  -5  -2    2.31    0.12
  -4  -5  -2    2.11    0.18
  -4  -5  -2    2.46    0.13
  -5  -5  -2    8.80    0.30
  -5  -5  -2    9.46    0.25
  -5  -5  -2    9.29    0.28
  -5  -5  -2    9.19    0.25
  -5  -5  -2    9.33    0.27
  -4   6   2   50.42    1.05
  -4   6   2   52.67    1.13
  -4   6   2   50.87    1.12
  -4   6   2   50.75    1.37
  -3   6   2    6.14    0.22
  -3   6   2    5.92    0.21
  -3   6   2    5.95    0.18
  -3   6   2    6.30    0.21
  -3   6   2    6.12    0.21
  -2   6   2    2.44    0.14
  -2   6   2    2.37    0.13
  -2   6   2    2.62    0.12
  -2   6   2    2.47    0.11
  -2   6   2    2.74    0.13
   1  -6  -2  117.97    3.40
   1  -6  -2  117.73    3.40
  -1   6   2  113.50    2.33
  -1   6   2  115.56    2.47
  -1   6   2  112.55    2.41
  -1   6   2  113.59    2.69
  -1   6   2  115.04    3.06
  -1   6   2  113.46    2.48
   0  -6  -2    0.08    0.06
   0  -6  -2    0.06    0.05
   0  -6  -2    0.05    0.05
   0   6   2    0.04    0.03
   0   6   2    0.04    0.03
   0   6   2    0.03    0.03
   0   6   2    0.03    0.02
  -1  -6  -2  260.33    7.28
   1   6   2  243.14    5.29
   1   6   2  255.51    7.23
   1   6   2  250.76    6.47
  -2  -6  -2    0.16    0.04
  -2  -6  -2    0.21    0.05
  -2  -6  -2    0.21    0.06
  -2  -6  -2    0.22    0.04
  -2  -6  -2    0.24    0.04
   2   6   2    0.22    0.06
   2   6   2    0.29    0.06
   2   6   2    0.17    0.04
  -3  -6  -2    7.06    0.23
  -3  -6  -2    7.46    0.23
  -3  -6  -2    7.81    0.27
  -3  -6  -2    7.30    0.35
  -3  -6  -2    7.04    0.24
  -3  -6  -2    7.52    0.25
   3   6   2    7.39    0.34
  -4  -6  -2    2.58    0.20
  -4  -6  -2    2.99    0.16
  -4  -6  -2    2.73    0.12
  -4  -6  -2    2.86    0.14
  -4  -6  -2    2.74    0.13
  -5  -6  -2   49.77    1.17
  -5  -6  -2   49.72    1.08
  -5  -6  -2   48.75    1.15
  -5  -6  -2   48.52    1.05
  -3   7   2    3.60    0.15
  -3   7   2    3.04    0.14
  -3   7   2    3.68    0.14
  -3   7   2    3.25    0.11
  -2   7   2   38.57    0.87
  -2   7   2   38.12    0.98
  -2   7   2   39.91    0.90
  -2   7   2   36.66    1.07
  -2   7   2   39.08    0.89
   1  -7  -2   28.40    1.00
  -1   7   2   28.63    0.77
  -1   7   2   28.95    0.69
  -1   7   2   28.96    0.70
  -1   7   2   29.16    0.69
  -1   7   2   28.75    0.67
   0  -7  -2  266.15    7.58
   0   7   2  262.18    6.01
   0   7   2  258.49    5.55
   0   7   2  263.41    5.38
   0   7   2  260.48    5.45
   0   7   2  262.55    5.81
   0   7   2  258.44    5.51
  -1  -7  -2   71.74    2.26
  -1  -7  -2   73.28    1.65
  -1  -7  -2   71.17    1.73
   1   7   2   74.78    1.61
   1   7   2   71.90    1.77
   1   7   2   76.98    1.60
   1   7   2   73.67    1.71
  -2  -7  -2    6.45    0.23
  -2  -7  -2    6.91    0.24
  -2  -7  -2    6.49    0.24
  -2  -7  -2    6.87    0.22
   2   7   2    6.41    0.32
   2   7   2    6.61    0.24
   2   7   2    6.87    0.23
  -3  -7  -2   25.33    0.62
  -3  -7  -2   24.37    0.88
  -3  -7  -2   25.97    0.62
  -3  -7  -2   25.14    0.67
  -3  -7  -2   26.61    0.65
   3   7   2   24.74    0.64
  -4  -7  -2    5.53    0.19
  -4  -7  -2    5.37    0.20
  -4  -7  -2    5.39    0.18
  -4  -7  -2    5.42    0.22
  -5  -7  -2    0.00    0.02
  -5  -7  -2   -0.01    0.01
  -3   8   2   13.37    0.33
  -2   8   2   12.67    0.34
  -2   8   2   13.06    0.35
  -2   8   2   13.14    0.35
  -2   8   2   13.31    0.39
  -2   8   2   13.06    0.35
  -1   8   2    1.14    0.08
  -1   8   2    1.12    0.08
  -1   8   2    1.15    0.10
  -1   8   2    1.07    0.09
  -1   8   2    1.00    0.08
   0   8   2   59.96    1.50
   0   8   2   61.04    1.35
   0   8   2   60.82    1.40
   0   8   2   61.17    1.38
  -1  -8  -2   25.65    0.70
  -1  -8  -2   26.18    0.68
   1   8   2   26.44    0.63
   1   8   2   26.31    0.67
   1   8   2   27.09    0.66
   1   8   2   25.53    0.71
  -2  -8  -2   60.76    1.96
  -2  -8  -2   65.70    1.53
  -2  -8  -2   63.64    1.40
  -2  -8  -2   65.80    1.45
   2   8   2   66.50    1.44
   2   8   2   63.92    1.53
  -3  -8  -2    0.01    0.03
  -3  -8  -2    0.04    0.03
  -3  -8  -2    0.00    0.02
   3   8   2    0.01    0.03
   3   8   2    0.03    0.03
  -4  -8  -2    0.05    0.03
  -4  -8  -2    0.09    0.04
  -4  -8  -2    0.10    0.03
  -4  -8  -2    0.09    0.02
   4   8   2    0.06    0.03
  -2   9   2    0.33    0.04
  -2   9   2    0.34    0.04
  -2   9   2    0.31    0.06
  -1   9   2    0.47    0.07
  -1   9   2    0.48    0.05
  -1   9   2    0.41    0.06
   0  -9  -2    0.45    0.08
   0   9   2    0.55    0.07
   0   9   2    0.42    0.06
   0   9   2    0.50    0.08
  -1  -9  -2   16.28    0.47
  -1  -9  -2   16.12    0.46
   1   9   2   16.52    0.40
   1   9   2   16.37    0.44
   1   9   2   16.40    0.44
  -2  -9  -2    7.11    0.25
  -2  -9  -2    6.84    0.23
   2   9   2    6.95    0.24
   2   9   2    6.91    0.22
  -3  -9  -2    9.16    0.25
  -3  -9  -2    9.02    0.25
   3   9   2    9.15    0.28
   3   9   2    9.19    0.26
  -1  10   2   25.14    0.56
  -1  10   2   24.43    0.63
  -1  10   2   24.66    0.57
   0 -10  -2    0.02    0.03
   0  10   2    0.01    0.02
   0  10   2    0.01    0.03
   0  10   2    0.03    0.02
  -1 -10  -2    3.39    0.15
  -1 -10  -2    3.65    0.15
   1  10   2    3.52    0.14
   1  10   2    3.40    0.11
  -2 -10  -2    0.06    0.03
  -2 -10  -2    0.06    0.03
   2  10   2    0.04    0.02
   2  10   2    0.03    0.02
   2  10  -3    2.76    0.09
   2  10  -3    2.91    0.11
  -2 -10   3    2.85    0.11
   1  10  -3    6.68    0.18
   1  10  -3    6.51    0.20
  -1 -10   3    7.10    0.22
  -1 -10   3    6.81    0.21
   0  10  -3    9.63    0.25
   0  10  -3    9.42    0.26
   0 -10   3    9.47    0.29
   0 -10   3    9.58    0.28
  -1  10  -3   10.97    0.28
   3   9  -3   21.69    0.55
   3   9  -3   22.12    0.52
  -3  -9   3   21.73    0.50
   2   9  -3   47.39    1.13
   2   9  -3   47.29    1.07
  -2  -9   3   47.67    1.07
  -2  -9   3   48.29    1.14
   1   9  -3   18.19    0.44
   1   9  -3   18.60    0.45
   1   9  -3   18.11    0.47
   1   9  -3   18.48    0.48
  -1  -9   3   18.79    0.51
  -1  -9   3   18.76    0.50
   0   9  -3   38.35    0.90
   0   9  -3   38.63    0.84
   0   9  -3   39.35    0.89
   0   9  -3   38.23    0.98
   0  -9   3   38.08    0.92
  -1   9  -3   21.05    0.58
  -1   9  -3   20.66    0.52
  -1   9  -3   21.78    0.51
  -1   9  -3   21.07    0.52
  -2   9  -3    4.56    0.15
  -2   9  -3    4.56    0.15
  -2   9  -3    4.51    0.16
  -4  -8   3    0.03    0.03
  -4  -8   3    0.00    0.02
  -4  -8   3    0.02    0.02
   3   8  -3   24.39    0.63
   3   8  -3   24.19    0.60
  -3  -8   3   24.47    0.58
  -3  -8   3   24.69    0.59
  -3  -8   3   23.19    0.62
   2   8  -3    0.90    0.08
   2   8  -3    0.92    0.09
   2   8  -3    0.80    0.06
  -2  -8   3    0.87    0.13
  -2  -8   3    0.90    0.09
  -2  -8   3    0.83    0.08
  -2  -8   3    0.86    0.07
   1   8  -3    3.63    0.14
   1   8  -3    3.45    0.16
   1   8  -3    3.69    0.15
   1   8  -3    3.38    0.16
  -1  -8   3    3.42    0.17
  -1  -8   3    3.64    0.18
   0   8  -3    0.15    0.04
   0   8  -3    0.22    0.05
   0   8  -3    0.22    0.05
   0   8  -3    0.16    0.05
   0   8  -3    0.16    0.04
   0  -8   3    0.15    0.05
  -1   8  -3   64.35    1.44
  -1   8  -3   63.48    1.34
  -1   8  -3   64.52    1.42
  -1   8  -3   64.56    1.36
  -1   8  -3   64.56    1.57
  -2   8  -3    1.50    0.09
  -2   8  -3    1.39    0.09
  -2   8  -3    1.42    0.10
  -2   8  -3    1.47    0.10
  -2   8  -3    1.63    0.11
  -3   8  -3    8.24    0.23
  -3   8  -3    7.90    0.24
  -3   8  -3    7.94    0.21
  -4  -7   3    8.40    0.24
  -4  -7   3    8.73    0.24
  -4  -7   3    8.35    0.26
   3   7  -3   12.54    0.37
  -3  -7   3   12.10    0.53
  -3  -7   3   13.01    0.37
  -3  -7   3   12.89    0.35
  -3  -7   3   12.64    0.35
   2   7  -3    0.10    0.04
   2   7  -3    0.03    0.03
   2   7  -3    0.03    0.03
   2   7  -3    0.14    0.06
  -2  -7   3    0.01    0.02
  -2  -7   3    0.00    0.03
  -2  -7   3    0.03    0.06
  -2  -7   3   -0.01    0.04
  -2  -7   3    0.01    0.03
   1   7  -3   18.49    0.51
   1   7  -3   19.13    0.49
   1   7  -3   18.85    0.44
   1   7  -3   18.92    0.48
  -1  -7   3   19.23    0.51
  -1  -7   3   17.84    0.52
  -1  -7   3   17.58    0.69
   0   7  -3   10.33    0.29
   0   7  -3   10.75    0.32
   0   7  -3   10.45    0.35
   0   7  -3   10.98    0.30
   0   7  -3   11.35    0.33
   0   7  -3   11.00    0.32
   0  -7   3   10.53    0.34
   0  -7   3   10.18    0.46
  -1   7  -3    4.90    0.21
  -1   7  -3    4.93    0.18
  -1   7  -3    5.10    0.19
  -1   7  -3    5.01    0.18
  -1   7  -3    5.01    0.19
   1  -7   3    4.85    0.28
  -2   7  -3   14.21    0.42
  -2   7  -3   13.93    0.38
  -2   7  -3   14.39    0.38
  -2   7  -3   14.03    0.39
  -2   7  -3   13.76    0.38
  -3   7  -3   19.84    0.47
  -3   7  -3   19.95    0.48
  -3   7  -3   19.73    0.47
  -3   7  -3   18.42    0.56
  -3   7  -3   19.64    0.52
  -5  -6   3    2.03    0.08
  -5  -6   3    1.97    0.09
  -4  -6   3  136.28    3.25
  -4  -6   3  142.31    3.01
  -4  -6   3  141.28    3.62
  -4  -6   3  143.20    3.25
   3   6  -3   19.30    0.72
  -3  -6   3   19.80    0.76
  -3  -6   3   20.90    0.60
  -3  -6   3   20.40    0.50
  -3  -6   3   19.83    0.51
  -3  -6   3   20.52    0.54
  -3  -6   3   20.62    0.51
  -3  -6   3   20.46    0.55
   2   6  -3   24.33    0.65
   2   6  -3   25.09    0.84
   2   6  -3   24.32    0.61
  -2  -6   3   24.94    0.64
  -2  -6   3   24.60    0.70
  -2  -6   3   24.76    0.64
  -2  -6   3   24.16    0.61
  -2  -6   3   23.64    0.64
  -2  -6   3   25.24    0.58
  -2  -6   3   25.49    0.86
  -2  -6   3   24.30    0.59
   1   6  -3   41.00    0.99
   1   6  -3   40.54    0.85
   1   6  -3   41.10    0.92
   1   6  -3   40.69    1.27
   1   6  -3   41.02    0.93
  -1  -6   3   40.97    1.30
  -1  -6   3   39.67    0.99
  -1  -6   3   41.29    0.95
  -1  -6   3   38.21    0.89
   0   6  -3  152.60    3.37
   0   6  -3  156.84    3.13
   0   6  -3  150.49    3.22
   0   6  -3  152.78    2.99
   0   6  -3  153.99    3.17
   0   6  -3  151.00    3.48
   0  -6   3  153.38    4.40
   0  -6   3  130.83    4.24
  -1   6  -3   92.75    1.87
  -1   6  -3   92.54    1.89
  -1   6  -3   90.98    2.01
  -1   6  -3   90.92    2.17
  -1   6  -3   91.38    1.96
   1  -6   3   94.82    2.77
  -2   6  -3    5.68    0.21
  -2   6  -3    5.82    0.18
  -2   6  -3    5.54    0.21
  -2   6  -3    5.84    0.22
  -2   6  -3    5.73    0.20
  -2   6  -3    5.78    0.21
  -2   6  -3    5.72    0.21
  -2   6  -3    5.79    0.19
   2  -6   3    6.04    0.30
  -3   6  -3    1.97    0.11
  -3   6  -3    1.71    0.11
  -3   6  -3    1.85    0.10
  -3   6  -3    1.74    0.10
  -3   6  -3    1.87    0.09
  -3   6  -3    1.97    0.12
  -3   6  -3    1.86    0.10
  -4   6  -3    5.13    0.17
  -4   6  -3    5.20    0.17
  -4   6  -3    4.84    0.14
  -4   6  -3    4.85    0.17
  -4   6  -3    4.86    0.15
  -5  -5   3   15.73    0.46
  -5  -5   3   16.45    0.41
  -5  -5   3   14.93    0.37
  -5  -5   3   15.77    0.42
  -5  -5   3   16.38    0.38
  -4  -5   3   19.15    0.75
  -4  -5   3   20.62    0.58
  -4  -5   3   20.97    0.50
  -4  -5   3   20.75    0.54
  -4  -5   3   20.44    0.60
  -4  -5   3   20.92    0.54
  -4  -5   3   20.36    0.49
   3   5  -3    1.34    0.13
  -3  -5   3    1.32    0.11
  -3  -5   3    1.40    0.08
  -3  -5   3    1.54    0.08
  -3  -5   3    1.59    0.10
  -3  -5   3    1.49    0.16
  -3  -5   3    1.36    0.09
   2   5  -3    2.81    0.16
   2   5  -3    3.40    0.19
  -2  -5   3    2.90    0.13
  -2  -5   3    2.98    0.12
  -2  -5   3    2.88    0.16
  -2  -5   3    2.73    0.12
  -2  -5   3    3.01    0.12
  -2  -5   3    2.88    0.13
  -2  -5   3    3.32    0.20
   1   5  -3    7.22    0.30
  -1  -5   3    7.34    0.27
  -1  -5   3    7.11    0.31
   0  -5   3   48.06    1.48
   0  -5   3   48.07    1.42
  -1   5  -3    6.93    0.24
   1  -5   3    7.99    0.32
   1  -5   3    7.17    0.29
  -2   5  -3    7.15    0.24
  -2   5  -3    7.34    0.24
  -2   5  -3    7.56    0.24
  -2   5  -3    7.57    0.23
  -2   5  -3    7.42    0.22
  -2   5  -3    7.50    0.24
   2  -5   3    9.05    0.34
  -3   5  -3    2.69    0.12
  -3   5  -3    2.71    0.12
  -3   5  -3    2.68    0.11
  -3   5  -3    2.83    0.11
  -3   5  -3    2.61    0.14
  -3   5  -3    2.43    0.12
  -3   5  -3    2.73    0.14
  -4   5  -3    0.91    0.06
  -4   5  -3    0.93    0.07
  -4   5  -3    0.92    0.07
  -4   5  -3    0.81    0.08
  -4   5  -3    0.83    0.07
  -4   5  -3    0.96    0.09
  -5  -4   3   12.91    0.35
  -5  -4   3   12.42    0.39
  -5  -4   3   13.45    0.32
  -5  -4   3   13.27    0.37
  -5  -4   3   12.38    0.32
  -4  -4   3    0.77    0.12
  -4  -4   3    1.13    0.07
  -4  -4   3    0.94    0.09
  -4  -4   3    0.97    0.07
  -4  -4   3    1.02    0.10
  -4  -4   3    0.91    0.07
   3   4  -3    4.53    0.23
  -3  -4   3    4.50    0.20
  -3  -4   3    4.60    0.26
  -3  -4   3    4.39    0.18
  -3  -4   3    3.95    0.15
  -3  -4   3    4.24    0.14
  -3  -4   3    4.04    0.15
   2   4  -3    5.41    0.22
   2   4  -3    5.46    0.24
  -2  -4   3    5.49    0.21
  -2  -4   3    5.75    0.26
   1   4  -3    2.73    0.14
   1   4  -3    2.62    0.13
  -1  -4   3    2.78    0.15
  -1  -4   3    2.80    0.13
   0   4  -3  309.68    8.11
   0   4  -3  303.10    8.97
   0  -4   3  305.03    8.08
   0  -4   3  309.24    9.05
   0  -4   3  330.52    8.78
  -1   4  -3    6.49    0.21
   1  -4   3    6.68    0.26
   1  -4   3    6.38    0.24
  -2   4  -3    7.11    0.26
  -2   4  -3    7.16    0.21
  -2   4  -3    6.97    0.24
  -2   4  -3    6.76    0.22
   2  -4   3    7.37    0.29
   2  -4   3    6.96    0.26
  -3   4  -3    2.43    0.11
  -3   4  -3    2.33    0.11
  -3   4  -3    2.41    0.12
  -3   4  -3    2.61    0.14
  -3   4  -3    2.24    0.15
  -3   4  -3    2.35    0.13
  -4   4  -3    1.15    0.08
  -4   4  -3    1.21    0.10
  -4   4  -3    1.17    0.08
  -4   4  -3    1.13    0.09
  -4   4  -3    1.12    0.08
  -5   4  -3    0.88    0.06
  -5   4  -3    0.81    0.06
  -5  -3   3   11.88    0.32
  -5  -3   3   12.59    0.39
  -5  -3   3   12.54    0.30
  -5  -3   3   12.64    0.37
  -4  -3   3    7.64    0.24
  -4  -3   3    8.32    0.30
  -4  -3   3    8.11    0.23
  -4  -3   3    7.92    0.38
  -4  -3   3    8.13    0.30
   3   3  -3    1.96    0.12
   3   3  -3    2.04    0.13
  -3  -3   3    2.13    0.13
  -3  -3   3    2.20    0.17
  -3  -3   3    2.03    0.08
  -3  -3   3    2.09    0.11
  -3  -3   3    2.13    0.12
   2   3  -3   97.44    2.80
   2   3  -3   95.65    2.72
  -2  -3   3   95.29    2.50
  -2  -3   3   98.37    2.80
   1   3  -3   56.77    1.64
   1   3  -3   55.36    1.58
  -1  -3   3   56.33    1.47
  -1  -3   3   56.77    1.59
  -1  -3   3   54.61    1.65
   0   3  -3   89.25    2.20
   0   3  -3   90.00    2.54
   0   3  -3   91.42    2.35
   0   3  -3   90.60    2.62
   0  -3   3   93.71    2.55
   0  -3   3   91.70    2.35
   0  -3   3   91.41    2.63
  -1   3  -3   44.96    1.13
   1  -3   3   44.72    1.28
   1  -3   3   45.45    1.33
  -2   3  -3   66.06    1.71
  -2   3  -3   67.36    1.67
   2  -3   3   63.26    1.85
   2  -3   3   66.77    1.92
  -3   3  -3   66.45    1.17
  -3   3  -3   64.43    1.53
  -3   3  -3   66.95    1.39
  -3   3  -3   65.51    1.39
  -3   3  -3   66.03    1.72
  -3   3  -3   64.94    1.54
  -3   3  -3   66.86    1.46
  -3   3  -3   66.38    1.53
  -4   3  -3   16.22    0.37
  -4   3  -3   16.18    0.44
  -4   3  -3   16.36    0.43
  -4   3  -3   16.67    0.44
  -4   3  -3   15.99    0.43
  -4   3  -3   15.91    0.43
  -4   3  -3   16.20    0.44
  -5   3  -3    0.21    0.04
  -5   3  -3    0.30    0.05
  -5   3  -3    0.19    0.04
  -5   3  -3    0.30    0.06
  -5  -2   3   10.77    0.33
  -5  -2   3   11.80    0.35
  -5  -2   3   10.98    0.36
  -5  -2   3   11.62    0.30
  -4  -2   3    6.32    0.18
  -4  -2   3    6.63    0.24
  -4  -2   3    6.67    0.26
  -4  -2   3    6.43    0.25
  -4  -2   3    6.47    0.32
   3   2  -3    6.48    0.26
   3   2  -3    6.53    0.24
  -3  -2   3    7.01    0.31
  -3  -2   3    6.53    0.22
  -3  -2   3    6.37    0.22
   2   2  -3   81.60    2.27
   2   2  -3   78.32    2.34
  -2  -2   3   83.86    2.35
  -2  -2   3   80.03    2.09
   1   2  -3   26.01    0.72
   1   2  -3   27.82    0.81
   1   2  -3   27.96    0.78
  -1  -2   3   27.40    0.72
  -1  -2   3   27.12    0.78
  -1  -2   3   25.36    0.81
   0  -2   3  765.44   21.83
  -1   2  -3   45.19    1.11
  -1   2  -3   45.27    1.16
   1  -2   3   44.78    1.26
   1  -2   3   44.30    1.16
   1  -2   3   43.71    1.30
  -2   2  -3    0.08    0.03
  -2   2  -3    0.03    0.03
   2  -2   3    0.06    0.03
  -3   2  -3   12.69    0.43
  -3   2  -3   12.45    0.30
  -3   2  -3   12.37    0.34
  -3   2  -3   12.27    0.33
  -3   2  -3   12.00    0.28
  -3   2  -3   12.78    0.42
  -4   2  -3   88.92    2.08
  -4   2  -3   91.85    2.10
  -4   2  -3   91.99    1.98
  -4   2  -3   90.81    1.58
  -4   2  -3   92.04    1.87
  -4   2  -3   89.94    1.87
  -4   2  -3   87.31    1.95
  -4   2  -3   89.09    2.07
  -5   2  -3   24.00    0.60
  -5   2  -3   22.81    0.59
  -5   2  -3   24.19    0.58
  -5   2  -3   24.43    0.55
  -5   2  -3   24.47    0.48
  -5  -1   3    1.48    0.09
  -5  -1   3    1.65    0.11
  -5  -1   3    1.58    0.11
  -5  -1   3    1.57    0.11
  -4  -1   3   15.90    0.41
  -4  -1   3   15.59    0.47
  -4  -1   3   15.82    0.46
  -4  -1   3   16.01    0.59
  -4  -1   3   15.58    0.50
  -3  -1   3   87.80    2.52
  -3  -1   3   84.38    2.20
  -3  -1   3   84.97    2.05
   2   1  -3  244.46    7.25
  -2  -1   3  261.63    7.13
  -2  -1   3  250.25    6.54
   0   1  -3    9.02    0.29
   0   1  -3   10.13    0.28
   0   1  -3    9.05    0.26
   0  -1   3    9.10    0.26
   0  -1   3    8.48    0.29
   0  -1   3    9.02    0.28
  -2   1  -3   58.99    1.51
  -2   1  -3   58.85    1.69
  -2   1  -3   60.01    1.47
   2  -1   3   57.07    1.68
  -3   1  -3   22.53    0.66
  -3   1  -3   22.99    0.72
  -4   1  -3    0.77    0.07
  -4   1  -3    0.79    0.07
  -4   1  -3    0.76    0.09
  -4   1  -3    0.71    0.07
  -4   1  -3    0.72    0.08
  -4   1  -3    0.79    0.06
  -4   1  -3    0.75    0.07
  -4   1  -3    0.77    0.07
  -4   1  -3    0.82    0.07
  -5   1  -3   15.32    0.42
  -5   1  -3   16.46    0.44
  -5   1  -3   16.10    0.35
  -5   1  -3   16.05    0.40
  -5   0   3  126.88    2.92
  -5   0   3  125.81    2.90
  -5   0   3  126.04    3.27
  -5   0   3  128.87    2.56
  -4   0   3    1.93    0.11
  -4   0   3    1.96    0.10
  -4   0   3    2.05    0.12
  -4   0   3    1.87    0.15
  -4   0   3    2.05    0.11
  -4   0   3    1.81    0.12
  -4   0   3    1.92    0.13
  -3   0   3    4.79    0.18
  -3   0   3    4.67    0.23
   2   0  -3    0.34    0.04
  -2   0   3    0.40    0.03
  -2   0   3    0.52    0.07
   1   0  -3  451.08   12.92
   1   0  -3  462.91   11.56
  -1   0   3  425.16   11.57
  -1   0   3  474.14   13.02
   1   0   3  477.88   13.02
   1   0   3  485.12   12.02
   1   0   3  446.24   13.39
  -2   0  -3    2.95    0.12
  -2   0  -3    2.99    0.13
  -2   0  -3    3.13    0.11
   2   0   3    3.10    0.12
  -3   0  -3    3.00    0.16
  -3   0  -3    3.01    0.11
  -3   0  -3    2.70    0.15
  -4   0  -3   28.80    0.86
  -4   0  -3   29.85    0.66
  -4   0  -3   28.81    0.69
  -4   0  -3   30.81    0.76
  -4   0  -3   30.62    0.96
  -4   0  -3   29.95    0.59
  -4   0  -3   31.72    0.72
  -4   0  -3   29.65    0.75
  -4   0  -3   28.62    0.67
  -5   0  -3    0.37    0.06
  -5   0  -3    0.36    0.06
  -5   0  -3    0.27    0.04
  -5   1   3    4.73    0.19
  -5   1   3    5.11    0.17
  -5   1   3    5.20    0.18
  -5   1   3    5.02    0.16
  -5   1   3    5.03    0.17
  -5   1   3    4.76    0.16
  -4   1   3  128.13    2.15
  -4   1   3  125.00    2.90
  -4   1   3  124.48    3.26
  -4   1   3  126.54    2.53
  -4   1   3  125.89    3.64
  -4   1   3  120.48    2.91
  -4   1   3  129.48    3.00
  -4   1   3  123.65    2.70
  -4   1   3  124.26    2.55
  -4   1   3  127.72    2.71
  -3   1   3   34.80    0.90
  -3   1   3   36.18    1.09
  -3   1   3   34.92    0.76
  -3   1   3   34.41    0.65
  -2   1   3  178.94    5.03
  -2   1   3  172.83    4.97
  -2   1   3  171.78    4.47
   1  -1  -3    7.86    0.27
  -1   1   3    7.70    0.24
  -1   1   3    9.45    0.24
  -1   1   3    8.63    0.29
   0  -1  -3  566.98   15.42
   0  -1  -3  510.92   13.78
  -1  -1  -3  226.23    6.71
  -1  -1  -3  238.80    6.28
   1   1   3  248.70    6.75
   1   1   3  237.60    6.94
   1   1   3  252.86    6.26
  -2  -1  -3   45.25    1.15
  -2  -1  -3   46.39    1.21
  -2  -1  -3   46.15    1.35
   2   1   3   47.08    1.30
   2   1   3   46.00    1.35
  -3  -1  -3   31.38    0.85
  -3  -1  -3   31.28    0.97
  -3  -1  -3   31.39    0.84
  -4  -1  -3    1.45    0.10
  -4  -1  -3    1.79    0.09
  -4  -1  -3    1.44    0.13
  -4  -1  -3    1.52    0.10
  -4  -1  -3    1.49    0.13
  -4  -1  -3    1.41    0.09
  -5  -1  -3    0.00    0.03
  -5  -1  -3    0.09    0.03
  -5  -1  -3    0.02    0.03
  -5   2   3   19.36    0.49
  -5   2   3   19.19    0.46
  -5   2   3   18.94    0.47
  -4   2   3   33.32    0.82
  -4   2   3   31.85    0.93
  -4   2   3   33.52    0.74
  -4   2   3   32.57    1.03
  -4   2   3   32.82    0.73
  -4   2   3   31.39    0.81
  -4   2   3   32.68    0.63
  -4   2   3   33.41    0.85
  -4   2   3   33.04    0.78
  -4   2   3   31.80    0.78
  -3   2   3  138.13    2.79
  -3   2   3  140.80    2.97
  -3   2   3  134.93    3.57
  -3   2   3  145.06    3.28
  -3   2   3  136.20    2.34
  -3   2   3  140.83    3.96
  -3   2   3  133.23    3.16
  -3   2   3  142.05    2.77
  -3   2   3  135.61    2.78
  -2   2   3  179.87    4.50
  -2   2   3  176.57    5.07
  -2   2   3  170.97    4.96
   1  -2  -3  203.92    6.13
  -1   2   3  214.54    6.24
  -1   2   3  215.13    6.03
  -1   2   3  219.77    5.55
   0  -2  -3   26.67    0.72
   0  -2  -3   24.63    0.67
   0   2   3   24.34    0.71
   0   2   3   24.44    0.74
   0   2   3   24.47    0.67
  -1  -2  -3   51.19    1.35
  -1  -2  -3   48.30    1.50
   1   2   3   51.82    1.50
   1   2   3   51.96    1.34
   1   2   3   53.30    1.45
  -2  -2  -3    0.15    0.04
  -2  -2  -3    0.12    0.04
  -2  -2  -3    0.11    0.03
   2   2   3    0.11    0.04
   2   2   3    0.27    0.05
  -3  -2  -3  143.35    4.02
  -3  -2  -3  133.67    3.43
  -3  -2  -3  139.86    3.60
   3   2   3  141.20    4.03
   3   2   3  142.69    3.91
  -4  -2  -3   42.67    1.06
  -4  -2  -3   42.19    0.95
  -4  -2  -3   44.14    1.17
  -4  -2  -3   42.81    1.05
  -4  -2  -3   43.62    1.34
  -5  -2  -3   12.72    0.37
  -5  -2  -3   12.34    0.36
  -5   3   3    1.33    0.08
  -5   3   3    1.24    0.07
  -5   3   3    1.43    0.08
  -4   3   3    0.12    0.03
  -4   3   3    0.15    0.05
  -4   3   3    0.10    0.04
  -4   3   3    0.11    0.04
  -4   3   3    0.12    0.05
  -4   3   3    0.17    0.05
  -4   3   3    0.09    0.04
  -3   3   3    5.04    0.18
  -3   3   3    4.85    0.19
  -3   3   3    5.24    0.16
  -3   3   3    4.64    0.18
  -3   3   3    4.86    0.18
  -3   3   3    4.95    0.19
  -3   3   3    4.91    0.16
  -3   3   3    4.87    0.21
  -2   3   3    0.97    0.08
  -2   3   3    0.84    0.05
   1  -3  -3    7.39    0.28
   1  -3  -3    7.81    0.28
   1  -3  -3    7.43    0.26
  -1   3   3    7.88    0.24
  -1   3   3    7.87    0.29
   0  -3  -3   47.45    1.33
   0  -3  -3   47.71    1.38
   0  -3  -3   48.68    1.38
   0  -3  -3   46.72    1.23
   0   3   3   45.80    1.36
   0   3   3   43.88    1.31
   0   3   3   45.46    1.36
   0   3   3   46.72    1.22
  -1  -3  -3    0.10    0.03
  -1  -3  -3    0.07    0.03
   1   3   3    0.13    0.03
   1   3   3    0.05    0.02
   1   3   3    0.08    0.03
  -2  -3  -3    6.27    0.24
  -2  -3  -3    6.81    0.26
   2   3   3    6.75    0.25
   2   3   3    6.77    0.26
  -3  -3  -3   15.80    0.55
  -3  -3  -3   15.55    0.48
   3   3   3   15.90    0.51
   3   3   3   15.63    0.54
  -4  -3  -3    0.07    0.04
  -4  -3  -3    0.09    0.03
  -4  -3  -3    0.05    0.05
  -4  -3  -3    0.10    0.02
  -4  -3  -3    0.04    0.03
  -4  -3  -3    0.10    0.03
  -5  -3  -3    6.97    0.19
  -5  -3  -3    6.65    0.23
  -5  -3  -3    6.58    0.24
  -5  -3  -3    6.86    0.23
  -4   4   3   42.64    0.98
  -4   4   3   41.98    0.92
  -4   4   3   42.50    0.98
  -4   4   3   43.62    1.02
  -4   4   3   41.49    0.78
  -3   4   3    0.55    0.07
  -3   4   3    0.70    0.07
  -3   4   3    0.50    0.08
  -3   4   3    0.55    0.06
  -3   4   3    0.54    0.07
  -3   4   3    0.54    0.06
  -2   4   3   62.49    1.60
  -2   4   3   60.43    1.43
   1  -4  -3    0.56    0.07
   1  -4  -3    0.55    0.07
   1  -4  -3    0.66    0.07
  -1   4   3    0.55    0.07
  -1   4   3    0.53    0.05
   0  -4  -3  168.73    5.00
   0  -4  -3  170.12    4.75
   0  -4  -3  173.66    4.94
   0   4   3  168.82    4.93
   0   4   3  173.11    4.51
   0   4   3  167.95    4.86
  -1  -4  -3  173.91    4.53
  -1  -4  -3  168.73    4.95
  -1  -4  -3  167.15    4.81
   1   4   3  177.03    4.93
   1   4   3  175.65    4.55
   1   4   3  172.42    5.08
  -2  -4  -3  132.74    3.69
  -2  -4  -3  127.74    3.35
   2   4   3  125.67    3.62
   2   4   3  130.71    3.74
  -3  -4  -3    7.99    0.27
  -3  -4  -3    7.32    0.22
  -3  -4  -3    7.52    0.22
  -3  -4  -3    7.94    0.34
  -3  -4  -3    7.61    0.24
  -3  -4  -3    7.90    0.29
   3   4   3    7.77    0.30
   3   4   3    8.02    0.33
  -4  -4  -3   16.78    0.62
  -4  -4  -3   17.83    0.52
  -4  -4  -3   16.52    0.46
  -4  -4  -3   17.04    0.49
  -4  -4  -3   16.77    0.42
  -4  -4  -3   16.33    0.42
   4   4   3   16.75    0.60
  -5  -4  -3    0.18    0.03
  -5  -4  -3    0.15    0.04
  -5  -4  -3    0.24    0.05
  -5  -4  -3    0.21    0.05
  -5  -4  -3    0.15    0.04
  -4   5   3    5.36    0.19
  -4   5   3    5.60    0.19
  -4   5   3    5.35    0.18
  -3   5   3    1.73    0.11
  -3   5   3    1.82    0.12
  -3   5   3    1.65    0.11
  -2   5   3    3.48    0.17
  -2   5   3    3.70    0.15
  -2   5   3    3.99    0.13
  -2   5   3    3.62    0.16
  -2   5   3    3.77    0.13
   1  -5  -3    3.83    0.21
   1  -5  -3    3.88    0.20
  -1   5   3    3.73    0.16
  -1   5   3    3.79    0.19
  -1   5   3    3.89    0.14
   0  -5  -3  159.37    4.68
   0  -5  -3  164.57    4.69
   0   5   3  162.45    4.17
  -1  -5  -3  241.43    6.89
  -1  -5  -3  239.03    6.08
   1   5   3  236.56    6.93
   1   5   3  231.66    6.15
  -2  -5  -3   11.00    0.37
   2   5   3   10.75    0.41
   2   5   3   10.22    0.38
  -3  -5  -3    1.53    0.09
  -3  -5  -3    1.58    0.14
  -3  -5  -3    1.67    0.09
  -3  -5  -3    1.65    0.09
  -3  -5  -3    1.64    0.10
  -3  -5  -3    1.63    0.10
   3   5   3    1.74    0.14
  -4  -5  -3    0.65    0.09
  -4  -5  -3    0.66    0.06
  -4  -5  -3    0.63    0.06
  -4  -5  -3    0.59    0.07
  -5  -5  -3   59.71    1.43
  -5  -5  -3   60.50    1.41
  -5  -5  -3   61.40    1.32
  -5  -5  -3   59.64    1.28
  -4   6   3   15.88    0.46
  -4   6   3   16.40    0.40
  -4   6   3   16.09    0.39
  -3   6   3    0.22    0.06
  -3   6   3    0.36    0.06
  -3   6   3    0.31    0.04
  -3   6   3    0.35    0.07
  -2   6   3   32.34    0.77
  -2   6   3   31.02    0.94
  -2   6   3   31.91    0.75
  -2   6   3   32.40    0.74
  -2   6   3   33.23    0.90
  -2   6   3   31.72    0.83
   1  -6  -3   83.41    2.43
  -1   6   3   81.72    1.76
  -1   6   3   80.25    1.75
  -1   6   3   78.61    1.71
  -1   6   3   78.79    1.65
  -1   6   3   78.76    2.15
  -1   6   3   79.47    1.91
   0  -6  -3   14.88    0.56
   0   6   3   14.28    0.39
   0   6   3   14.98    0.46
   0   6   3   14.39    0.38
   0   6   3   14.74    0.43
   0   6   3   14.21    0.39
  -1  -6  -3    6.73    0.32
   1   6   3    6.67    0.21
   1   6   3    6.78    0.26
   1   6   3    6.80    0.22
   1   6   3    6.30    0.22
   1   6   3    6.71    0.29
  -2  -6  -3    2.39    0.15
  -2  -6  -3    2.39    0.11
  -2  -6  -3    2.17    0.12
  -2  -6  -3    2.18    0.11
  -2  -6  -3    2.36    0.12
  -2  -6  -3    2.15    0.12
   2   6   3    2.16    0.12
   2   6   3    2.35    0.12
  -3  -6  -3  126.40    3.80
  -3  -6  -3  133.02    2.81
  -3  -6  -3  131.84    3.03
  -3  -6  -3  130.96    2.73
  -3  -6  -3  130.98    2.94
   3   6   3  130.13    3.85
  -4  -6  -3   13.71    0.37
  -4  -6  -3   14.24    0.38
  -4  -6  -3   14.34    0.40
  -4  -6  -3   13.60    0.42
  -5  -6  -3   78.31    1.79
  -5  -6  -3   77.90    1.82
  -5  -6  -3   79.04    1.69
  -5  -6  -3   77.50    1.64
  -3   7   3    0.04    0.02
  -3   7   3    0.01    0.03
  -3   7   3    0.02    0.03
  -3   7   3    0.05    0.03
  -2   7   3    7.92    0.28
  -2   7   3    7.83    0.28
  -2   7   3    8.11    0.24
  -2   7   3    8.11    0.26
  -2   7   3    7.96    0.25
   1  -7  -3   27.59    0.96
  -1   7   3   26.17    0.79
  -1   7   3   27.38    0.67
  -1   7   3   28.56    0.74
  -1   7   3   27.75    0.67
  -1   7   3   26.53    0.66
   0  -7  -3  376.29   10.69
   0   7   3  369.36    7.81
   0   7   3  367.70    8.28
   0   7   3  368.08    7.73
   0   7   3  375.41    7.96
   0   7   3  369.17    7.61
   0   7   3  380.98    8.50
  -1  -7  -3    0.01    0.03
  -1  -7  -3    0.03    0.04
  -1  -7  -3    0.04    0.06
   1   7   3    0.02    0.03
   1   7   3    0.02    0.02
   1   7   3    0.01    0.02
   1   7   3    0.15    0.05
   1   7   3    0.02    0.03
  -2  -7  -3    0.47    0.06
  -2  -7  -3    0.36    0.07
  -2  -7  -3    0.49    0.06
  -2  -7  -3    0.39    0.06
   2   7   3    0.42    0.06
   2   7   3    0.41    0.09
   2   7   3    0.47    0.06
  -3  -7  -3    1.25    0.09
  -3  -7  -3    1.07    0.08
  -3  -7  -3    1.12    0.08
   3   7   3    1.01    0.09
   3   7   3    1.18    0.10
  -4  -7  -3   32.61    0.76
  -4  -7  -3   32.28    0.83
  -4  -7  -3   32.59    0.82
  -4  -7  -3   32.96    0.75
  -5  -7  -3    3.72    0.12
  -5  -7  -3    3.82    0.13
  -3   8   3   13.43    0.33
  -2   8   3   62.80    1.35
  -2   8   3   65.84    1.44
  -2   8   3   64.99    1.57
  -2   8   3   67.06    1.44
  -2   8   3   64.38    1.40
  -1   8   3    2.53    0.12
  -1   8   3    2.46    0.12
  -1   8   3    2.18    0.14
  -1   8   3    2.43    0.13
   0   8   3    3.57    0.17
   0   8   3    4.21    0.19
   0   8   3    3.65    0.14
   0   8   3    3.84    0.15
   0   8   3    3.76    0.16
  -1  -8  -3    8.22    0.29
  -1  -8  -3    7.79    0.29
   1   8   3    8.31    0.27
   1   8   3    7.96    0.29
   1   8   3    8.33    0.27
   1   8   3    8.26    0.25
  -2  -8  -3   18.01    0.49
  -2  -8  -3   18.00    0.51
  -2  -8  -3   18.01    0.46
   2   8   3   18.33    0.51
   2   8   3   18.36    0.48
  -3  -8  -3    1.12    0.08
  -3  -8  -3    1.12    0.08
  -3  -8  -3    0.96    0.08
   3   8   3    1.04    0.09
   3   8   3    1.10    0.09
  -4  -8  -3    0.03    0.02
  -4  -8  -3    0.03    0.04
  -4  -8  -3    0.02    0.02
  -4  -8  -3   -0.03    0.02
  -2   9   3    0.20    0.03
  -2   9   3    0.18    0.03
  -2   9   3    0.21    0.04
  -1   9   3   31.01    0.73
  -1   9   3   30.62    0.72
  -1   9   3   31.61    0.72
  -1   9   3   31.01    0.81
   0  -9  -3    0.90    0.09
   0   9   3    0.87    0.07
   0   9   3    1.17    0.10
   0   9   3    1.00    0.08
  -1  -9  -3    5.16    0.21
  -1  -9  -3    4.94    0.21
   1   9   3    5.22    0.16
   1   9   3    5.42    0.20
   1   9   3    5.22    0.18
  -2  -9  -3    0.76    0.08
  -2  -9  -3    0.86    0.08
   2   9   3    0.80    0.07
   2   9   3    0.81    0.07
  -3  -9  -3   22.14    0.52
  -3  -9  -3   22.16    0.55
   3   9   3   22.19    0.54
   3   9   3   22.77    0.57
  -1  10   3    2.04    0.10
  -1  10   3    2.03    0.09
  -1  10   3    2.08    0.09
   0 -10  -3    0.53    0.07
   0  10   3    0.54    0.05
   0  10   3    0.55    0.06
   0  10   3    0.64    0.06
  -1 -10  -3    0.01    0.03
  -1 -10  -3    0.03    0.03
   1  10   3    0.15    0.04
  -2 -10  -3    0.13    0.04
  -2 -10  -3    0.11    0.04
   2  10   3    0.22    0.03
   2  10   3    0.09    0.03
  -1 -10   4   11.89    0.33
  -1 -10   4   11.32    0.31
   0  10  -4   14.96    0.36
   0  10  -4   15.36    0.38
   0 -10   4   15.59    0.40
   3   9  -4   20.22    0.51
   3   9  -4   20.27    0.48
  -3  -9   4   19.96    0.46
   2   9  -4  119.43    2.50
   2   9  -4  113.21    2.34
   2   9  -4  118.38    2.66
  -2  -9   4  116.22    2.49
  -2  -9   4  119.85    2.66
   1   9  -4    0.42    0.05
   1   9  -4    0.52    0.06
   1   9  -4    0.45    0.05
   1   9  -4    0.38    0.06
  -1  -9   4    0.41    0.06
  -1  -9   4    0.40    0.07
   0   9  -4    2.13    0.13
   0   9  -4    2.16    0.11
   0   9  -4    2.24    0.12
   0   9  -4    2.19    0.11
   0  -9   4    2.07    0.12
   0  -9   4    2.18    0.13
  -1   9  -4    0.07    0.04
  -1   9  -4    0.08    0.04
  -1   9  -4    0.02    0.02
  -1   9  -4    0.03    0.03
  -2   9  -4   20.47    0.49
  -2   9  -4   20.16    0.48
  -2   9  -4   20.99    0.54
  -2   9  -4   21.41    0.48
  -4  -8   4    0.44    0.05
   3   8  -4    6.50    0.23
   3   8  -4    6.18    0.18
   3   8  -4    6.52    0.21
  -3  -8   4    6.18    0.21
  -3  -8   4    6.33    0.20
   2   8  -4    3.05    0.12
   2   8  -4    2.86    0.15
   2   8  -4    3.43    0.15
  -2  -8   4    3.04    0.13
  -2  -8   4    3.08    0.15
  -2  -8   4    3.00    0.14
   1   8  -4   20.44    0.54
   1   8  -4   21.29    0.52
   1   8  -4   20.46    0.49
   1   8  -4   21.25    0.56
  -1  -8   4   20.68    0.58
  -1  -8   4   21.32    0.56
   0   8  -4    1.51    0.10
   0   8  -4    1.36    0.11
   0   8  -4    1.41    0.09
   0   8  -4    1.31    0.09
   0   8  -4    1.16    0.08
   0   8  -4    1.43    0.09
   0  -8   4    1.31    0.11
  -1   8  -4   23.97    0.57
  -1   8  -4   23.17    0.56
  -1   8  -4   24.16    0.66
  -1   8  -4   23.52    0.59
  -1   8  -4   24.35    0.60
  -2   8  -4    4.17    0.15
  -2   8  -4    3.81    0.16
  -2   8  -4    3.95    0.15
  -2   8  -4    3.76    0.15
  -2   8  -4    3.83    0.17
  -3   8  -4    0.56    0.06
  -3   8  -4    0.62    0.06
  -3   8  -4    0.65    0.04
  -4  -7   4    9.45    0.26
  -4  -7   4    9.09    0.25
  -4  -7   4    9.22    0.27
   3   7  -4    1.43    0.10
  -3  -7   4    1.50    0.08
  -3  -7   4    1.40    0.10
  -3  -7   4    1.31    0.16
  -3  -7   4    1.49    0.09
  -3  -7   4    1.49    0.09
   2   7  -4   32.65    0.77
   2   7  -4   31.67    0.82
   2   7  -4   29.41    1.05
   2   7  -4   31.90    0.69
  -2  -7   4   32.01    0.81
  -2  -7   4   33.46    0.77
  -2  -7   4   31.67    0.73
  -2  -7   4   31.34    1.08
  -2  -7   4   32.38    0.81
   1   7  -4   12.46    0.32
   1   7  -4   12.74    0.38
   1   7  -4   12.49    0.35
   1   7  -4   12.72    0.36
  -1  -7   4   11.49    0.51
  -1  -7   4   12.15    0.38
  -1  -7   4   12.92    0.38
   0   7  -4    0.15    0.04
   0   7  -4    0.17    0.04
   0   7  -4    0.27    0.05
   0   7  -4    0.36    0.05
   0   7  -4    0.22    0.05
   0  -7   4    0.22    0.08
   0  -7   4    0.19    0.05
  -1   7  -4    0.23    0.05
  -1   7  -4    0.24    0.05
  -1   7  -4    0.21    0.05
  -1   7  -4    0.16    0.05
  -1   7  -4    0.28    0.06
   1  -7   4    0.20    0.08
  -2   7  -4   11.15    0.32
  -2   7  -4   11.20    0.35
  -2   7  -4   10.97    0.32
  -2   7  -4   11.35    0.33
  -2   7  -4   11.04    0.32
  -3   7  -4    1.13    0.09
  -3   7  -4    1.05    0.08
  -3   7  -4    0.95    0.08
  -3   7  -4    1.05    0.08
  -3   7  -4    1.07    0.06
  -4  -6   4   23.04    0.59
  -4  -6   4   22.18    0.60
  -4  -6   4   22.63    0.54
  -4  -6   4   21.75    0.64
  -3  -6   4    8.65    0.30
  -3  -6   4    8.47    0.25
  -3  -6   4    8.39    0.41
  -3  -6   4    8.69    0.28
  -3  -6   4    8.68    0.27
  -3  -6   4    8.60    0.26
  -3  -6   4    8.53    0.25
  -3  -6   4    8.03    0.30
   2   6  -4   16.52    0.60
   2   6  -4   16.24    0.44
   2   6  -4   15.64    0.46
  -2  -6   4   16.45    0.62
  -2  -6   4   16.37    0.41
  -2  -6   4   16.45    0.45
  -2  -6   4   15.92    0.44
  -2  -6   4   15.90    0.42
  -2  -6   4   16.51    0.44
  -2  -6   4   15.57    0.44
   1   6  -4    0.33    0.05
   1   6  -4    0.32    0.07
   1   6  -4    0.53    0.06
   1   6  -4    0.31    0.05
  -1  -6   4    0.27    0.06
  -1  -6   4    0.26    0.04
  -1  -6   4    0.33    0.06
  -1  -6   4    0.30    0.08
   0   6  -4  127.93    2.75
   0   6  -4  131.78    2.68
   0   6  -4  124.03    2.70
   0   6  -4  125.20    2.88
   0   6  -4  128.25    2.55
   0   6  -4  125.15    2.97
   0   6  -4  128.99    3.33
   0  -6   4  129.18    3.76
   0  -6   4  126.25    2.75
  -1   6  -4   81.19    1.79
  -1   6  -4   78.92    1.94
  -1   6  -4   82.37    1.76
  -1   6  -4   81.64    1.68
  -1   6  -4   83.41    1.69
   1  -6   4   84.06    2.48
  -2   6  -4    2.64    0.13
  -2   6  -4    2.52    0.13
  -2   6  -4    2.48    0.11
  -2   6  -4    2.59    0.12
  -2   6  -4    2.60    0.12
  -2   6  -4    2.80    0.14
  -2   6  -4    2.65    0.14
   2  -6   4    2.49    0.19
  -3   6  -4    0.31    0.06
  -3   6  -4    0.47    0.08
  -3   6  -4    0.44    0.07
  -3   6  -4    0.42    0.06
  -3   6  -4    0.36    0.06
  -3   6  -4    0.36    0.05
  -3   6  -4    0.37    0.04
  -4   6  -4    7.67    0.22
  -4   6  -4    7.45    0.24
  -4   6  -4    8.14    0.19
  -4   6  -4    7.80    0.22
  -5  -5   4    1.85    0.09
  -5  -5   4    1.85    0.07
  -5  -5   4    1.73    0.10
  -5  -5   4    1.98    0.09
  -4  -5   4    0.10    0.04
  -4  -5   4   -0.01    0.06
  -4  -5   4    0.08    0.03
  -4  -5   4    0.07    0.04
  -4  -5   4    0.05    0.02
  -4  -5   4    0.13    0.04
  -4  -5   4    0.10    0.04
   3   5  -4    4.00    0.23
  -3  -5   4    4.05    0.15
  -3  -5   4    3.83    0.25
  -3  -5   4    3.98    0.16
  -3  -5   4    4.27    0.20
  -3  -5   4    4.15    0.15
  -3  -5   4    4.34    0.18
   2   5  -4   10.50    0.40
   2   5  -4   11.36    0.43
  -2  -5   4   11.08    0.38
  -2  -5   4   10.55    0.32
  -2  -5   4   11.09    0.29
  -2  -5   4   11.49    0.35
  -2  -5   4   11.07    0.45
  -2  -5   4   10.63    0.31
  -2  -5   4   11.03    0.31
  -2  -5   4   10.87    0.30
   1   5  -4    6.96    0.29
  -1  -5   4    6.92    0.31
  -1  -5   4    7.24    0.27
   0  -5   4    1.86    0.14
   0  -5   4    2.10    0.14
  -1   5  -4   62.15    1.71
  -1   5  -4   64.07    1.40
  -1   5  -4   66.89    1.70
   1  -5   4   66.33    1.93
   1  -5   4   59.39    1.85
  -2   5  -4   34.32    0.77
  -2   5  -4   34.21    0.78
  -2   5  -4   33.76    0.77
  -2   5  -4   33.96    0.93
  -2   5  -4   33.76    0.85
  -2   5  -4   34.48    0.84
   2  -5   4   35.14    1.10
  -3   5  -4    1.35    0.11
  -3   5  -4    1.46    0.08
  -3   5  -4    1.44    0.10
  -3   5  -4    1.55    0.09
  -3   5  -4    1.61    0.08
  -3   5  -4    1.31    0.11
  -3   5  -4    1.43    0.09
  -4   5  -4    0.76    0.06
  -4   5  -4    0.78    0.06
  -4   5  -4    0.74    0.07
  -4   5  -4    0.76    0.07
  -4   5  -4    0.82    0.08
  -4   5  -4    0.82    0.09
  -5  -4   4    4.73    0.19
  -5  -4   4    5.26    0.19
  -5  -4   4    5.12    0.17
  -5  -4   4    4.87    0.16
  -5  -4   4    5.07    0.15
  -4  -4   4    0.00    0.04
  -4  -4   4    0.13    0.04
  -4  -4   4    0.05    0.04
  -4  -4   4    0.03    0.02
  -4  -4   4   -0.01    0.05
  -4  -4   4    0.11    0.03
   3   4  -4    0.80    0.09
  -3  -4   4    0.85    0.10
  -3  -4   4    0.71    0.05
  -3  -4   4    0.73    0.06
  -3  -4   4    0.72    0.06
  -3  -4   4    0.77    0.08
  -3  -4   4    0.73    0.12
   2   4  -4   12.66    0.46
   2   4  -4   12.89    0.44
  -2  -4   4   13.15    0.41
  -2  -4   4   12.76    0.48
   1   4  -4   27.60    0.86
   1   4  -4   27.03    0.82
   1   4  -4   27.17    0.77
  -1  -4   4   27.37    0.77
  -1  -4   4   27.60    0.88
   0   4  -4  587.84   16.52
   0  -4   4  564.31   16.52
   0  -4   4  567.61   15.97
  -1   4  -4   10.76    0.32
  -1   4  -4   10.62    0.34
   1  -4   4   10.83    0.39
   1  -4   4   10.72    0.37
  -2   4  -4   27.92    0.70
  -2   4  -4   28.08    0.77
  -2   4  -4   28.00    0.75
  -2   4  -4   29.23    0.77
  -2   4  -4   27.15    0.63
   2  -4   4   25.94    0.84
   2  -4   4   27.68    0.88
  -3   4  -4   43.95    0.98
  -3   4  -4   43.59    0.82
  -3   4  -4   43.85    0.98
  -3   4  -4   43.72    0.97
  -3   4  -4   44.31    1.05
  -3   4  -4   43.27    1.00
  -3   4  -4   44.07    1.17
  -4   4  -4   12.19    0.30
  -4   4  -4   12.37    0.34
  -4   4  -4   11.94    0.34
  -4   4  -4   12.29    0.35
  -4   4  -4   12.80    0.36
  -5   4  -4    1.76    0.07
  -5   4  -4    1.78    0.09
  -5  -3   4   15.91    0.49
  -5  -3   4   16.29    0.40
  -5  -3   4   16.68    0.46
  -5  -3   4   16.78    0.38
  -4  -3   4   10.12    0.27
  -4  -3   4   10.23    0.45
  -4  -3   4   10.46    0.35
  -4  -3   4   10.26    0.35
  -4  -3   4    9.67    0.29
   3   3  -4   29.88    0.92
  -3  -3   4   27.49    0.71
  -3  -3   4   28.88    0.81
  -3  -3   4   29.32    0.96
  -3  -3   4   27.39    0.64
  -3  -3   4   28.39    0.65
  -3  -3   4   29.96    0.81
   2   3  -4  244.81    6.97
   2   3  -4  247.44    7.09
  -2  -3   4  250.00    6.54
  -2  -3   4  248.17    7.00
   1   3  -4   23.52    0.72
   1   3  -4   22.59    0.64
   1   3  -4   23.46    0.69
  -1  -3   4   22.67    0.73
  -1  -3   4   23.74    0.65
   0   3  -4   24.84    0.69
   0   3  -4   25.30    0.74
   0   3  -4   24.43    0.76
   0  -3   4   24.95    0.69
   0  -3   4   24.80    0.77
   0  -3   4   25.71    0.75
  -1   3  -4  564.71   13.95
  -1   3  -4  534.20   13.17
   1  -3   4  523.47   15.02
   1  -3   4  535.71   15.50
  -2   3  -4   26.03    0.71
  -2   3  -4   26.11    0.71
   2  -3   4   25.59    0.79
   2  -3   4   25.12    0.76
  -3   3  -4    8.43    0.26
  -3   3  -4    8.44    0.25
  -3   3  -4    8.01    0.24
  -3   3  -4    8.66    0.27
  -3   3  -4    8.61    0.23
  -3   3  -4    8.45    0.26
  -3   3  -4    8.22    0.32
  -3   3  -4    8.35    0.25
  -4   3  -4  153.92    2.61
  -4   3  -4  155.28    3.50
  -4   3  -4  155.71    3.46
  -4   3  -4  149.39    3.09
  -4   3  -4  153.08    3.08
  -4   3  -4  152.39    3.28
  -5   3  -4    5.81    0.19
  -5   3  -4    6.04    0.17
  -5   3  -4    5.94    0.19
  -5  -2   4    1.59    0.10
  -5  -2   4    1.27    0.10
  -5  -2   4    1.42    0.10
  -5  -2   4    1.36    0.09
  -4  -2   4    0.31    0.06
   3   2  -4   11.18    0.40
   3   2  -4   11.26    0.38
  -3  -2   4   11.55    0.36
  -3  -2   4   11.53    0.36
  -3  -2   4   11.07    0.28
  -3  -2   4   11.94    0.37
  -3  -2   4   11.44    0.35
  -3  -2   4   11.88    0.46
   2   2  -4    0.21    0.04
   2   2  -4    0.17    0.04
  -2  -2   4    0.26    0.07
   1   2  -4  153.69    4.29
   1   2  -4  148.90    4.41
   1   2  -4  150.90    3.94
  -1  -2   4  150.07    4.16
  -1  -2   4  152.08    3.96
  -1  -2   4  144.42    4.28
   0   2  -4   23.27    0.72
   0   2  -4   23.94    0.65
   0   2  -4   24.01    0.69
   0  -2   4   23.95    0.65
   0  -2   4   23.89    0.72
   0  -2   4   24.44    0.70
  -1   2  -4   35.42    0.90
  -1   2  -4   36.53    0.95
   1  -2   4   36.17    1.02
   1  -2   4   34.76    1.05
  -2   2  -4  219.00    5.70
  -2   2  -4  222.52    5.42
   2  -2   4  217.15    6.23
  -3   2  -4   58.70    1.31
  -3   2  -4   58.95    1.05
  -3   2  -4   59.18    1.39
  -3   2  -4   57.28    1.37
  -3   2  -4   61.27    1.55
  -3   2  -4   59.11    1.24
  -4   2  -4   68.32    1.49
  -4   2  -4   70.81    1.27
  -4   2  -4   71.89    1.65
  -4   2  -4   73.73    1.67
  -4   2  -4   70.65    1.57
  -4   2  -4   69.20    1.48
  -5   2  -4    7.10    0.22
  -5   2  -4    7.23    0.22
  -5   2  -4    7.37    0.20
  -5  -1   4    0.24    0.05
  -5  -1   4    0.20    0.05
  -5  -1   4    0.19    0.04
  -5  -1   4    0.13    0.04
  -4  -1   4    0.08    0.04
  -4  -1   4    0.08    0.06
  -4  -1   4    0.08    0.04
  -4  -1   4    0.05    0.04
  -4  -1   4    0.08    0.04
  -3  -1   4   71.91    1.89
  -3  -1   4   72.21    1.77
  -3  -1   4   74.88    2.17
   2   1  -4  191.45    5.57
   2   1  -4  196.48    5.42
  -2  -1   4  191.41    5.02
  -2  -1   4  194.42    5.47
  -1  -1   4 1000.00   28.36
  -1  -1   4  998.31   28.48
   0   1  -4   65.97    1.93
   0   1  -4   69.27    1.87
   0  -1   4   65.58    1.87
   0  -1   4   65.67    1.92
   0  -1   4   69.06    1.80
  -1   1  -4  372.90    9.57
   1  -1   4  372.32    9.53
   1  -1   4  369.09   10.29
   1  -1   4  366.74   10.60
  -2   1  -4   12.40    0.41
  -2   1  -4   12.92    0.38
  -2   1  -4   13.74    0.37
   2  -1   4   12.73    0.40
  -3   1  -4   48.63    1.26
  -3   1  -4   47.07    1.41
  -4   1  -4   31.50    0.73
  -4   1  -4   29.63    0.74
  -4   1  -4   31.79    0.99
  -4   1  -4   32.35    0.63
  -4   1  -4   33.03    0.80
  -4   1  -4   32.29    0.79
  -5   1  -4   30.24    0.76
  -5   1  -4   31.21    0.69
  -5   1  -4   31.87    0.77
  -5   1  -4   31.18    0.60
  -5   0   4    0.31    0.06
  -5   0   4    0.44    0.06
  -5   0   4    0.43    0.06
  -4   0   4    0.07    0.04
  -4   0   4    0.03    0.04
  -4   0   4    0.07    0.05
  -4   0   4    0.09    0.04
  -4   0   4    0.04    0.04
  -4   0   4    0.05    0.04
  -3   0   4   52.46    1.54
  -3   0   4   50.19    0.90
  -3   0   4   51.08    1.26
  -3   0   4   49.08    1.06
   2   0  -4    0.22    0.04
  -2   0   4    0.13    0.03
  -2   0   4    0.12    0.05
   1   0  -4   54.51    1.47
   1   0  -4   51.00    1.51
   1   0  -4   51.37    1.35
  -1   0   4   52.34    1.37
  -1   0   4   52.38    1.53
   0   0  -4  111.64    3.20
   0   0  -4  113.65    3.12
   0   0  -4  113.33    2.94
   0   0   4  110.96    3.09
   0   0   4  102.23    2.85
   0   0   4  107.96    3.16
  -1   0  -4   83.21    2.44
  -1   0  -4   92.25    2.37
   1   0   4   84.37    2.50
   1   0   4   89.64    2.30
   1   0   4   88.64    2.45
  -2   0  -4    5.41    0.18
  -2   0  -4    5.36    0.20
   2   0   4    5.34    0.19
  -3   0  -4  269.42    7.83
  -3   0  -4  284.94    7.15
  -3   0  -4  280.86    6.76
  -4   0  -4   10.88    0.33
  -4   0  -4   10.62    0.27
  -4   0  -4   11.27    0.33
  -4   0  -4   10.34    0.30
  -4   0  -4   10.19    0.29
  -4   0  -4   10.69    0.40
  -4   0  -4   10.10    0.38
  -4   0  -4   11.61    0.31
  -4   0  -4   10.18    0.26
  -5   0  -4    2.25    0.11
  -5   0  -4    2.27    0.10
  -5   0  -4    2.00    0.11
  -5   1   4    2.44    0.11
  -5   1   4    2.26    0.11
  -5   1   4    2.36    0.10
  -5   1   4    2.25    0.12
  -5   1   4    2.21    0.10
  -4   1   4    1.25    0.10
  -4   1   4    1.31    0.09
  -4   1   4    1.24    0.13
  -4   1   4    1.18    0.09
  -4   1   4    1.41    0.10
  -4   1   4    1.20    0.10
  -4   1   4    1.49    0.10
  -4   1   4    1.35    0.10
  -3   1   4    7.57    0.31
  -3   1   4    7.32    0.26
  -3   1   4    7.59    0.20
  -3   1   4    7.44    0.22
  -3   1   4    6.81    0.27
  -2   1   4   36.23    1.09
  -2   1   4   36.23    1.12
  -2   1   4   36.53    0.95
   1  -1  -4    1.47    0.08
   1  -1  -4    1.63    0.08
  -1   1   4    1.69    0.09
  -1   1   4    1.65    0.07
   0  -1  -4  223.64    6.28
   0  -1  -4  224.47    6.10
   0  -1  -4  207.56    5.60
   0   1   4  212.55    6.22
   0   1   4  210.45    5.64
   0   1   4  215.05    6.04
  -1  -1  -4   94.76    2.91
  -1  -1  -4   98.56    2.84
  -1  -1  -4  102.82    2.71
   1   1   4   99.81    2.87
   1   1   4  102.80    2.83
   1   1   4  103.83    2.60
  -2  -1  -4   15.91    0.42
  -2  -1  -4   15.74    0.45
  -2  -1  -4   14.68    0.48
   2   1   4   14.90    0.48
   2   1   4   15.84    0.47
  -3  -1  -4  331.06    9.45
  -3  -1  -4  337.66    8.10
  -3  -1  -4  339.30    8.65
   3   1   4  338.63    9.26
   3   1   4  330.05    9.52
  -4  -1  -4   93.15    2.70
  -4  -1  -4   89.39    2.35
  -4  -1  -4   92.94    1.62
  -4  -1  -4   96.08    2.17
  -4  -1  -4   95.43    2.14
  -4  -1  -4   88.70    1.98
  -5  -1  -4   27.72    0.72
  -5  -1  -4   29.71    0.73
  -5   2   4    0.37    0.06
  -5   2   4    0.50    0.06
  -5   2   4    0.35    0.05
  -5   2   4    0.36    0.05
  -4   2   4    0.03    0.03
  -4   2   4    0.02    0.03
  -4   2   4    0.01    0.03
  -4   2   4    0.04    0.04
  -4   2   4    0.02    0.04
  -4   2   4    0.25    0.06
  -4   2   4    0.02    0.04
  -4   2   4    0.02    0.04
  -4   2   4    0.02    0.04
  -3   2   4   10.32    0.25
  -3   2   4   10.71    0.29
  -3   2   4   10.09    0.28
  -3   2   4   10.39    0.30
  -3   2   4   10.42    0.36
  -3   2   4   10.22    0.33
  -3   2   4   10.42    0.39
  -3   2   4    9.92    0.31
  -2   2   4  466.94   11.94
  -2   2   4  460.68   13.30
  -2   2   4  473.60   13.55
   1  -2  -4  130.99    3.63
   1  -2  -4  122.86    3.69
  -1   2   4  131.97    3.42
  -1   2   4  129.92    3.73
  -1   2   4  131.38    3.64
   0  -2  -4   64.15    1.75
   0  -2  -4   60.88    1.62
   0  -2  -4   65.89    1.81
   0   2   4   60.93    1.74
   0   2   4   62.16    1.62
   0   2   4   59.88    1.79
  -1  -2  -4   47.89    1.43
  -1  -2  -4   48.28    1.29
  -1  -2  -4   48.38    1.39
   1   2   4   50.33    1.38
   1   2   4   49.85    1.28
   1   2   4   48.48    1.43
  -2  -2  -4    1.91    0.11
  -2  -2  -4    2.01    0.12
  -2  -2  -4    1.93    0.10
   2   2   4    2.01    0.12
   2   2   4    2.00    0.11
  -3  -2  -4   52.58    1.57
  -3  -2  -4   53.91    1.41
  -3  -2  -4   50.94    1.34
   3   2   4   52.49    1.56
   3   2   4   52.71    1.51
  -4  -2  -4   10.95    0.34
  -4  -2  -4   11.70    0.35
  -4  -2  -4   11.19    0.43
  -4  -2  -4   10.73    0.29
  -5  -2  -4    1.04    0.08
  -5  -2  -4    0.97    0.08
  -5  -2  -4    1.12    0.06
  -5   3   4    8.16    0.22
  -5   3   4    8.27    0.22
  -5   3   4    7.51    0.22
  -4   3   4   16.63    0.53
  -4   3   4   16.54    0.42
  -4   3   4   16.79    0.45
  -4   3   4   16.69    0.46
  -4   3   4   16.81    0.36
  -4   3   4   17.38    0.41
  -4   3   4   17.22    0.45
  -3   3   4    1.57    0.11
  -3   3   4    1.61    0.11
  -3   3   4    1.53    0.08
  -3   3   4    1.62    0.10
  -3   3   4    1.47    0.09
  -3   3   4    1.56    0.12
  -3   3   4    1.55    0.09
  -3   3   4    1.62    0.10
  -2   3   4  108.49    3.13
  -2   3   4  110.66    2.81
  -2   3   4  110.14    3.23
   1  -3  -4   42.12    1.19
   1  -3  -4   39.03    1.23
  -1   3   4   41.31    1.25
  -1   3   4   41.45    1.10
   0  -3  -4   16.68    0.50
   0  -3  -4   16.46    0.52
   0  -3  -4   15.63    0.46
   0   3   4   15.35    0.50
   0   3   4   15.76    0.46
   0   3   4   15.23    0.50
  -1  -3  -4   13.94    0.45
  -1  -3  -4   14.17    0.42
   1   3   4   14.08    0.42
   1   3   4   14.18    0.44
   1   3   4   14.20    0.46
  -2  -3  -4   71.58    2.02
  -2  -3  -4   69.65    1.84
   2   3   4   68.75    1.98
   2   3   4   69.25    2.05
  -3  -3  -4   85.33    2.49
  -3  -3  -4   83.78    2.24
   3   3   4   86.00    2.42
   3   3   4   85.51    2.50
  -4  -3  -4   24.41    0.59
  -4  -3  -4   24.65    0.64
  -4  -3  -4   26.03    0.71
  -4  -3  -4   25.15    0.66
  -4  -3  -4   24.58    0.65
  -5  -3  -4    4.50    0.18
  -5  -3  -4    4.50    0.17
  -5  -3  -4    4.58    0.14
  -5  -3  -4    4.48    0.16
  -4   4   4    1.38    0.09
  -4   4   4    1.34    0.10
  -4   4   4    1.32    0.09
  -4   4   4    1.47    0.09
  -4   4   4    1.44    0.10
  -3   4   4   11.63    0.40
  -3   4   4   11.45    0.33
  -3   4   4   11.50    0.32
  -3   4   4   11.27    0.33
  -3   4   4   11.72    0.34
  -3   4   4   11.13    0.27
  -3   4   4   11.05    0.35
  -2   4   4   35.03    0.81
  -2   4   4   34.62    0.84
  -2   4   4   34.62    0.93
  -2   4   4   34.63    0.98
   1  -4  -4    0.02    0.03
   1  -4  -4    0.06    0.04
  -1   4   4    0.01    0.03
  -1   4   4    0.04    0.02
   0  -4  -4  187.81    5.25
   0  -4  -4  181.53    5.13
   0   4   4  175.51    5.15
   0   4   4  180.42    4.71
   0   4   4  177.94    5.18
  -1  -4  -4  501.74   14.90
  -1  -4  -4  515.57   13.26
   1   4   4  524.48   14.92
   1   4   4  510.78   14.35
   1   4   4  506.93   13.23
  -2  -4  -4  109.97    3.11
  -2  -4  -4  109.99    2.84
   2   4   4  105.57    3.06
   2   4   4  108.84    3.16
  -3  -4  -4    5.55    0.18
  -3  -4  -4    5.61    0.18
  -3  -4  -4    6.03    0.27
  -3  -4  -4    6.37    0.25
  -3  -4  -4    5.72    0.21
  -3  -4  -4    5.51    0.19
   3   4   4    6.23    0.27
   3   4   4    5.77    0.25
  -4  -4  -4   32.51    0.84
  -4  -4  -4   32.52    0.75
  -4  -4  -4   32.44    0.82
  -4  -4  -4   33.45    0.91
  -4  -4  -4   33.15    0.76
   4   4   4   32.22    1.05
  -5  -4  -4    1.35    0.10
  -5  -4  -4    1.32    0.08
  -5  -4  -4    1.27    0.07
  -4   5   4    0.97    0.08
  -4   5   4    0.98    0.07
  -4   5   4    0.85    0.07
  -4   5   4    0.96    0.07
  -3   5   4    8.11    0.25
  -3   5   4    7.77    0.30
  -3   5   4    7.78    0.26
  -3   5   4    8.22    0.26
  -3   5   4    7.69    0.24
  -2   5   4    5.38    0.23
  -2   5   4    5.32    0.18
  -2   5   4    5.47    0.19
  -2   5   4    5.75    0.20
  -2   5   4    5.49    0.18
  -2   5   4    5.85    0.19
   1  -5  -4    9.67    0.39
   1  -5  -4    8.63    0.36
  -1   5   4    9.77    0.30
  -1   5   4    9.61    0.37
  -1   5   4    9.44    0.31
   0  -5  -4   27.33    0.87
   0  -5  -4   29.00    0.92
   0   5   4   27.83    0.87
   0   5   4   28.22    0.79
  -1  -5  -4  131.62    3.84
  -1  -5  -4  130.52    3.43
   1   5   4  132.85    3.42
   1   5   4  132.13    3.81
  -2  -5  -4  209.51    5.41
  -2  -5  -4  220.86    5.96
   2   5   4  208.06    6.04
   2   5   4  201.28    5.85
  -3  -5  -4    2.76    0.12
  -3  -5  -4    2.82    0.12
  -3  -5  -4    2.96    0.13
  -3  -5  -4    2.77    0.12
  -3  -5  -4    2.81    0.14
   3   5   4    2.94    0.19
  -4  -5  -4    2.04    0.11
  -4  -5  -4    1.96    0.11
  -4  -5  -4    2.04    0.12
  -4  -5  -4    2.07    0.10
  -4  -5  -4    2.03    0.13
  -5  -5  -4   54.51    1.19
  -5  -5  -4   56.24    1.31
  -5  -5  -4   56.70    1.22
  -5  -5  -4   54.98    1.32
  -4   6   4    1.01    0.07
  -4   6   4    1.19    0.07
  -4   6   4    1.16    0.07
  -3   6   4    0.01    0.03
  -3   6   4    0.05    0.04
  -3   6   4    0.05    0.02
  -3   6   4    0.06    0.03
  -2   6   4   25.52    0.61
  -2   6   4   25.50    0.75
  -2   6   4   26.51    0.73
  -2   6   4   25.10    0.61
  -2   6   4   25.98    0.63
  -2   6   4   24.85    0.68
   1  -6  -4    2.42    0.18
  -1   6   4    1.94    0.11
  -1   6   4    2.06    0.11
  -1   6   4    2.25    0.12
  -1   6   4    2.26    0.11
  -1   6   4    2.21    0.13
   0  -6  -4    8.99    0.39
   0   6   4    8.61    0.25
   0   6   4    8.73    0.26
   0   6   4    8.77    0.24
   0   6   4    8.65    0.26
   0   6   4    8.55    0.29
   0   6   4    8.96    0.32
   0   6   4    9.12    0.27
  -1  -6  -4   14.54    0.41
   1   6   4   14.65    0.38
   1   6   4   14.43    0.40
   1   6   4   14.48    0.45
   1   6   4   14.58    0.39
   1   6   4   14.51    0.47
   1   6   4   14.92    0.37
   1   6   4   15.05    0.53
  -2  -6  -4  104.63    2.43
  -2  -6  -4  108.38    3.04
  -2  -6  -4  101.66    2.39
  -2  -6  -4  106.23    2.26
  -2  -6  -4  103.93    2.20
  -2  -6  -4  103.40    2.80
   2   6   4  102.67    2.25
   2   6   4   99.84    2.39
   2   6   4  107.26    3.09
  -3  -6  -4   13.15    0.39
  -3  -6  -4   13.39    0.37
  -3  -6  -4   12.93    0.36
  -3  -6  -4   13.26    0.37
   3   6   4   13.32    0.52
  -4  -6  -4    2.07    0.11
  -4  -6  -4    1.88    0.13
  -4  -6  -4    1.81    0.11
  -4  -6  -4    1.88    0.10
  -5  -6  -4   38.75    0.87
  -5  -6  -4   38.69    0.93
  -5  -6  -4   39.44    0.94
  -5  -6  -4   38.65    0.85
  -3   7   4   53.49    1.15
  -3   7   4   53.97    1.18
  -3   7   4   50.90    1.43
  -2   7   4    5.36    0.21
  -2   7   4    5.55    0.19
  -2   7   4    5.38    0.25
  -2   7   4    5.48    0.20
  -2   7   4    5.30    0.21
  -2   7   4    5.56    0.20
   1  -7  -4   11.60    0.50
  -1   7   4   12.06    0.38
  -1   7   4   11.27    0.33
  -1   7   4   11.39    0.39
  -1   7   4   11.26    0.33
  -1   7   4   11.88    0.34
   0  -7  -4  194.39    5.70
   0   7   4  199.71    4.35
   0   7   4  194.30    4.14
   0   7   4  192.93    4.17
   0   7   4  195.52    4.51
   0   7   4  196.37    4.05
   0   7   4  191.97    4.07
  -1  -7  -4    7.68    0.27
  -1  -7  -4    7.82    0.27
  -1  -7  -4    7.47    0.37
   1   7   4    7.81    0.26
   1   7   4    7.83    0.24
   1   7   4    7.50    0.28
   1   7   4    7.67    0.23
   1   7   4    7.56    0.26
  -2  -7  -4    3.23    0.16
  -2  -7  -4    3.12    0.14
  -2  -7  -4    3.15    0.15
   2   7   4    3.32    0.15
   2   7   4    3.02    0.12
   2   7   4    3.02    0.20
   2   7   4    3.24    0.15
  -3  -7  -4   99.15    2.17
  -3  -7  -4  103.12    2.28
  -3  -7  -4   97.85    2.34
  -3  -7  -4  100.94    2.12
   3   7   4   99.12    2.18
   3   7   4   98.53    2.31
  -4  -7  -4    5.27    0.19
  -4  -7  -4    4.85    0.18
  -4  -7  -4    4.73    0.20
  -4  -7  -4    4.71    0.17
  -5  -7  -4   23.68    0.58
  -5  -7  -4   23.62    0.55
  -3   8   4   42.33    0.93
  -2   8   4   12.59    0.34
  -2   8   4   12.82    0.34
  -2   8   4   12.92    0.38
  -1   8   4    4.73    0.21
  -1   8   4    4.91    0.18
  -1   8   4    4.83    0.21
  -1   8   4    4.94    0.18
  -1   8   4    4.98    0.19
   0   8   4    5.40    0.20
   0   8   4    4.99    0.22
   0   8   4    4.96    0.18
   0   8   4    5.14    0.17
   0   8   4    5.01    0.20
  -1  -8  -4   32.65    0.85
  -1  -8  -4   34.35    0.83
   1   8   4   32.53    0.79
   1   8   4   32.76    0.77
   1   8   4   33.71    0.77
   1   8   4   33.54    0.82
   1   8   4   31.12    0.86
  -2  -8  -4    0.05    0.03
  -2  -8  -4   -0.01    0.03
  -2  -8  -4   -0.01    0.04
   2   8   4    0.03    0.03
   2   8   4    0.06    0.03
  -3  -8  -4    3.88    0.15
  -3  -8  -4    4.02    0.16
  -3  -8  -4    3.55    0.15
   3   8   4    4.00    0.17
   3   8   4    3.76    0.16
  -4  -8  -4   47.74    1.02
  -4  -8  -4   48.02    1.12
  -4  -8  -4   44.89    1.03
  -4  -8  -4   46.09    1.11
   4   8   4   45.61    1.04
  -2   9   4   16.07    0.43
  -2   9   4   16.75    0.39
  -2   9   4   15.79    0.39
  -1   9   4    0.68    0.08
  -1   9   4    0.73    0.07
  -1   9   4    0.63    0.06
  -1   9   4    0.71    0.06
   0  -9  -4    7.42    0.27
   0   9   4    7.62    0.23
   0   9   4    7.86    0.25
   0   9   4    7.70    0.28
   0   9   4    8.03    0.25
  -1  -9  -4   17.66    0.48
  -1  -9  -4   16.95    0.49
   1   9   4   17.86    0.46
   1   9   4   17.28    0.46
   1   9   4   17.13    0.41
  -2  -9  -4   12.40    0.36
  -2  -9  -4   12.03    0.35
   2   9   4   12.22    0.35
   2   9   4   11.99    0.33
  -3  -9  -4   11.00    0.30
  -3  -9  -4   10.86    0.29
   3   9   4   11.39    0.30
   3   9   4   10.89    0.32
  -1  10   4    9.53    0.28
  -1  10   4    9.50    0.25
  -1  10   4    9.94    0.25
   0 -10  -4    1.81    0.10
   0  10   4    1.87    0.09
   0  10   4    1.88    0.09
   0  10   4    1.76    0.10
  -1 -10  -4    1.36    0.09
  -1 -10  -4    1.42    0.09
   1  10   4    1.37    0.08
  -2 -10  -4    0.46    0.05
   2  10   4    0.53    0.05
   2  10   4    0.37    0.03
  -1 -10   5    0.62    0.06
  -1 -10   5    0.51    0.06
   0  10  -5    1.16    0.07
   0 -10   5    1.08    0.08
   3   9  -5   17.34    0.41
   2   9  -5   82.11    1.74
   2   9  -5   80.57    1.63
   2   9  -5   80.81    1.85
  -2  -9   5   80.11    1.73
  -2  -9   5   81.11    1.85
   1   9  -5   12.09    0.31
   1   9  -5   12.03    0.31
   1   9  -5   12.06    0.33
   1   9  -5   12.42    0.34
  -1  -9   5   12.48    0.36
  -1  -9   5   12.14    0.35
   0   9  -5    0.33    0.06
   0   9  -5    0.22    0.05
   0   9  -5    0.23    0.05
   0   9  -5    0.26    0.05
   0  -9   5    0.52    0.07
   0  -9   5    0.26    0.06
  -1   9  -5    0.39    0.05
  -1   9  -5    0.44    0.05
  -1   9  -5    0.39    0.06
  -1   9  -5    0.43    0.07
  -2   9  -5    3.61    0.12
  -2   9  -5    3.36    0.14
  -2   9  -5    3.43    0.13
   3   8  -5    5.45    0.20
   3   8  -5    5.57    0.19
   3   8  -5    5.11    0.15
  -3  -8   5    5.37    0.18
   2   8  -5    1.26    0.09
   2   8  -5    1.30    0.09
   2   8  -5    1.07    0.07
  -2  -8   5    1.09    0.09
  -2  -8   5    1.26    0.09
   1   8  -5   83.29    1.81
   1   8  -5   85.26    1.93
   1   8  -5   82.01    1.80
   1   8  -5   84.20    1.71
  -1  -8   5   82.61    1.85
  -1  -8   5   83.10    1.95
   0   8  -5    7.12    0.23
   0   8  -5    7.36    0.27
   0   8  -5    7.05    0.23
   0   8  -5    7.31    0.25
   0   8  -5    7.27    0.22
   0   8  -5    6.92    0.24
   0  -8   5    7.10    0.26
   0  -8   5    7.52    0.27
  -1   8  -5   55.86    1.26
  -1   8  -5   57.02    1.40
  -1   8  -5   57.66    1.22
  -1   8  -5   57.52    1.29
  -1   8  -5   56.85    1.20
  -2   8  -5    5.99    0.22
  -2   8  -5    5.70    0.19
  -2   8  -5    5.77    0.20
  -2   8  -5    5.77    0.20
  -2   8  -5    6.06    0.19
  -3   8  -5   42.50    0.89
   4   7  -5    0.82    0.05
  -4  -7   5    0.85    0.06
  -4  -7   5    0.88    0.07
  -4  -7   5    0.88    0.06
   3   7  -5   96.75    2.12
  -3  -7   5   99.61    2.04
  -3  -7   5   96.85    2.27
  -3  -7   5   95.68    2.11
   2   7  -5    0.87    0.09
   2   7  -5    0.91    0.08
   2   7  -5    0.99    0.07
  -2  -7   5    0.94    0.14
  -2  -7   5    0.91    0.08
  -2  -7   5    0.85    0.08
  -2  -7   5    0.88    0.09
  -2  -7   5    1.04    0.08
   1   7  -5   37.72    0.92
   1   7  -5   37.70    0.86
   1   7  -5   37.31    0.80
   1   7  -5   37.14    0.86
  -1  -7   5   37.37    0.89
  -1  -7   5   33.19    1.21
  -1  -7   5   36.29    0.92
   0   7  -5   26.29    0.63
   0   7  -5   26.67    0.72
   0   7  -5   27.63    0.66
   0   7  -5   27.97    0.68
   0   7  -5   26.91    0.62
   0   7  -5   26.68    0.66
   0  -7   5   26.36    0.73
   0  -7   5   26.36    0.68
   0  -7   5   25.36    0.94
  -1   7  -5   35.58    0.80
  -1   7  -5   35.27    0.83
  -1   7  -5   35.14    0.79
  -1   7  -5   36.60    0.84
  -1   7  -5   35.99    0.92
   1  -7   5   33.24    1.19
  -2   7  -5    0.03    0.03
  -2   7  -5    0.02    0.03
  -2   7  -5    0.10    0.05
  -2   7  -5    0.07    0.04
  -2   7  -5    0.05    0.03
  -3   7  -5    0.50    0.07
  -3   7  -5    0.47    0.06
  -3   7  -5    0.56    0.07
  -3   7  -5    0.55    0.05
  -4  -6   5   37.07    0.84
  -4  -6   5   36.94    0.93
  -4  -6   5   37.45    0.91
  -4  -6   5   36.01    1.00
  -3  -6   5    7.25    0.23
  -3  -6   5    6.70    0.37
  -3  -6   5    7.36    0.23
  -3  -6   5    7.34    0.26
  -3  -6   5    8.05    0.29
  -3  -6   5    7.71    0.25
  -3  -6   5    7.65    0.25
   2   6  -5  135.56    2.92
   2   6  -5  135.84    3.11
   2   6  -5  133.75    4.00
  -2  -6   5  136.48    3.09
  -2  -6   5  137.50    2.93
  -2  -6   5  135.59    3.98
  -2  -6   5  134.73    3.15
  -2  -6   5  140.16    2.92
  -2  -6   5  137.05    2.83
   1   6  -5   10.30    0.32
   1   6  -5   10.81    0.30
   1   6  -5   10.27    0.31
   1   6  -5   10.59    0.42
  -1  -6   5   10.28    0.32
  -1  -6   5   10.49    0.45
  -1  -6   5    9.29    0.28
  -1  -6   5   11.04    0.32
   0   6  -5    1.26    0.09
   0   6  -5    1.24    0.08
   0   6  -5    1.28    0.08
   0   6  -5    1.23    0.09
   0   6  -5    1.22    0.08
   0  -6   5    1.35    0.10
   0  -6   5    1.17    0.13
  -1   6  -5   36.13    0.80
  -1   6  -5   36.35    0.84
  -1   6  -5   35.96    0.84
  -1   6  -5   35.77    0.92
  -1   6  -5   36.59    0.80
   1  -6   5   36.25    1.19
  -2   6  -5   26.99    0.63
  -2   6  -5   26.05    0.63
  -2   6  -5   26.88    0.63
  -2   6  -5   25.35    0.69
  -2   6  -5   26.70    0.68
  -2   6  -5   26.76    0.63
  -2   6  -5   25.74    0.74
   2  -6   5   25.94    0.91
  -3   6  -5    0.22    0.05
  -3   6  -5    0.33    0.04
  -3   6  -5    0.24    0.06
  -3   6  -5    0.19    0.04
  -3   6  -5    0.42    0.06
  -3   6  -5    0.21    0.04
  -3   6  -5    0.27    0.06
  -4   6  -5    2.06    0.10
  -4   6  -5    2.02    0.10
  -4   6  -5    1.93    0.08
  -4   6  -5    1.89    0.09
  -5  -5   5    0.69    0.07
  -5  -5   5    0.78    0.04
  -5  -5   5    0.63    0.05
  -5  -5   5    0.63    0.06
  -4  -5   5   28.43    0.65
  -4  -5   5   27.97    0.76
  -4  -5   5   29.66    0.67
  -4  -5   5   27.66    0.80
  -4  -5   5   28.90    0.72
  -4  -5   5   28.53    0.72
   3   5  -5   23.12    0.81
  -3  -5   5   23.98    0.57
  -3  -5   5   23.36    0.66
  -3  -5   5   23.63    0.56
  -3  -5   5   23.00    0.61
  -3  -5   5   23.47    0.84
  -3  -5   5   24.00    0.68
   2   5  -5    2.04    0.15
   2   5  -5    1.89    0.14
  -2  -5   5    2.01    0.10
  -2  -5   5    2.08    0.10
  -2  -5   5    2.04    0.11
  -2  -5   5    2.10    0.11
  -2  -5   5    2.12    0.11
  -2  -5   5    2.26    0.18
   1   5  -5   22.90    0.75
  -1  -5   5   22.29    0.67
  -1  -5   5   22.31    0.77
   0   5  -5   39.29    1.06
   0  -5   5   35.08    0.97
   0  -5   5   38.65    1.16
   0  -5   5   39.08    1.20
  -1   5  -5   48.24    1.35
  -1   5  -5   49.69    1.05
  -1   5  -5   49.74    1.09
  -1   5  -5   49.20    1.20
  -1   5  -5   51.46    1.18
  -1   5  -5   49.93    1.11
   1  -5   5   48.36    1.48
   1  -5   5   52.17    1.54
  -2   5  -5    5.48    0.20
  -2   5  -5    5.73    0.20
  -2   5  -5    5.21    0.18
  -2   5  -5    6.01    0.20
  -2   5  -5    5.35    0.18
  -2   5  -5    5.45    0.20
  -2   5  -5    5.51    0.19
   2  -5   5    6.04    0.28
  -3   5  -5    3.64    0.15
  -3   5  -5    3.54    0.16
  -3   5  -5    3.00    0.15
  -3   5  -5    3.32    0.12
  -3   5  -5    3.40    0.13
  -3   5  -5    3.59    0.17
  -3   5  -5    3.50    0.14
  -4   5  -5    0.21    0.04
  -4   5  -5    0.22    0.06
  -4   5  -5    0.20    0.05
  -4   5  -5    0.25    0.06
  -4   5  -5    0.25    0.04
  -4   5  -5    0.28    0.05
  -5  -4   5    0.93    0.06
  -5  -4   5    0.88    0.08
  -5  -4   5    0.78    0.07
  -5  -4   5    0.95    0.05
  -5  -4   5    0.94    0.07
  -4  -4   5   20.31    0.49
  -4  -4   5   20.75    0.59
  -4  -4   5   19.38    0.74
  -4  -4   5   20.07    0.60
  -4  -4   5   20.54    0.53
  -4  -4   5   21.02    0.50
   3   4  -5    7.53    0.32
  -3  -4   5    7.17    0.28
  -3  -4   5    6.95    0.21
  -3  -4   5    6.81    0.35
  -3  -4   5    7.39    0.21
  -3  -4   5    6.86    0.23
  -3  -4   5    7.50    0.27
   2   4  -5   15.94    0.54
   2   4  -5   17.13    0.58
  -2  -4   5   16.82    0.51
  -2  -4   5   15.95    0.59
  -2  -4   5   17.01    0.41
   1   4  -5    4.40    0.19
   1   4  -5    4.40    0.20
   1   4  -5    4.33    0.19
  -1  -4   5    4.29    0.18
  -1  -4   5    4.46    0.21
   0   4  -5   88.96    2.43
   0   4  -5   93.70    2.72
   0  -4   5   96.93    2.66
   0  -4   5   94.77    2.74
  -1   4  -5    2.51    0.12
  -1   4  -5    2.86    0.13
   1  -4   5    2.43    0.15
   1  -4   5    2.43    0.14
  -2   4  -5    1.58    0.09
  -2   4  -5    1.61    0.11
  -2   4  -5    1.62    0.10
  -2   4  -5    1.62    0.07
  -2   4  -5    1.63    0.07
  -2   4  -5    1.79    0.10
  -2   4  -5    1.43    0.09
   2  -4   5    1.64    0.12
   2  -4   5    1.70    0.12
  -3   4  -5   19.48    0.49
  -3   4  -5   18.43    0.50
  -3   4  -5   18.79    0.45
  -3   4  -5   18.92    0.41
  -3   4  -5   19.04    0.52
  -3   4  -5   18.33    0.47
  -3   4  -5   18.79    0.48
  -4   4  -5    0.24    0.05
  -4   4  -5    0.24    0.06
  -4   4  -5    0.22    0.05
  -4   4  -5    0.22    0.05
  -5   4  -5    2.45    0.09
  -5   4  -5    2.46    0.10
  -5  -3   5   15.13    0.37
  -5  -3   5   15.19    0.35
  -5  -3   5   14.48    0.45
  -5  -3   5   15.09    0.42
  -4  -3   5    0.32    0.05
  -4  -3   5    0.46    0.09
  -4  -3   5    0.36    0.10
  -4  -3   5    0.45    0.07
   3   3  -5   32.09    1.00
  -3  -3   5   31.40    0.71
  -3  -3   5   32.21    0.83
  -3  -3   5   30.42    0.70
  -3  -3   5   32.29    0.88
  -3  -3   5   30.22    0.77
  -3  -3   5   31.45    1.04
   2   3  -5   61.99    1.84
   2   3  -5   60.78    1.78
  -2  -3   5   63.14    1.86
  -2  -3   5   62.84    1.65
   1   3  -5   17.36    0.54
   1   3  -5   17.58    0.56
   1   3  -5   17.22    0.51
  -1  -3   5   17.48    0.51
   0   3  -5    8.94    0.29
   0   3  -5    8.46    0.28
   0   3  -5    9.04    0.31
   0  -3   5    8.73    0.32
   0  -3   5    9.44    0.31
   0  -3   5    8.68    0.28
  -1   3  -5  249.41    6.69
  -1   3  -5  256.04    6.30
   1  -3   5  262.20    7.11
   1  -3   5  258.99    7.43
  -2   3  -5    0.00    0.03
  -2   3  -5    0.03    0.02
   2  -3   5    0.04    0.03
   2  -3   5    0.05    0.03
  -3   3  -5    2.89    0.15
  -3   3  -5    2.75    0.12
  -3   3  -5    2.93    0.14
  -3   3  -5    2.94    0.12
  -3   3  -5    2.95    0.10
  -3   3  -5    2.91    0.17
  -3   3  -5    3.02    0.13
  -4   3  -5  313.91    6.09
  -4   3  -5  313.97    5.14
  -4   3  -5  298.48    6.11
  -4   3  -5  310.89    6.52
  -4   3  -5  310.79    6.89
  -5   3  -5    5.98    0.19
  -5   3  -5    6.23    0.17
  -5   3  -5    6.24    0.19
  -5  -2   5   22.73    0.52
  -5  -2   5   21.87    0.64
  -5  -2   5   22.92    0.59
  -5  -2   5   22.67    0.58
  -4  -2   5   28.18    0.64
  -4  -2   5   28.29    0.81
  -4  -2   5   27.99    0.74
  -4  -2   5   27.69    0.95
  -4  -2   5   27.90    0.76
   3   2  -5   48.13    1.38
   3   2  -5   46.43    1.40
  -3  -2   5   44.53    1.16
  -3  -2   5   46.80    1.02
  -3  -2   5   48.98    1.46
  -3  -2   5   45.51    1.26
  -3  -2   5   45.23    1.03
  -3  -2   5   45.46    1.16
  -3  -2   5   46.97    1.25
   2   2  -5   31.76    0.94
   2   2  -5   31.91    0.98
  -2  -2   5   31.71    0.87
  -2  -2   5   32.69    1.00
   1   2  -5  215.18    5.77
   1   2  -5  205.90    5.95
   1   2  -5  193.16    5.21
  -1  -2   5  201.65    5.81
  -1  -2   5  197.22    5.33
   0   2  -5  184.00    5.47
   0   2  -5  186.87    5.26
   0  -2   5  190.92    5.22
   0  -2   5  186.23    5.42
   0  -2   5  185.02    4.82
  -1   2  -5  138.44    3.78
  -1   2  -5  148.00    3.57
   1  -2   5  151.09    4.09
   1  -2   5  148.78    4.20
  -2   2  -5  218.10    5.52
  -2   2  -5  205.69    5.21
   2  -2   5  213.22    5.83
   2  -2   5  206.63    5.99
  -3   2  -5    1.27    0.09
  -3   2  -5    1.28    0.08
  -3   2  -5    1.48    0.12
  -3   2  -5    1.37    0.08
  -3   2  -5    1.63    0.09
  -4   2  -5   48.41    0.91
  -4   2  -5   48.76    1.17
  -4   2  -5   49.07    1.16
  -4   2  -5   48.45    1.10
  -4   2  -5   47.68    1.06
  -5   2  -5    1.69    0.09
  -5   2  -5    1.76    0.10
  -5   2  -5    1.75    0.09
  -5  -1   5    0.05    0.03
  -5  -1   5    0.03    0.04
  -5  -1   5    0.04    0.04
  -5  -1   5    0.13    0.04
  -4  -1   5  261.15    7.54
  -4  -1   5  268.98    6.76
  -4  -1   5  264.69    6.05
  -4  -1   5  268.83    6.20
  -4  -1   5  267.35    5.60
  -4  -1   5  259.95    5.56
   3   1  -5   11.97    0.40
  -3  -1   5   11.49    0.29
  -3  -1   5   12.43    0.38
  -3  -1   5   12.82    0.47
  -3  -1   5   12.26    0.36
  -3  -1   5   12.09    0.37
  -3  -1   5   11.80    0.32
  -3  -1   5   12.25    0.40
   2   1  -5  157.72    4.62
   2   1  -5  164.53    4.53
  -2  -1   5  162.40    4.65
  -2  -1   5  158.50    4.24
  -2  -1   5  166.11    4.60
   1   1  -5  554.60   14.90
   1   1  -5  528.38   13.74
   1   1  -5  532.97   15.33
  -1  -1   5  515.83   15.26
  -1  -1   5  548.42   15.00
  -1  -1   5  522.12   15.22
   0   1  -5   31.73    0.92
   0   1  -5   35.13    1.02
   0   1  -5   36.50    0.99
   0  -1   5   35.02    0.99
   0  -1   5   35.72    0.92
   0  -1   5   34.71    1.02
  -1   1  -5  124.97    3.67
  -1   1  -5  127.64    3.38
   1  -1   5  129.49    3.34
   1  -1   5  134.23    3.60
   1  -1   5  129.62    3.68
  -2   1  -5    0.39    0.04
  -2   1  -5    0.52    0.05
  -2   1  -5    0.36    0.05
   2  -1   5    0.41    0.05
  -3   1  -5   50.65    1.50
  -3   1  -5   50.77    1.35
  -3   1  -5   52.62    1.36
  -4   1  -5   13.25    0.38
  -4   1  -5   12.83    0.38
  -4   1  -5   12.54    0.36
  -4   1  -5   13.42    0.36
  -4   1  -5   13.50    0.32
  -5   1  -5    0.31    0.05
  -5   1  -5    0.33    0.05
  -5   1  -5    0.43    0.06
  -5   1  -5    0.39    0.06
  -5   0   5   12.47    0.34
  -5   0   5   12.02    0.38
  -5   0   5   11.78    0.34
  -5   0   5   11.97    0.30
  -4   0   5    1.84    0.12
  -4   0   5    1.83    0.11
  -4   0   5    1.65    0.11
  -4   0   5    1.69    0.12
  -4   0   5    1.52    0.15
  -4   0   5    2.25    0.14
  -3   0   5  335.98    7.26
  -3   0   5  356.23    9.74
  -3   0   5  351.05    8.03
  -3   0   5  338.77    7.82
  -3   0   5  344.94    8.76
   2   0  -5    6.35    0.23
  -2   0   5    6.51    0.26
  -2   0   5    6.29    0.26
  -2   0   5    6.36    0.20
   1   0  -5   44.28    1.19
   1   0  -5   46.12    1.33
   1   0  -5   47.46    1.29
  -1   0   5   44.20    1.34
  -1   0   5   45.66    1.19
   0   0  -5   68.95    1.88
   0   0  -5   65.58    1.73
   0   0  -5   68.62    1.93
   0   0   5   66.37    1.87
   0   0   5   65.43    1.92
   0   0   5   66.56    1.73
  -1   0  -5  177.67    5.14
  -1   0  -5  181.69    4.83
  -1   0  -5  182.71    5.32
   1   0   5  191.47    4.81
   1   0   5  176.05    5.27
   1   0   5  191.38    5.16
  -2   0  -5  432.13   12.70
  -2   0  -5  458.34   11.71
  -2   0  -5  450.90   11.09
   2   0   5  443.97   12.90
   2   0   5  470.77   12.57
  -3   0  -5    7.99    0.26
  -3   0  -5    8.18    0.29
  -3   0  -5    7.57    0.29
  -4   0  -5   14.63    0.33
  -4   0  -5   13.73    0.37
  -4   0  -5   15.23    0.39
  -4   0  -5   14.79    0.41
  -4   0  -5   14.30    0.41
  -5   0  -5    1.67    0.09
  -5   0  -5    1.82    0.10
  -5   0  -5    1.78    0.10
  -5   1   5    3.72    0.16
  -5   1   5    3.67    0.14
  -5   1   5    3.90    0.15
  -5   1   5    3.82    0.13
  -5   1   5    4.01    0.14
  -4   1   5    2.94    0.15
  -4   1   5    2.98    0.13
  -4   1   5    2.80    0.14
  -4   1   5    3.01    0.14
  -4   1   5    2.70    0.18
  -4   1   5    2.91    0.15
  -4   1   5    3.03    0.16
  -3   1   5   71.93    1.61
  -3   1   5   68.68    1.60
  -3   1   5   75.93    1.79
  -3   1   5   69.94    1.73
  -3   1   5   75.06    1.28
  -3   1   5   76.81    1.50
  -3   1   5   75.01    2.16
  -3   1   5   72.64    1.94
   2  -1  -5   81.56    2.47
  -2   1   5   90.44    2.54
  -2   1   5   85.05    2.47
  -2   1   5   86.98    2.21
   1  -1  -5  162.18    4.43
   1  -1  -5  152.81    4.48
  -1   1   5  154.68    4.16
  -1   1   5  160.02    4.55
   0  -1  -5   23.14    0.65
   0  -1  -5   24.84    0.70
   0  -1  -5   24.12    0.72
   0   1   5   23.48    0.69
   0   1   5   24.13    0.65
   0   1   5   24.09    0.71
  -1  -1  -5  341.56   10.20
  -1  -1  -5  369.38    9.30
  -1  -1  -5  351.14    9.90
   1   1   5  350.68   10.22
   1   1   5  360.78    9.93
   1   1   5  354.60    9.19
  -2  -1  -5   52.67    1.32
  -2  -1  -5   52.07    1.39
   2   1   5   52.41    1.54
   2   1   5   53.67    1.49
  -3  -1  -5  198.43    5.73
  -3  -1  -5  202.36    4.95
  -3  -1  -5  206.33    5.23
   3   1   5  200.86    5.79
   3   1   5  207.11    5.63
  -4  -1  -5   66.05    1.79
  -4  -1  -5   70.99    1.62
  -4  -1  -5   69.21    1.63
  -4  -1  -5   69.10    1.49
  -5  -1  -5    0.89    0.08
  -5  -1  -5    0.56    0.07
  -5   2   5    0.12    0.04
  -5   2   5    0.06    0.03
  -5   2   5    0.01    0.03
  -4   2   5    7.99    0.24
  -4   2   5    7.77    0.33
  -4   2   5    8.18    0.26
  -4   2   5    8.02    0.31
  -4   2   5    8.22    0.28
  -4   2   5    8.03    0.27
  -4   2   5    8.03    0.25
  -3   2   5  108.09    2.82
  -3   2   5  110.55    2.17
  -3   2   5  108.01    2.33
  -3   2   5  103.82    2.19
  -3   2   5  104.42    2.48
  -3   2   5  107.79    1.84
  -3   2   5  109.84    2.58
  -3   2   5  109.21    3.11
  -2   2   5    7.51    0.23
  -2   2   5    7.46    0.31
  -2   2   5    7.11    0.27
   1  -2  -5  143.02    4.30
   1  -2  -5  151.34    4.22
  -1   2   5  154.83    3.98
  -1   2   5  149.03    4.23
  -1   2   5  153.81    4.33
   0  -2  -5   24.53    0.70
   0  -2  -5   25.92    0.75
   0  -2  -5   26.67    0.78
   0   2   5   24.90    0.69
   0   2   5   24.85    0.73
   0   2   5   25.61    0.76
  -1  -2  -5   17.15    0.53
  -1  -2  -5   17.42    0.51
  -1  -2  -5   17.28    0.56
   1   2   5   17.53    0.55
   1   2   5   17.86    0.50
   1   2   5   17.96    0.53
  -2  -2  -5    6.63    0.23
  -2  -2  -5    6.28    0.20
   2   2   5    6.47    0.23
   2   2   5    6.31    0.24
  -3  -2  -5    0.55    0.06
  -3  -2  -5    0.55    0.06
   3   2   5    0.77    0.08
  -4  -2  -5   12.82    0.38
  -4  -2  -5   12.40    0.32
  -4  -2  -5   12.02    0.36
  -5  -2  -5    0.37    0.06
  -5  -2  -5    0.23    0.03
  -5  -2  -5    0.33    0.05
  -5   3   5   11.77    0.29
  -4   3   5   23.79    0.59
  -4   3   5   23.28    0.64
  -4   3   5   23.39    0.71
  -4   3   5   24.63    0.55
  -4   3   5   24.65    0.62
  -4   3   5   24.30    0.60
  -3   3   5    6.43    0.22
  -3   3   5    6.68    0.22
  -3   3   5    6.47    0.21
  -3   3   5    6.13    0.19
  -3   3   5    6.54    0.18
  -3   3   5    6.76    0.24
  -3   3   5    6.29    0.27
  -2   3   5   18.48    0.64
  -2   3   5   18.48    0.52
   1  -3  -5    4.49    0.19
   1  -3  -5    4.29    0.20
  -1   3   5    4.55    0.20
  -1   3   5    4.80    0.17
   0  -3  -5  347.15    9.30
   0  -3  -5  316.90    8.47
   0  -3  -5  346.46    9.50
   0   3   5  319.77    8.57
   0   3   5  313.94    9.44
   0   3   5  323.40    9.49
  -1  -3  -5  120.87    3.41
  -1  -3  -5  118.90    3.15
   1   3   5  122.07    3.39
   1   3   5  122.77    3.14
   1   3   5  123.97    3.54
  -2  -3  -5  179.08    4.66
   2   3   5  173.57    5.09
   2   3   5  174.86    4.92
  -3  -3  -5   19.34    0.58
  -3  -3  -5   18.57    0.54
  -3  -3  -5   18.27    0.45
   3   3   5   19.55    0.64
   3   3   5   19.14    0.61
  -4  -3  -5    1.72    0.10
  -4  -3  -5    1.92    0.09
  -4  -3  -5    1.76    0.10
  -4  -3  -5    1.74    0.12
   4   3   5    1.67    0.13
  -5  -3  -5   13.14    0.38
  -5  -3  -5   12.95    0.36
  -5  -3  -5   12.90    0.36
  -5  -3  -5   13.18    0.33
  -4   4   5   14.71    0.39
  -4   4   5   15.14    0.40
  -4   4   5   14.47    0.46
  -4   4   5   15.09    0.40
  -3   4   5   34.70    0.82
  -3   4   5   33.91    0.98
  -3   4   5   34.55    0.84
  -3   4   5   33.44    0.87
  -3   4   5   34.06    0.64
  -3   4   5   33.57    0.75
   2  -4  -5    5.76    0.25
  -2   4   5    5.86    0.20
  -2   4   5    6.08    0.29
  -2   4   5    6.07    0.20
  -2   4   5    5.85    0.19
  -2   4   5    5.70    0.18
  -2   4   5    6.10    0.24
  -2   4   5    6.03    0.20
   1  -4  -5    0.00    0.03
   1  -4  -5    0.06    0.04
  -1   4   5    0.10    0.04
  -1   4   5    0.01    0.02
   0  -4  -5   55.89    1.65
   0  -4  -5   55.61    1.59
   0   4   5   54.02    1.46
   0   4   5   53.66    1.63
  -1  -4  -5  246.48    6.94
  -1  -4  -5  246.93    6.45
   1   4   5  252.32    6.43
   1   4   5  247.01    7.01
   1   4   5  248.37    7.14
  -2  -4  -5  157.96    4.05
   2   4   5  155.95    4.50
   2   4   5  154.20    4.36
  -3  -4  -5   25.69    0.70
  -3  -4  -5   25.50    0.63
  -3  -4  -5   24.24    0.58
  -3  -4  -5   23.68    0.58
  -3  -4  -5   23.92    0.60
   3   4   5   24.39    0.79
   3   4   5   25.07    0.82
  -4  -4  -5    8.36    0.24
  -4  -4  -5    8.26    0.28
  -4  -4  -5    8.25    0.25
  -4  -4  -5    8.22    0.27
  -4  -4  -5    7.94    0.29
   4   4   5    8.17    0.35
  -5  -4  -5    4.06    0.17
  -5  -4  -5    4.05    0.15
  -5  -4  -5    4.00    0.14
  -4   5   5   15.45    0.39
  -4   5   5   15.21    0.39
  -4   5   5   15.30    0.44
  -3   5   5    1.89    0.10
  -3   5   5    1.86    0.13
  -3   5   5    1.92    0.11
  -2   5   5   31.80    0.76
  -2   5   5   31.65    0.92
  -2   5   5   32.45    0.88
  -2   5   5   31.54    0.74
  -2   5   5   31.86    0.72
  -2   5   5   31.86    0.78
   1  -5  -5    0.04    0.04
   1  -5  -5    0.07    0.05
  -1   5   5    0.04    0.02
  -1   5   5    0.03    0.02
  -1   5   5    0.06    0.04
  -1   5   5    0.07    0.03
  -1   5   5    0.04    0.03
   0  -5  -5    4.85    0.24
   0  -5  -5    4.21    0.21
   0   5   5    4.40    0.19
   0   5   5    4.38    0.20
  -1  -5  -5   94.97    2.80
   1   5   5   94.46    2.48
   1   5   5   93.85    2.76
  -2  -5  -5   58.15    1.24
  -2  -5  -5   51.20    1.31
  -2  -5  -5   55.20    1.20
  -2  -5  -5   54.62    1.52
   2   5   5   55.86    1.67
   2   5   5   54.82    1.62
  -3  -5  -5    9.19    0.28
  -3  -5  -5    8.55    0.26
  -3  -5  -5    8.65    0.26
  -3  -5  -5    8.40    0.26
   3   5   5    9.15    0.38
  -4  -5  -5   11.09    0.31
  -4  -5  -5   10.93    0.33
  -4  -5  -5   10.88    0.36
  -4  -5  -5   10.85    0.31
  -5  -5  -5   40.71    0.90
  -5  -5  -5   41.29    1.00
  -5  -5  -5   42.27    0.93
  -5  -5  -5   41.80    1.00
  -4   6   5   67.31    1.48
  -4   6   5   69.70    1.48
  -3   6   5    3.46    0.15
  -3   6   5    3.87    0.15
  -3   6   5    3.29    0.17
  -3   6   5    3.79    0.12
  -2   6   5    0.22    0.05
  -2   6   5    0.21    0.04
  -2   6   5    0.16    0.05
  -2   6   5    0.28    0.06
  -2   6   5    0.26    0.06
   1  -6  -5  234.29    6.64
  -1   6   5  220.12    4.71
  -1   6   5  231.78    4.85
  -1   6   5  229.07    6.05
  -1   6   5  228.77    4.87
  -1   6   5  232.37    5.27
   0  -6  -5    0.68    0.11
   0  -6  -5    0.33    0.08
   0   6   5    0.46    0.04
   0   6   5    0.38    0.05
   0   6   5    0.45    0.05
   0   6   5    0.77    0.08
   0   6   5    0.44    0.06
   0   6   5    0.50    0.05
  -1  -6  -5    3.27    0.16
  -1  -6  -5    3.45    0.22
  -1  -6  -5    3.13    0.15
   1   6   5    3.30    0.12
   1   6   5    3.40    0.15
   1   6   5    3.42    0.16
   1   6   5    3.46    0.17
   1   6   5    3.34    0.19
   1   6   5    3.39    0.14
   1   6   5    3.31    0.14
  -2  -6  -5    4.16    0.17
  -2  -6  -5    4.29    0.18
  -2  -6  -5    4.06    0.17
  -2  -6  -5    4.11    0.16
   2   6   5    4.11    0.17
   2   6   5    4.14    0.17
   2   6   5    4.23    0.23
  -3  -6  -5    4.92    0.18
  -3  -6  -5    5.05    0.19
  -3  -6  -5    4.93    0.18
  -3  -6  -5    4.92    0.18
   3   6   5    4.81    0.26
  -4  -6  -5    0.02    0.03
  -4  -6  -5    0.06    0.03
  -4  -6  -5    0.29    0.07
  -4  -6  -5    0.04    0.03
  -5  -6  -5   24.92    0.57
  -5  -6  -5   24.11    0.56
  -5  -6  -5   25.38    0.62
  -5  -6  -5   25.13    0.62
  -3   7   5   14.23    0.32
  -3   7   5   13.66    0.35
  -3   7   5   12.73    0.40
  -2   7   5    0.57    0.07
  -2   7   5    0.66    0.08
  -2   7   5    0.79    0.07
  -2   7   5    0.57    0.08
  -2   7   5    0.61    0.06
   1  -7  -5   23.42    0.86
  -1   7   5   25.03    0.60
  -1   7   5   24.14    0.66
  -1   7   5   23.32    0.59
  -1   7   5   24.15    0.59
  -1   7   5   23.65    0.71
   0  -7  -5   53.39    1.75
   0   7   5   54.20    1.19
   0   7   5   56.07    1.38
   0   7   5   54.75    1.23
   0   7   5   55.77    1.24
   0   7   5   56.97    1.29
   0   7   5   56.26    1.26
  -1  -7  -5    3.81    0.18
  -1  -7  -5    3.69    0.18
   1   7   5    3.85    0.16
   1   7   5    3.72    0.15
   1   7   5    4.05    0.19
   1   7   5    4.43    0.18
   1   7   5    4.00    0.15
  -2  -7  -5    8.63    0.29
  -2  -7  -5    8.29    0.26
  -2  -7  -5    8.49    0.28
   2   7   5    8.53    0.28
   2   7   5    8.30    0.24
   2   7   5    8.28    0.37
   2   7   5    8.41    0.27
  -3  -7  -5    1.46    0.10
  -3  -7  -5    1.42    0.09
  -3  -7  -5    1.38    0.09
  -3  -7  -5    1.27    0.08
   3   7   5    1.29    0.10
   3   7   5    1.21    0.10
  -4  -7  -5    1.17    0.08
  -4  -7  -5    0.97    0.07
  -4  -7  -5    0.87    0.07
  -4  -7  -5    1.12    0.10
  -5  -7  -5   24.47    0.61
  -2   8   5    0.01    0.02
  -2   8   5    0.06    0.04
  -2   8   5    0.01    0.03
  -1   8   5   19.81    0.60
  -1   8   5   20.20    0.51
  -1   8   5   20.39    0.57
  -1   8   5   19.81    0.51
  -1   8   5   19.45    0.51
   0   8   5    1.27    0.09
   0   8   5    1.44    0.09
   0   8   5    1.38    0.10
   0   8   5    1.29    0.07
   0   8   5    1.42    0.12
  -1  -8  -5   12.84    0.39
  -1  -8  -5   12.50    0.40
   1   8   5   13.10    0.37
   1   8   5   12.20    0.39
   1   8   5   12.75    0.35
   1   8   5   13.12    0.37
   1   8   5   12.86    0.34
  -2  -8  -5    2.92    0.13
  -2  -8  -5    2.99    0.15
  -2  -8  -5    2.91    0.15
   2   8   5    3.09    0.15
   2   8   5    3.09    0.14
   2   8   5    2.83    0.12
  -3  -8  -5    0.98    0.08
  -3  -8  -5    0.93    0.07
   3   8   5    1.08    0.09
   3   8   5    1.01    0.08
  -4  -8  -5   15.48    0.42
  -4  -8  -5   16.06    0.38
  -4  -8  -5   14.73    0.40
  -4  -8  -5   14.82    0.37
   4   8   5   14.51    0.38
  -2   9   5   31.38    0.71
  -2   9   5   31.50    0.78
  -2   9   5   31.93    0.71
  -1   9   5    1.53    0.09
  -1   9   5    1.73    0.09
  -1   9   5    1.62    0.09
  -1   9   5    1.47    0.10
   0  -9  -5    6.64    0.25
   0   9   5    7.27    0.24
   0   9   5    6.95    0.22
   0   9   5    6.84    0.25
   0   9   5    7.06    0.23
  -1  -9  -5   26.29    0.66
  -1  -9  -5   25.54    0.68
   1   9   5   26.70    0.64
   1   9   5   25.57    0.58
   1   9   5   26.20    0.63
   1   9   5   25.03    0.61
  -2  -9  -5   28.46    0.69
  -2  -9  -5   28.81    0.74
   2   9   5   29.44    0.68
   2   9   5   29.64    0.73
  -3  -9  -5    5.65    0.18
  -3  -9  -5    5.78    0.18
   3   9   5    5.69    0.20
   3   9   5    5.68    0.18
   0 -10  -5    0.05    0.04
   0  10   5    0.11    0.04
   0  10   5    0.05    0.02
  -1 -10  -5    9.66    0.28
  -1 -10  -5   10.12    0.30
   1  10   5    9.82    0.27
  -2 -10  -5   10.71    0.30
   2  10   5   10.83    0.28
   2  10   5   10.10    0.25
   2   9  -6    1.41    0.07
   2   9  -6    1.29    0.08
  -2  -9   6    1.43    0.08
   1   9  -6    3.45    0.13
   1   9  -6    3.27    0.13
   1   9  -6    3.33    0.11
  -1  -9   6    3.36    0.15
  -1  -9   6    3.43    0.15
   0   9  -6    4.55    0.16
   0   9  -6    4.75    0.17
   0   9  -6    4.36    0.15
   0  -9   6    4.65    0.18
   0  -9   6    4.42    0.18
  -1   9  -6    3.23    0.13
  -1   9  -6    3.30    0.13
  -1   9  -6    3.09    0.12
  -1   9  -6    3.17    0.14
  -1   9  -6    3.38    0.13
   3   8  -6    9.56    0.28
   3   8  -6    9.56    0.29
   3   8  -6   10.50    0.25
  -3  -8   6    9.80    0.26
   2   8  -6    1.49    0.08
   2   8  -6    1.50    0.10
   2   8  -6    1.56    0.10
  -2  -8   6    1.55    0.09
  -2  -8   6    1.51    0.10
   1   8  -6   39.02    0.84
   1   8  -6   38.79    0.89
   1   8  -6   37.99    0.94
   1   8  -6   37.81    0.89
  -1  -8   6   38.94    0.96
  -1  -8   6   38.87    0.92
   0   8  -6   31.44    0.71
   0   8  -6   31.52    0.70
   0   8  -6   31.32    0.76
   0   8  -6   31.00    0.75
   0   8  -6   31.15    0.75
   0   8  -6   30.99    0.82
   0  -8   6   30.85    0.78
   0  -8   6   30.99    0.80
  -1   8  -6   30.25    0.74
  -1   8  -6   30.77    0.69
  -1   8  -6   31.49    0.70
  -1   8  -6   30.62    0.80
  -1   8  -6   30.42    0.73
  -2   8  -6    5.31    0.18
  -2   8  -6    5.33    0.18
  -2   8  -6    5.33    0.18
  -2   8  -6    5.36    0.20
  -2   8  -6    5.50    0.19
   4   7  -6    0.13    0.03
  -4  -7   6    0.03    0.02
  -4  -7   6    0.00    0.02
  -4  -7   6    0.05    0.03
   3   7  -6    3.86    0.16
  -3  -7   6    3.74    0.14
  -3  -7   6    3.65    0.15
  -3  -7   6    3.90    0.14
   2   7  -6    0.23    0.05
   2   7  -6    0.28    0.06
  -2  -7   6    0.29    0.05
  -2  -7   6    0.17    0.05
  -2  -7   6    0.29    0.06
  -2  -7   6    0.17    0.08
   1   7  -6    0.08    0.04
   1   7  -6    0.15    0.04
   1   7  -6    0.07    0.03
  -1  -7   6    0.07    0.04
  -1  -7   6    0.07    0.04
   0   7  -6    3.28    0.15
   0   7  -6    3.27    0.14
   0   7  -6    3.27    0.14
   0   7  -6    3.14    0.13
   0   7  -6    3.32    0.17
   0   7  -6    3.18    0.15
   0  -7   6    3.21    0.16
   0  -7   6    3.15    0.23
   0  -7   6    3.15    0.16
  -1   7  -6   11.65    0.35
  -1   7  -6   12.07    0.34
  -1   7  -6   12.06    0.34
  -1   7  -6   13.21    0.39
  -1   7  -6   12.17    0.35
  -2   7  -6    2.10    0.10
  -2   7  -6    2.02    0.12
  -2   7  -6    1.86    0.10
  -2   7  -6    1.99    0.12
  -2   7  -6    1.99    0.12
  -2   7  -6    2.03    0.11
  -3   7  -6    0.03    0.03
  -3   7  -6   -0.01    0.03
  -3   7  -6    0.05    0.02
  -3   7  -6    0.05    0.03
  -3   7  -6    0.00    0.03
  -4  -6   6    0.11    0.03
  -4  -6   6    0.09    0.03
  -4  -6   6    0.05    0.03
  -4  -6   6    0.07    0.03
  -4  -6   6    0.32    0.07
  -3  -6   6   11.05    0.36
  -3  -6   6   10.60    0.48
  -3  -6   6   11.52    0.34
  -3  -6   6   11.02    0.31
  -3  -6   6   11.48    0.33
  -3  -6   6   11.60    0.32
  -3  -6   6   11.02    0.37
   2   6  -6    4.19    0.17
   2   6  -6    4.13    0.18
   2   6  -6    4.39    0.25
  -2  -6   6    4.04    0.16
  -2  -6   6    4.36    0.17
  -2  -6   6    4.09    0.17
  -2  -6   6    4.15    0.16
  -2  -6   6    4.57    0.17
  -2  -6   6    4.26    0.26
   1   6  -6    2.08    0.11
   1   6  -6    1.84    0.11
   1   6  -6    1.82    0.11
   1   6  -6    1.77    0.14
  -1  -6   6    1.97    0.10
  -1  -6   6    1.77    0.12
  -1  -6   6    1.84    0.11
  -1  -6   6    1.77    0.16
   0   6  -6    6.40    0.20
   0   6  -6    6.33    0.23
   0   6  -6    6.08    0.22
   0   6  -6    6.34    0.21
   0   6  -6    6.47    0.22
   0   6  -6    6.39    0.20
   0  -6   6    5.81    0.23
   0  -6   6    6.18    0.23
   0  -6   6    6.19    0.32
  -1   6  -6  156.64    3.35
  -1   6  -6  155.84    3.13
  -1   6  -6  156.12    3.62
  -1   6  -6  157.96    3.26
  -1   6  -6  156.24    3.48
   1  -6   6  155.37    4.58
  -2   6  -6  100.94    2.38
  -2   6  -6   99.75    2.14
  -2   6  -6  102.98    2.08
  -2   6  -6   99.87    2.20
  -2   6  -6  100.83    2.09
  -2   6  -6  103.74    2.33
  -3   6  -6    0.91    0.09
  -3   6  -6    1.01    0.08
  -3   6  -6    1.04    0.08
  -3   6  -6    1.07    0.07
  -3   6  -6    1.13    0.09
  -3   6  -6    0.94    0.08
  -3   6  -6    1.15    0.08
  -4   6  -6    5.09    0.14
  -4   6  -6    5.29    0.16
  -4   6  -6    4.81    0.15
  -4  -5   6    5.47    0.17
  -4  -5   6    5.35    0.19
  -4  -5   6    5.37    0.19
  -4  -5   6    5.32    0.21
  -4  -5   6    5.44    0.18
  -4  -5   6    5.32    0.22
   3   5  -6   16.12    0.61
  -3  -5   6   16.85    0.50
  -3  -5   6   16.20    0.42
  -3  -5   6   16.59    0.45
  -3  -5   6   16.32    0.50
  -3  -5   6   15.87    0.63
  -3  -5   6   16.59    0.42
   2   5  -6    4.27    0.23
  -2  -5   6    4.19    0.17
  -2  -5   6    4.22    0.25
  -2  -5   6    4.35    0.15
  -2  -5   6    4.16    0.15
  -2  -5   6    4.18    0.16
  -2  -5   6    4.06    0.16
   1   5  -6   31.57    0.75
   1   5  -6   33.37    1.04
   1   5  -6   32.07    0.80
   1   5  -6   32.46    0.76
  -1  -5   6   31.89    0.80
  -1  -5   6   32.68    0.73
  -1  -5   6   32.33    0.93
  -1  -5   6   32.96    0.77
  -1  -5   6   32.28    1.06
   0   5  -6   35.72    0.98
   0   5  -6   34.21    0.78
   0   5  -6   34.20    0.83
   0   5  -6   34.37    0.78
   0   5  -6   33.29    0.73
   0  -5   6   32.95    0.89
   0  -5   6   34.82    1.11
  -1   5  -6   13.70    0.37
  -1   5  -6   13.03    0.35
  -1   5  -6   13.12    0.34
  -1   5  -6   13.25    0.33
  -1   5  -6   12.89    0.35
  -1   5  -6   13.32    0.43
  -1   5  -6   12.77    0.37
   1  -5   6   11.89    0.38
   1  -5   6   12.54    0.47
   1  -5   6   13.75    0.50
  -2   5  -6    5.55    0.20
  -2   5  -6    5.40    0.20
  -2   5  -6    5.86    0.20
  -2   5  -6    5.07    0.18
  -2   5  -6    5.50    0.19
  -2   5  -6    5.42    0.18
  -2   5  -6    5.52    0.20
   2  -5   6    5.47    0.27
  -3   5  -6    0.08    0.05
  -3   5  -6   -0.02    0.03
  -3   5  -6    0.03    0.04
  -3   5  -6    0.01    0.02
  -3   5  -6    0.01    0.03
  -3   5  -6    0.01    0.02
  -3   5  -6    0.05    0.03
  -4   5  -6    1.25    0.09
  -4   5  -6    1.26    0.09
  -4   5  -6    1.06    0.08
  -4   5  -6    1.18    0.07
  -4   5  -6    1.18    0.07
  -5  -4   6    1.92    0.09
  -5  -4   6    1.92    0.10
  -5  -4   6    1.81    0.08
  -5  -4   6    1.76    0.09
  -5  -4   6    1.90    0.07
  -4  -4   6    9.36    0.26
  -4  -4   6    9.50    0.28
  -4  -4   6    9.02    0.32
  -4  -4   6    9.42    0.26
  -4  -4   6    9.50    0.33
  -4  -4   6    8.95    0.44
   3   4  -6    4.64    0.24
  -3  -4   6    4.01    0.15
  -3  -4   6    4.07    0.25
  -3  -4   6    4.07    0.15
  -3  -4   6    4.18    0.18
  -3  -4   6    4.09    0.16
   2   4  -6    1.03    0.10
   2   4  -6    1.10    0.10
  -2  -4   6    1.22    0.13
  -2  -4   6    1.11    0.07
  -2  -4   6    0.99    0.07
  -2  -4   6    1.10    0.07
  -2  -4   6    1.04    0.09
  -2  -4   6    1.06    0.07
  -2  -4   6    1.08    0.07
   1   4  -6   41.51    1.26
   1   4  -6   40.22    1.21
  -1  -4   6   39.92    1.27
  -1  -4   6   42.06    1.13
   0   4  -6    4.77    0.21
   0   4  -6    4.84    0.20
   0  -4   6    4.71    0.21
   0  -4   6    4.74    0.22
  -1   4  -6    0.12    0.03
  -1   4  -6    0.15    0.04
   1  -4   6    0.13    0.05
   1  -4   6    0.27    0.07
  -2   4  -6   64.25    1.48
  -2   4  -6   62.71    1.70
  -2   4  -6   63.08    1.33
  -2   4  -6   64.13    1.33
  -2   4  -6   63.38    1.64
  -2   4  -6   61.41    1.35
  -2   4  -6   63.98    1.69
  -2   4  -6   63.06    1.50
  -2   4  -6   63.55    1.38
   2  -4   6   66.30    1.91
  -3   4  -6   46.13    1.03
  -3   4  -6   46.43    1.04
  -3   4  -6   46.81    1.03
  -3   4  -6   48.12    1.26
  -3   4  -6   47.33    1.12
  -4   4  -6   28.13    0.66
  -4   4  -6   27.44    0.65
  -4   4  -6   26.74    0.64
  -4   4  -6   28.19    0.70
  -4   4  -6   28.71    0.76
  -4   4  -6   27.98    0.56
  -5   4  -6    1.13    0.06
  -5  -3   6    1.37    0.08
  -5  -3   6    1.40    0.06
  -5  -3   6    1.61    0.10
  -5  -3   6    1.38    0.09
  -4  -3   6    0.18    0.05
  -4  -3   6    0.20    0.07
  -4  -3   6    0.07    0.04
  -4  -3   6    0.23    0.05
   3   3  -6    6.50    0.29
  -3  -3   6    6.47    0.32
  -3  -3   6    6.42    0.19
  -3  -3   6    6.11    0.19
  -3  -3   6    6.34    0.21
  -3  -3   6    6.65    0.25
   2   3  -6    4.72    0.21
   2   3  -6    4.30    0.19
  -2  -3   6    4.62    0.19
  -2  -3   6    4.25    0.23
   1   3  -6  141.99    3.97
   1   3  -6  138.26    3.86
  -1  -3   6  138.23    3.56
  -1  -3   6  133.72    3.98
   0   3  -6    3.57    0.17
   0   3  -6    3.62    0.16
   0  -3   6    3.78    0.16
   0  -3   6    4.20    0.17
   0  -3   6    3.87    0.18
  -1   3  -6   21.82    0.61
  -1   3  -6   21.26    0.57
   1  -3   6   21.23    0.65
   1  -3   6   20.93    0.68
  -2   3  -6    3.64    0.16
  -2   3  -6    3.41    0.12
  -2   3  -6    3.60    0.16
   2  -3   6    3.60    0.16
   2  -3   6    3.33    0.17
  -3   3  -6  325.38    6.45
  -3   3  -6  331.94    7.27
  -3   3  -6  319.44    7.96
  -3   3  -6  329.97    8.57
  -3   3  -6  335.58    6.42
  -3   3  -6  317.58    6.86
  -3   3  -6  329.31    6.87
  -4   3  -6  135.49    3.07
  -4   3  -6  135.28    2.90
  -4   3  -6  137.33    2.32
  -4   3  -6  134.66    2.74
  -4   3  -6  134.47    3.56
  -5   3  -6    2.30    0.09
  -5   3  -6    2.28    0.10
  -5   3  -6    2.26    0.10
  -5  -2   6    4.61    0.17
  -5  -2   6    4.60    0.17
  -5  -2   6    4.57    0.16
  -5  -2   6    4.55    0.18
  -4  -2   6   27.66    0.95
  -4  -2   6   28.18    0.76
  -4  -2   6   28.96    0.82
  -4  -2   6   28.61    0.65
  -4  -2   6   28.18    0.75
   3   2  -6   47.38    1.43
  -3  -2   6   46.94    1.18
  -3  -2   6   46.75    1.06
  -3  -2   6   48.62    1.48
  -3  -2   6   45.79    1.03
  -3  -2   6   48.38    1.28
  -3  -2   6   47.61    1.18
  -3  -2   6   45.48    1.12
   2   2  -6  528.09   15.09
   2   2  -6  521.85   14.61
  -2  -2   6  528.52   14.75
  -2  -2   6  504.96   13.48
   1   2  -6    0.16    0.04
   1   2  -6    0.10    0.04
  -1  -2   6    0.14    0.03
  -1  -2   6    0.13    0.04
  -1  -2   6    0.13    0.04
   0   2  -6   93.70    2.72
   0   2  -6   85.49    2.44
   0   2  -6   96.64    2.64
   0  -2   6   94.03    2.72
   0  -2   6   99.12    2.64
   0  -2   6   96.92    2.44
  -1   2  -6  239.37    5.89
  -1   2  -6  249.52    6.41
   1  -2   6  238.32    6.69
   1  -2   6  232.46    6.87
  -2   2  -6   35.97    0.95
  -2   2  -6   35.94    0.98
   2  -2   6   35.90    1.08
   2  -2   6   36.28    1.04
  -3   2  -6   48.57    1.09
  -3   2  -6   47.36    1.06
  -3   2  -6   47.31    1.16
  -3   2  -6   51.51    1.31
  -3   2  -6   48.42    1.15
  -3   2  -6   48.67    1.05
  -3   2  -6   48.79    1.30
  -4   2  -6    7.95    0.25
  -4   2  -6    7.87    0.26
  -4   2  -6    7.95    0.25
  -4   2  -6    7.81    0.23
  -4   2  -6    7.62    0.26
  -5   2  -6    1.59    0.09
  -5   2  -6    1.73    0.07
  -5   2  -6    1.40    0.08
  -5   2  -6    1.62    0.09
  -5  -1   6    0.22    0.05
  -5  -1   6    0.22    0.05
  -5  -1   6    0.13    0.03
  -5  -1   6    0.18    0.05
  -4  -1   6    8.42    0.22
  -4  -1   6    8.11    0.37
  -4  -1   6    7.82    0.29
  -4  -1   6    8.64    0.29
  -4  -1   6    8.66    0.32
  -4  -1   6    8.85    0.25
  -3  -1   6    0.58    0.10
  -3  -1   6    0.59    0.07
  -3  -1   6    0.48    0.08
  -3  -1   6    0.48    0.06
  -3  -1   6    0.59    0.06
  -3  -1   6    0.48    0.07
   2   1  -6  376.83   10.63
   2   1  -6  372.36   10.34
  -2  -1   6  364.88   10.55
  -2  -1   6  362.37    9.58
  -2  -1   6  369.12   10.37
   1   1  -6    0.15    0.04
  -1  -1   6    0.09    0.04
  -1  -1   6    0.06    0.03
  -1  -1   6    0.08    0.04
  -1  -1   6    0.06    0.03
   0   1  -6    8.49    0.29
   0   1  -6    8.49    0.28
   0   1  -6    8.54    0.27
   0  -1   6    8.85    0.28
   0  -1   6    8.36    0.29
   0  -1   6    8.70    0.27
  -1   1  -6  133.68    3.91
  -1   1  -6  139.07    3.67
   1  -1   6  136.06    3.49
   1  -1   6  138.26    3.90
   1  -1   6  135.75    3.81
  -2   1  -6   36.61    0.94
  -2   1  -6   36.67    0.98
   2  -1   6   35.81    1.08
   2  -1   6   35.52    1.04
  -3   1  -6    7.00    0.28
  -3   1  -6    7.28    0.23
  -3   1  -6    7.35    0.23
  -3   1  -6    7.13    0.23
  -3   1  -6    7.71    0.26
  -4   1  -6   27.58    0.70
  -4   1  -6   27.51    0.66
  -4   1  -6   26.00    0.63
  -4   1  -6   28.20    0.70
  -4   1  -6   27.56    0.56
  -5   1  -6    3.73    0.13
  -5   1  -6    3.58    0.15
  -5   1  -6    3.32    0.14
  -5   1  -6    3.62    0.14
  -5   0   6    8.86    0.26
  -5   0   6    8.84    0.23
  -5   0   6    8.67    0.29
  -5   0   6    8.62    0.26
  -4   0   6   28.43    0.67
  -4   0   6   29.12    0.69
  -4   0   6   28.93    0.95
  -4   0   6   30.27    0.78
  -4   0   6   28.66    0.76
  -4   0   6   28.96    0.84
  -3   0   6    6.24    0.17
  -3   0   6    6.24    0.24
  -3   0   6    6.61    0.24
  -3   0   6    6.49    0.25
  -3   0   6    6.85    0.30
  -3   0   6    6.31    0.20
   2   0  -6    0.06    0.03
   2   0  -6    0.14    0.04
  -2   0   6    0.34    0.07
  -2   0   6    0.04    0.04
   1   0  -6  758.75   20.81
   1   0  -6  723.96   21.39
  -1   0   6  752.60   21.03
  -1   0   6  757.94   21.47
   0   0  -6   34.80    0.98
   0   0  -6   37.43    1.09
   0   0  -6   37.64    1.06
   0   0   6   36.98    1.05
   0   0   6   36.43    1.08
   0   0   6   37.11    0.98
  -1   0  -6    3.05    0.12
  -1   0  -6    3.04    0.13
  -1   0  -6    3.00    0.13
   1   0   6    3.13    0.12
   1   0   6    2.87    0.13
  -2   0  -6  469.53   12.48
  -2   0  -6  483.38   11.84
   2   0   6  482.95   13.81
   2   0   6  488.44   13.41
  -3   0  -6   82.80    2.11
  -3   0  -6   88.38    2.20
   3   0   6   81.47    2.36
   3   0   6   81.94    2.43
  -4   0  -6   23.38    0.61
  -4   0  -6   23.56    0.54
  -4   0  -6   24.37    0.62
  -4   0  -6   23.18    0.48
  -5   0  -6    0.05    0.03
  -5   0  -6    0.00    0.03
  -5   0  -6    0.01    0.03
  -5   1   6    0.38    0.05
  -5   1   6    0.41    0.05
  -5   1   6    0.46    0.06
  -4   1   6   87.10    2.61
  -4   1   6   91.74    1.85
  -4   1   6   91.34    2.36
  -4   1   6   82.62    2.09
  -4   1   6   90.43    2.09
  -4   1   6   90.93    2.17
  -4   1   6   91.46    1.95
  -3   1   6    3.97    0.15
  -3   1   6    3.97    0.20
  -3   1   6    3.99    0.19
  -3   1   6    3.67    0.17
  -3   1   6    3.61    0.17
   2  -1  -6  143.63    4.13
   2  -1  -6  143.62    4.24
  -2   1   6  145.92    4.21
  -2   1   6  154.46    3.80
  -2   1   6  154.40    4.31
   1  -1  -6  507.67   14.01
   1  -1  -6  494.16   14.43
  -1   1   6  520.15   14.48
  -1   1   6  496.81   14.10
  -1   1   6  488.46   12.94
   0  -1  -6  155.15    4.11
   0  -1  -6  164.59    4.51
   0  -1  -6  164.56    4.55
   0   1   6  159.98    4.58
   0   1   6  156.68    4.45
   0   1   6  149.27    4.07
  -1  -1  -6  361.47   10.67
  -1  -1  -6  362.59    9.65
  -1  -1  -6  356.47   10.35
   1   1   6  381.89   10.39
   1   1   6  393.62    9.71
   1   1   6  367.20   10.68
  -2  -1  -6  116.66    2.84
  -2  -1  -6  116.89    3.01
   2   1   6  117.87    3.25
   2   1   6  114.23    3.34
  -3  -1  -6    0.02    0.02
  -3  -1  -6    0.02    0.03
   3   1   6    0.05    0.04
   3   1   6    0.08    0.04
  -4  -1  -6    9.04    0.24
  -4  -1  -6    9.11    0.30
  -4  -1  -6    9.26    0.28
  -5  -1  -6   21.22    0.54
  -5  -1  -6   20.31    0.54
  -5   2   6    0.41    0.05
  -5   2   6    0.37    0.05
  -5   2   6    0.42    0.05
  -4   2   6    4.10    0.20
  -4   2   6    4.07    0.16
  -4   2   6    3.88    0.17
  -4   2   6    4.18    0.18
  -4   2   6    4.04    0.15
  -4   2   6    4.22    0.16
  -3   2   6   40.33    0.94
  -3   2   6   39.83    0.88
  -3   2   6   41.37    1.05
  -3   2   6   40.77    0.87
  -3   2   6   41.03    1.24
  -3   2   6   40.37    1.00
  -3   2   6   41.12    1.14
   2  -2  -6  141.83    4.33
  -2   2   6  156.76    4.41
  -2   2   6  148.87    4.29
  -2   2   6  157.91    3.87
   1  -2  -6  255.74    7.51
   1  -2  -6  266.41    7.32
  -1   2   6  255.28    7.35
  -1   2   6  264.48    7.61
  -1   2   6  262.87    6.82
   0  -2  -6   87.16    2.34
   0  -2  -6   94.66    2.62
   0  -2  -6   92.13    2.54
   0   2   6   89.09    2.34
   0   2   6   88.75    2.51
   0   2   6   89.42    2.59
  -1  -2  -6  200.39    5.99
  -1  -2  -6  205.24    5.76
  -1  -2  -6  204.22    5.48
   1   2   6  202.64    5.31
   1   2   6  214.18    5.98
   1   2   6  207.41    5.84
  -2  -2  -6    0.17    0.04
  -2  -2  -6    0.14    0.03
   2   2   6    0.11    0.04
   2   2   6    0.12    0.04
  -3  -2  -6   19.00    0.56
  -3  -2  -6   17.54    0.53
   3   2   6   18.46    0.59
   3   2   6   18.55    0.61
  -4  -2  -6   21.76    0.57
  -4  -2  -6   22.26    0.60
  -4  -2  -6   21.67    0.57
  -4  -2  -6   22.48    0.53
  -5  -2  -6    0.28    0.03
  -5  -2  -6    0.18    0.04
  -5  -2  -6    0.27    0.06
  -4   3   6    2.97    0.13
  -4   3   6    3.11    0.16
  -4   3   6    2.94    0.14
  -4   3   6    2.91    0.13
  -4   3   6    3.00    0.12
  -4   3   6    2.82    0.14
  -3   3   6    6.50    0.22
  -3   3   6    6.56    0.22
  -3   3   6    6.57    0.20
  -3   3   6    6.94    0.25
  -3   3   6    6.46    0.27
  -3   3   6    6.46    0.21
   2  -3  -6    3.08    0.16
  -2   3   6    3.15    0.19
  -2   3   6    3.08    0.14
  -2   3   6    2.98    0.16
  -2   3   6    3.18    0.13
   1  -3  -6   61.03    1.74
   1  -3  -6   59.12    1.80
  -1   3   6   60.96    1.81
  -1   3   6   60.93    1.60
   0  -3  -6  356.68    9.88
   0  -3  -6  371.69   10.17
   0   3   6  333.64    9.12
   0   3   6  343.58   10.08
   0   3   6  332.90   10.01
  -1  -3  -6  879.81   23.04
  -1  -3  -6  878.60   24.87
  -1  -3  -6  894.96   25.67
   1   3   6  941.85   25.66
   1   3   6  907.41   24.89
   1   3   6  859.10   22.99
  -2  -3  -6   63.06    1.69
   2   3   6   62.84    1.80
   2   3   6   63.13    1.86
  -3  -3  -6   43.91    1.01
  -3  -3  -6   44.79    1.03
  -3  -3  -6   48.17    1.13
  -3  -3  -6   45.49    1.11
  -3  -3  -6   47.22    1.28
   3   3   6   47.83    1.42
   3   3   6   46.47    1.37
  -4  -3  -6   44.44    1.08
  -4  -3  -6   43.33    0.97
  -4  -3  -6   44.26    0.98
  -4  -3  -6   42.81    1.06
   4   3   6   42.90    1.35
  -5  -3  -6    0.92    0.08
  -5  -3  -6    0.92    0.07
  -5  -3  -6    0.97    0.06
  -5  -3  -6    0.87    0.07
  -4   4   6    4.03    0.14
  -4   4   6    3.82    0.17
  -4   4   6    3.80    0.15
  -4   4   6    3.83    0.15
  -3   4   6    6.12    0.22
  -3   4   6    6.38    0.27
  -3   4   6    6.41    0.21
  -3   4   6    6.07    0.23
  -3   4   6    6.11    0.21
  -2   4   6    4.64    0.16
  -2   4   6    4.70    0.21
  -2   4   6    4.79    0.26
  -2   4   6    4.64    0.17
  -2   4   6    5.11    0.17
  -2   4   6    4.49    0.15
  -2   4   6    4.69    0.19
  -2   4   6    4.70    0.17
   1  -4  -6    0.04    0.04
   1  -4  -6    0.06    0.04
  -1   4   6    0.06    0.03
  -1   4   6    0.04    0.04
   0  -4  -6    0.39    0.07
   0  -4  -6    0.22    0.06
   0   4   6    0.31    0.05
   0   4   6    0.25    0.06
  -1  -4  -6    1.97    0.12
  -1  -4  -6    1.95    0.13
  -1  -4  -6    1.89    0.13
   1   4   6    2.01    0.12
   1   4   6    1.98    0.12
  -2  -4  -6  155.73    3.97
   2   4   6  154.29    4.41
   2   4   6  148.05    4.28
  -3  -4  -6  117.26    2.62
  -3  -4  -6  117.53    2.71
  -3  -4  -6  116.60    2.51
  -3  -4  -6  115.08    2.44
   3   4   6  117.75    3.42
  -4  -4  -6   38.03    0.93
  -4  -4  -6   37.54    0.95
  -4  -4  -6   36.65    0.85
  -4  -4  -6   38.50    0.86
   4   4   6   36.06    1.19
  -5  -4  -6    0.12    0.03
  -5  -4  -6    0.21    0.03
  -5  -4  -6    0.16    0.05
  -4   5   6   39.78    0.90
  -4   5   6   38.56    1.07
  -4   5   6   42.03    0.91
  -4   5   6   40.45    1.08
  -3   5   6    3.91    0.19
  -3   5   6    4.07    0.16
  -3   5   6    3.85    0.16
  -3   5   6    3.91    0.13
  -2   5   6   14.55    0.40
  -2   5   6   14.29    0.42
  -2   5   6   14.69    0.38
  -2   5   6   14.12    0.48
  -2   5   6   14.79    0.44
   1  -5  -6   10.55    0.42
   1  -5  -6   11.82    0.46
  -1   5   6   11.46    0.31
  -1   5   6   11.19    0.31
  -1   5   6   11.52    0.38
  -1   5   6   11.41    0.35
  -1   5   6   11.84    0.44
  -1   5   6   12.12    0.36
  -1   5   6   10.64    0.31
   0  -5  -6   11.73    0.46
   0  -5  -6   11.56    0.43
   0   5   6   11.45    0.42
   0   5   6   11.80    0.39
  -1  -5  -6   21.91    0.75
   1   5   6   21.39    0.71
   1   5   6   21.77    0.65
  -2  -5  -6   22.08    0.67
  -2  -5  -6   20.85    0.52
  -2  -5  -6   21.88    0.52
  -2  -5  -6   21.20    0.53
  -2  -5  -6   20.75    0.56
  -2  -5  -6   21.38    0.56
   2   5   6   21.94    0.73
  -3  -5  -6   45.11    1.08
  -3  -5  -6   45.22    1.03
  -3  -5  -6   46.45    1.12
   3   5   6   45.57    1.43
  -4  -5  -6  363.99    8.34
  -4  -5  -6  369.08    7.48
  -4  -5  -6  369.77    8.13
  -4  -5  -6  353.73    7.74
  -5  -5  -6   22.28    0.53
  -5  -5  -6   23.11    0.58
  -5  -5  -6   22.85    0.53
  -5  -5  -6   22.90    0.59
  -4   6   6    2.82    0.11
  -3   6   6   22.53    0.65
  -3   6   6   22.44    0.52
  -3   6   6   22.30    0.66
  -3   6   6   22.88    0.56
  -2   6   6   24.05    0.59
  -2   6   6   22.85    0.70
  -2   6   6   22.11    0.63
  -2   6   6   23.30    0.57
  -2   6   6   23.55    0.67
   1  -6  -6  544.31   14.88
  -1   6   6  538.34   11.88
  -1   6   6  521.82   11.13
  -1   6   6  515.70   14.91
  -1   6   6  528.41   11.05
  -1   6   6  536.82   13.27
  -1   6   6  474.33   13.71
  -1   6   6  513.84   10.59
   0  -6  -6   17.33    0.66
   0   6   6   17.19    0.45
   0   6   6   17.50    0.42
   0   6   6   18.21    0.51
   0   6   6   17.37    0.44
   0   6   6   17.65    0.46
   0   6   6   17.48    0.46
  -1  -6  -6   13.81    0.42
  -1  -6  -6   15.01    0.41
  -1  -6  -6   13.89    0.56
   1   6   6   14.61    0.37
   1   6   6   14.01    0.48
   1   6   6   14.21    0.40
   1   6   6   14.34    0.42
   1   6   6   14.43    0.38
   1   6   6   14.42    0.39
  -2  -6  -6    2.62    0.13
  -2  -6  -6    2.39    0.13
  -2  -6  -6    2.51    0.12
  -2  -6  -6    2.55    0.12
   2   6   6    2.44    0.13
   2   6   6    2.60    0.17
   2   6   6    2.65    0.13
  -3  -6  -6    5.04    0.18
  -3  -6  -6    4.99    0.18
  -3  -6  -6    4.92    0.19
   3   6   6    4.88    0.19
   3   6   6    4.74    0.26
  -4  -6  -6   96.73    2.02
  -4  -6  -6   94.35    2.07
  -4  -6  -6   95.24    2.22
  -4  -6  -6   95.12    2.24
  -5  -6  -6    0.22    0.03
  -5  -6  -6    0.20    0.04
  -5  -6  -6    0.24    0.04
  -5  -6  -6    0.24    0.05
  -3   7   6    0.03    0.03
  -3   7   6    0.04    0.03
  -2   7   6    1.28    0.10
  -2   7   6    1.26    0.10
  -2   7   6    1.15    0.10
  -2   7   6    1.38    0.08
  -2   7   6    1.24    0.09
  -1   7   6  270.14    5.79
  -1   7   6  272.15    5.61
  -1   7   6  276.63    6.28
  -1   7   6  274.18    6.98
  -1   7   6  274.29    5.78
   0  -7  -6    0.21    0.08
   0   7   6    0.15    0.04
   0   7   6    0.33    0.07
   0   7   6    0.20    0.04
   0   7   6    0.15    0.04
   0   7   6    0.17    0.04
  -1  -7  -6    5.35    0.22
  -1  -7  -6    5.19    0.22
  -1  -7  -6    5.09    0.29
   1   7   6    5.42    0.19
   1   7   6    5.56    0.18
   1   7   6    5.09    0.20
   1   7   6    5.48    0.22
   1   7   6    5.26    0.20
  -2  -7  -6    2.76    0.14
  -2  -7  -6    2.78    0.15
  -2  -7  -6    2.66    0.13
   2   7   6    2.80    0.13
   2   7   6    2.55    0.18
   2   7   6    2.62    0.14
   2   7   6    2.81    0.12
  -3  -7  -6   75.18    1.82
  -3  -7  -6   77.97    1.77
  -3  -7  -6   76.50    1.69
  -3  -7  -6   79.04    1.66
   3   7   6   77.61    1.70
   3   7   6   74.79    1.80
  -4  -7  -6   44.07    1.08
  -4  -7  -6   43.60    1.00
  -4  -7  -6   44.10    0.98
  -4  -7  -6   45.17    1.08
  -2   8   6    9.06    0.31
  -2   8   6    9.47    0.30
  -2   8   6    9.81    0.27
  -2   8   6    9.75    0.26
  -1   8   6  110.78    2.57
  -1   8   6  107.25    2.84
  -1   8   6  107.33    2.36
  -1   8   6  110.61    2.36
  -1   8   6  108.59    2.30
   0   8   6    1.44    0.12
   0   8   6    1.45    0.10
   0   8   6    1.53    0.10
   0   8   6    1.37    0.09
  -1  -8  -6    6.74    0.25
  -1  -8  -6    6.40    0.25
   1   8   6    6.75    0.21
   1   8   6    6.67    0.25
   1   8   6    6.68    0.23
   1   8   6    6.64    0.24
   1   8   6    6.66    0.22
  -2  -8  -6   37.91    0.93
  -2  -8  -6   35.78    0.87
   2   8   6   36.91    0.86
   2   8   6   37.13    0.91
   2   8   6   35.94    0.84
  -3  -8  -6   10.63    0.30
  -3  -8  -6   10.45    0.30
   3   8   6   10.14    0.28
   3   8   6   10.61    0.31
   3   8   6   10.29    0.32
  -4  -8  -6    3.18    0.12
  -4  -8  -6    3.54    0.15
  -4  -8  -6    3.15    0.12
  -4  -8  -6    3.43    0.13
   4   8   6    3.18    0.12
  -1   9   6   11.07    0.30
  -1   9   6   11.13    0.33
  -1   9   6   11.06    0.30
  -1   9   6   11.11    0.30
  -1   9   6   10.39    0.35
   0  -9  -6   50.72    1.17
   0   9   6   50.42    1.12
   0   9   6   51.25    1.37
   0   9   6   50.32    1.24
   0   9   6   49.72    1.13
   0   9   6   50.81    1.15
  -1  -9  -6    1.75    0.11
  -1  -9  -6    1.73    0.12
   1   9   6    1.79    0.09
   1   9   6    1.82    0.09
   1   9   6    1.63    0.10
  -2  -9  -6    0.39    0.06
  -2  -9  -6    0.35    0.06
   2   9   6    0.55    0.06
   2   9   6    0.29    0.04
   2   9   6    0.31    0.05
  -3  -9  -6    0.01    0.02
  -3  -9  -6    0.05    0.02
   3   9   6    0.06    0.03
   3   9   6    0.06    0.03
   0 -10  -6    1.28    0.09
   0  10   6    1.10    0.09
   0  10   6    1.22    0.08
   0  10   6    1.33    0.07
   0  10   6    1.23    0.07
  -1 -10  -6   19.72    0.49
  -1 -10  -6   19.79    0.51
   1  10   6   19.47    0.47
  -2 -10  -6    1.72    0.09
   2  10   6    1.74    0.07
   2   9  -7   86.48    1.93
   2   9  -7   85.63    1.71
   2   9  -7   84.25    1.81
  -2  -9   7   84.93    1.92
   1   9  -7   10.74    0.28
   1   9  -7   10.50    0.27
   1   9  -7   11.41    0.30
   1   9  -7   11.29    0.29
  -1  -9   7   11.41    0.31
  -1  -9   7   11.65    0.33
   0   9  -7    9.20    0.25
   0   9  -7    8.98    0.26
   0   9  -7    8.86    0.24
   0  -9   7    9.17    0.28
   0  -9   7    9.16    0.28
  -1   9  -7    5.64    0.18
  -1   9  -7    5.57    0.17
  -1   9  -7    5.37    0.17
  -1   9  -7    5.14    0.17
  -1   9  -7    5.32    0.19
   3   8  -7    1.27    0.08
   3   8  -7    1.29    0.07
   3   8  -7    1.40    0.08
  -3  -8   7    1.35    0.07
   2   8  -7   10.42    0.27
   2   8  -7   11.00    0.30
   2   8  -7   10.47    0.32
  -2  -8   7   10.58    0.31
  -2  -8   7   10.35    0.28
   1   8  -7   12.37    0.35
   1   8  -7   11.86    0.32
   1   8  -7   12.16    0.31
   1   8  -7   11.55    0.34
  -1  -8   7   11.84    0.36
  -1  -8   7   11.50    0.35
   0   8  -7   16.04    0.47
   0   8  -7   16.35    0.41
   0   8  -7   16.93    0.42
   0   8  -7   16.83    0.44
   0   8  -7   16.49    0.43
   0  -8   7   16.53    0.46
   0  -8   7   16.45    0.47
  -1   8  -7    2.06    0.13
  -1   8  -7    2.35    0.12
  -1   8  -7    2.11    0.11
  -1   8  -7    2.08    0.11
  -1   8  -7    2.18    0.12
  -2   8  -7    4.76    0.17
  -2   8  -7    4.42    0.15
  -2   8  -7    4.58    0.16
  -2   8  -7    4.69    0.18
  -2   8  -7    4.58    0.16
  -4  -7   7    4.48    0.13
  -4  -7   7    4.06    0.14
   3   7  -7    3.11    0.14
  -3  -7   7    3.24    0.13
  -3  -7   7    3.15    0.16
  -3  -7   7    3.29    0.14
  -3  -7   7    3.52    0.13
   2   7  -7    2.12    0.12
   2   7  -7    2.14    0.12
   2   7  -7    2.04    0.10
  -2  -7   7    1.81    0.17
  -2  -7   7    2.11    0.12
  -2  -7   7    2.04    0.10
  -2  -7   7    2.08    0.11
   1   7  -7    8.00    0.23
   1   7  -7    7.88    0.27
   1   7  -7    7.79    0.26
   1   7  -7    7.99    0.26
  -1  -7   7    7.55    0.27
  -1  -7   7    7.92    0.27
   0   7  -7    7.03    0.22
   0   7  -7    6.85    0.24
   0   7  -7    7.03    0.25
   0   7  -7    7.27    0.23
   0   7  -7    7.23    0.24
   0   7  -7    7.13    0.26
   0  -7   7    7.20    0.26
   0  -7   7    7.21    0.26
  -1   7  -7   23.79    0.60
  -1   7  -7   23.50    0.57
  -1   7  -7   24.31    0.60
  -1   7  -7   24.34    0.66
  -1   7  -7   24.65    0.58
  -2   7  -7    8.55    0.26
  -2   7  -7    8.61    0.26
  -2   7  -7    8.34    0.26
  -2   7  -7    8.47    0.28
  -2   7  -7    8.54    0.26
  -3   7  -7    0.55    0.05
  -3   7  -7    0.50    0.06
  -3   7  -7    0.56    0.06
  -3   7  -7    0.57    0.06
  -3   7  -7    0.57    0.05
  -4  -6   7   10.13    0.26
  -4  -6   7    9.51    0.30
  -4  -6   7   10.17    0.29
  -4  -6   7   10.29    0.27
  -4  -6   7    9.86    0.31
  -3  -6   7    7.89    0.24
  -3  -6   7    7.63    0.25
  -3  -6   7    7.48    0.29
  -3  -6   7    7.52    0.23
  -3  -6   7    7.98    0.25
   2   6  -7    0.32    0.06
   2   6  -7    0.35    0.06
   2   6  -7    0.30    0.08
  -2  -6   7    0.42    0.05
  -2  -6   7    0.31    0.06
  -2  -6   7    0.36    0.05
  -2  -6   7    0.34    0.06
  -2  -6   7    0.27    0.09
  -2  -6   7    0.41    0.07
   1   6  -7   26.93    0.69
   1   6  -7   26.46    0.59
   1   6  -7   26.36    0.65
   1   6  -7   26.11    0.65
   1   6  -7   25.93    0.89
  -1  -6   7   26.60    0.62
  -1  -6   7   25.95    0.69
  -1  -6   7   27.30    0.67
   0   6  -7   32.75    0.78
   0   6  -7   33.33    0.72
   0   6  -7   34.17    0.82
   0   6  -7   33.12    0.85
   0   6  -7   33.73    0.77
   0  -6   7   32.21    0.83
   0  -6   7   30.66    0.87
   0  -6   7   33.20    0.80
   0  -6   7   31.73    1.10
  -1   6  -7   17.50    0.46
  -1   6  -7   17.69    0.45
  -1   6  -7   18.00    0.47
  -1   6  -7   17.79    0.44
  -1   6  -7   18.20    0.51
   1  -6   7   17.78    0.67
  -2   6  -7   32.55    0.83
  -2   6  -7   31.66    0.75
  -2   6  -7   32.18    0.74
  -2   6  -7   31.82    0.76
  -2   6  -7   31.67    0.74
  -2   6  -7   32.67    0.81
  -3   6  -7    0.66    0.05
  -3   6  -7    0.61    0.06
  -3   6  -7    0.57    0.07
  -3   6  -7    0.64    0.07
  -3   6  -7    0.58    0.08
  -3   6  -7    0.67    0.07
  -3   6  -7    0.67    0.07
  -4   6  -7   29.21    0.53
  -4   6  -7   29.08    0.63
  -4  -5   7   15.11    0.37
  -4  -5   7   14.78    0.40
  -4  -5   7   15.17    0.44
  -4  -5   7   15.55    0.38
  -4  -5   7   13.90    0.44
  -3  -5   7    4.20    0.26
  -3  -5   7    4.29    0.18
  -3  -5   7    4.46    0.17
  -3  -5   7    4.42    0.16
  -3  -5   7    4.42    0.16
   2   5  -7    0.16    0.06
  -2  -5   7    0.19    0.07
  -2  -5   7    0.15    0.03
  -2  -5   7    0.11    0.04
  -2  -5   7    0.26    0.04
  -2  -5   7    0.19    0.04
  -2  -5   7    0.10    0.03
   1   5  -7  108.57    2.28
   1   5  -7  108.51    3.12
   1   5  -7  103.53    2.24
   1   5  -7  106.99    2.42
  -1  -5   7  107.53    2.21
  -1  -5   7  105.03    2.29
  -1  -5   7  103.89    3.15
  -1  -5   7  104.74    2.45
  -1  -5   7  105.35    2.42
   0   5  -7   10.18    0.30
   0   5  -7   10.10    0.26
   0   5  -7   10.34    0.32
   0   5  -7   10.32    0.29
   0   5  -7   10.60    0.37
   0   5  -7   10.42    0.30
   0   5  -7   10.13    0.29
   0  -5   7   10.16    0.30
   0  -5   7   10.18    0.33
   0  -5   7    9.90    0.31
   0  -5   7   10.53    0.42
  -1   5  -7  239.48    5.23
  -1   5  -7  252.67    5.40
  -1   5  -7  253.65    5.15
  -1   5  -7  257.66    5.74
  -1   5  -7  253.01    4.96
  -1   5  -7  258.96    5.61
  -1   5  -7  254.16    5.57
   1  -5   7  257.01    7.24
   1  -5   7  236.16    5.93
  -2   5  -7    9.31    0.28
  -2   5  -7    8.34    0.27
  -2   5  -7    8.56    0.26
  -2   5  -7    9.72    0.29
  -2   5  -7    9.05    0.29
  -2   5  -7    8.90    0.26
  -2   5  -7    8.68    0.29
   2  -5   7    9.07    0.39
  -3   5  -7   20.58    0.50
  -3   5  -7   20.88    0.55
  -3   5  -7   21.27    0.55
  -3   5  -7   20.84    0.52
  -3   5  -7   20.50    0.52
  -3   5  -7   20.84    0.59
  -3   5  -7   20.89    0.44
  -4   5  -7    1.67    0.10
  -4   5  -7    1.67    0.09
  -4   5  -7    1.60    0.08
  -4   5  -7    1.72    0.09
  -4   5  -7    1.72    0.10
  -5  -4   7    3.34    0.13
  -5  -4   7    3.09    0.12
  -4  -4   7    4.64    0.17
  -4  -4   7    4.77    0.21
  -4  -4   7    4.62    0.15
  -4  -4   7    4.34    0.19
  -4  -4   7    4.87    0.16
   3   4  -7   10.42    0.42
  -3  -4   7   10.05    0.28
  -3  -4   7    9.86    0.44
  -3  -4   7   10.02    0.30
  -3  -4   7   10.20    0.34
  -3  -4   7   10.21    0.28
   2   4  -7   22.72    0.74
  -2  -4   7   21.65    0.51
  -2  -4   7   22.23    0.53
  -2  -4   7   21.41    0.75
  -2  -4   7   21.94    0.52
  -2  -4   7   21.43    0.56
  -2  -4   7   21.58    0.56
   1   4  -7  158.70    4.50
  -1  -4   7  154.85    3.73
  -1  -4   7  157.98    4.04
  -1  -4   7  152.10    4.52
   0   4  -7   73.53    2.16
   0   4  -7   74.01    1.95
   0  -4   7   74.24    2.18
   0  -4   7   72.50    2.11
   0  -4   7   71.38    1.78
  -1   4  -7    2.89    0.15
  -1   4  -7    2.67    0.13
   1  -4   7    2.86    0.17
   1  -4   7    2.60    0.16
   1  -4   7    2.56    0.12
  -2   4  -7  246.15    5.47
  -2   4  -7  247.67    5.98
  -2   4  -7  241.38    5.01
  -2   4  -7  250.69    5.27
  -2   4  -7  241.65    4.85
  -2   4  -7  249.83    4.83
  -2   4  -7  244.60    5.59
  -2   4  -7  247.52    6.44
   2  -4   7  243.27    7.03
   2  -4   7  240.69    5.77
  -3   4  -7  252.09    5.20
  -3   4  -7  238.95    5.61
  -3   4  -7  242.04    4.90
  -3   4  -7  248.53    6.47
  -3   4  -7  248.95    4.88
  -3   4  -7  249.69    5.51
  -4   4  -7   43.75    0.96
  -4   4  -7   43.98    1.05
  -4   4  -7   43.81    0.82
  -4   4  -7   44.41    1.19
  -5  -3   7   14.26    0.38
  -5  -3   7   14.03    0.33
  -5  -3   7   13.27    0.40
  -5  -3   7   14.11    0.38
  -5  -3   7   13.99    0.32
  -4  -3   7   10.98    0.30
  -4  -3   7    9.48    0.45
  -4  -3   7    9.47    0.34
  -4  -3   7    9.86    0.27
  -4  -3   7    9.94    0.34
   3   3  -7    4.32    0.23
  -3  -3   7    4.51    0.15
  -3  -3   7    4.49    0.16
  -3  -3   7    4.41    0.26
  -3  -3   7    4.42    0.19
  -3  -3   7    4.29    0.15
   2   3  -7    5.34    0.23
   2   3  -7    5.59    0.25
  -2  -3   7    5.10    0.16
  -2  -3   7    5.28    0.18
  -2  -3   7    5.43    0.22
  -2  -3   7    5.18    0.26
   1   3  -7   53.16    1.56
   1   3  -7   54.48    1.61
  -1  -3   7   55.74    1.45
  -1  -3   7   51.87    1.62
   0   3  -7    6.69    0.27
   0   3  -7    7.39    0.26
   0  -3   7    6.57    0.26
   0  -3   7    6.57    0.28
   0  -3   7    6.80    0.25
  -1   3  -7    0.46    0.05
  -1   3  -7    0.36    0.05
   1  -3   7    0.49    0.07
   1  -3   7    0.49    0.07
  -2   3  -7    0.76    0.05
  -2   3  -7    0.81    0.07
  -2   3  -7    0.89    0.08
  -2   3  -7    0.85    0.05
   2  -3   7    0.84    0.08
   2  -3   7    0.81    0.08
  -3   3  -7   60.30    1.58
  -3   3  -7   59.61    1.27
  -3   3  -7   59.85    1.29
  -3   3  -7   56.97    1.58
  -3   3  -7   60.08    1.39
  -4   3  -7    6.32    0.18
  -4   3  -7    6.75    0.21
  -4   3  -7    6.22    0.20
  -4   3  -7    6.54    0.23
  -4   3  -7    6.76    0.22
  -4   3  -7    6.48    0.20
  -5   3  -7    0.27    0.04
  -5   3  -7    0.27    0.05
  -5   3  -7    0.30    0.05
  -5   3  -7    0.28    0.04
  -5  -2   7    0.29    0.05
  -5  -2   7    0.27    0.05
  -5  -2   7    0.34    0.06
  -5  -2   7    0.23    0.05
  -4  -2   7    7.17    0.27
  -4  -2   7    6.61    0.33
  -4  -2   7    7.17    0.25
  -4  -2   7    7.10    0.22
  -4  -2   7    6.90    0.27
  -4  -2   7    7.25    0.20
   3   2  -7  443.55   12.37
  -3  -2   7  444.06   11.01
  -3  -2   7  448.15   12.27
  -3  -2   7  428.25    9.84
  -3  -2   7  428.48    8.91
  -3  -2   7  430.83   10.09
  -3  -2   7  410.59    9.24
  -3  -2   7  446.56    9.85
   2   2  -7  708.57   19.48
   2   2  -7  704.94   20.06
  -2  -2   7  677.42   17.93
  -2  -2   7  690.27   19.58
   1   2  -7   61.64    1.80
   1   2  -7   62.93    1.74
  -1  -2   7   58.79    1.79
  -1  -2   7   61.62    1.61
  -1  -2   7   59.58    1.77
   0   2  -7    5.76    0.23
   0   2  -7    5.85    0.22
   0  -2   7    6.76    0.24
   0  -2   7    6.01    0.23
   0  -2   7    6.05    0.22
  -1   2  -7    5.51    0.21
   1  -2   7    5.66    0.22
   1  -2   7    5.58    0.21
  -2   2  -7    2.53    0.13
  -2   2  -7    2.49    0.13
   2  -2   7    2.52    0.13
   2  -2   7    2.44    0.13
  -3   2  -7   -0.02    0.02
  -3   2  -7    0.02    0.01
  -3   2  -7    0.08    0.04
  -3   2  -7    0.05    0.03
  -3   2  -7    0.07    0.04
  -4   2  -7    0.06    0.02
  -4   2  -7    0.08    0.04
  -4   2  -7    0.05    0.04
  -4   2  -7    0.09    0.05
  -5   2  -7    0.49    0.06
  -5   2  -7    0.37    0.05
  -5   2  -7    0.43    0.05
  -5   2  -7    0.51    0.04
  -5  -1   7    5.11    0.16
  -5  -1   7    5.24    0.18
  -5  -1   7    4.96    0.19
  -5  -1   7    4.88    0.17
  -4  -1   7   65.38    1.58
  -4  -1   7   64.40    1.39
  -4  -1   7   63.01    1.56
  -4  -1   7   65.07    1.41
  -4  -1   7   65.80    1.72
  -4  -1   7   60.99    1.93
  -3  -1   7   12.93    0.49
  -3  -1   7   13.04    0.42
  -3  -1   7   13.05    0.32
  -3  -1   7   13.14    0.38
  -3  -1   7   12.72    0.40
  -3  -1   7   12.44    0.40
   2   1  -7  147.95    4.19
   2   1  -7  145.74    4.06
  -2  -1   7  144.74    4.16
  -2  -1   7  144.00    3.74
   1   1  -7  270.76    7.37
   1   1  -7  259.51    7.57
  -1  -1   7  254.30    7.34
  -1  -1   7  261.29    6.80
  -1  -1   7  261.35    7.46
   0   1  -7    2.88    0.13
   0   1  -7    2.93    0.13
   0   1  -7    2.93    0.13
   0  -1   7    3.02    0.13
   0  -1   7    2.83    0.13
   0  -1   7    2.97    0.13
  -1   1  -7  444.32   11.19
  -1   1  -7  406.32   12.29
   1  -1   7  426.33   12.30
   1  -1   7  434.59   11.93
  -2   1  -7   85.25    2.23
  -2   1  -7   85.44    2.12
   2  -1   7   84.71    2.39
   2  -1   7   85.43    2.47
  -3   1  -7    0.37    0.05
  -3   1  -7    0.28    0.05
  -3   1  -7    0.31    0.03
  -3   1  -7    0.30    0.05
  -3   1  -7    0.31    0.06
  -3   1  -7    0.30    0.05
   3  -1   7    0.35    0.06
   3  -1   7    0.30    0.05
  -4   1  -7    3.90    0.12
  -4   1  -7    3.36    0.15
  -4   1  -7    3.94    0.15
  -4   1  -7    3.91    0.16
  -4   1  -7    4.03    0.16
  -5   1  -7    1.59    0.07
  -5   1  -7    1.56    0.08
  -5   1  -7    1.55    0.09
  -5   0   7    2.69    0.11
  -5   0   7    2.47    0.10
  -5   0   7    2.69    0.10
  -5   0   7    2.59    0.12
  -4   0   7    0.01    0.03
  -4   0   7   -0.01    0.04
  -4   0   7    0.01    0.03
  -4   0   7    0.14    0.05
  -4   0   7    0.02    0.04
  -4   0   7   -0.01    0.03
  -4   0   7   -0.01    0.05
  -3   0   7    4.53    0.20
  -3   0   7    4.46    0.16
  -3   0   7    4.56    0.20
  -3   0   7    4.52    0.16
  -3   0   7    4.55    0.19
  -3   0   7    4.61    0.24
  -3   0   7    4.56    0.14
   2   0  -7  149.95    4.25
   2   0  -7  149.76    4.12
  -2   0   7  146.17    4.21
  -2   0   7  147.69    4.29
  -2   0   7  145.96    3.80
   1   0  -7   37.62    1.08
   1   0  -7   36.57    1.12
  -1   0   7   37.12    1.13
  -1   0   7   37.49    1.00
   0   0  -7    1.40    0.08
   0   0  -7    1.37    0.09
   0   0  -7    1.30    0.08
   0   0   7    1.28    0.08
   0   0   7    1.40    0.08
   0   0   7    1.32    0.08
  -1   0  -7  358.21    9.39
  -1   0  -7  352.25   10.30
   1   0   7  358.32    9.27
   1   0   7  367.00   10.00
   1   0   7  353.81   10.31
  -2   0  -7   28.43    0.76
   2   0   7   28.39    0.88
   2   0   7   30.04    0.85
  -3   0  -7   37.62    0.99
  -3   0  -7   34.84    0.86
  -3   0  -7   35.10    0.96
  -3   0  -7   33.92    0.86
  -3   0  -7   34.41    0.79
   3   0   7   35.71    1.08
   3   0   7   35.35    1.04
  -4   0  -7   26.14    0.67
  -4   0  -7   24.78    0.51
  -4   0  -7   25.73    0.59
  -4   0  -7   25.96    0.66
  -5   0  -7    1.04    0.08
  -5   0  -7    1.26    0.08
  -5   1   7    0.49    0.05
  -5   1   7    0.41    0.05
  -5   1   7    0.44    0.05
  -4   1   7   90.10    2.15
  -4   1   7   89.33    1.93
  -4   1   7   91.06    1.83
  -4   1   7   91.10    2.34
  -4   1   7   90.09    2.07
  -4   1   7   80.84    2.58
  -4   1   7   87.40    2.35
  -3   1   7    8.07    0.21
  -3   1   7    8.04    0.33
  -3   1   7    8.18    0.29
  -3   1   7    8.29    0.25
  -3   1   7    8.34    0.31
   2  -1  -7    0.25    0.05
   2  -1  -7    0.29    0.05
  -2   1   7    0.21    0.05
  -2   1   7    0.19    0.04
  -2   1   7    0.19    0.06
  -2   1   7    0.14    0.04
   1  -1  -7   43.89    1.25
   1  -1  -7   41.76    1.28
  -1   1   7   44.29    1.30
  -1   1   7   42.55    1.15
   0  -1  -7   38.73    1.08
   0  -1  -7   40.92    1.15
   0  -1  -7   40.86    1.19
   0   1   7   39.73    1.17
   0   1   7   39.57    1.13
   0   1   7   39.31    1.07
  -1  -1  -7   46.07    1.23
  -1  -1  -7   43.56    1.31
  -1  -1  -7   44.60    1.35
   1   1   7   45.98    1.23
   1   1   7   47.55    1.35
   1   1   7   47.01    1.31
  -2  -1  -7    0.26    0.05
  -2  -1  -7    0.22    0.04
   2   1   7    0.36    0.06
   2   1   7    0.31    0.05
  -3  -1  -7   27.76    0.77
  -3  -1  -7   27.00    0.63
  -3  -1  -7   28.26    0.81
  -3  -1  -7   27.14    0.70
   3   1   7   28.30    0.84
   3   1   7   28.65    0.88
  -4  -1  -7   99.18    2.15
  -4  -1  -7  102.28    2.31
  -4  -1  -7   99.09    2.32
  -5  -1  -7   80.58    1.75
  -5  -1  -7   82.17    1.91
  -5  -1  -7   84.02    1.90
  -4   2   7   18.53    0.49
  -4   2   7   17.96    0.46
  -4   2   7   18.54    0.57
  -4   2   7   18.75    0.44
  -4   2   7   18.03    0.52
  -3   2   7    0.14    0.04
  -3   2   7    0.15    0.05
  -3   2   7    0.14    0.05
  -3   2   7    0.22    0.06
  -3   2   7    0.15    0.05
   2  -2  -7   17.37    0.58
   2  -2  -7   18.15    0.57
  -2   2   7   18.41    0.52
  -2   2   7   17.78    0.63
  -2   2   7   17.30    0.57
  -2   2   7   17.52    0.50
   1  -2  -7   14.38    0.50
   1  -2  -7   15.13    0.48
  -1   2   7   15.23    0.45
  -1   2   7   14.64    0.51
   0  -2  -7  197.69    5.13
   0  -2  -7  202.73    5.63
   0  -2  -7  206.86    5.90
   0   2   7  198.50    5.21
   0   2   7  196.71    5.82
  -1  -2  -7    9.89    0.34
  -1  -2  -7    9.88    0.33
  -1  -2  -7   10.12    0.36
   1   2   7   10.33    0.35
   1   2   7   10.27    0.33
   1   2   7   10.30    0.33
  -2  -2  -7    0.68    0.06
  -2  -2  -7    0.68    0.07
   2   2   7    0.67    0.07
   2   2   7    0.75    0.07
  -3  -2  -7    1.20    0.08
  -3  -2  -7    1.13    0.09
  -3  -2  -7    1.37    0.10
  -3  -2  -7    1.23    0.09
  -3  -2  -7    1.31    0.07
   3   2   7    1.22    0.10
   3   2   7    1.19    0.10
  -4  -2  -7    0.95    0.09
  -4  -2  -7    0.82    0.07
  -4  -2  -7    0.86    0.07
  -4  -2  -7    1.12    0.07
  -5  -2  -7   11.78    0.34
  -5  -2  -7   11.47    0.32
  -5  -2  -7   11.60    0.29
  -5  -2  -7   11.53    0.32
  -4   3   7   38.16    0.97
  -4   3   7   39.11    0.88
  -4   3   7   39.32    0.93
  -4   3   7   36.82    0.87
  -4   3   7   39.15    1.07
  -4   3   7   37.10    1.03
  -3   3   7   36.79    0.95
  -3   3   7   36.41    0.89
  -3   3   7   35.36    0.78
  -3   3   7   36.21    0.86
  -3   3   7   37.06    1.05
   2  -3  -7    4.19    0.21
   2  -3  -7    4.23    0.20
  -2   3   7    4.55    0.16
  -2   3   7    4.32    0.18
  -2   3   7    4.37    0.15
  -2   3   7    4.43    0.18
  -2   3   7    4.54    0.24
  -2   3   7    4.30    0.20
  -2   3   7    4.78    0.16
  -2   3   7    4.30    0.14
   1  -3  -7   77.46    2.21
   1  -3  -7   76.59    2.28
  -1   3   7   77.59    2.30
  -1   3   7   78.06    2.04
   0  -3  -7  361.75   10.07
   0  -3  -7  373.34   10.43
   0   3   7  354.49    9.43
   0   3   7  342.82   10.28
   0   3   7  356.19   10.48
  -1  -3  -7   18.91    0.57
  -1  -3  -7   18.48    0.60
  -1  -3  -7   18.58    0.62
   1   3   7   18.66    0.58
   1   3   7   19.35    0.61
   1   3   7   19.45    0.57
  -2  -3  -7  117.66    3.16
   2   3   7  121.67    3.40
   2   3   7  123.99    3.51
  -3  -3  -7   40.77    0.91
  -3  -3  -7   40.35    1.00
  -3  -3  -7   41.42    0.93
  -3  -3  -7   41.52    1.17
  -3  -3  -7   42.04    1.01
   3   3   7   41.79    1.28
   3   3   7   40.10    1.23
  -4  -3  -7   82.98    1.76
  -4  -3  -7   84.93    1.81
  -4  -3  -7   82.35    1.95
  -4  -3  -7   83.57    1.94
   4   3   7   80.55    2.46
  -5  -3  -7   15.19    0.42
  -5  -3  -7   15.62    0.37
  -5  -3  -7   15.07    0.41
  -4   4   7    2.38    0.10
  -4   4   7    2.62    0.12
  -4   4   7    2.48    0.11
  -4   4   7    2.41    0.13
  -4   4   7    2.59    0.11
  -3   4   7    5.39    0.19
  -3   4   7    5.22    0.24
  -3   4   7    5.27    0.16
  -3   4   7    5.00    0.20
  -3   4   7    5.03    0.19
  -3   4   7    5.07    0.18
  -2   4   7    9.44    0.31
  -2   4   7    9.48    0.26
  -2   4   7    9.30    0.30
  -2   4   7    9.71    0.29
  -2   4   7    9.99    0.35
  -2   4   7    9.39    0.41
  -2   4   7    9.20    0.27
   1  -4  -7    2.20    0.15
   1  -4  -7    2.27    0.16
  -1   4   7    2.40    0.16
  -1   4   7    2.27    0.13
  -1   4   7    2.38    0.11
   0  -4  -7   12.52    0.45
   0  -4  -7   13.33    0.48
   0   4   7   12.57    0.45
   0   4   7   12.29    0.41
  -1  -4  -7   26.32    0.78
  -1  -4  -7   26.84    0.87
   1   4   7   26.99    0.84
   1   4   7   26.26    0.77
  -2  -4  -7   20.69    0.64
   2   4   7   20.29    0.66
   2   4   7   20.51    0.69
  -3  -4  -7   70.72    1.56
  -3  -4  -7   71.30    1.59
  -3  -4  -7   74.75    1.72
  -3  -4  -7   70.81    1.65
  -3  -4  -7   73.94    1.72
   3   4   7   74.14    2.19
  -4  -4  -7   73.51    1.60
  -4  -4  -7   72.56    1.73
  -4  -4  -7   73.04    1.73
  -4  -4  -7   72.19    1.57
  -5  -4  -7   19.47    0.48
  -5  -4  -7   20.19    0.53
  -5  -4  -7   20.49    0.48
  -5  -4  -7   19.78    0.52
  -4   5   7    0.00    0.02
  -4   5   7    0.02    0.03
  -4   5   7    0.04    0.03
  -4   5   7    0.10    0.04
  -3   5   7   51.36    1.44
  -3   5   7   52.51    1.15
  -3   5   7   52.47    1.19
  -3   5   7   54.01    1.43
  -2   5   7   30.13    0.80
  -2   5   7   32.66    0.88
  -2   5   7   31.10    0.73
  -2   5   7   30.48    0.75
  -2   5   7   30.86    0.91
   1  -5  -7    0.43    0.09
  -1   5   7    0.49    0.07
  -1   5   7    0.39    0.05
  -1   5   7    0.41    0.05
  -1   5   7    0.44    0.09
  -1   5   7    0.37    0.07
  -1   5   7    0.42    0.07
  -1   5   7    0.43    0.05
   0  -5  -7    0.01    0.04
   0  -5  -7    0.05    0.04
   0   5   7    0.13    0.03
   0   5   7    0.03    0.03
   0   5   7    0.02    0.02
   0   5   7    0.18    0.06
   0   5   7    0.00    0.02
   0   5   7    0.03    0.03
   1   5   7   39.54    1.20
   1   5   7   37.85    1.19
   1   5   7   38.15    1.09
  -2  -5  -7    3.95    0.17
  -2  -5  -7    4.19    0.16
  -2  -5  -7    4.40    0.17
  -2  -5  -7    3.98    0.21
  -2  -5  -7    4.09    0.15
   2   5   7    4.06    0.17
   2   5   7    4.34    0.22
   2   5   7    4.15    0.16
  -3  -5  -7    3.88    0.15
  -3  -5  -7    4.05    0.16
  -3  -5  -7    3.85    0.16
  -3  -5  -7    3.68    0.15
   3   5   7    3.69    0.22
  -4  -5  -7  172.62    3.71
  -4  -5  -7  173.15    3.61
  -4  -5  -7  174.85    4.01
  -4  -5  -7  175.87    3.95
  -5  -5  -7   18.23    0.44
  -5  -5  -7   18.34    0.48
  -5  -5  -7   18.35    0.48
  -5  -5  -7   18.64    0.44
  -3   6   7    0.84    0.08
  -3   6   7    0.80    0.08
  -3   6   7    0.90    0.07
  -3   6   7    0.84    0.05
  -2   6   7  252.39    6.54
  -2   6   7  250.63    5.25
  -2   6   7  245.53    5.68
  -2   6   7  245.28    5.25
  -2   6   7  246.37    6.35
   1  -6  -7  167.88    4.91
  -1   6   7  161.86    4.90
  -1   6   7  172.74    4.34
  -1   6   7  171.74    3.90
  -1   6   7  165.89    3.48
  -1   6   7  167.18    3.58
  -1   6   7  167.01    3.59
   0  -6  -7   16.49    0.64
   0   6   7   17.26    0.44
   0   6   7   17.44    0.50
   0   6   7   17.47    0.44
   0   6   7   16.89    0.45
   0   6   7   16.71    0.41
   0   6   7   17.03    0.45
  -1  -6  -7    8.81    0.29
  -1  -6  -7    8.70    0.40
  -1  -6  -7    8.99    0.30
   1   6   7    8.81    0.30
   1   6   7    8.72    0.25
   1   6   7    8.70    0.28
   1   6   7    9.27    0.26
   1   6   7    8.66    0.27
  -2  -6  -7    4.53    0.19
  -2  -6  -7    4.73    0.19
  -2  -6  -7    4.80    0.18
  -2  -6  -7    4.30    0.18
   2   6   7    4.88    0.25
   2   6   7    4.55    0.18
   2   6   7    4.50    0.19
  -3  -6  -7   11.85    0.36
  -3  -6  -7   11.78    0.33
  -3  -6  -7   11.91    0.34
  -3  -6  -7   12.01    0.34
   3   6   7   11.51    0.47
   3   6   7   11.79    0.35
  -4  -6  -7    0.94    0.08
  -4  -6  -7    0.96    0.07
  -4  -6  -7    0.94    0.08
  -4  -6  -7    1.00    0.10
  -5  -6  -7    0.52    0.06
  -5  -6  -7    0.55    0.04
  -5  -6  -7    0.54    0.05
  -5  -6  -7    0.52    0.05
  -3   7   7    4.67    0.17
  -3   7   7    4.91    0.16
  -2   7   7   75.75    1.82
  -2   7   7   77.70    1.69
  -2   7   7   76.95    1.67
  -2   7   7   75.61    2.03
  -1   7   7   19.60    0.51
  -1   7   7   19.49    0.51
  -1   7   7   19.80    0.51
  -1   7   7   19.66    0.62
  -1   7   7   20.15    0.57
   0  -7  -7    3.31    0.24
   0   7   7    3.52    0.15
   0   7   7    3.85    0.16
   0   7   7    3.81    0.14
   0   7   7    3.36    0.16
   0   7   7    3.82    0.18
  -1  -7  -7    2.86    0.22
  -1  -7  -7    2.86    0.15
  -1  -7  -7    2.97    0.15
   1   7   7    2.79    0.14
   1   7   7    2.94    0.16
   1   7   7    2.74    0.14
   1   7   7    3.10    0.13
   1   7   7    2.84    0.13
  -2  -7  -7    0.15    0.05
  -2  -7  -7    0.26    0.06
  -2  -7  -7    0.33    0.05
   2   7   7    0.17    0.04
   2   7   7    0.25    0.07
   2   7   7    0.19    0.04
   2   7   7    0.15    0.04
  -3  -7  -7   38.45    0.99
  -3  -7  -7   41.17    0.92
  -3  -7  -7   41.26    0.97
   3   7   7   39.24    0.93
   3   7   7   39.97    0.99
  -4  -7  -7   13.60    0.38
  -4  -7  -7   13.68    0.36
  -4  -7  -7   13.65    0.40
  -4  -7  -7   13.68    0.35
  -2   8   7    0.00    0.02
  -2   8   7    0.04    0.03
  -2   8   7    0.01    0.03
  -2   8   7    0.08    0.03
  -1   8   7   23.73    0.58
  -1   8   7   23.37    0.64
  -1   8   7   23.74    0.58
  -1   8   7   23.24    0.70
  -1   8   7   23.86    0.58
   0   8   7    0.90    0.08
   0   8   7    1.00    0.08
   0   8   7    0.94    0.08
   0   8   7    0.81    0.09
  -1  -8  -7   24.20    0.65
  -1  -8  -7   23.72    0.63
   1   8   7   24.88    0.61
   1   8   7   24.69    0.59
   1   8   7   20.85    0.65
   1   8   7   24.22    0.57
   1   8   7   25.33    0.62
  -2  -8  -7   43.92    1.07
  -2  -8  -7   44.36    1.01
   2   8   7   42.46    0.99
   2   8   7   43.75    1.06
   2   8   7   42.91    0.98
  -3  -8  -7   11.88    0.32
  -3  -8  -7   11.95    0.33
   3   8   7   11.35    0.31
   3   8   7   11.62    0.33
   3   8   7   11.53    0.35
  -4  -8  -7   15.83    0.37
  -4  -8  -7   15.34    0.41
  -4  -8  -7   14.21    0.39
   4   8   7   14.28    0.37
  -1   9   7    0.04    0.03
  -1   9   7    0.04    0.03
  -1   9   7    0.04    0.02
  -1   9   7    0.06    0.03
  -1   9   7    0.04    0.02
   0  -9  -7   21.78    0.57
   0   9   7   22.42    0.65
   0   9   7   22.34    0.55
   0   9   7   22.22    0.60
   0   9   7   22.10    0.55
   0   9   7   22.26    0.54
  -1  -9  -7   29.31    0.71
  -1  -9  -7   28.14    0.74
   1   9   7   28.84    0.69
   1   9   7   29.43    0.68
   1   9   7   28.80    0.68
  -2  -9  -7    5.68    0.20
   2   9   7    5.78    0.19
   2   9   7    5.72    0.17
   2   9   7    5.39    0.17
  -3  -9  -7    5.58    0.16
  -3  -9  -7    5.24    0.20
   3   9   7    5.54    0.17
   3   9   7    5.60    0.18
   0  10   7    3.90    0.13
  -1 -10  -7    2.18    0.11
   1  10   7    1.96    0.09
   1  10   7    2.02    0.11
  -2 -10  -7    0.97    0.06
   2  10   7    1.04    0.05
   2   9  -8   13.34    0.34
   2   9  -8   12.38    0.31
   1   9  -8   35.29    0.75
   1   9  -8   35.53    0.84
   1   9  -8   36.71    0.77
  -1  -9   8   35.46    0.81
  -1  -9   8   37.37    0.87
   0   9  -8   17.05    0.40
   0   9  -8   17.24    0.42
   0   9  -8   17.20    0.40
   0  -9   8   17.07    0.44
   0  -9   8   17.18    0.46
  -1   9  -8    1.35    0.08
  -1   9  -8    1.53    0.08
   3   8  -8    2.17    0.10
   3   8  -8    2.14    0.08
  -3  -8   8    2.14    0.09
   2   8  -8   37.17    0.80
   2   8  -8   37.81    0.91
   2   8  -8   37.47    0.86
  -2  -8   8   37.56    0.89
   1   8  -8   29.83    0.65
   1   8  -8   29.06    0.73
   1   8  -8   28.60    0.68
  -1  -8   8   29.04    0.74
  -1  -8   8   29.58    0.71
   0   8  -8    4.93    0.17
   0   8  -8    4.93    0.18
   0   8  -8    4.89    0.16
   0   8  -8    5.10    0.19
   0  -8   8    5.18    0.21
   0  -8   8    4.98    0.20
  -1   8  -8    4.78    0.17
  -1   8  -8    4.71    0.19
  -1   8  -8    4.80    0.17
  -1   8  -8    4.56    0.17
  -1   8  -8    4.53    0.17
  -2   8  -8    0.08    0.03
  -2   8  -8   -0.03    0.03
  -2   8  -8    0.07    0.03
  -2   8  -8    0.06    0.03
  -2   8  -8    0.05    0.04
   3   7  -8   38.23    0.79
   3   7  -8   37.80    0.87
  -3  -7   8   37.01    0.93
  -3  -7   8   37.00    0.91
  -3  -7   8   36.69    0.85
  -3  -7   8   38.24    0.82
   2   7  -8    2.45    0.11
   2   7  -8    2.40    0.13
   2   7  -8    2.44    0.13
  -2  -7   8    2.31    0.11
  -2  -7   8    2.32    0.11
  -2  -7   8    2.63    0.13
   1   7  -8   11.45    0.32
   1   7  -8   11.29    0.30
   1   7  -8   11.10    0.34
   1   7  -8   10.86    0.32
  -1  -7   8   11.61    0.34
  -1  -7   8   10.90    0.35
  -1  -7   8    9.72    0.45
   0   7  -8    4.16    0.18
   0   7  -8    4.17    0.19
   0   7  -8    4.11    0.16
   0   7  -8    4.10    0.16
   0   7  -8    3.96    0.15
   0  -7   8    3.98    0.18
   0  -7   8    4.20    0.18
  -1   7  -8   34.96    0.84
  -1   7  -8   36.30    0.84
  -1   7  -8   35.90    0.80
  -1   7  -8   35.83    0.92
  -1   7  -8   35.29    0.80
  -2   7  -8    8.27    0.25
  -2   7  -8    8.21    0.25
  -2   7  -8    8.38    0.26
  -2   7  -8    8.77    0.26
  -2   7  -8    8.56    0.28
  -3   7  -8    0.02    0.03
  -3   7  -8    0.03    0.03
  -3   7  -8    0.02    0.03
  -3   7  -8    0.02    0.03
  -3   7  -8    0.00    0.02
  -4  -6   8    0.19    0.04
  -4  -6   8    0.15    0.03
  -4  -6   8    0.15    0.03
  -4  -6   8    0.23    0.05
  -3  -6   8    3.19    0.14
  -3  -6   8    3.42    0.13
  -3  -6   8    3.34    0.13
  -3  -6   8    3.43    0.14
  -3  -6   8    3.38    0.18
   2   6  -8    0.25    0.06
   2   6  -8    0.21    0.05
  -2  -6   8    0.26    0.05
  -2  -6   8    0.17    0.05
  -2  -6   8    0.25    0.06
  -2  -6   8    0.38    0.06
  -2  -6   8    0.17    0.08
   1   6  -8   35.35    0.76
   1   6  -8   33.36    1.13
   1   6  -8   35.45    0.83
   1   6  -8   34.44    0.88
   1   6  -8   34.20    0.82
  -1  -6   8   35.93    0.79
  -1  -6   8   36.23    0.85
  -1  -6   8   34.34    0.88
   0   6  -8   29.24    0.72
   0   6  -8   30.15    0.70
   0   6  -8   28.91    0.78
   0   6  -8   30.23    0.67
   0   6  -8   30.92    0.75
   0   6  -8   29.87    0.72
   0  -6   8   30.06    0.77
   0  -6   8   29.88    0.74
   0  -6   8   29.18    0.81
   0  -6   8   27.41    1.01
  -1   6  -8   21.01    0.53
  -1   6  -8   21.51    0.53
  -1   6  -8   20.69    0.50
  -1   6  -8   21.54    0.58
  -1   6  -8   20.96    0.52
   1  -6   8   19.89    0.59
   1  -6   8   20.61    0.77
  -2   6  -8    1.33    0.10
  -2   6  -8    1.21    0.08
  -2   6  -8    1.19    0.09
  -2   6  -8    1.09    0.09
  -2   6  -8    1.07    0.08
  -2   6  -8    1.23    0.10
  -3   6  -8    4.54    0.17
  -3   6  -8    4.31    0.17
  -3   6  -8    4.45    0.15
  -3   6  -8    4.43    0.17
  -3   6  -8    4.58    0.17
  -3   6  -8    4.53    0.15
  -4  -5   8   18.49    0.47
  -4  -5   8   17.93    0.42
  -4  -5   8   18.45    0.44
  -4  -5   8   18.04    0.50
  -4  -5   8   18.27    0.47
  -4  -5   8   16.41    0.51
  -3  -5   8   10.07    0.45
  -3  -5   8   11.00    0.30
  -3  -5   8   10.94    0.30
  -3  -5   8   11.26    0.33
   2   5  -8   15.61    0.44
   2   5  -8   15.72    0.60
  -2  -5   8   16.84    0.42
  -2  -5   8   15.86    0.61
  -2  -5   8   16.75    0.42
  -2  -5   8   16.68    0.45
  -2  -5   8   16.09    0.45
  -2  -5   8   16.29    0.41
   1   5  -8   26.10    0.85
   1   5  -8   24.32    0.65
   1   5  -8   25.79    0.62
   1   5  -8   24.33    0.61
  -1  -5   8   25.45    0.63
  -1  -5   8   24.85    0.65
  -1  -5   8   25.36    0.59
  -1  -5   8   24.70    0.64
   0   5  -8    2.05    0.12
   0   5  -8    2.03    0.11
   0   5  -8    2.18    0.10
   0   5  -8    2.03    0.10
   0   5  -8    2.11    0.11
   0   5  -8    2.14    0.10
   0  -5   8    2.13    0.13
   0  -5   8    2.18    0.12
   0  -5   8    2.18    0.17
   0  -5   8    2.12    0.12
  -1   5  -8    5.71    0.21
  -1   5  -8    5.74    0.20
  -1   5  -8    5.32    0.18
  -1   5  -8    5.36    0.17
  -1   5  -8    5.71    0.19
  -1   5  -8    5.28    0.18
  -1   5  -8    5.60    0.20
   1  -5   8    5.43    0.28
   1  -5   8    5.42    0.21
  -2   5  -8    1.66    0.10
  -2   5  -8    1.50    0.10
  -2   5  -8    1.56    0.11
  -2   5  -8    1.62    0.09
  -2   5  -8    1.62    0.10
  -2   5  -8    1.67    0.11
   2  -5   8    1.52    0.11
   2  -5   8    1.51    0.14
  -3   5  -8  104.83    2.48
  -3   5  -8  107.79    2.18
  -3   5  -8  107.49    2.29
  -3   5  -8  107.09    2.43
  -3   5  -8  103.14    2.83
  -3   5  -8  107.16    1.83
  -3   5  -8  107.72    2.18
  -4   5  -8    0.36    0.06
  -4   5  -8    0.41    0.05
  -4   5  -8    0.44    0.06
  -4   5  -8    0.32    0.03
  -4   5  -8    0.36    0.05
  -4  -4   8   13.62    0.34
  -4  -4   8   13.21    0.37
  -4  -4   8   13.94    0.42
  -4  -4   8   12.89    0.41
  -4  -4   8   13.24    0.34
  -3  -4   8   55.53    1.48
  -3  -4   8   52.79    1.71
  -3  -4   8   55.81    1.20
  -3  -4   8   56.11    1.23
  -3  -4   8   56.47    1.33
   2   4  -8   27.05    0.88
  -2  -4   8   26.19    0.67
  -2  -4   8   28.50    0.62
  -2  -4   8   25.81    0.89
  -2  -4   8   25.33    0.66
  -2  -4   8   26.07    0.62
  -2  -4   8   26.33    0.62
   1   4  -8   68.37    1.51
   1   4  -8   64.66    1.61
   1   4  -8   73.28    2.07
  -1  -4   8   73.03    1.73
  -1  -4   8   66.01    1.85
  -1  -4   8   67.78    1.60
  -1  -4   8   68.88    1.51
  -1  -4   8   69.49    1.46
  -1  -4   8   70.14    1.62
   0   4  -8   34.85    1.01
   0   4  -8   35.71    1.10
   0  -4   8   35.75    1.13
   0  -4   8   35.44    0.91
  -1   4  -8   27.31    0.64
  -1   4  -8   28.37    0.81
  -1   4  -8   27.20    0.63
  -1   4  -8   27.63    0.70
  -1   4  -8   27.50    0.67
  -1   4  -8   26.71    0.61
   1  -4   8   29.97    0.91
   1  -4   8   27.12    0.72
   1  -4   8   26.46    0.86
  -2   4  -8  133.88    2.66
  -2   4  -8  130.72    2.67
  -2   4  -8  133.53    2.83
  -2   4  -8  128.76    3.50
  -2   4  -8  133.50    3.06
  -2   4  -8  129.93    2.75
  -2   4  -8  131.91    3.29
  -2   4  -8  133.22    2.99
   2  -4   8  134.60    3.87
   2  -4   8  133.31    3.16
  -3   4  -8  181.11    4.01
  -3   4  -8  173.24    3.58
  -3   4  -8  180.42    3.57
  -3   4  -8  177.10    4.70
  -3   4  -8  184.47    3.79
  -3   4  -8  174.63    4.09
  -4   4  -8    3.44    0.15
  -4   4  -8    3.60    0.13
  -4   4  -8    3.47    0.13
  -4   4  -8    3.83    0.15
  -4   4  -8    3.50    0.12
  -5  -3   8    6.03    0.20
  -5  -3   8    6.75    0.20
  -4  -3   8  102.41    2.13
  -4  -3   8  100.54    2.35
  -4  -3   8   98.87    2.58
  -4  -3   8   95.10    2.29
   3   3  -8   32.91    1.07
  -3  -3   8   32.38    0.74
  -3  -3   8   32.95    0.82
  -3  -3   8   33.32    0.76
  -3  -3   8   32.46    1.09
  -3  -3   8   34.44    0.93
   2   3  -8    7.54    0.30
   2   3  -8    8.29    0.33
  -2  -3   8    7.31    0.23
  -2  -3   8    7.32    0.22
  -2  -3   8    7.50    0.34
  -2  -3   8    7.46    0.24
  -2  -3   8    7.97    0.22
   1   3  -8   33.19    1.02
   1   3  -8   32.79    0.98
  -1  -3   8   32.84    0.85
  -1  -3   8   31.06    1.01
  -1  -3   8   33.14    0.92
   0   3  -8    3.15    0.15
   0   3  -8    3.07    0.16
   0  -3   8    3.17    0.15
   0  -3   8    3.12    0.17
  -1   3  -8   20.87    0.56
  -1   3  -8   20.93    0.61
   1  -3   8   20.39    0.67
   1  -3   8   20.44    0.64
   1  -3   8   19.39    0.54
  -2   3  -8   23.15    0.59
  -2   3  -8   23.51    0.59
  -2   3  -8   23.24    0.55
  -2   3  -8   23.08    0.54
  -2   3  -8   23.40    0.69
  -2   3  -8   23.23    0.65
  -2   3  -8   23.21    0.55
  -2   3  -8   23.31    0.67
   2  -3   8   24.45    0.77
   2  -3   8   22.90    0.73
  -3   3  -8  110.62    2.63
  -3   3  -8  114.98    2.59
  -3   3  -8  113.95    3.01
  -3   3  -8  115.84    2.44
  -3   3  -8  114.87    2.32
  -4   3  -8   89.51    1.95
  -4   3  -8   91.67    2.41
  -4   3  -8   92.23    1.59
  -4   3  -8   89.26    1.87
  -4   3  -8   93.05    2.09
  -5   3  -8    0.20    0.03
  -5   3  -8    0.13    0.03
  -5  -2   8    4.91    0.16
  -5  -2   8    5.04    0.17
  -5  -2   8    4.84    0.16
  -5  -2   8    4.69    0.17
  -4  -2   8    0.02    0.04
  -4  -2   8    0.05    0.03
  -4  -2   8    0.05    0.04
  -4  -2   8    0.04    0.04
  -4  -2   8    0.01    0.01
   3   2  -8    9.39    0.37
  -3  -2   8    9.13    0.40
  -3  -2   8    9.15    0.33
  -3  -2   8    9.06    0.31
  -3  -2   8    9.29    0.33
  -3  -2   8    8.93    0.25
  -3  -2   8    8.93    0.28
  -3  -2   8   10.55    0.26
   2   2  -8  164.22    4.68
   2   2  -8  176.51    4.82
  -2  -2   8  170.01    3.54
  -2  -2   8  163.47    4.78
  -2  -2   8  163.41    3.93
  -2  -2   8  169.91    4.32
  -2  -2   8  163.78    3.83
   1   2  -8    4.02    0.18
   1   2  -8    4.69    0.20
  -1  -2   8    4.33    0.18
   0   2  -8   20.51    0.64
   0   2  -8   19.43    0.59
   0  -2   8   19.17    0.64
   0  -2   8   20.58    0.58
   0  -2   8   19.71    0.61
  -1   2  -8  194.38    5.03
   1  -2   8  192.49    5.37
   1  -2   8  193.36    5.53
  -2   2  -8   73.99    1.93
  -2   2  -8   73.16    1.83
  -2   2  -8   69.02    1.92
   2  -2   8   72.16    2.06
   2  -2   8   73.44    2.13
  -3   2  -8    0.92    0.06
  -3   2  -8    0.84    0.08
  -3   2  -8    0.97    0.07
  -3   2  -8    0.95    0.06
  -3   2  -8    1.09    0.08
  -3   2  -8    0.89    0.10
   3  -2   8    0.88    0.09
  -4   2  -8   38.65    0.90
  -4   2  -8   42.13    1.00
  -4   2  -8   41.71    1.11
  -4   2  -8   41.54    0.78
  -4   2  -8   40.98    0.91
  -5   2  -8   17.59    0.49
  -5   2  -8   17.36    0.35
  -5   2  -8   17.60    0.45
  -5  -1   8    0.48    0.05
  -5  -1   8    0.47    0.05
  -5  -1   8    0.49    0.05
  -5  -1   8    0.45    0.06
  -4  -1   8   53.15    1.32
  -4  -1   8   53.25    1.34
  -4  -1   8   54.89    1.46
  -4  -1   8   53.41    1.17
  -3  -1   8   76.14    1.86
  -3  -1   8   79.50    1.91
  -3  -1   8   81.23    2.11
  -3  -1   8   81.38    1.71
  -3  -1   8   80.61    1.94
  -3  -1   8   78.12    2.36
   2   1  -8    0.87    0.09
  -2  -1   8    0.71    0.08
  -2  -1   8    0.75    0.06
  -2  -1   8    0.58    0.08
   1   1  -8  166.42    4.60
   1   1  -8  163.26    4.78
  -1  -1   8  160.71    4.74
  -1  -1   8  170.12    4.30
   0   1  -8    8.75    0.32
   0   1  -8    8.65    0.30
   0   1  -8    8.88    0.30
   0  -1   8    8.66    0.29
   0  -1   8    9.03    0.30
   0  -1   8    8.72    0.31
  -1   1  -8   76.74    2.24
  -1   1  -8   76.97    2.03
   1  -1   8   76.12    2.24
   1  -1   8   79.05    2.18
  -2   1  -8    6.07    0.22
  -2   1  -8    6.34    0.24
   2  -1   8    6.29    0.24
   2  -1   8    6.41    0.25
  -3   1  -8    2.86    0.12
  -3   1  -8    2.78    0.13
  -3   1  -8    2.47    0.11
  -3   1  -8    2.59    0.10
  -3   1  -8    2.74    0.16
   3  -1   8    2.65    0.15
  -4   1  -8    0.02    0.01
  -4   1  -8    0.07    0.04
  -4   1  -8    0.03    0.03
  -5   1  -8    0.05    0.03
  -5   1  -8    0.01    0.02
  -5   1  -8    0.03    0.03
  -5   0   8   11.68    0.36
  -5   0   8   12.14    0.32
  -4   0   8   26.15    0.62
  -4   0   8   27.55    0.73
  -4   0   8   26.99    0.78
  -4   0   8   27.30    0.62
  -4   0   8   25.63    0.70
  -4   0   8   26.62    0.70
  -4   0   8   26.80    0.60
  -3   0   8  107.52    2.51
  -3   0   8  107.04    2.80
  -3   0   8  106.81    2.58
  -3   0   8  108.04    2.28
  -3   0   8  103.43    3.10
  -3   0   8  108.69    2.83
   2   0  -8    0.75    0.07
   2   0  -8    0.69    0.08
  -2   0   8    0.61    0.07
  -2   0   8    0.87    0.07
  -2   0   8    0.55    0.06
  -2   0   8    0.66    0.09
   1   0  -8   49.71    1.42
   1   0  -8   49.33    1.46
  -1   0   8   48.66    1.31
  -1   0   8   48.49    1.47
   0   0  -8    3.50    0.15
   0   0  -8    3.45    0.16
   0   0  -8    3.76    0.16
   0   0   8    3.19    0.15
   0   0   8    3.52    0.15
   0   0   8    3.37    0.15
  -1   0  -8  360.60   10.55
  -1   0  -8  361.89    9.50
   1   0   8  372.81    9.52
   1   0   8  366.29   10.17
   1   0   8  358.53   10.51
  -2   0  -8    0.53    0.06
  -2   0  -8    0.64    0.06
   2   0   8    0.68    0.07
  -3   0  -8    0.10    0.03
  -3   0  -8    0.01    0.01
  -3   0  -8    0.04    0.03
  -3   0  -8    0.04    0.03
  -3   0  -8    0.02    0.03
  -3   0  -8    0.03    0.02
   3   0   8    0.06    0.05
   3   0   8    0.03    0.03
  -4   0  -8    4.60    0.16
  -4   0  -8    4.98    0.18
  -4   0  -8    4.93    0.19
  -4   0  -8    4.77    0.15
  -5   0  -8    0.31    0.06
  -5   1   8    0.06    0.03
  -4   1   8   14.52    0.43
  -4   1   8   14.51    0.42
  -4   1   8   14.41    0.37
  -4   1   8   14.47    0.41
  -4   1   8   14.10    0.47
  -4   1   8   14.89    0.37
  -3   1   8    1.73    0.12
  -3   1   8    1.43    0.10
  -3   1   8    1.63    0.07
  -3   1   8    1.63    0.12
  -3   1   8    1.40    0.09
  -2   1   8    0.05    0.04
  -2   1   8    0.19    0.05
   1  -1  -8   87.78    2.43
   1  -1  -8   84.94    2.50
  -1   1   8   85.27    2.24
  -1   1   8   84.65    2.52
   0  -1  -8  133.49    3.50
   0  -1  -8  136.58    3.78
   0  -1  -8  137.07    3.94
   0   1   8  135.59    3.87
   0   1   8  133.41    3.49
  -1  -1  -8   35.70    1.11
  -1  -1  -8   36.58    1.02
   1   1   8   36.85    1.07
   1   1   8   36.30    1.01
   1   1   8   38.48    1.11
  -2  -1  -8   13.16    0.42
  -2  -1  -8   13.13    0.38
   2   1   8   13.11    0.43
   2   1   8   12.82    0.44
  -3  -1  -8    7.44    0.21
  -3  -1  -8    8.00    0.29
  -3  -1  -8    7.41    0.23
  -3  -1  -8    7.25    0.25
  -3  -1  -8    7.47    0.28
  -3  -1  -8    7.34    0.23
  -3  -1  -8    7.44    0.22
   3   1   8    7.45    0.29
   3   1   8    7.96    0.31
  -4  -1  -8   35.79    0.89
  -4  -1  -8   35.81    0.90
  -4  -1  -8   36.93    0.82
  -4  -1  -8   35.06    0.88
  -5  -1  -8   58.52    1.36
  -5  -1  -8   57.39    1.25
  -4   2   8    4.92    0.17
  -4   2   8    4.96    0.22
  -4   2   8    4.84    0.19
  -4   2   8    4.88    0.16
  -4   2   8    5.11    0.18
  -4   2   8    4.86    0.17
  -3   2   8    0.13    0.05
  -3   2   8    0.14    0.04
  -3   2   8    0.13    0.04
  -3   2   8    0.12    0.04
  -3   2   8    0.10    0.02
  -3   2   8    0.15    0.05
  -3   2   8    0.12    0.05
   2  -2  -8   14.47    0.50
   2  -2  -8   15.51    0.52
  -2   2   8   15.11    0.37
  -2   2   8   15.47    0.45
  -2   2   8   14.76    0.44
  -2   2   8   15.45    0.48
  -2   2   8   15.22    0.46
  -2   2   8   15.36    0.56
   1  -2  -8  204.48    5.58
   1  -2  -8  200.83    5.74
  -1   2   8  200.49    5.78
  -1   2   8  196.23    5.19
   0  -2  -8   26.40    0.80
   0  -2  -8   26.84    0.83
   0   2   8   26.62    0.80
   0   2   8   25.45    0.75
  -1  -2  -8   81.17    2.41
  -1  -2  -8   81.99    2.18
   1   2   8   81.61    2.17
   1   2   8   81.84    2.32
   1   2   8   85.61    2.40
  -2  -2  -8  123.59    2.96
  -2  -2  -8  122.14    3.17
   2   2   8  120.72    3.50
   2   2   8  118.09    3.40
  -3  -2  -8  156.85    3.31
  -3  -2  -8  158.18    3.41
  -3  -2  -8  161.34    3.69
  -3  -2  -8  159.89    3.95
  -3  -2  -8  158.86    3.63
  -3  -2  -8  168.82    4.20
   3   2   8  156.18    4.51
   3   2   8  165.85    4.64
  -4  -2  -8   20.86    0.51
  -4  -2  -8   21.25    0.51
  -4  -2  -8   21.13    0.56
  -4  -2  -8   21.79    0.58
  -4  -2  -8   20.85    0.54
   4   2   8   20.61    0.71
  -5  -2  -8   27.62    0.68
  -5  -2  -8   25.61    0.66
  -5  -2  -8   27.18    0.61
  -5  -2  -8   26.79    0.67
  -4   3   8   10.07    0.28
  -4   3   8   10.19    0.35
  -4   3   8   10.66    0.29
  -4   3   8    9.89    0.31
  -4   3   8   10.08    0.31
  -3   3   8    8.52    0.27
  -3   3   8    8.80    0.34
  -3   3   8    8.94    0.24
  -3   3   8    8.75    0.30
  -3   3   8    8.77    0.27
  -3   3   8    8.78    0.28
   2  -3  -8    0.81    0.09
  -2   3   8    0.86    0.07
  -2   3   8    0.82    0.07
  -2   3   8    0.83    0.11
  -2   3   8    0.87    0.06
  -2   3   8    0.71    0.08
  -2   3   8    0.87    0.09
  -2   3   8    0.88    0.08
   1  -3  -8    2.81    0.16
   1  -3  -8    2.84    0.17
  -1   3   8    2.90    0.14
   0  -3  -8  118.83    3.45
   0  -3  -8  118.53    3.35
   0   3   8  115.82    3.09
   0   3   8  121.72    3.46
  -1  -3  -8   20.41    0.63
  -1  -3  -8   21.20    0.69
   1   3   8   19.96    0.62
   1   3   8   21.53    0.67
  -2  -3  -8   24.92    0.77
   2   3   8   26.90    0.83
   2   3   8   25.36    0.79
  -3  -3  -8  166.48    3.73
  -3  -3  -8  164.24    3.79
  -3  -3  -8  160.15    3.51
  -3  -3  -8  162.38    3.41
   3   3   8  171.00    4.77
  -4  -3  -8   75.17    1.76
  -4  -3  -8   75.61    1.77
  -4  -3  -8   74.66    1.64
  -4  -3  -8   73.36    1.60
  -5  -3  -8   13.47    0.33
  -5  -3  -8   13.23    0.37
  -5  -3  -8   12.90    0.36
  -4   4   8   14.35    0.43
  -4   4   8   14.03    0.40
  -4   4   8   13.52    0.35
  -4   4   8   13.89    0.35
  -3   4   8   33.01    0.91
  -3   4   8   32.20    0.77
  -3   4   8   32.67    0.95
  -3   4   8   32.38    0.73
  -3   4   8   32.58    0.79
  -3   4   8   32.49    0.85
  -2   4   8    0.03    0.04
  -2   4   8    0.00    0.03
  -2   4   8    0.03    0.05
  -2   4   8    0.03    0.03
  -2   4   8    0.00    0.02
  -2   4   8    0.12    0.04
  -2   4   8   -0.01    0.03
   1  -4  -8   15.51    0.56
   1  -4  -8   14.46    0.52
  -1   4   8   15.82    0.55
  -1   4   8   14.78    0.39
  -1   4   8   14.55    0.39
  -1   4   8   15.48    0.45
  -1   4   8   15.48    0.43
  -1   4   8   14.41    0.38
  -1   4   8   15.15    0.48
   0  -4  -8    0.98    0.11
   0  -4  -8    0.90    0.10
   0   4   8    1.09    0.10
   0   4   8    1.15    0.09
  -1  -4  -8   10.82    0.41
  -1  -4  -8   10.86    0.42
   1   4   8   10.74    0.40
   1   4   8   10.69    0.38
  -2  -4  -8    2.97    0.13
  -2  -4  -8    2.92    0.13
  -2  -4  -8    2.83    0.13
  -2  -4  -8    2.90    0.13
  -2  -4  -8    2.90    0.17
   2   4   8    2.81    0.16
   2   4   8    3.10    0.17
  -3  -4  -8  152.80    3.47
  -3  -4  -8  147.60    3.12
  -3  -4  -8  149.51    3.21
  -3  -4  -8  153.71    3.43
  -3  -4  -8  149.09    3.36
   3   4   8  149.03    4.37
  -4  -4  -8  295.53    6.03
  -4  -4  -8  293.13    6.22
  -4  -4  -8  288.96    6.59
  -4  -4  -8  301.71    6.72
  -5  -4  -8    1.67    0.10
  -5  -4  -8    1.72    0.08
  -5  -4  -8    1.72    0.09
  -5  -4  -8    1.65    0.08
  -4   5   8    6.77    0.24
  -4   5   8    7.15    0.20
  -3   5   8   38.59    0.84
  -3   5   8   37.67    1.04
  -3   5   8   37.79    1.06
  -3   5   8   36.29    0.87
  -2   5   8   25.62    0.69
  -2   5   8   27.80    0.75
  -2   5   8   24.68    0.90
  -2   5   8   25.71    0.62
  -2   5   8   25.91    0.64
  -2   5   8   26.65    0.79
   1  -5  -8  125.02    3.64
  -1   5   8  119.70    2.65
  -1   5   8  126.72    3.22
  -1   5   8  122.55    2.65
  -1   5   8  128.71    2.89
  -1   5   8  122.28    3.64
  -1   5   8  121.06    3.28
  -1   5   8  120.28    2.58
   0  -5  -8    0.60    0.10
   0  -5  -8    0.63    0.09
   0   5   8    0.65    0.08
   0   5   8    0.62    0.05
   0   5   8    0.57    0.05
   0   5   8    0.61    0.06
   0   5   8    0.65    0.08
   0   5   8    0.63    0.09
   0   5   8    0.60    0.06
   0   5   8    0.56    0.06
  -1  -5  -8  152.84    3.09
  -1  -5  -8  134.47    3.26
  -1  -5  -8  148.02    4.23
   1   5   8  146.43    3.06
   1   5   8  142.63    4.20
   1   5   8  141.69    3.01
   1   5   8  149.14    3.35
   1   5   8  145.12    4.18
   1   5   8  144.44    3.25
   1   5   8  139.66    3.77
  -2  -5  -8  106.09    2.41
  -2  -5  -8  101.24    2.36
  -2  -5  -8  101.31    2.23
  -2  -5  -8  104.86    2.18
   2   5   8  103.56    2.22
   2   5   8  100.36    2.36
   2   5   8  102.99    3.04
  -3  -5  -8    1.87    0.11
  -3  -5  -8    2.04    0.10
  -3  -5  -8    2.03    0.11
  -3  -5  -8    1.96    0.10
  -3  -5  -8    2.17    0.14
   3   5   8    1.99    0.16
  -4  -5  -8   39.33    0.91
  -4  -5  -8   38.70    0.98
  -4  -5  -8   40.36    0.98
  -4  -5  -8   39.35    0.90
  -5  -5  -8    8.79    0.24
  -5  -5  -8    8.80    0.27
  -5  -5  -8    8.78    0.26
  -5  -5  -8    8.93    0.24
  -3   6   8   10.61    0.36
  -3   6   8   10.71    0.30
  -3   6   8   11.16    0.27
  -3   6   8   10.87    0.34
  -2   6   8  202.88    5.43
  -2   6   8  204.58    4.73
  -2   6   8  211.44    4.37
  -2   6   8  203.07    4.37
  -2   6   8  205.32    5.28
   1  -6  -8   46.58    1.53
  -1   6   8   48.73    1.10
  -1   6   8   49.21    1.34
  -1   6   8   47.56    1.08
  -1   6   8   46.11    1.52
  -1   6   8   48.91    1.10
  -1   6   8   49.47    1.21
   0  -6  -8   53.81    1.71
   0   6   8   52.75    1.23
   0   6   8   55.67    1.22
   0   6   8   54.14    1.34
   0   6   8   55.52    1.26
   0   6   8   54.35    1.21
   0   6   8   53.07    1.17
  -1  -6  -8    0.30    0.07
  -1  -6  -8    0.30    0.06
  -1  -6  -8    0.41    0.10
   1   6   8    0.41    0.06
   1   6   8    0.40    0.05
   1   6   8    0.41    0.05
   1   6   8    0.43    0.06
   1   6   8    0.53    0.07
  -2  -6  -8    1.80    0.11
  -2  -6  -8    1.77    0.10
   2   6   8    1.86    0.15
   2   6   8    1.84    0.11
   2   6   8    1.82    0.11
  -3  -6  -8    7.96    0.24
  -3  -6  -8    7.43    0.24
  -3  -6  -8    7.34    0.24
  -3  -6  -8    6.94    0.25
   3   6   8    6.94    0.24
  -4  -6  -8    4.38    0.17
  -4  -6  -8    4.41    0.17
  -4  -6  -8    4.24    0.19
  -4  -6  -8    4.43    0.16
  -5  -6  -8    0.69    0.07
  -5  -6  -8    0.65    0.04
  -5  -6  -8    0.68    0.05
  -5  -6  -8    0.65    0.05
  -3   7   8   10.08    0.26
  -2   7   8    2.03    0.13
  -2   7   8    2.19    0.10
  -2   7   8    2.10    0.11
  -2   7   8    2.08    0.12
  -1   7   8    0.71    0.07
  -1   7   8    0.67    0.07
  -1   7   8    0.67    0.07
  -1   7   8    0.73    0.09
  -1   7   8    0.84    0.09
   0   7   8   32.88    0.78
   0   7   8   33.20    0.78
   0   7   8   32.83    0.79
   0   7   8   33.75    0.87
   0   7   8   32.05    0.79
  -1  -7  -8    6.53    0.25
  -1  -7  -8    5.67    0.32
  -1  -7  -8    6.53    0.24
   1   7   8    6.51    0.23
   1   7   8    6.41    0.20
   1   7   8    6.35    0.22
   1   7   8    6.65    0.21
  -2  -7  -8    0.13    0.04
  -2  -7  -8    0.10    0.04
   2   7   8    0.09    0.04
   2   7   8    0.31    0.05
   2   7   8    0.15    0.04
  -3  -7  -8    2.34    0.12
  -3  -7  -8    2.30    0.12
  -3  -7  -8    2.56    0.12
   3   7   8    2.33    0.13
   3   7   8    2.37    0.12
  -4  -7  -8    3.87    0.15
  -4  -7  -8    3.92    0.15
  -4  -7  -8    4.14    0.17
  -4  -7  -8    3.79    0.14
   4   7   8    3.86    0.15
  -2   8   8    0.15    0.03
  -2   8   8    0.07    0.03
  -2   8   8    0.08    0.03
  -2   8   8    0.06    0.03
  -1   8   8   39.41    1.11
  -1   8   8   40.54    0.92
  -1   8   8   39.79    0.92
  -1   8   8   40.61    0.90
  -1   8   8   39.48    1.01
   0  -8  -8   15.31    0.46
   0   8   8   14.25    0.44
   0   8   8   15.21    0.40
   0   8   8   14.64    0.40
  -1  -8  -8    1.30    0.10
  -1  -8  -8    1.30    0.11
   1   8   8    1.34    0.10
   1   8   8    1.21    0.08
   1   8   8    1.22    0.08
   1   8   8    1.24    0.07
  -2  -8  -8    0.13    0.04
   2   8   8    0.06    0.03
   2   8   8    0.02    0.03
   2   8   8    0.06    0.04
  -3  -8  -8   13.99    0.41
  -3  -8  -8   14.37    0.37
  -3  -8  -8   14.26    0.38
   3   8   8   14.22    0.40
   3   8   8   14.21    0.36
   3   8   8   14.14    0.37
  -4  -8  -8    4.91    0.17
  -4  -8  -8    4.71    0.15
   4   8   8    4.46    0.15
   4   8   8    4.33    0.14
  -1   9   8    3.10    0.12
  -1   9   8    3.07    0.12
  -1   9   8    3.01    0.14
  -1   9   8    3.24    0.12
   0  -9  -8    5.60    0.21
   0   9   8    5.84    0.19
   0   9   8    6.02    0.20
   0   9   8    5.74    0.23
   0   9   8    5.70    0.19
  -1  -9  -8    5.24    0.20
   1   9   8    5.07    0.17
   1   9   8    5.12    0.16
   1   9   8    5.07    0.18
  -2  -9  -8   32.50    0.79
   2   9   8   31.75    0.73
   2   9   8   31.98    0.72
   2   9   8   32.32    0.77
  -3  -9  -8    5.34    0.15
  -3  -9  -8    4.99    0.18
   3   9   8    5.34    0.16
   3   9   8    4.99    0.15
   3   9   8    5.44    0.17
  -1 -10  -8   31.17    0.74
   1  10   8   29.90    0.83
  -2 -10  -8    5.38    0.18
   1   9  -9   29.51    0.62
  -1  -9   9   27.74    0.65
  -1  -9   9   29.05    0.69
   0   9  -9   40.60    0.87
   0   9  -9   39.59    0.90
   0   9  -9   43.52    0.87
   0  -9   9   40.56    0.93
   0  -9   9   42.59    0.98
   2   8  -9    0.46    0.06
   2   8  -9    0.47    0.06
   2   8  -9    0.56    0.06
  -2  -8   9    0.50    0.05
   1   8  -9    2.71    0.11
   1   8  -9    2.81    0.12
   1   8  -9    2.92    0.12
  -1  -8   9    2.78    0.13
  -1  -8   9    2.77    0.13
   0   8  -9   11.15    0.30
   0   8  -9   10.58    0.29
   0   8  -9   10.96    0.31
   0   8  -9   11.08    0.29
   0  -8   9   11.09    0.34
   0  -8   9   10.87    0.33
  -1   8  -9    6.04    0.20
  -1   8  -9    5.95    0.21
  -1   8  -9    6.26    0.20
  -1   8  -9    6.34    0.20
  -1   8  -9    5.84    0.19
   1  -8   9    5.97    0.21
  -2   8  -9    6.32    0.19
  -2   8  -9    6.30    0.21
  -2   8  -9    6.27    0.19
  -2   8  -9    6.48    0.19
  -2   8  -9    6.36    0.19
   3   7  -9   26.19    0.55
   3   7  -9   25.82    0.61
   3   7  -9   25.54    0.66
  -3  -7   9   25.02    0.66
  -3  -7   9   26.29    0.58
  -3  -7   9   24.40    0.63
   2   7  -9    0.09    0.03
   2   7  -9    0.07    0.04
   2   7  -9    0.25    0.06
  -2  -7   9    0.08    0.03
  -2  -7   9    0.05    0.03
  -2  -7   9    0.03    0.03
   1   7  -9   17.75    0.43
   1   7  -9   17.85    0.49
   1   7  -9   17.99    0.46
  -1  -7   9   17.27    0.49
  -1  -7   9   17.67    0.48
   0   7  -9    0.55    0.06
   0   7  -9    0.54    0.07
   0   7  -9    0.51    0.05
   0   7  -9    0.50    0.06
   0  -7   9    0.79    0.08
   0  -7   9    0.53    0.08
  -1   7  -9   44.44    1.02
  -1   7  -9   45.23    1.01
  -1   7  -9   45.31    0.96
  -1   7  -9   45.39    0.97
  -1   7  -9   44.39    1.11
   1  -7   9   42.05    1.07
  -2   7  -9    1.94    0.10
  -2   7  -9    1.97    0.10
  -2   7  -9    1.72    0.10
  -2   7  -9    1.86    0.11
  -2   7  -9    1.88    0.11
  -3   7  -9    2.99    0.10
  -3   7  -9    2.90    0.12
  -3   7  -9    2.88    0.11
  -4  -6   9    3.27    0.12
  -4  -6   9    3.27    0.14
  -4  -6   9    3.23    0.11
  -3  -6   9   31.57    0.78
  -3  -6   9   31.92    0.73
  -3  -6   9   30.89    0.78
  -3  -6   9   31.14    0.82
  -3  -6   9   32.09    0.72
   2   6  -9    0.29    0.06
   2   6  -9    0.16    0.04
  -2  -6   9    0.17    0.04
  -2  -6   9    0.12    0.04
  -2  -6   9    0.05    0.03
   1   6  -9   16.99    0.40
   1   6  -9   16.34    0.44
   1   6  -9   16.37    0.47
  -1  -6   9   16.04    0.41
  -1  -6   9   16.40    0.47
  -1  -6   9   17.18    0.46
   0   6  -9    4.00    0.16
   0   6  -9    3.82    0.18
   0   6  -9    3.83    0.17
   0   6  -9    3.83    0.15
   0   6  -9    4.16    0.15
   0  -6   9    3.99    0.25
   0  -6   9    3.67    0.17
   0  -6   9    3.58    0.19
   0  -6   9    3.72    0.17
  -1   6  -9   41.42    0.98
  -1   6  -9   41.20    0.97
  -1   6  -9   42.10    0.92
  -1   6  -9   42.78    0.92
  -1   6  -9   42.27    1.06
  -1   6  -9   42.84    0.96
   1  -6   9   41.68    1.09
  -2   6  -9  248.81    5.16
  -2   6  -9  254.84    4.96
  -2   6  -9  248.15    4.98
  -2   6  -9  250.46    5.76
  -2   6  -9  255.59    5.33
  -3   6  -9    4.03    0.16
  -3   6  -9    3.77    0.14
  -3   6  -9    3.87    0.13
  -3   6  -9    3.96    0.13
  -3   6  -9    3.55    0.14
  -3   6  -9    3.84    0.15
  -4  -5   9    1.71    0.09
  -4  -5   9    1.69    0.11
  -4  -5   9    1.53    0.07
  -4  -5   9    1.77    0.08
  -4  -5   9    1.72    0.09
  -3  -5   9    0.40    0.09
  -3  -5   9    0.62    0.06
  -3  -5   9    0.40    0.06
  -3  -5   9    0.31    0.04
   2   5  -9   37.56    0.89
   2   5  -9   36.35    1.21
  -2  -5   9   38.50    0.86
  -2  -5   9   37.31    0.85
  -2  -5   9   37.67    0.93
  -2  -5   9   37.56    0.92
  -2  -5   9   37.98    0.87
   1   5  -9    6.49    0.23
   1   5  -9    6.59    0.31
   1   5  -9    6.30    0.22
  -1  -5   9    6.71    0.21
  -1  -5   9    6.76    0.23
  -1  -5   9    6.65    0.23
   0   5  -9    0.82    0.07
   0   5  -9    0.89    0.07
   0   5  -9    0.76    0.08
   0   5  -9    0.85    0.07
   0   5  -9    0.80    0.07
   0  -5   9    0.80    0.11
   0  -5   9    0.81    0.10
   0  -5   9    0.74    0.07
   0  -5   9    0.93    0.08
  -1   5  -9   60.37    1.35
  -1   5  -9   59.02    1.26
  -1   5  -9   62.09    1.46
  -1   5  -9   60.46    1.32
  -1   5  -9   60.44    1.40
  -1   5  -9   59.55    1.30
   1  -5   9   60.52    1.87
   1  -5   9   59.55    1.51
  -2   5  -9    0.87    0.07
  -2   5  -9    0.82    0.08
  -2   5  -9    0.86    0.08
  -2   5  -9    0.95    0.07
  -2   5  -9    0.83    0.09
  -2   5  -9    0.78    0.08
   2  -5   9    0.77    0.09
  -3   5  -9   28.83    0.71
  -3   5  -9   28.80    0.66
  -3   5  -9   27.41    0.65
  -3   5  -9   28.56    0.73
  -3   5  -9   28.17    0.66
  -3   5  -9   28.54    0.66
  -4   5  -9    2.91    0.09
  -4   5  -9    2.89    0.10
  -4   5  -9    2.88    0.12
  -4   5  -9    2.91    0.12
  -4   5  -9    2.98    0.11
  -4  -4   9   10.70    0.29
  -4  -4   9   10.32    0.27
  -4  -4   9    9.62    0.32
  -4  -4   9   10.22    0.27
  -4  -4   9   10.43    0.33
  -3  -4   9  165.04    3.41
  -3  -4   9  164.28    3.52
  -3  -4   9  166.96    3.80
   1   4  -9    9.96    0.40
   1   4  -9    9.69    0.29
   1   4  -9   10.38    0.31
  -1  -4   9    9.72    0.30
  -1  -4   9    9.92    0.34
  -1  -4   9   10.53    0.29
  -1  -4   9   10.13    0.27
  -1  -4   9    9.62    0.29
  -1  -4   9    9.98    0.37
   0   4  -9    1.74    0.09
   0   4  -9    1.71    0.08
   0   4  -9    1.80    0.10
   0   4  -9    1.93    0.13
   0   4  -9    1.81    0.11
   0   4  -9    1.82    0.13
   0  -4   9    1.77    0.12
   0  -4   9    2.03    0.15
   0  -4   9    2.02    0.11
   0  -4   9    1.99    0.11
  -1   4  -9    3.10    0.12
  -1   4  -9    3.08    0.13
  -1   4  -9    3.38    0.14
  -1   4  -9    3.31    0.12
  -1   4  -9    3.18    0.13
   1  -4   9    3.34    0.20
   1  -4   9    3.22    0.15
   1  -4   9    3.01    0.19
  -2   4  -9  189.58    3.90
  -2   4  -9  190.24    4.02
  -2   4  -9  180.97    3.76
  -2   4  -9  193.00    3.75
  -2   4  -9  188.40    4.34
  -2   4  -9  180.88    4.65
  -2   4  -9  193.20    4.24
   2  -4   9  193.12    4.49
   2  -4   9  192.77    5.48
  -3   4  -9    2.00    0.10
  -3   4  -9    1.91    0.09
  -3   4  -9    2.18    0.11
  -3   4  -9    2.07    0.12
  -3   4  -9    1.91    0.10
  -3   4  -9    2.27    0.12
   3  -4   9    2.02    0.12
  -4   4  -9    6.91    0.22
  -4   4  -9    6.91    0.19
  -4   4  -9    6.85    0.22
  -4   4  -9    6.87    0.19
  -4   4  -9    6.37    0.21
  -4   4  -9    6.77    0.21
  -4  -3   9   60.90    1.28
  -4  -3   9   60.74    1.47
  -4  -3   9   62.05    1.32
  -4  -3   9   56.86    1.59
  -4  -3   9   60.99    1.42
  -3  -3   9   91.09    2.34
  -3  -3   9   89.37    1.93
  -3  -3   9   87.41    1.87
  -3  -3   9   89.18    2.09
   2   3  -9  102.63    2.93
  -2  -3   9   96.87    2.24
  -2  -3   9  100.04    2.31
  -2  -3   9   97.50    2.13
  -2  -3   9   98.66    2.07
   1   3  -9   53.63    1.58
  -1  -3   9   49.23    1.21
  -1  -3   9   51.94    1.24
  -1  -3   9   51.67    1.42
  -1  -3   9   50.75    1.15
  -1  -3   9   54.33    1.31
  -1  -3   9   50.91    1.11
   0   3  -9    2.74    0.15
   0   3  -9    2.78    0.15
   0  -3   9    2.47    0.16
   0  -3   9    2.43    0.12
  -1   3  -9    6.26    0.22
  -1   3  -9    6.28    0.26
   1  -3   9    6.29    0.28
   1  -3   9    6.24    0.26
   1  -3   9    6.12    0.21
  -2   3  -9   18.45    0.47
  -2   3  -9   19.44    0.56
  -2   3  -9   19.53    0.58
  -2   3  -9   19.53    0.51
  -2   3  -9   19.66    0.47
  -2   3  -9   19.67    0.47
  -2   3  -9   19.53    0.50
   2  -3   9   19.68    0.53
   2  -3   9   19.48    0.66
  -3   3  -9    0.97    0.09
  -3   3  -9    0.80    0.06
  -3   3  -9    0.77    0.07
  -3   3  -9    0.84    0.06
  -3   3  -9    1.01    0.08
   3  -3   9    0.86    0.09
   3  -3   9    0.93    0.10
  -4   3  -9    2.89    0.13
  -4   3  -9    2.81    0.11
  -4   3  -9    2.60    0.12
  -4   3  -9    2.59    0.11
  -4   3  -9    2.61    0.13
  -4   3  -9    2.73    0.10
  -5   3  -9    6.98    0.20
  -4  -2   9   20.91    0.49
  -4  -2   9   20.87    0.57
  -4  -2   9   21.21    0.54
  -4  -2   9   20.71    0.62
  -4  -2   9   21.11    0.58
   3   2  -9    4.72    0.24
  -3  -2   9    5.06    0.21
  -3  -2   9    4.83    0.18
  -3  -2   9    4.75    0.16
  -3  -2   9    4.79    0.22
  -3  -2   9    5.18    0.16
  -3  -2   9    4.90    0.21
   2   2  -9   19.11    0.64
  -2  -2   9   19.31    0.45
  -2  -2   9   18.80    0.45
  -2  -2   9   18.18    0.47
  -2  -2   9   18.52    0.49
  -2  -2   9   18.42    0.53
   1   2  -9   48.61    1.46
   1   2  -9   46.91    1.41
  -1  -2   9   48.90    1.32
   0   2  -9    7.95    0.30
   0   2  -9    8.27    0.31
   0  -2   9    7.89    0.29
   0  -2   9    8.26    0.32
  -1   2  -9  127.89    3.37
   1  -2   9  126.63    3.62
   1  -2   9  133.20    3.74
  -2   2  -9   56.31    1.55
  -2   2  -9   56.06    1.24
  -2   2  -9   57.87    1.27
  -2   2  -9   59.00    1.49
  -2   2  -9   56.12    1.37
  -2   2  -9   59.77    1.58
   2  -2   9   61.24    1.74
   2  -2   9   57.54    1.68
  -3   2  -9    6.29    0.21
  -3   2  -9    6.28    0.20
  -3   2  -9    6.17    0.19
  -3   2  -9    6.05    0.20
  -3   2  -9    6.17    0.21
   3  -2   9    6.16    0.27
  -4   2  -9    3.93    0.15
  -4   2  -9    4.28    0.13
  -4   2  -9    4.21    0.17
  -4   2  -9    4.11    0.15
  -4   2  -9    4.12    0.15
  -5   2  -9    0.40    0.05
  -5   2  -9    0.34    0.04
  -5   2  -9    0.49    0.05
  -4  -1   9    1.18    0.10
  -4  -1   9    1.29    0.08
  -4  -1   9    1.41    0.11
  -4  -1   9    1.28    0.06
   3   1  -9    1.60    0.13
  -3  -1   9    1.53    0.09
  -3  -1   9    1.63    0.08
  -3  -1   9    1.86    0.12
  -3  -1   9    1.79    0.12
  -3  -1   9    1.63    0.12
   2   1  -9   48.67    1.36
   2   1  -9   41.88    1.30
  -2  -1   9   43.34    0.95
  -2  -1   9   42.94    1.06
  -2  -1   9   42.28    0.97
  -2  -1   9   43.51    1.11
  -2  -1   9   44.51    1.20
  -2  -1   9   45.95    1.22
   1   1  -9   91.41    2.64
   1   1  -9   94.07    2.72
  -1  -1   9   94.17    2.45
   0   1  -9  275.94    8.09
   0   1  -9  268.62    7.69
   0   1  -9  275.60    7.11
   0  -1   9  287.71    7.35
   0  -1   9  283.00    8.00
  -1   1  -9    8.31    0.31
  -1   1  -9    8.75    0.32
   1  -1   9    8.92    0.32
   1  -1   9    8.78    0.31
  -2   1  -9   93.97    2.47
  -2   1  -9   93.68    2.33
   2  -1   9   92.55    2.72
   2  -1   9   93.76    2.64
  -3   1  -9   21.06    0.63
  -3   1  -9   20.84    0.54
  -3   1  -9   21.06    0.50
  -3   1  -9   20.36    0.50
  -3   1  -9   20.92    0.54
   3  -1   9   21.43    0.69
  -4   1  -9    1.95    0.10
  -4   1  -9    1.99    0.09
  -4   1  -9    2.12    0.10
  -4   1  -9    2.01    0.12
  -4   1  -9    2.06    0.10
  -5   1  -9    1.50    0.07
  -5   1  -9    1.57    0.09
  -4   0   9    5.20    0.22
  -4   0   9    5.32    0.21
  -4   0   9    5.17    0.20
  -4   0   9    5.16    0.15
  -4   0   9    5.33    0.18
  -4   0   9    5.28    0.20
  -3   0   9   28.90    0.77
  -3   0   9   28.73    0.82
  -3   0   9   26.99    0.74
  -3   0   9   26.44    0.70
  -3   0   9   28.27    0.64
  -3   0   9   28.84    0.78
   2   0  -9   25.49    0.79
   2   0  -9   24.12    0.76
  -2   0   9   23.64    0.81
  -2   0   9   24.37    0.66
  -2   0   9   23.33    0.62
  -2   0   9   24.83    0.56
  -2   0   9   23.83    0.70
  -2   0   9   24.74    0.71
  -2   0   9   24.56    0.68
   1   0  -9  158.10    4.40
   1   0  -9  159.17    4.54
  -1   0   9  154.40    4.06
  -1   0   9  158.93    4.56
   0   0  -9  320.73    8.36
   0   0  -9  319.06    9.39
   0   0  -9  320.56    9.00
   0   0   9  326.20    8.49
   0   0   9  323.73    9.28
  -1   0  -9   80.97    2.14
  -1   0  -9   79.07    2.36
   1   0   9   81.27    2.36
   1   0   9   82.67    2.29
  -2   0  -9    2.47    0.12
  -2   0  -9    2.07    0.13
   2   0   9    2.38    0.14
   2   0   9    2.71    0.13
  -3   0  -9    7.66    0.23
  -3   0  -9    7.51    0.29
  -3   0  -9    7.45    0.25
  -3   0  -9    7.50    0.24
  -3   0  -9    7.85    0.22
   3   0   9    7.91    0.31
  -4   0  -9   54.35    1.18
  -4   0  -9   51.84    1.27
  -4   0  -9   53.82    1.27
  -5   0  -9    2.68    0.12
  -5   0  -9    2.54    0.08
  -5   0  -9    2.56    0.10
  -4   1   9    0.52    0.06
  -4   1   9    0.61    0.07
  -4   1   9    0.51    0.08
  -4   1   9    0.55    0.07
  -4   1   9    0.59    0.07
  -3   1   9   10.34    0.32
  -3   1   9   10.48    0.37
  -3   1   9   10.33    0.27
  -3   1   9   10.66    0.32
  -3   1   9   10.32    0.35
  -3   1   9   10.15    0.29
   2  -1  -9   18.96    0.62
   2  -1  -9   19.63    0.64
  -2   1   9   19.27    0.58
  -2   1   9   18.68    0.51
  -2   1   9   19.20    0.67
  -2   1   9   18.51    0.54
  -2   1   9   18.43    0.54
  -2   1   9   19.23    0.58
  -2   1   9   19.69    0.46
   1  -1  -9    0.03    0.03
   1  -1  -9    0.04    0.04
  -1   1   9    0.08    0.04
   0  -1  -9    1.12    0.09
   0  -1  -9    1.20    0.09
   0   1   9    1.11    0.08
   0   1   9    1.22    0.09
  -1  -1  -9   22.35    0.73
  -1  -1  -9   22.78    0.68
   1   1   9   22.81    0.67
   1   1   9   23.68    0.72
   1   1   9   22.69    0.69
  -2  -1  -9  247.84    6.10
  -2  -1  -9  255.25    6.69
   2   1   9  254.96    7.19
   2   1   9  250.04    6.99
  -3  -1  -9   33.49    0.83
  -3  -1  -9   33.77    0.77
  -3  -1  -9   33.52    0.83
  -3  -1  -9   32.82    0.76
  -3  -1  -9   32.59    0.81
  -3  -1  -9   34.39    0.93
   3   1   9   34.63    1.06
  -4  -1  -9   35.55    0.81
  -4  -1  -9   36.01    0.88
  -4  -1  -9   34.79    0.87
  -4  -1  -9   36.05    0.89
  -5  -1  -9    6.04    0.19
  -5  -1  -9    6.26    0.17
  -5  -1  -9    6.35    0.21
  -4   2   9    3.14    0.12
  -4   2   9    3.34    0.13
  -4   2   9    3.09    0.14
  -4   2   9    3.18    0.13
  -4   2   9    3.08    0.16
  -4   2   9    3.25    0.13
  -3   2   9    2.31    0.15
  -3   2   9    2.03    0.11
  -3   2   9    2.11    0.12
  -3   2   9    2.19    0.13
  -3   2   9    2.07    0.11
  -3   2   9    2.11    0.09
   2  -2  -9   45.80    1.39
  -2   2   9   43.74    1.15
  -2   2   9   43.17    1.10
  -2   2   9   46.03    1.01
  -2   2   9   46.84    1.44
  -2   2   9   46.92    1.26
  -2   2   9   45.72    1.24
   1  -2  -9  517.46   14.59
   1  -2  -9  507.03   14.12
  -1   2   9  492.13   14.52
  -1   2   9  500.26   13.07
   0  -2  -9    2.03    0.13
   0  -2  -9    2.44    0.14
   0   2   9    1.92    0.11
   0   2   9    1.94    0.12
  -1  -2  -9    7.20    0.28
  -1  -2  -9    6.49    0.26
   1   2   9    6.53    0.25
   1   2   9    6.19    0.25
   1   2   9    6.71    0.26
  -2  -2  -9   28.29    0.85
  -2  -2  -9   29.36    0.77
   2   2   9   28.70    0.88
   2   2   9   29.36    0.91
  -3  -2  -9   14.30    0.41
  -3  -2  -9   14.56    0.40
  -3  -2  -9   14.57    0.37
  -3  -2  -9   13.95    0.37
   3   2   9   14.93    0.52
  -4  -2  -9    0.05    0.03
  -4  -2  -9    0.01    0.03
  -4  -2  -9    0.03    0.04
  -4  -2  -9    0.00    0.02
  -5  -2  -9    4.52    0.16
  -5  -2  -9    4.71    0.14
  -5  -2  -9    4.85    0.18
  -4   3   9    1.83    0.09
  -4   3   9    2.03    0.10
  -4   3   9    1.99    0.10
  -4   3   9    1.91    0.12
  -4   3   9    1.99    0.09
  -3   3   9    4.43    0.22
  -3   3   9    4.75    0.17
  -3   3   9    4.30    0.14
  -3   3   9    4.39    0.17
  -3   3   9    4.32    0.19
   2  -3  -9    3.53    0.20
  -2   3   9    3.79    0.15
  -2   3   9    3.88    0.19
  -2   3   9    3.71    0.17
  -2   3   9    3.50    0.16
  -2   3   9    3.80    0.14
  -2   3   9    3.88    0.23
   1  -3  -9  129.36    3.63
   1  -3  -9  134.11    3.75
  -1   3   9  125.56    2.75
  -1   3   9  130.60    3.77
  -1   3   9  131.97    3.35
  -1   3   9  125.34    3.40
  -1   3   9  122.21    3.03
   0  -3  -9    9.48    0.36
   0  -3  -9    9.15    0.34
   0   3   9    8.80    0.33
   0   3   9    9.24    0.36
  -1  -3  -9   15.47    0.54
  -1  -3  -9   14.96    0.50
   1   3   9   15.23    0.49
   1   3   9   15.41    0.52
  -2  -3  -9   43.65    1.23
   2   3   9   44.30    1.33
   2   3   9   42.02    1.28
  -3  -3  -9   71.51    1.68
  -3  -3  -9   70.86    1.52
  -3  -3  -9   70.35    1.61
  -3  -3  -9   71.82    1.56
  -3  -3  -9   70.25    1.67
   3   3   9   70.29    2.12
  -4  -3  -9    1.58    0.09
  -4  -3  -9    1.51    0.11
  -4  -3  -9    1.88    0.09
  -4  -3  -9    1.65    0.10
  -5  -3  -9    3.88    0.14
  -5  -3  -9    3.58    0.15
  -5  -3  -9    3.93    0.13
  -4   4   9    1.77    0.08
  -4   4   9    1.88    0.10
  -4   4   9    1.83    0.09
  -3   4   9   10.19    0.37
  -3   4   9    9.86    0.32
  -3   4   9   10.30    0.26
  -3   4   9    9.68    0.32
  -3   4   9    9.84    0.29
   2  -4  -9  115.01    3.56
  -2   4   9  120.68    2.84
  -2   4   9  125.82    3.19
  -2   4   9  123.38    3.23
  -2   4   9  125.74    2.61
  -2   4   9  120.65    2.62
  -2   4   9  121.81    2.90
  -2   4   9  119.54    3.62
   1  -4  -9    4.62    0.24
  -1   4   9    4.57    0.24
  -1   4   9    4.24    0.18
  -1   4   9    4.43    0.17
  -1   4   9    4.53    0.20
  -1   4   9    4.49    0.16
  -1   4   9    4.41    0.17
  -1   4   9    4.30    0.16
  -1   4   9    4.51    0.19
   0  -4  -9    2.07    0.14
   0  -4  -9    2.25    0.16
   0   4   9    1.97    0.13
   0   4   9    2.33    0.13
   0   4   9    1.93    0.10
   0   4   9    2.14    0.15
  -1  -4  -9   35.58    1.11
   1   4   9   34.57    1.08
   1   4   9   33.20    0.99
  -2  -4  -9   36.16    0.89
  -2  -4  -9   36.25    0.83
  -2  -4  -9   36.22    1.07
  -2  -4  -9   36.69    0.84
  -2  -4  -9   37.84    0.91
   2   4   9   36.49    0.84
   2   4   9   38.46    1.16
   2   4   9   34.19    0.89
  -3  -4  -9  241.99    5.13
  -3  -4  -9  245.24    5.54
  -3  -4  -9  239.19    5.43
  -3  -4  -9  241.03    4.97
  -3  -4  -9  247.49    5.37
   3   4   9  237.39    6.96
  -4  -4  -9    0.11    0.03
  -4  -4  -9    0.13    0.04
  -4  -4  -9    0.19    0.05
  -4  -4  -9    0.12    0.03
  -5  -4  -9    9.11    0.27
  -5  -4  -9    8.91    0.24
  -5  -4  -9    9.05    0.24
  -5  -4  -9    8.67    0.26
  -3   5   9  132.25    2.73
  -3   5   9  129.59    3.34
  -3   5   9  126.54    3.41
  -3   5   9  126.25    2.76
  -2   5   9  228.16    4.98
  -2   5   9  234.57    5.40
  -2   5   9  236.17    6.04
  -2   5   9  239.12    6.20
  -2   5   9  238.39    4.98
   1  -5  -9   61.08    1.91
  -1   5   9   61.90    1.38
  -1   5   9   60.97    1.38
  -1   5   9   61.43    1.50
  -1   5   9   60.47    1.35
  -1   5   9   64.56    1.68
  -1   5   9   61.77    1.91
   0  -5  -9    7.69    0.35
   0   5   9    7.78    0.33
   0   5   9    7.12    0.23
   0   5   9    7.33    0.24
   0   5   9    7.69    0.27
   0   5   9    7.31    0.23
   0   5   9    7.44    0.23
   0   5   9    7.33    0.21
  -1  -5  -9   31.51    0.82
  -1  -5  -9   33.18    1.08
   1   5   9   31.90    0.96
   1   5   9   32.58    0.81
   1   5   9   33.63    1.05
   1   5   9   33.97    0.76
   1   5   9   33.22    0.77
   1   5   9   32.57    0.84
   1   5   9   31.93    1.05
  -2  -5  -9   24.43    0.64
  -2  -5  -9   24.42    0.64
  -2  -5  -9   24.75    0.59
   2   5   9   24.15    0.60
   2   5   9   24.47    0.82
   2   5   9   23.74    0.63
  -3  -5  -9    7.08    0.23
  -3  -5  -9    7.01    0.24
  -3  -5  -9    7.33    0.26
  -3  -5  -9    7.00    0.23
  -3  -5  -9    7.31    0.25
   3   5   9    6.83    0.33
  -4  -5  -9    9.74    0.29
  -4  -5  -9    9.90    0.29
  -4  -5  -9   10.44    0.33
  -4  -5  -9   10.26    0.31
  -5  -5  -9   13.99    0.37
  -5  -5  -9   14.25    0.38
  -5  -5  -9   13.93    0.34
  -5  -5  -9   14.23    0.34
  -3   6   9    0.11    0.03
  -3   6   9    0.10    0.02
  -3   6   9    0.06    0.03
  -3   6   9    0.10    0.04
  -3   6   9    0.08    0.03
  -2   6   9   99.62    2.58
  -2   6   9   99.66    2.12
  -2   6   9   96.87    2.62
  -2   6   9   97.57    2.30
  -2   6   9   94.56    2.13
  -2   6   9   98.07    2.06
   1  -6  -9  133.00    4.08
  -1   6   9  138.80    2.97
  -1   6   9  138.46    2.90
  -1   6   9  139.43    2.98
  -1   6   9  131.62    4.08
  -1   6   9  142.81    3.24
  -1   6   9  143.52    3.61
   0  -6  -9    1.66    0.16
   0   6   9    2.02    0.16
   0   6   9    1.72    0.08
   0   6   9    1.98    0.11
   0   6   9    1.87    0.13
   0   6   9    1.80    0.11
   0   6   9    1.81    0.10
   0   6   9    1.82    0.09
  -1  -6  -9    0.02    0.03
  -1  -6  -9   -0.01    0.04
  -1  -6  -9    0.00    0.03
   1   6   9    0.00    0.03
   1   6   9    0.02    0.03
   1   6   9    0.12    0.03
   1   6   9    0.06    0.04
  -2  -6  -9    1.04    0.09
  -2  -6  -9    1.05    0.08
   2   6   9    1.10    0.08
   2   6   9    1.05    0.11
   2   6   9    0.98    0.09
  -3  -6  -9    0.78    0.07
  -3  -6  -9    0.91    0.08
  -3  -6  -9    0.77    0.07
  -3  -6  -9    0.75    0.07
  -3  -6  -9    0.73    0.09
   3   6   9    0.76    0.08
   3   6   9    0.78    0.08
  -4  -6  -9    0.39    0.05
  -4  -6  -9    0.38    0.05
  -4  -6  -9    0.34    0.04
  -4  -6  -9    0.38    0.07
  -5  -6  -9    2.24    0.09
  -5  -6  -9    2.22    0.09
  -5  -6  -9    2.33    0.10
  -2   7   9    9.13    0.25
  -2   7   9    8.74    0.25
  -2   7   9    8.49    0.31
  -2   7   9    8.89    0.26
  -1   7   9   80.80    2.17
  -1   7   9   81.26    1.75
  -1   7   9   80.52    1.80
  -1   7   9   82.55    1.96
  -1   7   9   82.67    1.80
   0   7   9  109.52    2.35
   0   7   9  110.39    2.57
   0   7   9  107.40    2.30
   0   7   9  108.60    2.43
   0   7   9  105.43    2.36
  -1  -7  -9    8.53    0.29
  -1  -7  -9    8.61    0.30
   1   7   9    8.35    0.28
   1   7   9    8.76    0.27
   1   7   9    8.74    0.26
   1   7   9    8.73    0.25
   1   7   9    8.01    0.29
  -2  -7  -9   11.24    0.32
  -2  -7  -9   11.43    0.35
   2   7   9   11.52    0.32
   2   7   9   11.59    0.32
   2   7   9   10.93    0.34
  -3  -7  -9   11.61    0.33
  -3  -7  -9   11.38    0.34
  -3  -7  -9   11.40    0.36
  -3  -7  -9   11.70    0.33
   3   7   9   11.73    0.35
   3   7   9   11.95    0.33
  -4  -7  -9   26.79    0.60
  -4  -7  -9   25.71    0.60
  -4  -7  -9   25.47    0.65
  -4  -7  -9   26.63    0.66
   4   7   9   25.17    0.61
  -2   8   9    0.50    0.05
  -2   8   9    0.52    0.05
  -2   8   9    0.48    0.06
  -2   8   9    0.59    0.04
  -1   8   9    8.75    0.25
  -1   8   9    8.39    0.25
  -1   8   9    8.31    0.30
  -1   8   9    8.05    0.28
  -1   8   9    8.37    0.25
   0   8   9    0.62    0.06
   0   8   9    0.56    0.07
   0   8   9    0.63    0.06
   0   8   9    0.52    0.08
   0   8   9    0.58    0.08
  -1  -8  -9    1.64    0.11
   1   8   9    1.42    0.10
   1   8   9    1.53    0.09
   1   8   9    1.60    0.09
   1   8   9    1.57    0.07
   2   8   9    0.30    0.05
   2   8   9    0.24    0.05
   2   8   9    0.32    0.05
  -3  -8  -9    0.15    0.03
  -3  -8  -9    0.22    0.05
  -3  -8  -9    0.12    0.03
   3   8   9    0.16    0.03
   3   8   9    0.13    0.04
   3   8   9    0.12    0.03
  -4  -8  -9    0.37    0.06
  -4  -8  -9    0.33    0.04
  -1   9   9    3.76    0.13
  -1   9   9    3.51    0.15
  -1   9   9    3.71    0.13
  -1   9   9    3.69    0.12
   0   9   9    0.40    0.06
   0   9   9    0.32    0.06
   0   9   9    0.32    0.04
   0   9   9    0.34    0.05
   0   9   9    0.31    0.05
  -1  -9  -9    5.29    0.20
   1   9   9    5.17    0.15
   1   9   9    5.59    0.18
   1   9   9    5.57    0.18
  -2  -9  -9   15.95    0.42
   2   9   9   15.18    0.38
   2   9   9   14.73    0.36
   2   9   9   15.66    0.40
   3   9   9    0.44    0.05
   3   9   9    0.48    0.04
   2   8 -10    4.84    0.15
   2   8 -10    4.87    0.14
   2   8 -10    4.71    0.16
  -2  -8  10    4.64    0.14
   1   8 -10    3.47    0.13
   1   8 -10    3.34    0.12
   1   8 -10    3.52    0.13
  -1  -8  10    3.38    0.14
  -1  -8  10    3.54    0.14
   0   8 -10    0.61    0.06
   0   8 -10    0.76    0.06
   0   8 -10    0.70    0.07
   0   8 -10    0.62    0.05
   0  -8  10    0.86    0.08
   0  -8  10    0.65    0.07
  -1   8 -10    0.07    0.02
  -1   8 -10    0.06    0.03
  -1   8 -10    0.05    0.03
  -1   8 -10    0.04    0.03
  -1   8 -10    0.11    0.04
   1  -8  10    0.06    0.04
   3   7 -10    0.42    0.04
   3   7 -10    0.28    0.05
  -3  -7  10    0.46    0.04
  -3  -7  10    0.41    0.07
   2   7 -10   10.51    0.27
   2   7 -10   10.72    0.30
   2   7 -10   10.98    0.32
  -2  -7  10   10.32    0.28
  -2  -7  10   10.54    0.30
   1   7 -10    6.14    0.21
   1   7 -10    6.18    0.19
   1   7 -10    6.17    0.22
  -1  -7  10    6.36    0.22
  -1  -7  10    6.28    0.23
   0   7 -10    0.06    0.03
   0   7 -10    0.03    0.04
   0   7 -10    0.01    0.02
   0   7 -10    0.02    0.03
   0  -7  10    0.07    0.04
  -1   7 -10   13.06    0.36
  -1   7 -10   13.18    0.35
  -1   7 -10   12.94    0.39
  -1   7 -10   13.32    0.35
  -1   7 -10   13.14    0.37
   1  -7  10   13.30    0.39
  -2   7 -10   17.95    0.43
  -2   7 -10   17.94    0.44
  -2   7 -10   18.07    0.44
  -2   7 -10   17.82    0.43
  -2   7 -10   17.49    0.48
   3   6 -10   13.80    0.38
  -3  -6  10   13.66    0.35
  -3  -6  10   14.26    0.38
  -3  -6  10   14.24    0.35
  -3  -6  10   14.10    0.38
  -3  -6  10   14.10    0.42
   2   6 -10   22.46    0.58
   2   6 -10   23.47    0.62
  -2  -6  10   23.47    0.60
  -2  -6  10   23.79    0.60
  -2  -6  10   23.94    0.56
   1   6 -10    2.27    0.11
   1   6 -10    2.17    0.12
   1   6 -10    2.38    0.12
  -1  -6  10    2.16    0.12
  -1  -6  10    1.99    0.12
  -1  -6  10    2.18    0.10
   0   6 -10    2.17    0.11
   0   6 -10    2.23    0.12
   0   6 -10    1.97    0.11
   0   6 -10    2.10    0.12
   0  -6  10    2.24    0.13
   0  -6  10    2.16    0.13
  -1   6 -10    4.71    0.16
  -1   6 -10    4.89    0.19
  -1   6 -10    4.94    0.18
  -1   6 -10    4.91    0.18
  -1   6 -10    5.06    0.18
  -1   6 -10    5.02    0.20
   1  -6  10    4.68    0.21
   1  -6  10    4.82    0.20
  -2   6 -10    3.51    0.14
  -2   6 -10    3.99    0.16
  -2   6 -10    3.98    0.17
  -2   6 -10    3.75    0.15
  -2   6 -10    3.66    0.15
  -3   6 -10    0.53    0.05
  -3   6 -10    0.47    0.05
  -3   6 -10    0.53    0.05
  -3   6 -10    0.51    0.06
  -3   6 -10    0.58    0.07
  -4  -5  10   43.90    0.98
  -4  -5  10   45.37    1.08
  -4  -5  10   43.77    1.05
  -4  -5  10   45.23    1.05
  -4  -5  10   44.61    0.95
  -3  -5  10    1.84    0.09
  -3  -5  10    1.98    0.10
  -3  -5  10    1.79    0.13
  -3  -5  10    1.90    0.09
   2   5 -10   13.46    0.41
   2   5 -10   13.58    0.39
  -2  -5  10   13.66    0.38
  -2  -5  10   13.71    0.36
  -2  -5  10   13.20    0.36
  -2  -5  10   13.99    0.39
   1   5 -10   56.12    1.28
   1   5 -10   57.45    1.36
   1   5 -10   53.72    1.75
  -1  -5  10   57.55    1.23
  -1  -5  10   57.41    1.35
  -1  -5  10   58.42    1.29
   0   5 -10    7.66    0.24
   0   5 -10    7.62    0.25
   0   5 -10    7.54    0.25
   0   5 -10    7.16    0.26
   0   5 -10    7.49    0.22
   0  -5  10    7.09    0.25
   0  -5  10    7.30    0.26
   0  -5  10    7.58    0.28
   0  -5  10    7.05    0.35
  -1   5 -10  125.43    2.68
  -1   5 -10  126.77    2.62
  -1   5 -10  121.21    2.50
  -1   5 -10  124.66    2.80
  -1   5 -10  128.62    2.91
  -1   5 -10  123.10    2.62
   1  -5  10  119.58    3.68
   1  -5  10  124.53    3.00
  -2   5 -10    0.14    0.03
  -2   5 -10    0.12    0.05
  -2   5 -10    0.15    0.04
  -2   5 -10    0.12    0.04
  -2   5 -10    0.10    0.04
  -2   5 -10    0.18    0.05
   2  -5  10    0.09    0.04
  -3   5 -10    1.64    0.11
  -3   5 -10    1.73    0.09
  -3   5 -10    1.76    0.10
  -3   5 -10    1.71    0.09
  -3   5 -10    1.68    0.10
  -4   5 -10    1.50    0.08
  -4   5 -10    1.66    0.09
  -4   5 -10    1.58    0.07
  -4  -4  10    4.71    0.16
  -4  -4  10    4.60    0.14
  -4  -4  10    4.58    0.14
  -4  -4  10    4.64    0.19
  -3  -4  10   22.71    0.54
  -3  -4  10   22.68    0.55
  -3  -4  10   22.56    0.59
  -3  -4  10   22.85    0.65
   2   4 -10    6.79    0.33
  -2  -4  10    7.37    0.22
  -2  -4  10    7.08    0.24
  -2  -4  10    7.36    0.23
  -2  -4  10    7.09    0.22
   1   4 -10   66.28    1.45
   1   4 -10   64.82    1.54
   1   4 -10   64.16    1.98
  -1  -4  10   66.20    1.53
  -1  -4  10   65.25    1.55
  -1  -4  10   65.77    1.40
  -1  -4  10   66.26    1.45
   0   4 -10   62.44    1.36
   0   4 -10   60.99    1.28
   0   4 -10   59.99    1.49
   0   4 -10   64.08    1.46
   0   4 -10   63.70    1.37
   0  -4  10   62.39    1.39
   0  -4  10   62.06    1.46
   0  -4  10   63.64    1.56
   0  -4  10   62.00    1.91
  -1   4 -10   15.28    0.40
  -1   4 -10   15.45    0.40
  -1   4 -10   15.38    0.43
  -1   4 -10   15.59    0.41
  -1   4 -10   15.19    0.38
  -1   4 -10   14.70    0.37
   1  -4  10   15.24    0.57
   1  -4  10   15.20    0.45
  -2   4 -10   75.71    1.78
  -2   4 -10   75.19    1.65
  -2   4 -10   76.12    1.56
  -2   4 -10   76.14    1.61
  -2   4 -10   73.22    1.73
   2  -4  10   72.56    2.26
   2  -4  10   76.31    1.84
  -3   4 -10    1.22    0.10
  -3   4 -10    1.27    0.09
  -3   4 -10    1.18    0.08
  -3   4 -10    1.19    0.07
  -3   4 -10    1.28    0.09
   3  -4  10    1.36    0.10
  -4   4 -10    7.62    0.19
  -4   4 -10    7.58    0.20
  -4   4 -10    7.19    0.22
  -4   4 -10    7.10    0.24
  -4   4 -10    7.15    0.22
  -4   4 -10    7.59    0.22
  -4  -3  10   35.54    1.01
  -4  -3  10   37.47    0.82
  -4  -3  10   38.12    0.95
  -4  -3  10   38.45    0.84
  -4  -3  10   39.29    0.91
  -3  -3  10   75.71    1.64
  -3  -3  10   76.01    2.06
  -3  -3  10   78.00    1.88
  -3  -3  10   80.08    1.83
  -3  -3  10   78.34    1.69
   2   3 -10   50.12    1.57
  -2  -3  10   50.95    1.23
  -2  -3  10   51.78    1.13
  -2  -3  10   51.88    1.11
  -2  -3  10   49.78    1.19
   1   3 -10    5.71    0.27
   1   3 -10    5.67    0.20
  -1  -3  10    5.72    0.20
  -1  -3  10    6.31    0.24
  -1  -3  10    6.27    0.19
  -1  -3  10    5.64    0.25
  -1  -3  10    5.68    0.18
  -1  -3  10    6.28    0.20
  -1  -3  10    5.58    0.20
   0   3 -10   13.43    0.48
   0   3 -10   14.03    0.37
   0   3 -10   16.14    0.38
   0   3 -10   13.94    0.51
   0  -3  10   14.38    0.42
   0  -3  10   13.96    0.37
   0  -3  10   14.13    0.52
   0  -3  10   14.98    0.40
  -1   3 -10    0.10    0.03
  -1   3 -10    0.09    0.03
  -1   3 -10    0.12    0.03
  -1   3 -10    0.05    0.03
  -1   3 -10    0.04    0.02
  -1   3 -10    0.09    0.04
   1  -3  10    0.08    0.03
   1  -3  10    0.03    0.04
   1  -3  10    0.14    0.05
  -2   3 -10    4.54    0.17
  -2   3 -10    4.61    0.17
  -2   3 -10    4.38    0.21
  -2   3 -10    4.61    0.17
  -2   3 -10    4.80    0.16
  -2   3 -10    4.46    0.17
   2  -3  10    4.89    0.24
   2  -3  10    4.87    0.19
  -3   3 -10   27.97    0.78
  -3   3 -10   28.18    0.70
  -3   3 -10   28.07    0.66
  -3   3 -10   28.12    0.71
  -3   3 -10   29.52    0.66
  -3   3 -10   27.20    0.65
   3  -3  10   28.09    0.74
  -4   3 -10   35.28    0.78
  -4   3 -10   34.59    0.85
  -4   3 -10   35.24    0.66
  -4   3 -10   33.86    0.95
  -4   3 -10   35.08    0.84
   4  -3  10   34.37    0.88
  -4  -2  10   15.92    0.37
  -4  -2  10   14.67    0.46
  -4  -2  10   14.91    0.43
  -4  -2  10   15.81    0.45
  -4  -2  10   15.68    0.41
  -3  -2  10    0.22    0.04
  -3  -2  10   -0.01    0.04
  -3  -2  10    0.02    0.02
  -3  -2  10    0.34    0.07
  -3  -2  10    0.02    0.03
  -3  -2  10    0.01    0.04
   2   2 -10   17.11    0.59
  -2  -2  10   15.68    0.42
  -2  -2  10   16.63    0.41
  -2  -2  10   16.29    0.45
  -2  -2  10   16.31    0.40
  -2  -2  10   16.35    0.48
   1   2 -10  201.89    5.68
   1   2 -10  189.09    5.51
  -1  -2  10  194.18    4.17
  -1  -2  10  199.46    4.04
  -1  -2  10  194.47    4.51
  -1  -2  10  205.60    5.10
  -1  -2  10  194.83    4.39
  -1  -2  10  202.03    4.69
  -1  -2  10  194.99    4.14
   0   2 -10    2.99    0.16
   0   2 -10    2.95    0.16
   0  -2  10    2.95    0.17
   0  -2  10    3.01    0.13
   0  -2  10    2.82    0.15
  -1   2 -10    1.07    0.09
   1  -2  10    0.89    0.07
   1  -2  10    0.88    0.09
   1  -2  10    1.04    0.10
  -2   2 -10   18.49    0.47
  -2   2 -10   19.38    0.57
  -2   2 -10   19.00    0.50
  -2   2 -10   18.79    0.46
  -2   2 -10   18.96    0.47
   2  -2  10   20.46    0.66
  -3   2 -10    7.67    0.25
  -3   2 -10    7.73    0.25
  -3   2 -10    7.50    0.24
  -3   2 -10    7.59    0.23
  -3   2 -10    7.74    0.22
   3  -2  10    7.76    0.33
  -4   2 -10    3.41    0.14
  -4   2 -10    3.34    0.12
  -4   2 -10    3.31    0.13
  -4   2 -10    3.25    0.13
  -4   2 -10    3.49    0.13
  -5   2 -10    7.91    0.22
  -4  -1  10   26.43    0.69
  -4  -1  10   27.54    0.77
  -4  -1  10   27.84    0.67
  -4  -1  10   27.51    0.72
  -4  -1  10   27.20    0.71
  -4  -1  10   27.30    0.62
  -4  -1  10   27.27    0.62
  -3  -1  10   34.20    0.92
  -3  -1  10   34.31    0.98
  -3  -1  10   34.75    0.86
  -3  -1  10   34.94    0.78
  -3  -1  10   35.39    0.92
  -3  -1  10   36.12    0.79
   2   1 -10    0.03    0.04
  -2  -1  10    0.04    0.02
  -2  -1  10    0.15    0.04
  -2  -1  10    0.06    0.02
  -2  -1  10    0.03    0.04
   1   1 -10    1.87    0.12
   1   1 -10    2.15    0.14
  -1  -1  10    1.88    0.12
   0   1 -10   16.37    0.54
   0   1 -10   17.34    0.57
   0  -1  10   17.39    0.57
   0  -1  10   17.17    0.53
  -1   1 -10   34.88    1.09
  -1   1 -10   35.86    1.02
   1  -1  10   35.49    1.06
   1  -1  10   36.74    1.10
  -2   1 -10    1.17    0.10
  -2   1 -10    1.19    0.08
  -2   1 -10    1.23    0.07
  -2   1 -10    1.36    0.10
  -2   1 -10    1.23    0.07
   2  -1  10    1.27    0.10
   2  -1  10    1.05    0.10
  -3   1 -10    0.60    0.06
  -3   1 -10    0.95    0.07
  -3   1 -10    0.65    0.05
  -3   1 -10    0.71    0.06
  -3   1 -10    0.70    0.07
   3  -1  10    0.65    0.08
  -4   1 -10    2.69    0.12
  -4   1 -10    2.68    0.10
  -4   1 -10    2.80    0.11
  -4   1 -10    2.65    0.13
  -4   1 -10    2.54    0.11
  -5   1 -10    3.92    0.14
  -5   1 -10    3.82    0.13
  -4   0  10    8.07    0.27
  -4   0  10    8.07    0.25
  -4   0  10    7.46    0.28
  -4   0  10    7.71    0.22
  -4   0  10    7.82    0.20
  -3   0  10   34.70    0.90
  -3   0  10   32.72    0.84
  -3   0  10   34.13    0.97
  -3   0  10   34.62    0.91
  -3   0  10   34.58    0.77
   2   0 -10   14.63    0.51
  -2   0  10   13.96    0.42
  -2   0  10   14.16    0.43
  -2   0  10   13.94    0.35
  -2   0  10   13.18    0.39
  -2   0  10   14.37    0.35
  -2   0  10   13.44    0.44
   1   0 -10   82.33    2.36
   1   0 -10   79.72    2.28
  -1   0  10   80.86    2.12
  -1   0  10   76.63    2.36
   0   0 -10   87.46    2.50
   0   0 -10   83.54    2.42
   0   0  10   86.36    2.49
   0   0  10   83.85    2.25
  -1   0 -10    9.96    0.36
  -1   0 -10    9.58    0.36
   1   0  10   10.57    0.37
   1   0  10   10.02    0.35
  -2   0 -10   50.36    1.13
  -2   0 -10   51.95    1.43
  -2   0 -10   50.49    1.32
   2   0  10   52.90    1.55
   2   0  10   50.91    1.49
  -3   0 -10   17.09    0.49
  -3   0 -10   17.49    0.43
  -3   0 -10   16.30    0.46
  -3   0 -10   17.15    0.46
  -3   0 -10   17.84    0.43
  -3   0 -10   16.66    0.53
   3   0  10   17.50    0.59
  -4   0 -10   66.61    1.83
  -4   0 -10   68.23    1.62
  -4   0 -10   70.57    1.50
  -4   0 -10   69.09    1.60
  -5   0 -10    0.32    0.03
  -5   0 -10    0.27    0.04
  -5   0 -10    0.24    0.05
  -5   0 -10    0.27    0.04
  -4   1  10    0.95    0.05
  -4   1  10    0.94    0.07
  -4   1  10    1.07    0.08
  -4   1  10    0.88    0.08
  -4   1  10    0.97    0.09
  -3   1  10    0.22    0.06
  -3   1  10    0.25    0.05
  -3   1  10    0.21    0.05
  -3   1  10    0.41    0.04
  -3   1  10    0.45    0.08
  -3   1  10    0.26    0.06
   2  -1 -10   22.48    0.72
  -2   1  10   21.48    0.60
  -2   1  10   21.41    0.51
  -2   1  10   21.09    0.51
  -2   1  10   21.01    0.74
  -2   1  10   20.23    0.56
  -2   1  10   21.61    0.64
  -2   1  10   21.36    0.61
   1  -1 -10   16.50    0.57
   1  -1 -10   16.10    0.54
  -1   1  10   16.25    0.51
  -1   1  10   16.57    0.58
   0  -1 -10   13.55    0.48
   0  -1 -10   13.48    0.45
   0   1  10   13.64    0.46
   0   1  10   13.31    0.44
  -1  -1 -10    6.41    0.27
  -1  -1 -10    6.63    0.27
   1   1  10    6.71    0.26
   1   1  10    6.32    0.25
  -2  -1 -10    2.70    0.11
  -2  -1 -10    2.82    0.13
  -2  -1 -10    2.78    0.16
   2   1  10    2.49    0.15
  -3  -1 -10    0.49    0.05
  -3  -1 -10    0.60    0.07
  -3  -1 -10    0.52    0.07
  -3  -1 -10    0.45    0.05
  -3  -1 -10    0.46    0.06
   3   1  10    0.58    0.08
  -4  -1 -10  306.14    6.24
  -4  -1 -10  303.61    6.53
  -4  -1 -10  306.57    6.83
  -4  -1 -10  308.95    6.96
  -5  -1 -10    6.96    0.22
  -5  -1 -10    6.42    0.21
  -5  -1 -10    6.88    0.18
  -5  -1 -10    6.57    0.20
  -4   2  10    3.31    0.16
  -4   2  10    3.36    0.13
  -4   2  10    3.27    0.14
  -3   2  10    1.41    0.11
  -3   2  10    1.50    0.12
  -3   2  10    1.27    0.09
  -3   2  10    1.37    0.07
  -3   2  10    1.47    0.09
   2  -2 -10    4.01    0.21
  -2   2  10    3.86    0.23
  -2   2  10    3.72    0.16
  -2   2  10    4.12    0.16
  -2   2  10    3.76    0.14
  -2   2  10    3.90    0.19
  -2   2  10    3.93    0.18
  -2   2  10    3.95    0.14
   1  -2 -10  257.11    7.43
   1  -2 -10  281.06    7.72
  -1   2  10  274.01    7.70
  -1   2  10  260.77    5.66
  -1   2  10  268.74    6.85
  -1   2  10  261.97    6.09
   0  -2 -10    0.55    0.08
   0  -2 -10    0.59    0.08
   0   2  10    0.58    0.07
  -1  -2 -10    4.50    0.21
  -1  -2 -10    4.46    0.21
   1   2  10    4.81    0.21
   1   2  10    4.22    0.20
  -2  -2 -10   76.72    1.70
  -2  -2 -10   77.07    1.80
  -2  -2 -10   76.87    1.67
  -2  -2 -10   76.41    1.71
  -2  -2 -10   80.13    1.85
  -2  -2 -10   80.45    1.97
  -2  -2 -10   79.83    2.13
   2   2  10   78.24    2.25
   2   2  10   81.99    2.33
  -3  -2 -10    1.94    0.11
  -3  -2 -10    1.88    0.11
  -3  -2 -10    1.98    0.10
  -3  -2 -10    2.06    0.10
   3   2  10    1.85    0.14
  -4  -2 -10   19.29    0.52
  -4  -2 -10   19.33    0.48
  -4  -2 -10   19.73    0.48
  -4  -2 -10   19.21    0.53
  -5  -2 -10   90.83    2.05
  -5  -2 -10   90.71    1.93
  -5  -2 -10   88.79    2.08
  -4   3  10    5.25    0.18
  -4   3  10    5.43    0.21
  -4   3  10    5.29    0.16
  -4   3  10    5.41    0.18
  -3   3  10   59.30    1.47
  -3   3  10   59.33    1.60
  -3   3  10   57.31    1.42
  -3   3  10   60.37    1.29
  -3   3  10   57.62    1.32
  -3   3  10   61.48    1.62
   2  -3 -10    2.23    0.16
  -2   3  10    2.50    0.12
  -2   3  10    2.64    0.19
  -2   3  10    2.32    0.10
  -2   3  10    2.09    0.12
  -2   3  10    2.21    0.13
  -2   3  10    2.20    0.11
  -2   3  10    2.21    0.14
   1  -3 -10  195.88    5.53
   1  -3 -10  203.04    5.68
  -1   3  10  199.08    5.72
  -1   3  10  193.50    4.05
  -1   3  10  192.89    4.18
  -1   3  10  189.76    4.61
  -1   3  10  200.42    5.04
  -1   3  10  199.94    4.52
   0  -3 -10  178.19    4.96
   0  -3 -10  170.68    4.82
   0   3  10  172.12    4.98
   0   3  10  164.66    4.44
  -1  -3 -10    9.60    0.38
   1   3  10    9.03    0.35
   1   3  10   10.22    0.37
  -2  -3 -10   27.17    0.64
  -2  -3 -10   27.98    0.69
  -2  -3 -10   26.97    0.64
  -2  -3 -10   27.35    0.83
  -2  -3 -10   26.35    0.68
   2   3  10   27.03    0.88
  -3  -3 -10  150.13    3.15
  -3  -3 -10  149.68    3.44
  -3  -3 -10  155.03    3.50
  -3  -3 -10  151.70    3.24
  -3  -3 -10  153.71    3.38
   3   3  10  149.39    4.40
  -4  -3 -10   26.22    0.70
  -4  -3 -10   27.36    0.70
  -4  -3 -10   27.43    0.64
  -4  -3 -10   26.66    0.64
  -5  -3 -10   52.90    1.25
  -5  -3 -10   52.95    1.15
  -5  -3 -10   52.45    1.23
  -4   4  10   14.71    0.43
  -3   4  10    5.69    0.24
  -3   4  10    5.96    0.17
  -3   4  10    5.48    0.20
  -3   4  10    5.83    0.21
  -3   4  10    5.83    0.19
  -3   4  10    5.70    0.22
   2  -4 -10   13.47    0.54
  -2   4  10   13.82    0.57
  -2   4  10   15.08    0.44
  -2   4  10   13.81    0.42
  -2   4  10   14.88    0.38
  -2   4  10   15.29    0.40
  -2   4  10   14.35    0.44
  -2   4  10   14.94    0.38
  -2   4  10   14.71    0.49
   1  -4 -10   17.93    0.63
  -1   4  10   16.75    0.49
  -1   4  10   16.30    0.44
  -1   4  10   17.27    0.44
  -1   4  10   17.61    0.54
  -1   4  10   16.30    0.43
  -1   4  10   16.81    0.49
  -1   4  10   17.03    0.62
   0  -4 -10   51.25    1.52
   0  -4 -10   47.08    1.46
   0   4  10   50.50    1.06
   0   4  10   47.51    1.08
   0   4  10   46.55    1.10
   0   4  10   51.39    1.20
   0   4  10   47.96    1.36
   0   4  10   49.60    1.52
   0   4  10   48.17    1.14
   0   4  10   46.54    1.08
  -1  -4 -10   40.11    0.92
  -1  -4 -10   42.93    1.30
  -1  -4 -10   38.37    1.00
   1   4  10   41.84    1.02
   1   4  10   40.31    1.18
   1   4  10   41.36    0.93
   1   4  10   42.36    0.93
   1   4  10   39.46    0.98
   1   4  10   42.89    1.27
  -2  -4 -10   93.34    2.03
  -2  -4 -10   96.71    2.19
  -2  -4 -10   92.43    2.15
   2   4  10   94.15    2.02
   2   4  10   89.88    2.15
   2   4  10   94.11    2.77
  -3  -4 -10  126.25    2.89
  -3  -4 -10  125.30    2.61
  -3  -4 -10  126.90    2.79
  -3  -4 -10  123.39    2.84
  -3  -4 -10  121.58    2.67
   3   4  10  121.74    3.64
  -4  -4 -10    1.41    0.10
  -4  -4 -10    1.44    0.08
  -4  -4 -10    1.42    0.09
  -4  -4 -10    1.34    0.09
  -5  -4 -10    3.51    0.13
  -5  -4 -10    3.53    0.12
  -5  -4 -10    3.60    0.12
  -5  -4 -10    3.60    0.14
  -3   5  10  109.73    2.26
  -3   5  10  108.67    2.77
  -3   5  10  102.00    2.45
  -3   5  10  102.91    2.28
  -3   5  10  106.75    2.28
  -3   5  10  107.07    2.82
  -2   5  10   62.66    1.72
  -2   5  10   58.90    1.52
  -2   5  10   61.62    1.41
  -2   5  10   63.79    1.72
  -2   5  10   68.03    1.41
  -2   5  10   65.15    1.37
   1  -5 -10    0.07    0.05
  -1   5  10    0.12    0.05
  -1   5  10    0.04    0.03
  -1   5  10    0.03    0.02
  -1   5  10    0.00    0.03
   0  -5 -10   22.41    0.78
   0   5  10   21.42    0.76
   0   5  10   23.89    0.61
   0   5  10   21.48    0.55
   0   5  10   21.94    0.51
   0   5  10   21.69    0.54
   0   5  10   21.22    0.55
   0   5  10   20.90    0.55
  -1  -5 -10    9.70    0.42
  -1  -5 -10    9.59    0.32
   1   5  10    9.97    0.30
   1   5  10   10.27    0.30
   1   5  10    9.71    0.40
   1   5  10   10.27    0.28
   1   5  10    9.83    0.32
   1   5  10   10.18    0.28
  -2  -5 -10   18.86    0.51
  -2  -5 -10   18.85    0.48
  -2  -5 -10   18.35    0.50
   2   5  10   18.52    0.66
   2   5  10   18.92    0.48
   2   5  10   17.90    0.50
  -3  -5 -10   13.71    0.38
  -3  -5 -10   13.89    0.40
  -3  -5 -10   14.21    0.38
  -3  -5 -10   13.90    0.41
  -3  -5 -10   13.51    0.37
   3   5  10   13.45    0.38
  -4  -5 -10    7.95    0.24
  -4  -5 -10    7.84    0.26
  -4  -5 -10    7.84    0.23
  -4  -5 -10    7.76    0.26
  -5  -5 -10   14.15    0.37
  -5  -5 -10   13.54    0.37
  -5  -5 -10   14.57    0.34
  -5  -5 -10   13.98    0.34
  -3   6  10    5.13    0.13
  -3   6  10    5.16    0.19
  -3   6  10    4.80    0.16
  -3   6  10    4.99    0.16
  -3   6  10    5.13    0.16
  -2   6  10    0.14    0.04
  -2   6  10    0.07    0.04
  -2   6  10    0.05    0.03
  -2   6  10    0.01    0.04
  -1   6  10    0.08    0.03
  -1   6  10    0.17    0.04
  -1   6  10    0.06    0.03
  -1   6  10    0.15    0.06
  -1   6  10    0.11    0.05
   0  -6 -10    0.31    0.09
   0   6  10    0.03    0.03
   0   6  10    0.04    0.03
   0   6  10    0.07    0.03
   0   6  10    0.12    0.05
   0   6  10    0.12    0.06
   0   6  10    0.05    0.03
  -1  -6 -10   15.49    0.45
  -1  -6 -10   14.12    0.59
   1   6  10   15.85    0.45
   1   6  10   15.38    0.42
   1   6  10   16.16    0.41
   1   6  10   15.56    0.40
   1   6  10   15.58    0.43
  -2  -6 -10   17.85    0.45
  -2  -6 -10   17.93    0.49
   2   6  10   16.10    0.62
   2   6  10   17.25    0.48
   2   6  10   17.44    0.45
  -3  -6 -10    3.56    0.14
  -3  -6 -10    3.45    0.14
  -3  -6 -10    3.50    0.16
  -3  -6 -10    3.57    0.15
  -3  -6 -10    3.42    0.15
   3   6  10    3.50    0.16
   3   6  10    3.52    0.15
  -4  -6 -10    1.09    0.08
  -4  -6 -10    0.84    0.07
  -4  -6 -10    0.93    0.08
  -4  -6 -10    0.90    0.06
  -2   7  10    2.32    0.09
  -2   7  10    2.25    0.10
  -2   7  10    2.11    0.10
  -2   7  10    2.06    0.12
  -2   7  10    2.06    0.11
  -1   7  10   21.69    0.54
  -1   7  10   21.39    0.66
  -1   7  10   21.67    0.54
  -1   7  10   21.61    0.60
  -1   7  10   21.85    0.55
   0   7  10   24.67    0.74
   0   7  10   24.14    0.67
   0   7  10   25.22    0.61
   0   7  10   24.49    0.61
  -1  -7 -10    0.35    0.07
   1   7  10    0.38    0.05
   1   7  10    0.40    0.05
   1   7  10    0.37    0.05
   1   7  10    0.42    0.06
  -2  -7 -10   26.97    0.70
  -2  -7 -10   25.39    0.63
   2   7  10   26.66    0.64
   2   7  10   27.01    0.64
   2   7  10   26.82    0.68
  -3  -7 -10   53.55    1.17
  -3  -7 -10   51.69    1.27
  -3  -7 -10   53.72    1.24
   3   7  10   52.32    1.26
   3   7  10   54.49    1.19
  -4  -7 -10   18.34    0.45
  -4  -7 -10   18.32    0.48
  -4  -7 -10   18.98    0.49
  -4  -7 -10   20.20    0.45
   4   7  10   18.08    0.45
  -2   8  10    0.59    0.05
  -2   8  10    0.50    0.05
  -1   8  10    1.89    0.10
  -1   8  10    1.77    0.09
  -1   8  10    1.74    0.11
  -1   8  10    1.82    0.11
  -1   8  10    1.86    0.09
   0   8  10    0.98    0.07
   0   8  10    1.04    0.09
   0   8  10    1.01    0.07
   0   8  10    0.91    0.09
   0   8  10    1.08    0.08
  -1  -8 -10    0.09    0.04
   1   8  10    0.09    0.03
   1   8  10    0.10    0.02
   1   8  10    0.21    0.05
  -2  -8 -10    0.52    0.07
   2   8  10    0.51    0.05
   2   8  10    0.55    0.06
   2   8  10    0.54    0.05
  -3  -8 -10   21.16    0.50
  -3  -8 -10   21.73    0.52
  -3  -8 -10   20.86    0.54
   3   8  10   21.51    0.54
   3   8  10   21.09    0.50
   3   8  10   21.16    0.50
   0   9  10    4.67    0.19
   0   9  10    4.74    0.16
   0   9  10    4.47    0.15
   0   9  10    4.88    0.16
  -1  -9 -10   25.05    0.63
   1   9  10   25.08    0.58
   1   9  10   24.22    0.70
   1   9  10   24.75    0.58
  -2  -9 -10   55.93    1.26
   2   9  10   55.26    1.24
   2   9  10   52.90    1.18
   2   9  10   52.14    1.15
   3   9  10    2.92    0.12
   1   8 -11    6.36    0.18
   1   8 -11    6.17    0.18
   1   8 -11    5.72    0.16
  -1  -8  11    5.98    0.18
  -1  -8  11    6.31    0.20
   0   8 -11    2.34    0.10
   0   8 -11    2.41    0.10
   0   8 -11    2.46    0.10
   0  -8  11    2.44    0.12
   0  -8  11    2.46    0.12
  -1   8 -11    3.03    0.12
  -1   8 -11    2.99    0.11
  -1   8 -11    3.00    0.11
   1  -8  11    2.65    0.13
   2   7 -11   20.96    0.46
   2   7 -11   20.69    0.54
   2   7 -11   21.22    0.51
  -2  -7  11   20.52    0.48
  -2  -7  11   20.53    0.50
   1   7 -11    0.01    0.03
   1   7 -11    0.05    0.03
   1   7 -11    0.01    0.03
  -1  -7  11   -0.01    0.03
  -1  -7  11    0.00    0.03
   0   7 -11    0.17    0.04
   0   7 -11    0.36    0.05
   0   7 -11    0.06    0.03
   0  -7  11    0.05    0.04
  -1   7 -11    5.73    0.19
  -1   7 -11    5.61    0.19
  -1   7 -11    5.42    0.18
  -1   7 -11    5.34    0.20
  -1   7 -11    5.79    0.20
   1  -7  11    5.49    0.21
  -2   7 -11   10.73    0.28
  -2   7 -11   10.93    0.32
  -2   7 -11   10.70    0.29
  -2   7 -11   10.67    0.28
  -2   7 -11   10.42    0.27
   3   6 -11    3.20    0.13
  -3  -6  11    2.91    0.11
  -3  -6  11    3.17    0.12
  -3  -6  11    3.16    0.11
  -3  -6  11    3.20    0.15
  -3  -6  11    3.17    0.12
   2   6 -11   36.66    0.92
   2   6 -11   38.19    0.80
   2   6 -11   37.98    0.88
  -2  -6  11   37.30    0.89
  -2  -6  11   37.72    0.84
   1   6 -11    0.18    0.04
   1   6 -11    0.26    0.05
   1   6 -11    0.25    0.06
  -1  -6  11    0.21    0.05
  -1  -6  11    0.27    0.06
  -1  -6  11    0.27    0.05
   0   6 -11   14.81    0.41
   0   6 -11   14.29    0.38
   0   6 -11   14.74    0.37
   0   6 -11   14.82    0.41
   0  -6  11   14.93    0.43
   0  -6  11   14.63    0.42
  -1   6 -11   15.71    0.40
  -1   6 -11   15.94    0.42
  -1   6 -11   15.38    0.45
  -1   6 -11   15.49    0.41
  -1   6 -11   15.06    0.39
   1  -6  11   15.00    0.47
   1  -6  11   15.20    0.43
  -2   6 -11    2.00    0.11
  -2   6 -11    2.07    0.11
  -2   6 -11    2.02    0.10
  -2   6 -11    1.99    0.11
  -2   6 -11    2.08    0.11
   2  -6  11    1.94    0.13
  -3   6 -11    0.58    0.06
  -3   6 -11    0.63    0.05
  -3   6 -11    0.75    0.07
  -3   6 -11    0.63    0.05
  -3   6 -11    0.56    0.05
  -3  -5  11    1.15    0.07
  -3  -5  11    1.26    0.11
  -3  -5  11    1.09    0.08
  -3  -5  11    1.23    0.07
   2   5 -11   28.86    0.71
   2   5 -11   28.79    0.75
  -2  -5  11   28.73    0.69
  -2  -5  11   29.77    0.72
  -2  -5  11   29.81    0.74
  -2  -5  11   29.60    0.68
   1   5 -11   13.21    0.39
   1   5 -11   13.47    0.37
  -1  -5  11   13.34    0.38
  -1  -5  11   13.45    0.39
  -1  -5  11   13.23    0.35
   0   5 -11   15.56    0.42
   0   5 -11   16.11    0.44
   0   5 -11   16.00    0.41
   0   5 -11   15.65    0.38
   0  -5  11   15.95    0.49
   0  -5  11   15.66    0.45
   0  -5  11   14.09    0.60
   0  -5  11   15.66    0.43
  -1   5 -11  104.89    2.41
  -1   5 -11  106.86    2.18
  -1   5 -11  102.28    2.23
  -1   5 -11  101.36    2.08
  -1   5 -11  102.70    2.32
  -1   5 -11   93.83    2.17
   1  -5  11  105.66    2.50
   1  -5  11  101.55    2.23
  -2   5 -11   51.58    1.15
  -2   5 -11   52.07    1.17
  -2   5 -11   50.03    1.22
  -2   5 -11   52.26    1.11
  -2   5 -11   52.74    1.27
   2  -5  11   52.84    1.31
  -3   5 -11    1.64    0.09
  -3   5 -11    1.58    0.08
  -3   5 -11    1.63    0.10
  -3   5 -11    1.53    0.09
  -3   5 -11    1.59    0.10
  -4  -4  11    2.53    0.09
  -4  -4  11    2.51    0.10
  -4  -4  11    2.46    0.09
  -4  -4  11    2.42    0.12
  -3  -4  11   13.58    0.35
  -3  -4  11   14.04    0.38
  -3  -4  11   13.46    0.35
  -3  -4  11   13.99    0.44
  -2  -4  11    1.26    0.08
  -2  -4  11    1.33    0.08
  -2  -4  11    1.35    0.08
  -2  -4  11    1.46    0.09
   1   4 -11   65.63    1.44
   1   4 -11   61.97    1.96
   1   4 -11   65.79    1.53
  -1  -4  11   66.72    1.44
  -1  -4  11   65.08    1.52
  -1  -4  11   64.25    1.39
  -1  -4  11   63.15    1.53
   0   4 -11   16.58    0.44
   0   4 -11   16.72    0.43
   0   4 -11   16.69    0.46
   0   4 -11   16.23    0.39
   0  -4  11   16.82    0.47
   0  -4  11   16.89    0.45
   0  -4  11   16.99    0.63
   0  -4  11   17.27    0.51
  -1   4 -11   47.44    1.06
  -1   4 -11   46.94    1.04
  -1   4 -11   46.94    1.07
  -1   4 -11   47.47    1.12
  -1   4 -11   47.68    1.16
   1  -4  11   46.93    1.50
   1  -4  11   46.14    1.08
   1  -4  11   47.86    1.20
  -2   4 -11   21.23    0.58
  -2   4 -11   21.96    0.55
  -2   4 -11   22.60    0.55
  -2   4 -11   22.05    0.54
  -2   4 -11   23.41    0.60
   2  -4  11   22.58    0.62
  -3   4 -11    0.35    0.07
  -3   4 -11    0.43    0.06
  -3   4 -11    0.28    0.05
  -3   4 -11    0.38    0.04
  -3   4 -11    0.40    0.05
   3  -4  11    0.39    0.07
  -4   4 -11    1.52    0.07
  -4   4 -11    1.44    0.08
  -4   4 -11    1.43    0.08
  -4   4 -11    1.49    0.07
  -4  -3  11   20.85    0.65
  -4  -3  11   24.31    0.62
  -4  -3  11   23.94    0.53
  -4  -3  11   24.49    0.54
  -4  -3  11   24.76    0.59
  -3  -3  11   83.49    1.80
  -3  -3  11   81.44    1.74
  -3  -3  11   84.37    1.94
  -3  -3  11   81.95    1.99
   2   3 -11    0.29    0.08
  -2  -3  11    0.28    0.04
  -2  -3  11    0.32    0.05
  -2  -3  11    0.34    0.06
  -2  -3  11    0.26    0.04
   1   3 -11  106.23    3.12
   1   3 -11  104.13    2.42
   1   3 -11  104.35    2.28
  -1  -3  11  106.64    2.27
  -1  -3  11  104.12    2.28
  -1  -3  11  107.46    2.21
  -1  -3  11  109.23    2.59
  -1  -3  11  103.51    2.40
  -1  -3  11  106.63    2.46
   0   3 -11   25.78    0.86
   0   3 -11   26.00    0.62
   0   3 -11   26.57    0.63
   0  -3  11   25.45    0.87
   0  -3  11   26.60    0.67
   0  -3  11   25.93    0.63
   0  -3  11   27.07    0.61
   0  -3  11   27.29    0.72
  -1   3 -11    2.70    0.12
  -1   3 -11    2.64    0.11
  -1   3 -11    2.98    0.13
  -1   3 -11    2.64    0.11
  -1   3 -11    2.60    0.14
  -1   3 -11    2.78    0.12
   1  -3  11    2.41    0.12
   1  -3  11    2.76    0.14
   1  -3  11    2.86    0.18
  -2   3 -11   10.80    0.30
  -2   3 -11   10.45    0.30
  -2   3 -11   10.85    0.31
  -2   3 -11   10.68    0.32
   2  -3  11   11.15    0.34
   2  -3  11   10.62    0.44
  -3   3 -11   22.29    0.58
  -3   3 -11   21.93    0.53
  -3   3 -11   21.81    0.56
  -3   3 -11   21.27    0.53
  -3   3 -11   22.55    0.53
   3  -3  11   22.12    0.60
  -4   3 -11   13.80    0.34
  -4   3 -11   13.43    0.37
  -4   3 -11   13.81    0.30
  -4   3 -11   13.67    0.37
   4  -3  11   13.37    0.39
  -4  -2  11    1.27    0.07
  -4  -2  11    1.18    0.09
  -4  -2  11    1.15    0.08
  -4  -2  11    1.27    0.06
  -3  -2  11    3.66    0.13
  -3  -2  11    3.52    0.15
  -3  -2  11    3.73    0.13
  -3  -2  11    3.56    0.19
  -3  -2  11    3.61    0.17
  -3  -2  11    3.58    0.17
   2   2 -11   46.65    1.49
  -2  -2  11   48.69    1.07
  -2  -2  11   48.02    1.04
  -2  -2  11   48.21    1.16
  -2  -2  11   47.79    1.21
   1   2 -11   17.26    0.59
   1   2 -11   16.06    0.43
  -1  -2  11   16.72    0.49
  -1  -2  11   17.10    0.41
  -1  -2  11   16.67    0.41
  -1  -2  11   16.68    0.42
  -1  -2  11   16.74    0.45
  -1  -2  11   16.24    0.44
   0   2 -11  152.43    3.21
   0   2 -11  150.35    4.38
   0   2 -11  149.34    3.14
   0  -2  11  149.57    3.40
   0  -2  11  156.78    3.62
   0  -2  11  150.96    4.40
   0  -2  11  151.17    3.20
   0  -2  11  152.28    3.12
  -1   2 -11   54.26    1.52
  -1   2 -11   55.02    1.21
  -1   2 -11   55.47    1.19
  -1   2 -11   55.31    1.31
  -1   2 -11   54.23    1.20
   1  -2  11   54.31    1.35
   1  -2  11   51.65    1.20
   1  -2  11   56.51    1.67
  -2   2 -11   63.46    1.68
  -2   2 -11   64.46    1.49
  -2   2 -11   65.57    1.43
  -2   2 -11   64.59    1.41
  -2   2 -11   65.80    1.55
   2  -2  11   66.43    1.97
   2  -2  11   66.67    1.61
  -3   2 -11   35.51    0.87
  -3   2 -11   35.70    0.81
  -3   2 -11   36.76    0.82
  -3   2 -11   36.71    0.89
   3  -2  11   35.10    1.15
  -4   2 -11    0.88    0.06
  -4   2 -11    0.96    0.07
  -4   2 -11    0.98    0.06
  -4   2 -11    0.95    0.08
  -4   2 -11    1.03    0.07
   4  -2  11    0.86    0.08
  -4  -1  11    9.64    0.29
  -4  -1  11   10.05    0.25
  -4  -1  11    9.63    0.27
  -4  -1  11    9.67    0.26
  -4  -1  11    9.64    0.30
  -4  -1  11    9.33    0.31
  -4  -1  11    9.68    0.28
  -3  -1  11    6.07    0.24
  -3  -1  11    5.78    0.18
  -3  -1  11    5.96    0.24
  -3  -1  11    5.72    0.18
  -3  -1  11    5.69    0.20
  -3  -1  11    5.91    0.24
   2   1 -11    1.85    0.14
  -2  -1  11    1.75    0.10
  -2  -1  11    1.82    0.09
  -2  -1  11    1.78    0.09
  -2  -1  11    1.81    0.12
   1   1 -11   20.33    0.68
   1   1 -11   18.18    0.64
  -1  -1  11   19.73    0.62
  -1  -1  11   20.00    0.47
  -1  -1  11   20.12    0.48
  -1  -1  11   20.04    0.50
  -1  -1  11   19.87    0.52
  -1  -1  11   19.96    0.47
   0   1 -11   90.76    2.65
   0  -1  11   90.98    2.65
   0  -1  11   89.04    2.17
  -1   1 -11   22.64    0.70
  -1   1 -11   22.19    0.57
  -1   1 -11   22.83    0.54
  -1   1 -11   21.53    0.53
   1  -1  11   23.12    0.74
   1  -1  11   22.03    0.59
  -2   1 -11   45.62    1.21
  -2   1 -11   45.36    1.01
  -2   1 -11   45.58    1.03
  -2   1 -11   46.17    1.11
   2  -1  11   46.73    1.41
  -3   1 -11    4.63    0.17
  -3   1 -11    4.60    0.16
  -3   1 -11    4.90    0.18
  -3   1 -11    4.92    0.18
   3  -1  11    4.56    0.23
  -4   1 -11    1.54    0.09
  -4   1 -11    1.59    0.10
  -4   1 -11    1.46    0.08
  -4   1 -11    1.35    0.08
  -4   1 -11    1.68    0.08
  -5   1 -11    0.00    0.03
  -4   0  11   41.05    1.13
  -4   0  11   41.56    0.88
  -4   0  11   42.22    0.99
  -4   0  11   42.01    1.05
  -4   0  11   42.01    0.91
  -4   0  11   42.01    1.00
  -3   0  11   74.51    1.96
  -3   0  11   75.82    1.60
  -3   0  11   73.92    1.82
  -3   0  11   72.60    1.74
  -3   0  11   72.00    1.56
   2   0 -11   71.49    2.14
  -2   0  11   72.48    1.56
  -2   0  11   68.26    1.68
  -2   0  11   70.24    1.89
  -2   0  11   72.30    1.76
  -2   0  11   73.14    1.52
   1   0 -11    0.52    0.08
   1   0 -11    0.47    0.07
  -1   0  11    0.48    0.07
  -1   0  11    0.50    0.06
  -1   0  11    0.54    0.05
  -1   0  11    0.49    0.05
  -1   0  11    0.45    0.05
   0   0 -11   19.07    0.64
   0   0  11   18.82    0.63
   0   0  11   19.14    0.59
  -1   0 -11   83.14    2.48
  -1   0 -11   83.32    2.26
   1   0  11   86.79    2.48
  -2   0 -11    8.86    0.35
  -2   0 -11    8.48    0.25
  -2   0 -11    8.94    0.27
  -2   0 -11    8.32    0.25
  -2   0 -11    8.57    0.23
  -2   0 -11    9.01    0.25
  -2   0 -11    8.77    0.30
   2   0  11    8.39    0.33
   2   0  11    8.88    0.35
  -3   0 -11   43.32    1.04
  -3   0 -11   42.76    0.95
  -3   0 -11   43.53    0.96
  -3   0 -11   41.35    1.02
   3   0  11   42.01    1.32
  -4   0 -11    8.24    0.24
  -4   0 -11    8.16    0.26
  -4   0 -11    8.41    0.26
  -4   0 -11    8.39    0.26
  -4   0 -11    8.55    0.24
  -5   0 -11   11.85    0.28
  -5   0 -11   12.02    0.32
  -5   0 -11   12.21    0.32
  -4   1  11    2.35    0.12
  -4   1  11    2.30    0.12
  -4   1  11    2.34    0.08
  -3   1  11   10.96    0.34
  -3   1  11   10.70    0.38
  -3   1  11   11.64    0.29
  -3   1  11   10.38    0.32
  -3   1  11   11.04    0.36
   2  -1 -11   21.33    0.72
  -2   1  11   21.10    0.51
  -2   1  11   20.95    0.63
  -2   1  11   21.36    0.50
  -2   1  11   21.06    0.75
  -2   1  11   20.44    0.60
  -2   1  11   20.97    0.60
  -2   1  11   20.41    0.56
   1  -1 -11    6.64    0.29
   1  -1 -11    6.07    0.27
  -1   1  11    6.53    0.19
  -1   1  11    6.40    0.27
  -1   1  11    6.18    0.19
  -1   1  11    6.72    0.30
  -1   1  11    6.35    0.20
  -1   1  11    6.66    0.22
  -1   1  11    6.42    0.20
   0  -1 -11    3.31    0.17
   0  -1 -11    3.25    0.18
   0   1  11    3.10    0.17
   0   1  11    3.38    0.17
  -1  -1 -11    0.51    0.07
  -1  -1 -11    0.52    0.07
   1   1  11    0.54    0.07
  -2  -1 -11    5.71    0.26
  -2  -1 -11    5.80    0.18
  -2  -1 -11    5.71    0.20
  -2  -1 -11    5.75    0.19
  -2  -1 -11    5.55    0.19
  -2  -1 -11    5.56    0.17
  -2  -1 -11    5.70    0.19
  -2  -1 -11    5.80    0.22
   2   1  11    6.03    0.26
   2   1  11    5.34    0.24
  -3  -1 -11    4.59    0.17
  -3  -1 -11    4.73    0.16
  -3  -1 -11    4.72    0.18
  -3  -1 -11    4.85    0.18
   3   1  11    4.77    0.24
  -4  -1 -11    1.82    0.09
  -4  -1 -11    1.84    0.09
  -4  -1 -11    1.75    0.10
  -4  -1 -11    1.79    0.11
  -5  -1 -11    0.04    0.03
  -5  -1 -11    0.04    0.02
  -5  -1 -11    0.03    0.02
  -4   2  11    8.03    0.27
  -4   2  11    8.30    0.26
  -3   2  11    0.22    0.06
  -3   2  11    0.44    0.07
  -3   2  11    0.21    0.04
  -3   2  11    0.36    0.06
  -3   2  11    0.23    0.03
   2  -2 -11   76.50    2.29
  -2   2  11   76.57    2.06
  -2   2  11   75.73    1.82
  -2   2  11   74.88    2.34
  -2   2  11   77.80    1.63
  -2   2  11   76.82    1.67
  -2   2  11   77.36    2.04
  -2   2  11   76.77    1.88
   1  -2 -11    0.25    0.07
  -1   2  11    0.21    0.04
  -1   2  11    0.20    0.07
  -1   2  11    0.33    0.06
  -1   2  11    0.14    0.04
  -1   2  11    0.23    0.03
  -1   2  11    0.36    0.04
   0  -2 -11  153.02    4.23
   0  -2 -11  139.22    4.10
   0   2  11  147.50    4.25
   0   2  11  142.98    3.80
  -1  -2 -11    0.13    0.05
  -1  -2 -11    0.16    0.05
   1   2  11    0.23    0.06
  -2  -2 -11   34.32    0.91
  -2  -2 -11   34.34    0.85
  -2  -2 -11   33.20    0.78
  -2  -2 -11   32.72    0.77
  -2  -2 -11   34.48    0.83
  -2  -2 -11   33.88    0.78
  -2  -2 -11   33.28    1.01
   2   2  11   34.89    1.06
   2   2  11   34.97    1.08
  -3  -2 -11    2.66    0.11
  -3  -2 -11    2.28    0.11
  -3  -2 -11    2.40    0.12
  -3  -2 -11    2.23    0.12
   3   2  11    2.35    0.16
  -4  -2 -11   56.53    1.22
  -4  -2 -11   56.33    1.35
  -4  -2 -11   55.51    1.33
  -4  -2 -11   56.10    1.24
  -5  -2 -11    0.11    0.03
  -5  -2 -11    0.07    0.02
  -5  -2 -11    0.08    0.03
  -4   3  11    0.07    0.03
  -3   3  11   29.07    0.77
  -3   3  11   28.55    0.65
  -3   3  11   28.51    0.80
  -3   3  11   27.71    0.72
  -3   3  11   29.54    0.84
   2  -3 -11   21.02    0.74
  -2   3  11   22.07    0.53
  -2   3  11   20.75    0.58
  -2   3  11   21.99    0.67
  -2   3  11   21.83    0.53
  -2   3  11   21.67    0.78
  -2   3  11   22.04    0.63
  -2   3  11   22.28    0.62
   1  -3 -11  138.66    4.00
  -1   3  11  140.29    3.17
  -1   3  11  138.39    3.54
  -1   3  11  135.29    4.02
  -1   3  11  132.48    3.24
  -1   3  11  135.05    2.85
  -1   3  11  135.48    2.93
   0  -3 -11   13.61    0.50
   0  -3 -11   14.25    0.53
   0   3  11   14.66    0.41
   0   3  11   13.63    0.37
   0   3  11   14.51    0.47
   0   3  11   13.62    0.38
   0   3  11   14.90    0.53
   0   3  11   13.96    0.35
   0   3  11   13.88    0.38
   0   3  11   14.11    0.48
  -1  -3 -11    8.70    0.28
  -1  -3 -11    9.53    0.37
  -1  -3 -11    8.81    0.26
   1   3  11    9.48    0.26
   1   3  11    9.19    0.35
   1   3  11    8.51    0.27
   1   3  11    8.71    0.26
  -2  -3 -11   21.57    0.55
  -2  -3 -11   23.11    0.59
  -2  -3 -11   22.89    0.56
  -2  -3 -11   23.31    0.60
   2   3  11   23.64    0.77
   2   3  11   24.67    0.56
   2   3  11   21.45    0.59
  -3  -3 -11  145.72    3.00
  -3  -3 -11  144.41    3.21
  -3  -3 -11  142.24    3.08
  -3  -3 -11  141.25    3.26
  -3  -3 -11  148.34    3.33
   3   3  11  141.95    4.20
  -4  -3 -11    6.57    0.20
  -4  -3 -11    6.39    0.23
  -4  -3 -11    6.23    0.21
  -4  -3 -11    6.29    0.22
  -5  -3 -11    7.61    0.20
  -5  -3 -11    7.52    0.22
  -5  -3 -11    7.45    0.20
  -5  -3 -11    7.81    0.23
  -3   4  11    3.99    0.12
  -3   4  11    3.70    0.16
  -3   4  11    3.58    0.15
  -3   4  11    3.92    0.14
  -3   4  11    4.03    0.16
  -3   4  11    4.06    0.19
  -2   4  11   16.66    0.42
  -2   4  11   15.98    0.48
  -2   4  11   16.23    0.53
  -2   4  11   16.30    0.49
  -2   4  11   16.73    0.42
  -2   4  11   15.07    0.45
   1  -4 -11   76.67    2.31
  -1   4  11   74.08    1.68
  -1   4  11   77.88    1.83
  -1   4  11   76.01    1.65
  -1   4  11   78.97    2.04
  -1   4  11   77.01    2.33
  -1   4  11   74.16    1.67
  -1   4  11   76.29    1.86
   0  -4 -11  246.83    6.97
   0   4  11  234.43    4.96
   0   4  11  237.90    5.36
   0   4  11  246.79    5.54
   0   4  11  234.66    5.09
   0   4  11  236.65    5.12
   0   4  11  246.29    7.00
   0   4  11  248.38    6.17
   0   4  11  242.69    5.03
  -1  -4 -11   13.29    0.41
  -1  -4 -11   13.90    0.37
  -1  -4 -11   14.58    0.54
   1   4  11   14.16    0.51
   1   4  11   14.69    0.41
   1   4  11   14.00    0.40
   1   4  11   14.94    0.37
   1   4  11   13.89    0.38
  -2  -4 -11    8.18    0.26
  -2  -4 -11    8.27    0.27
  -2  -4 -11    7.98    0.27
   2   4  11    8.17    0.25
   2   4  11    8.03    0.27
   2   4  11    8.15    0.35
  -3  -4 -11   92.05    2.03
  -3  -4 -11   89.39    2.07
  -3  -4 -11   87.03    1.94
  -3  -4 -11   89.80    2.10
  -3  -4 -11   88.61    1.90
   3   4  11   87.73    2.66
  -4  -4 -11    0.42    0.07
  -4  -4 -11    0.43    0.05
  -4  -4 -11    0.38    0.06
  -4  -4 -11    0.34    0.05
  -5  -4 -11    6.11    0.17
  -5  -4 -11    6.01    0.19
  -5  -4 -11    6.27    0.17
  -5  -4 -11    6.15    0.19
  -3   5  11   39.58    1.09
  -3   5  11   38.43    0.96
  -3   5  11   41.46    0.88
  -3   5  11   40.66    0.90
  -3   5  11   41.00    1.10
  -2   5  11   32.45    0.92
  -2   5  11   32.94    0.74
  -2   5  11   30.21    0.74
  -2   5  11   31.83    0.73
  -2   5  11   30.50    0.81
   1  -5 -11    0.80    0.11
  -1   5  11    0.90    0.09
  -1   5  11    0.84    0.07
  -1   5  11    0.78    0.12
  -1   5  11    0.83    0.07
  -1   5  11    0.70    0.07
  -1   5  11    0.97    0.10
   0  -5 -11  134.09    3.99
   0   5  11  134.31    2.90
   0   5  11  133.31    2.84
   0   5  11  136.68    4.00
   0   5  11  142.04    3.16
   0   5  11  138.86    3.52
   0   5  11  130.91    2.92
   0   5  11  133.30    2.84
   0   5  11  134.42    3.04
  -1  -5 -11   41.28    1.07
  -1  -5 -11   42.17    1.38
   1   5  11   42.99    1.38
   1   5  11   45.13    0.98
   1   5  11   44.00    1.05
   1   5  11   43.56    0.98
   1   5  11   43.63    1.08
   1   5  11   43.81    0.99
  -2  -5 -11   15.01    0.40
  -2  -5 -11   14.61    0.42
   2   5  11   14.44    0.39
   2   5  11   14.05    0.54
   2   5  11   14.29    0.42
  -3  -5 -11   23.63    0.64
  -3  -5 -11   24.97    0.60
  -3  -5 -11   24.10    0.59
  -3  -5 -11   24.65    0.61
  -3  -5 -11   24.66    0.64
   3   5  11   23.91    0.60
  -4  -5 -11    0.99    0.07
  -4  -5 -11    0.93    0.08
  -4  -5 -11    1.00    0.08
  -4  -5 -11    0.97    0.07
  -5  -5 -11    0.06    0.03
  -5  -5 -11    0.01    0.01
  -3   6  11    3.05    0.13
  -2   6  11    9.69    0.31
  -2   6  11   10.45    0.28
  -2   6  11   10.37    0.36
  -2   6  11   10.04    0.29
  -2   6  11   10.16    0.28
  -1   6  11   43.71    1.01
  -1   6  11   43.68    1.10
  -1   6  11   44.70    1.23
  -1   6  11   43.95    0.99
  -1   6  11   42.56    1.01
   0   6  11   24.88    0.73
   0   6  11   24.72    0.59
   0   6  11   24.06    0.60
   0   6  11   24.59    0.60
   0   6  11   23.79    0.60
   0   6  11   22.30    0.83
   0   6  11   25.60    0.67
  -1  -6 -11   75.71    1.79
  -1  -6 -11   66.35    2.29
   1   6  11   76.10    1.64
   1   6  11   77.99    1.75
   1   6  11   78.03    1.67
   1   6  11   77.61    1.81
   1   6  11   77.32    1.64
  -2  -6 -11    6.31    0.22
  -2  -6 -11    6.26    0.23
   2   6  11    6.21    0.21
   2   6  11    6.19    0.23
  -3  -6 -11    0.41    0.07
  -3  -6 -11    0.39    0.06
  -3  -6 -11    0.41    0.06
  -3  -6 -11    0.39    0.05
   3   6  11    0.42    0.06
   3   6  11    0.46    0.06
  -4  -6 -11    0.16    0.04
  -4  -6 -11    0.11    0.03
  -4  -6 -11    0.21    0.03
   4   6  11    0.09    0.03
  -2   7  11    1.33    0.07
  -2   7  11    1.16    0.08
  -2   7  11    1.31    0.09
  -2   7  11    1.36    0.07
  -2   7  11    1.28    0.07
  -1   7  11    0.90    0.09
  -1   7  11    0.85    0.09
  -1   7  11    0.99    0.08
  -1   7  11    0.78    0.07
  -1   7  11    0.94    0.07
   0   7  11   15.98    0.42
   0   7  11   15.48    0.51
   0   7  11   15.82    0.42
   0   7  11   15.39    0.45
   0   7  11   15.33    0.41
  -1  -7 -11   25.12    0.67
   1   7  11   25.40    0.62
   1   7  11   24.39    0.58
   1   7  11   25.37    0.63
   1   7  11   25.72    0.62
  -2  -7 -11   16.68    0.46
   2   7  11   15.78    0.41
   2   7  11   16.67    0.42
   2   7  11   16.35    0.45
  -3  -7 -11    2.03    0.10
  -3  -7 -11    2.07    0.10
   3   7  11    2.07    0.10
   3   7  11    2.04    0.10
   3   7  11    1.93    0.11
  -4  -7 -11    6.06    0.18
  -4  -7 -11    5.88    0.19
   4   7  11    5.70    0.17
   4   7  11    5.83    0.17
  -1   8  11    0.03    0.02
  -1   8  11    0.03    0.02
  -1   8  11    0.06    0.03
  -1   8  11    0.01    0.03
  -1   8  11    0.09    0.03
   0   8  11    3.88    0.16
   0   8  11    3.92    0.15
   0   8  11    3.87    0.18
   0   8  11    3.93    0.15
   0   8  11    4.00    0.15
  -1  -8 -11    5.42    0.21
   1   8  11    5.22    0.19
   1   8  11    5.18    0.17
   1   8  11    5.69    0.19
  -2  -8 -11   10.04    0.30
   2   8  11   10.02    0.28
   2   8  11    9.52    0.26
   2   8  11   10.07    0.29
  -3  -8 -11    6.72    0.19
   3   8  11    6.74    0.19
   3   8  11    6.84    0.21
   3   8  11    6.64    0.19
   0   9  11    0.17    0.03
   0   9  11    0.22    0.04
   0   9  11    0.18    0.04
  -1  -9 -11    4.51    0.16
   1   9  11    4.45    0.15
   1   9  11    4.20    0.17
   1   9  11    4.33    0.14
  -2  -9 -11    6.14    0.19
   2   9  11    5.98    0.18
   2   9  11    6.20    0.17
  -1  -8  12    0.09    0.03
   0   8 -12    1.66    0.08
   0   8 -12    1.47    0.08
   0  -8  12    1.63    0.09
   0  -8  12    1.68    0.09
   2   7 -12    4.80    0.16
   2   7 -12    4.84    0.17
   2   7 -12    4.76    0.14
  -2  -7  12    4.52    0.14
   1   7 -12    9.37    0.28
   1   7 -12    9.61    0.25
   1   7 -12    9.63    0.26
  -1  -7  12    9.67    0.28
  -1  -7  12    9.08    0.26
   0   7 -12    0.16    0.04
   0   7 -12    0.22    0.04
   0   7 -12    0.18    0.04
   0  -7  12    0.16    0.04
   0  -7  12    0.18    0.05
  -1   7 -12    3.38    0.13
  -1   7 -12    3.29    0.13
  -1   7 -12    3.33    0.13
  -1   7 -12    3.23    0.14
  -1   7 -12    3.35    0.13
   1  -7  12    3.29    0.14
  -2   7 -12    0.68    0.05
  -2   7 -12    0.77    0.06
  -2   7 -12    0.68    0.07
  -2   7 -12    0.69    0.05
   3   6 -12   12.25    0.29
  -3  -6  12   12.64    0.36
  -3  -6  12   12.70    0.30
   2   6 -12    7.83    0.24
   2   6 -12    7.44    0.25
   2   6 -12    8.04    0.21
  -2  -6  12    7.54    0.22
  -2  -6  12    7.65    0.22
   1   6 -12    7.54    0.22
   1   6 -12    7.58    0.24
   1   6 -12    7.68    0.25
  -1  -6  12    7.61    0.25
  -1  -6  12    7.56    0.24
   0   6 -12   11.72    0.31
   0   6 -12   11.96    0.34
   0   6 -12   11.84    0.34
   0   6 -12   12.22    0.32
   0  -6  12   11.91    0.35
   0  -6  12   12.11    0.36
  -1   6 -12   14.32    0.42
  -1   6 -12   14.24    0.36
  -1   6 -12   14.56    0.37
  -1   6 -12   14.42    0.39
  -1   6 -12   13.94    0.38
   1  -6  12   14.40    0.40
   1  -6  12   14.02    0.44
  -2   6 -12    3.32    0.14
  -2   6 -12    3.22    0.13
  -2   6 -12    3.28    0.13
  -2   6 -12    3.22    0.14
   2  -6  12    3.08    0.15
  -3   6 -12   19.71    0.50
  -3   6 -12   19.76    0.46
  -3   6 -12   19.61    0.38
  -3  -5  12    0.62    0.06
  -3  -5  12    0.69    0.05
  -3  -5  12    0.66    0.05
  -3  -5  12    0.62    0.08
   2   5 -12   55.25    1.24
   2   5 -12   54.34    1.31
  -2  -5  12   55.82    1.19
  -2  -5  12   55.96    1.27
  -2  -5  12   54.99    1.31
  -2  -5  12   53.66    1.22
   1   5 -12    2.53    0.13
   1   5 -12    2.22    0.12
   1   5 -12    2.29    0.10
  -1  -5  12    2.21    0.12
  -1  -5  12    2.36    0.11
  -1  -5  12    2.27    0.13
   0   5 -12    0.27    0.05
   0   5 -12    0.25    0.05
   0   5 -12    0.27    0.05
   0   5 -12    0.18    0.04
   0  -5  12    0.20    0.06
   0  -5  12    0.26    0.06
   0  -5  12    0.15    0.05
  -1   5 -12  112.37    2.63
  -1   5 -12  111.04    2.43
  -1   5 -12  114.46    2.38
  -1   5 -12  112.34    2.53
   1  -5  12  108.95    2.43
   1  -5  12  113.44    2.73
  -2   5 -12  120.11    2.60
  -2   5 -12  122.63    2.81
  -2   5 -12  119.29    2.43
  -2   5 -12  120.33    2.53
   2  -5  12  120.24    2.91
  -3   5 -12   23.61    0.56
  -3   5 -12   23.94    0.61
  -3   5 -12   23.48    0.55
  -3   5 -12   23.21    0.53
  -3   5 -12   23.73    0.46
  -3  -4  12    6.70    0.26
  -3  -4  12    6.70    0.20
  -3  -4  12    6.93    0.22
  -3  -4  12    7.17    0.20
   2   4 -12   16.91    0.46
  -2  -4  12   16.95    0.46
  -2  -4  12   16.95    0.44
  -2  -4  12   17.03    0.43
  -2  -4  12   17.84    0.43
   1   4 -12    4.52    0.18
   1   4 -12    4.41    0.25
   1   4 -12    4.80    0.19
  -1  -4  12    4.35    0.18
  -1  -4  12    4.60    0.17
  -1  -4  12    4.65    0.18
   0   4 -12   42.23    0.96
   0   4 -12   43.25    1.02
   0   4 -12   40.58    0.89
   0   4 -12   42.49    0.96
   0  -4  12   42.99    1.03
   0  -4  12   43.95    1.11
   0  -4  12   37.91    1.34
   0  -4  12   42.46    0.98
  -1   4 -12   49.25    1.15
  -1   4 -12   48.41    1.08
  -1   4 -12   49.28    1.20
  -1   4 -12   49.27    1.10
  -1   4 -12   47.95    1.11
   1  -4  12   50.50    1.25
   1  -4  12   47.83    1.55
   1  -4  12   48.00    1.12
  -2   4 -12    0.30    0.06
  -2   4 -12    0.25    0.04
  -2   4 -12    0.21    0.05
  -2   4 -12    0.28    0.06
   2  -4  12    0.25    0.05
  -3   4 -12    4.72    0.18
  -3   4 -12    4.57    0.17
  -3   4 -12    4.68    0.16
  -3   4 -12    4.73    0.17
  -3   4 -12    4.91    0.17
   3  -4  12    4.71    0.19
  -4   4 -12    0.21    0.03
  -4   4 -12    0.24    0.04
  -4   4 -12    0.22    0.03
  -4   4 -12    0.22    0.05
  -4  -3  12   31.74    0.74
  -4  -3  12   30.52    0.68
  -4  -3  12   30.27    0.76
  -3  -3  12    5.59    0.18
  -3  -3  12    5.57    0.18
  -3  -3  12    5.65    0.19
  -3  -3  12    5.76    0.24
  -2  -3  12    0.55    0.05
  -2  -3  12    0.56    0.05
  -2  -3  12    0.60    0.07
  -2  -3  12    0.53    0.06
   1   3 -12    8.69    0.38
   1   3 -12    8.80    0.29
   1   3 -12    8.76    0.27
  -1  -3  12    8.85    0.28
  -1  -3  12    8.82    0.28
  -1  -3  12    9.01    0.26
  -1  -3  12    8.84    0.27
  -1  -3  12    8.84    0.25
   0   3 -12    1.85    0.10
   0   3 -12    1.85    0.14
   0   3 -12    2.38    0.11
   0   3 -12    1.92    0.11
   0  -3  12    1.80    0.11
   0  -3  12    1.99    0.10
   0  -3  12    1.82    0.13
   0  -3  12    1.90    0.16
  -1   3 -12    0.22    0.04
  -1   3 -12    0.15    0.04
  -1   3 -12    0.15    0.04
  -1   3 -12    0.19    0.04
  -1   3 -12    0.14    0.03
   1  -3  12    0.18    0.07
   1  -3  12    0.18    0.04
   1  -3  12    0.17    0.04
   1  -3  12    0.27    0.05
  -2   3 -12    0.29    0.05
  -2   3 -12    0.29    0.04
  -2   3 -12    0.44    0.06
   2  -3  12    0.25    0.05
  -3   3 -12   13.18    0.35
  -3   3 -12   12.70    0.36
  -3   3 -12   13.45    0.35
  -3   3 -12   13.07    0.38
   3  -3  12   13.90    0.40
  -4   3 -12    0.30    0.04
  -4   3 -12    0.28    0.03
  -4   3 -12    0.26    0.05
  -4   3 -12    0.36    0.05
   4  -3  12    0.30    0.05
  -4  -2  12    0.09    0.04
  -4  -2  12    0.08    0.03
  -4  -2  12    0.11    0.04
  -4  -2  12    0.07    0.03
  -4  -2  12    0.12    0.02
  -3  -2  12    0.18    0.04
  -3  -2  12   -0.03    0.03
  -3  -2  12    0.02    0.02
  -3  -2  12    0.00    0.02
  -3  -2  12    0.00    0.04
   2   2 -12   32.34    1.09
  -2  -2  12   34.30    0.78
  -2  -2  12   34.16    0.76
  -2  -2  12   33.36    0.89
  -2  -2  12   34.12    0.85
   1   2 -12   37.20    1.19
   1   2 -12   35.77    0.87
  -1  -2  12   37.77    0.85
  -1  -2  12   37.90    0.91
  -1  -2  12   37.51    0.86
  -1  -2  12   38.85    0.84
  -1  -2  12   36.96    0.93
  -1  -2  12   37.93    0.99
   0   2 -12   60.85    1.37
   0   2 -12   61.97    1.35
   0   2 -12   61.26    1.88
   0  -2  12   63.77    1.55
   0  -2  12   62.55    1.90
   0  -2  12   62.52    1.33
   0  -2  12   64.20    1.46
   0  -2  12   62.15    1.37
  -1   2 -12    1.20    0.08
  -1   2 -12    1.13    0.08
  -1   2 -12    1.22    0.08
  -1   2 -12    1.20    0.07
   1  -2  12    1.21    0.12
   1  -2  12    1.13    0.08
   1  -2  12    1.18    0.08
   1  -2  12    1.19    0.09
  -2   2 -12    6.25    0.21
  -2   2 -12    6.07    0.19
  -2   2 -12    6.13    0.20
  -2   2 -12    6.20    0.21
   2  -2  12    6.24    0.23
   2  -2  12    5.99    0.29
  -3   2 -12    3.96    0.16
  -3   2 -12    4.01    0.15
  -3   2 -12    4.06    0.14
  -3   2 -12    3.91    0.15
   3  -2  12    4.02    0.17
  -4   2 -12    0.03    0.02
  -4   2 -12   -0.03    0.02
  -4   2 -12    0.05    0.03
  -4   2 -12    0.01    0.02
   4  -2  12    0.04    0.03
  -4  -1  12    0.12    0.02
  -4  -1  12    0.12    0.03
  -4  -1  12    0.08    0.03
  -4  -1  12    0.06    0.03
  -3  -1  12   23.24    0.64
  -3  -1  12   22.31    0.67
  -3  -1  12   23.66    0.60
  -3  -1  12   23.22    0.55
  -3  -1  12   23.08    0.64
  -3  -1  12   23.44    0.54
   2   1 -12    4.33    0.23
  -2  -1  12    4.32    0.15
  -2  -1  12    4.19    0.17
  -2  -1  12    4.35    0.20
  -2  -1  12    4.28    0.15
   1   1 -12    4.55    0.24
  -1  -1  12    4.52    0.16
  -1  -1  12    4.40    0.15
  -1  -1  12    4.34    0.17
  -1  -1  12    4.53    0.15
  -1  -1  12    4.45    0.16
   0   1 -12   34.83    0.80
   0   1 -12   35.90    1.13
   0   1 -12   36.02    0.88
   0   1 -12   35.25    0.82
   0  -1  12   35.97    0.81
   0  -1  12   35.93    0.86
   0  -1  12   36.23    0.88
   0  -1  12   34.31    1.12
   0  -1  12   34.52    1.04
   0  -1  12   36.58    0.92
   0  -1  12   36.40    0.80
  -1   1 -12   16.54    0.41
  -1   1 -12   16.32    0.56
  -1   1 -12   16.41    0.44
  -1   1 -12   16.09    0.41
  -1   1 -12   15.56    0.41
  -1   1 -12   15.49    0.43
   1  -1  12   17.02    0.58
   1  -1  12   16.54    0.45
   1  -1  12   16.22    0.44
   1  -1  12   15.36    0.41
  -2   1 -12   71.96    1.56
  -2   1 -12   69.62    1.82
  -2   1 -12   71.97    1.53
  -2   1 -12   71.75    1.69
  -2   1 -12   69.74    1.53
   2  -1  12   72.38    2.14
  -3   1 -12   11.66    0.34
  -3   1 -12   12.05    0.32
  -3   1 -12   11.77    0.33
  -3   1 -12   12.34    0.35
  -4   1 -12    1.97    0.09
  -4   1 -12    1.88    0.10
  -4   1 -12    1.81    0.10
  -4   1 -12    2.04    0.09
  -4   0  12    3.95    0.11
  -4   0  12    3.64    0.15
  -4   0  12    3.70    0.13
  -4   0  12    3.97    0.15
  -3   0  12   10.34    0.27
  -3   0  12   10.51    0.31
  -3   0  12   10.33    0.34
  -3   0  12   10.25    0.35
  -3   0  12   10.20    0.27
   2   0 -12   11.78    0.46
  -2   0  12   11.65    0.35
  -2   0  12   12.21    0.39
  -2   0  12   11.60    0.31
  -2   0  12   11.66    0.31
   1   0 -12    8.22    0.35
  -1   0  12    7.56    0.34
  -1   0  12    8.18    0.24
  -1   0  12    7.94    0.24
  -1   0  12    8.41    0.24
  -1   0  12    8.12    0.26
  -1   0  12    8.96    0.23
   0   0 -12   89.57    2.06
   0   0 -12   86.20    1.94
   0   0 -12   92.44    2.66
   0   0 -12   87.77    2.06
   0   0  12   92.46    1.90
   0   0  12   89.42    1.93
   0   0  12   90.71    2.10
   0   0  12   91.96    2.05
  -1   0 -12   69.11    1.59
  -1   0 -12   70.10    1.48
  -1   0 -12   67.44    1.49
  -1   0 -12   67.73    2.05
  -1   0 -12   70.59    1.62
  -1   0 -12   67.82    1.89
   1   0  12   67.91    1.49
   1   0  12   68.36    1.59
   1   0  12   68.59    1.67
   1   0  12   70.61    2.05
  -2   0 -12    0.35    0.05
  -2   0 -12    0.39    0.06
  -2   0 -12    0.46    0.05
  -2   0 -12    0.41    0.04
  -2   0 -12    0.38    0.04
   2   0  12    0.44    0.08
  -3   0 -12    0.63    0.06
  -3   0 -12    0.59    0.05
  -3   0 -12    0.47    0.06
  -3   0 -12    0.53    0.06
   3   0  12    0.49    0.08
  -4   0 -12   34.39    0.77
  -4   0 -12   33.16    0.75
  -4   0 -12   33.12    0.82
  -4   0 -12   33.56    0.83
  -5   0 -12   49.45    1.16
  -5   0 -12   49.59    1.07
  -5   0 -12   50.08    1.14
  -4   1  12    2.80    0.08
  -4   1  12    2.85    0.12
  -4   1  12    2.87    0.13
  -3   1  12    5.72    0.20
  -3   1  12    5.72    0.17
  -3   1  12    5.91    0.24
  -3   1  12    5.84    0.23
   2  -1 -12   21.12    0.71
  -2   1  12   20.72    0.49
  -2   1  12   19.90    0.54
  -2   1  12   20.49    0.59
  -2   1  12   18.71    0.72
  -2   1  12   20.24    0.61
  -2   1  12   20.63    0.49
   1  -1 -12   30.40    0.99
  -1   1  12   29.41    0.73
  -1   1  12   31.19    0.78
  -1   1  12   30.75    0.70
  -1   1  12   30.44    1.00
  -1   1  12   30.32    0.71
   0  -1 -12   16.41    0.44
   0  -1 -12   18.09    0.62
   0  -1 -12   16.86    0.47
   0   1  12   17.13    0.43
   0   1  12   17.31    0.58
   0   1  12   18.05    0.43
   0   1  12   18.92    0.48
   0   1  12   17.17    0.46
   0   1  12   18.09    0.44
  -1  -1 -12    6.28    0.29
  -1  -1 -12    6.51    0.29
  -1  -1 -12    7.17    0.22
  -1  -1 -12    6.65    0.21
  -1  -1 -12    6.68    0.22
  -1  -1 -12    6.49    0.22
   1   1  12    6.43    0.20
   1   1  12    6.97    0.29
   1   1  12    6.73    0.22
   1   1  12    6.56    0.20
  -2  -1 -12    5.59    0.23
  -2  -1 -12    5.82    0.18
  -2  -1 -12    5.86    0.19
  -2  -1 -12    5.79    0.20
  -2  -1 -12    6.10    0.20
  -2  -1 -12    6.03    0.20
  -2  -1 -12    5.86    0.20
   2   1  12    5.84    0.27
  -3  -1 -12   10.74    0.29
  -3  -1 -12   10.09    0.30
  -3  -1 -12   10.62    0.32
   3   1  12   10.26    0.41
  -4  -1 -12   11.15    0.33
  -4  -1 -12   10.99    0.33
  -4  -1 -12   11.49    0.30
  -4  -1 -12   11.65    0.31
  -5  -1 -12    3.36    0.12
  -5  -1 -12    3.36    0.13
  -5  -1 -12    3.41    0.10
  -4   2  12    0.01    0.03
  -3   2  12    0.23    0.03
  -3   2  12    0.10    0.03
  -3   2  12    0.06    0.03
  -3   2  12    0.16    0.05
  -3   2  12    0.14    0.05
   2  -2 -12    5.15    0.26
  -2   2  12    5.34    0.17
  -2   2  12    5.11    0.20
  -2   2  12    4.81    0.28
  -2   2  12    5.43    0.23
  -2   2  12    5.41    0.23
  -2   2  12    5.23    0.18
   1  -2 -12    6.72    0.31
  -1   2  12    6.42    0.23
  -1   2  12    6.30    0.19
  -1   2  12    6.51    0.26
  -1   2  12    6.50    0.21
  -1   2  12    6.45    0.31
  -1   2  12    6.64    0.21
   0  -2 -12  123.96    3.54
   0  -2 -12  114.99    2.77
   0   2  12  120.87    2.55
   0   2  12  121.91    2.53
   0   2  12  128.51    2.81
   0   2  12  118.70    2.60
   0   2  12  116.46    2.72
   0   2  12  114.75    3.19
   0   2  12  126.68    3.57
  -1  -2 -12    6.57    0.23
  -1  -2 -12    6.65    0.21
  -1  -2 -12    6.94    0.30
   1   2  12    6.63    0.21
   1   2  12    6.91    0.29
   1   2  12    6.91    0.21
   1   2  12    6.60    0.22
  -2  -2 -12   14.90    0.40
  -2  -2 -12   14.27    0.37
  -2  -2 -12   15.13    0.41
  -2  -2 -12   14.41    0.39
  -2  -2 -12   14.11    0.38
  -2  -2 -12   13.94    0.44
   2   2  12   14.81    0.53
  -3  -2 -12   16.02    0.42
  -3  -2 -12   15.96    0.44
  -3  -2 -12   15.93    0.41
   3   2  12   15.34    0.57
  -4  -2 -12    0.22    0.04
  -4  -2 -12    0.24    0.05
  -4  -2 -12    0.28    0.06
  -4  -2 -12    0.26    0.04
  -5  -2 -12    5.16    0.14
  -5  -2 -12    5.12    0.16
  -5  -2 -12    5.09    0.16
  -3   3  12    0.06    0.03
  -3   3  12    0.06    0.04
  -3   3  12    0.08    0.03
  -3   3  12    0.08    0.02
  -3   3  12    0.06    0.04
  -2   3  12    0.01    0.03
  -2   3  12    0.01    0.02
  -2   3  12    0.02    0.02
  -2   3  12   -0.01    0.03
  -2   3  12    0.04    0.04
   1  -3 -12    0.30    0.08
  -1   3  12    0.28    0.06
  -1   3  12    0.25    0.05
  -1   3  12    0.27    0.08
  -1   3  12    0.25    0.04
  -1   3  12    0.25    0.07
  -1   3  12    0.33    0.07
   0  -3 -12   14.39    0.53
   0   3  12   13.09    0.37
   0   3  12   13.24    0.37
   0   3  12   14.00    0.35
   0   3  12   15.01    0.41
   0   3  12   14.28    0.54
   0   3  12   13.42    0.38
  -1  -3 -12   13.01    0.49
  -1  -3 -12   12.64    0.35
  -1  -3 -12   11.85    0.37
   1   3  12   13.80    0.35
   1   3  12   13.08    0.37
   1   3  12   13.16    0.48
   1   3  12   13.03    0.35
  -2  -3 -12  197.36    4.33
  -2  -3 -12  185.74    4.10
  -2  -3 -12  197.99    4.43
  -2  -3 -12  191.43    3.99
   2   3  12  192.09    4.07
   2   3  12  195.13    5.57
   2   3  12  191.98    4.33
  -3  -3 -12   32.44    0.75
  -3  -3 -12   31.72    0.74
  -3  -3 -12   30.84    0.75
  -3  -3 -12   32.32    0.75
  -3  -3 -12   32.70    0.81
   3   3  12   29.90    1.03
  -4  -3 -12    5.77    0.19
  -4  -3 -12    5.60    0.20
  -4  -3 -12    5.77    0.20
  -4  -3 -12    5.65    0.18
  -5  -3 -12    0.73    0.04
  -5  -3 -12    0.62    0.05
  -5  -3 -12    0.64    0.06
  -5  -3 -12    0.75    0.05
  -3   4  12   71.33    1.71
  -3   4  12   71.89    1.97
  -3   4  12   74.91    1.94
  -3   4  12   74.36    1.77
  -3   4  12   74.73    1.57
  -2   4  12    0.50    0.06
  -2   4  12    0.59    0.08
  -2   4  12    0.57    0.05
  -2   4  12    0.43    0.07
  -2   4  12    0.64    0.08
   1  -4 -12   10.77    0.46
  -1   4  12   10.99    0.47
  -1   4  12   10.71    0.35
  -1   4  12   11.28    0.39
  -1   4  12   11.17    0.32
  -1   4  12   11.04    0.32
  -1   4  12   11.64    0.35
   0  -4 -12   20.86    0.73
   0   4  12   21.45    0.56
   0   4  12   19.55    0.51
   0   4  12   21.14    0.73
   0   4  12   20.04    0.52
   0   4  12   19.71    0.50
   0   4  12   18.86    0.51
   0   4  12   20.35    0.61
   0   4  12   20.26    0.47
  -1  -4 -12   24.40    0.66
  -1  -4 -12   24.72    0.85
   1   4  12   24.88    0.64
   1   4  12   24.58    0.59
   1   4  12   26.08    0.60
   1   4  12   24.41    0.61
   1   4  12   25.88    0.86
  -2  -4 -12    0.05    0.03
  -2  -4 -12    0.11    0.04
  -2  -4 -12    0.16    0.05
   2   4  12    0.08    0.04
   2   4  12    0.08    0.06
   2   4  12    0.08    0.04
  -3  -4 -12   40.36    0.92
  -3  -4 -12   41.25    1.00
  -3  -4 -12   38.29    0.92
  -3  -4 -12   40.82    0.95
   3   4  12   39.54    0.92
  -4  -4 -12    0.03    0.02
  -4  -4 -12    0.05    0.02
  -4  -4 -12    0.02    0.03
  -4  -4 -12    0.04    0.03
  -5  -4 -12    0.03    0.01
  -5  -4 -12    0.05    0.02
  -3   5  12   26.28    0.70
  -3   5  12   25.07    0.55
  -3   5  12   23.69    0.61
  -2   5  12    4.72    0.16
  -2   5  12    4.44    0.18
  -2   5  12    4.83    0.16
  -2   5  12    4.58    0.21
  -1   5  12   29.48    0.70
  -1   5  12   29.50    0.86
  -1   5  12   28.34    0.69
  -1   5  12   28.38    0.70
  -1   5  12   29.36    0.76
   0  -5 -12   18.05    0.69
   0   5  12   18.79    0.69
   0   5  12   19.08    0.48
   0   5  12   18.75    0.48
   0   5  12   18.03    0.48
   0   5  12   18.70    0.43
   0   5  12   19.78    0.54
   0   5  12   19.27    0.59
   0   5  12   18.46    0.49
  -1  -5 -12    0.83    0.11
  -1  -5 -12    1.12    0.09
   1   5  12    0.87    0.12
   1   5  12    0.80    0.07
   1   5  12    0.84    0.08
   1   5  12    1.18    0.09
   1   5  12    0.84    0.07
  -2  -5 -12   21.03    0.52
  -2  -5 -12   20.90    0.55
   2   5  12   19.25    0.72
   2   5  12   20.59    0.51
   2   5  12   20.62    0.55
  -3  -5 -12    1.32    0.08
  -3  -5 -12    1.35    0.09
  -3  -5 -12    1.29    0.09
  -3  -5 -12    1.33    0.08
   3   5  12    1.34    0.09
   3   5  12    1.26    0.09
  -4  -5 -12    1.75    0.08
  -4  -5 -12    1.61    0.10
  -4  -5 -12    1.89    0.10
  -4  -5 -12    1.85    0.10
  -2   6  12    7.66    0.21
  -2   6  12    7.80    0.21
  -2   6  12    7.40    0.22
  -2   6  12    7.57    0.28
  -2   6  12    7.33    0.24
  -1   6  12    9.16    0.33
  -1   6  12    8.74    0.27
  -1   6  12    8.64    0.27
  -1   6  12    8.44    0.29
  -1   6  12    8.69    0.26
   0   6  12    6.20    0.19
   0   6  12    6.18    0.21
   0   6  12    6.33    0.21
   0   6  12    6.71    0.24
   0   6  12    6.26    0.26
   0   6  12    6.39    0.22
  -1  -6 -12   21.02    0.58
   1   6  12   21.47    0.55
   1   6  12   20.77    0.54
   1   6  12   21.31    0.51
   1   6  12   21.39    0.53
  -2  -6 -12    6.59    0.22
  -2  -6 -12    6.96    0.24
   2   6  12    6.52    0.21
   2   6  12    6.99    0.24
   2   6  12    6.68    0.21
  -3  -6 -12    4.56    0.17
  -3  -6 -12    4.59    0.16
   3   6  12    4.47    0.16
   3   6  12    4.23    0.17
  -4  -6 -12    0.15    0.03
  -4  -6 -12    0.18    0.04
  -4  -6 -12    0.20    0.04
  -4  -6 -12    0.18    0.04
   4   6  12    0.28    0.04
  -2   7  12    0.91    0.07
  -2   7  12    0.89    0.05
  -1   7  12    8.03    0.30
  -1   7  12    8.20    0.24
  -1   7  12    7.95    0.26
  -1   7  12    7.84    0.24
  -1   7  12    8.58    0.24
   0   7  12   38.85    0.97
   0   7  12   40.17    0.89
   0   7  12   39.57    0.90
   0   7  12   37.80    1.08
   0   7  12   37.63    0.89
  -1  -7 -12   39.35    0.99
   1   7  12   40.86    0.95
   1   7  12   38.80    0.87
   1   7  12   40.72    0.91
   1   7  12   40.21    0.92
  -2  -7 -12    0.12    0.04
   2   7  12    0.12    0.04
   2   7  12    0.15    0.04
  -3  -7 -12    3.60    0.14
  -3  -7 -12    3.60    0.13
   3   7  12    3.70    0.13
   3   7  12    3.66    0.13
   3   7  12    3.63    0.15
  -4  -7 -12    0.12    0.03
   4   7  12    0.18    0.03
  -1   8  12    0.39    0.05
  -1   8  12    0.44    0.06
  -1   8  12    0.44    0.04
  -1   8  12    0.47    0.06
  -1   8  12    0.41    0.04
   0   8  12    0.57    0.05
   0   8  12    0.35    0.04
   0   8  12    0.33    0.06
   0   8  12    0.32    0.06
   0   8  12    0.36    0.05
  -1  -8 -12    6.42    0.22
   1   8  12    6.48    0.18
   1   8  12    6.36    0.20
   1   8  12    6.38    0.20
   1   8  12    6.28    0.24
  -2  -8 -12   10.36    0.29
   2   8  12    9.88    0.27
   2   8  12    9.51    0.25
   2   8  12    9.99    0.28
   3   8  12    4.23    0.14
   3   8  12    4.34    0.15
   3   8  12    4.33    0.13
  -1  -9 -12    0.73    0.07
   1   9  12    0.72    0.05
   1   9  12    0.73    0.07
   1   7 -13    6.99    0.21
   1   7 -13    6.80    0.19
   1   7 -13    7.03    0.19
  -1  -7  13    6.75    0.19
  -1  -7  13    7.16    0.21
   0   7 -13    0.68    0.05
   0   7 -13    0.69    0.06
   0   7 -13    0.77    0.06
   0   7 -13    0.79    0.07
   0  -7  13    0.69    0.07
   0  -7  13    0.81    0.07
  -1   7 -13    5.49    0.17
  -1   7 -13    5.39    0.17
   1  -7  13    5.55    0.19
   1  -7  13    5.47    0.19
   2   6 -13    7.09    0.21
   2   6 -13    6.93    0.19
   2   6 -13    6.89    0.22
  -2  -6  13    7.11    0.20
   1   6 -13   38.66    0.93
   1   6 -13   38.11    0.87
   1   6 -13   38.41    0.81
  -1  -6  13   38.10    0.87
  -1  -6  13   38.54    0.93
   0   6 -13   42.53    1.01
   0   6 -13   42.48    0.90
   0   6 -13   41.37    0.95
   0   6 -13   42.40    0.94
   0  -6  13   42.34    0.99
   0  -6  13   44.62    1.04
  -1   6 -13    0.87    0.08
  -1   6 -13    0.87    0.08
  -1   6 -13    0.89    0.07
  -1   6 -13    0.99    0.07
   1  -6  13    0.95    0.08
   1  -6  13    0.71    0.09
   1  -6  13    0.81    0.08
  -2   6 -13    8.73    0.27
  -2   6 -13    9.07    0.25
  -2   6 -13    8.96    0.24
  -2   6 -13    8.89    0.25
   2  -6  13    8.34    0.28
  -3  -5  13    8.18    0.26
  -3  -5  13    7.65    0.23
  -3  -5  13    7.99    0.21
  -3  -5  13    7.74    0.21
   2   5 -13    0.63    0.07
   2   5 -13    0.79    0.07
  -2  -5  13    0.73    0.06
  -2  -5  13    0.76    0.07
   1   5 -13    2.75    0.14
   1   5 -13    2.76    0.13
   1   5 -13    2.89    0.11
  -1  -5  13    2.75    0.13
  -1  -5  13    2.75    0.12
  -1  -5  13    2.72    0.13
   0   5 -13  143.63    3.22
   0   5 -13  141.08    2.98
   0   5 -13  139.32    2.84
   0   5 -13  145.37    3.03
   0  -5  13  143.76    3.06
   0  -5  13  143.40    3.45
   0  -5  13  142.44    3.23
  -1   5 -13   69.54    1.67
  -1   5 -13   69.30    1.59
  -1   5 -13   70.70    1.44
  -1   5 -13   69.81    1.52
  -1   5 -13   69.06    1.55
   1  -5  13   71.01    1.75
   1  -5  13   67.53    1.55
   1  -5  13   71.31    1.64
  -2   5 -13   32.73    0.72
  -2   5 -13   32.85    0.75
  -2   5 -13   32.32    0.76
  -2   5 -13   33.38    0.83
   2  -5  13   31.58    0.85
  -3   5 -13    8.55    0.23
  -3   5 -13    8.33    0.23
  -3   5 -13    8.23    0.20
  -3   5 -13    8.57    0.26
  -3  -4  13    1.45    0.11
  -3  -4  13    1.44    0.07
  -3  -4  13    1.38    0.08
  -3  -4  13    1.35    0.07
   2   4 -13    1.20    0.09
  -2  -4  13    1.31    0.08
  -2  -4  13    1.25    0.09
  -2  -4  13    1.44    0.08
   1   4 -13   15.54    0.42
   1   4 -13   15.44    0.44
  -1  -4  13   15.66    0.43
  -1  -4  13   15.70    0.40
  -1  -4  13   15.74    0.42
   0   4 -13  111.81    2.54
   0   4 -13  111.03    2.39
   0   4 -13  111.11    2.35
   0  -4  13  112.63    2.72
   0  -4  13  110.88    2.41
   0  -4  13  110.08    2.54
  -1   4 -13    0.26    0.05
  -1   4 -13    0.27    0.05
  -1   4 -13    0.36    0.06
  -1   4 -13    0.22    0.05
  -1   4 -13    0.28    0.04
   1  -4  13    0.28    0.06
   1  -4  13    0.33    0.08
   1  -4  13    0.32    0.07
  -2   4 -13   26.97    0.70
  -2   4 -13   27.58    0.64
  -2   4 -13   25.72    0.61
  -2   4 -13   27.10    0.65
   2  -4  13   26.91    0.73
  -3   4 -13    0.72    0.06
  -3   4 -13    0.78    0.07
  -3   4 -13    0.76    0.06
   3  -4  13    0.76    0.08
  -3  -3  13   25.74    0.61
  -3  -3  13   26.18    0.59
  -3  -3  13   26.82    0.70
  -3  -3  13   26.08    0.66
  -2  -3  13   22.86    0.54
  -2  -3  13   22.75    0.55
  -2  -3  13   22.96    0.60
   1   3 -13   25.29    0.62
   1   3 -13   23.42    0.85
   1   3 -13   25.33    0.66
  -1  -3  13   26.70    0.60
  -1  -3  13   26.16    0.61
  -1  -3  13   25.17    0.65
  -1  -3  13   25.14    0.65
   0   3 -13   62.53    1.46
   0   3 -13   61.28    1.36
   0   3 -13   60.90    1.37
   0  -3  13   62.15    1.46
   0  -3  13   62.07    1.33
   0  -3  13   63.03    1.57
   0  -3  13   62.36    1.38
  -1   3 -13   51.68    1.19
  -1   3 -13   53.44    1.18
  -1   3 -13   54.43    1.25
  -1   3 -13   52.87    1.29
  -1   3 -13   53.98    1.17
   1  -3  13   53.34    1.27
   1  -3  13   51.55    1.20
   1  -3  13   54.41    1.34
   1  -3  13   51.27    1.66
  -2   3 -13    9.24    0.27
  -2   3 -13    9.84    0.29
  -2   3 -13    9.39    0.30
   2  -3  13    9.54    0.32
  -3   3 -13    0.49    0.06
  -3   3 -13    0.53    0.06
  -3   3 -13    0.53    0.05
   3  -3  13    0.42    0.07
  -4   3 -13    5.18    0.17
  -4   3 -13    5.12    0.14
  -4   3 -13    5.54    0.15
  -4   3 -13    5.39    0.17
   4  -3  13    5.00    0.18
  -3  -2  13   19.77    0.56
  -3  -2  13   20.28    0.47
  -3  -2  13   20.51    0.53
  -3  -2  13   20.41    0.48
  -2  -2  13    3.41    0.13
  -2  -2  13    3.45    0.13
  -2  -2  13    3.25    0.16
  -2  -2  13    3.38    0.15
   1   2 -13   28.98    0.71
   1   2 -13   28.45    0.97
  -1  -2  13   29.62    0.69
  -1  -2  13   29.74    0.75
  -1  -2  13   28.13    0.78
  -1  -2  13   29.88    0.68
  -1  -2  13   29.55    0.73
  -1  -2  13   30.51    0.69
   0   2 -13    9.80    0.40
   0   2 -13    9.96    0.29
   0   2 -13   10.28    0.30
   0  -2  13   10.42    0.28
   0  -2  13   10.26    0.34
   0  -2  13   10.25    0.29
   0  -2  13   10.08    0.31
  -1   2 -13    7.25    0.23
  -1   2 -13    6.78    0.22
  -1   2 -13    7.08    0.22
  -1   2 -13    7.39    0.24
   1  -2  13    6.97    0.23
   1  -2  13    7.67    0.26
   1  -2  13    7.27    0.24
   1  -2  13    6.87    0.33
  -2   2 -13    8.12    0.25
  -2   2 -13    7.84    0.26
  -2   2 -13    7.63    0.23
  -2   2 -13    7.71    0.23
   2  -2  13    7.37    0.34
   2  -2  13    7.71    0.27
  -3   2 -13    0.06    0.03
  -3   2 -13    0.06    0.02
  -3   2 -13    0.03    0.03
   3  -2  13    0.04    0.04
  -4   2 -13    1.71    0.09
  -4   2 -13    1.79    0.09
  -4   2 -13    1.79    0.08
  -4   2 -13    1.69    0.08
  -4   2 -13    1.66    0.08
   4  -2  13    1.65    0.10
  -4  -1  13    0.06    0.03
  -3  -1  13   57.31    1.43
  -3  -1  13   59.01    1.38
  -3  -1  13   58.06    1.23
  -3  -1  13   57.06    1.27
  -2  -1  13    0.41    0.05
  -2  -1  13    0.50    0.08
  -2  -1  13    0.50    0.05
  -2  -1  13    0.45    0.07
   1   1 -13    0.09    0.04
   1   1 -13    0.10    0.05
  -1  -1  13    0.11    0.03
   0   1 -13    0.57    0.09
   0   1 -13    0.59    0.06
   0   1 -13    0.49    0.06
   0   1 -13    0.61    0.08
   0  -1  13    0.50    0.06
   0  -1  13    0.74    0.06
   0  -1  13    0.57    0.06
   0  -1  13    0.49    0.07
   0  -1  13    0.48    0.06
  -1   1 -13    4.56    0.16
  -1   1 -13    4.27    0.17
  -1   1 -13    4.50    0.17
  -1   1 -13    4.46    0.17
   1  -1  13    4.41    0.18
   1  -1  13    4.48    0.24
   1  -1  13    4.48    0.16
   1  -1  13    4.46    0.17
  -2   1 -13    0.02    0.02
  -2   1 -13    0.01    0.02
  -2   1 -13    0.01    0.03
  -2   1 -13    0.06    0.03
   2  -1  13    0.09    0.05
   2  -1  13    0.11    0.04
  -3   1 -13   47.12    1.04
  -3   1 -13   47.30    1.06
  -3   1 -13   47.20    1.15
  -4   1 -13   40.85    0.98
  -4   1 -13   41.24    0.89
  -4   1 -13   41.17    0.91
  -4   1 -13   39.58    0.96
   4  -1  13   40.86    1.03
  -3   0  13    0.06    0.02
  -3   0  13    0.05    0.02
  -3   0  13    0.08    0.04
  -3   0  13    0.04    0.03
  -3   0  13    0.09    0.04
  -2   0  13   14.73    0.42
  -2   0  13   15.15    0.38
  -2   0  13   14.77    0.38
  -2   0  13   15.08    0.47
   1   0 -13    0.45    0.08
  -1   0  13    0.29    0.04
  -1   0  13    0.35    0.06
  -1   0  13    0.35    0.04
  -1   0  13    0.31    0.05
  -1   0  13    0.38    0.05
   0   0 -13   29.06    0.71
   0   0 -13   29.92    0.75
   0   0 -13   29.39    0.97
   0   0  13   30.57    0.69
   0   0  13   30.17    0.74
   0   0  13   30.17    0.69
   0   0  13   30.11    0.76
  -1   0 -13   12.33    0.36
  -1   0 -13   12.53    0.34
  -1   0 -13   12.46    0.34
  -1   0 -13   12.32    0.35
   1   0  13   12.25    0.36
   1   0  13   12.45    0.36
   1   0  13   12.04    0.33
   1   0  13   12.57    0.47
  -2   0 -13    4.67    0.15
  -2   0 -13    4.76    0.16
  -2   0 -13    4.47    0.17
  -2   0 -13    4.87    0.17
  -2   0 -13    4.51    0.18
   2   0  13    4.68    0.24
  -3   0 -13    9.38    0.29
  -3   0 -13    9.53    0.28
  -3   0 -13    9.76    0.27
  -4   0 -13    3.12    0.12
  -4   0 -13    3.15    0.13
  -4   0 -13    2.98    0.13
  -4   0 -13    3.26    0.12
  -3   1  13    2.28    0.13
  -3   1  13    2.43    0.11
  -3   1  13    2.38    0.13
  -3   1  13    2.33    0.09
  -3   1  13    2.25    0.09
  -2   1  13   59.97    1.50
  -2   1  13   59.13    1.28
  -2   1  13   60.77    1.31
  -2   1  13   59.98    1.43
  -2   1  13   56.83    1.59
   1  -1 -13  188.26    5.46
  -1   1  13  191.19    3.88
  -1   1  13  186.87    4.00
  -1   1  13  187.72    5.49
  -1   1  13  191.99    4.33
  -1   1  13  183.91    4.18
   0  -1 -13   99.94    2.90
   0  -1 -13   95.55    2.24
   0  -1 -13   96.06    2.24
   0  -1 -13   93.76    2.11
   0   1  13   98.79    2.09
   0   1  13   99.82    2.29
   0   1  13   98.19    2.22
   0   1  13  100.36    2.06
   0   1  13   94.33    2.11
   0   1  13  101.31    2.92
  -1  -1 -13   25.60    0.65
  -1  -1 -13   24.78    0.64
  -1  -1 -13   25.06    0.60
  -1  -1 -13   24.30    0.60
  -1  -1 -13   24.44    0.83
   1   1  13   25.17    0.59
   1   1  13   25.45    0.64
   1   1  13   25.53    0.60
   1   1  13   25.36    0.83
  -2  -1 -13    3.71    0.15
  -2  -1 -13    3.56    0.15
  -2  -1 -13    3.56    0.13
  -2  -1 -13    3.76    0.15
  -2  -1 -13    3.40    0.13
   2   1  13    3.60    0.20
   2   1  13    3.35    0.14
  -3  -1 -13    6.12    0.21
  -3  -1 -13    6.05    0.20
  -3  -1 -13    6.16    0.22
  -4  -1 -13   30.19    0.68
  -4  -1 -13   28.31    0.73
  -4  -1 -13   30.59    0.69
  -4  -1 -13   30.49    0.75
  -5  -1 -13   41.66    0.98
  -3   2  13    1.79    0.08
  -3   2  13    1.74    0.09
  -3   2  13    1.69    0.11
  -3   2  13    1.73    0.11
  -2   2  13   10.93    0.36
  -2   2  13   11.04    0.29
  -2   2  13   10.69    0.30
  -2   2  13   10.10    0.37
  -2   2  13   10.59    0.33
   1  -2 -13   88.18    2.64
  -1   2  13   91.55    2.09
  -1   2  13   87.69    1.88
  -1   2  13   90.24    2.15
  -1   2  13   83.71    1.98
  -1   2  13   87.62    1.92
  -1   2  13   89.28    2.67
   0  -2 -13  167.19    4.87
   0  -2 -13  160.08    3.77
   0   2  13  171.32    3.86
   0   2  13  167.50    3.57
   0   2  13  170.88    4.90
   0   2  13  168.96    3.47
   0   2  13  166.42    3.74
   0   2  13  167.25    3.52
  -1  -2 -13   45.53    1.03
  -1  -2 -13   46.79    1.12
  -1  -2 -13   46.19    1.05
  -1  -2 -13   44.93    1.44
   1   2  13   46.82    1.03
   1   2  13   46.91    1.43
   1   2  13   47.92    1.04
   1   2  13   46.45    1.11
  -2  -2 -13   61.39    1.45
  -2  -2 -13   59.56    1.32
  -2  -2 -13   61.06    1.32
  -2  -2 -13   62.08    1.42
  -2  -2 -13   60.38    1.34
  -2  -2 -13   62.58    1.42
   2   2  13   59.29    1.84
   2   2  13   58.93    1.42
   2   2  13   58.66    1.33
  -3  -2 -13   51.44    1.24
  -3  -2 -13   51.81    1.13
  -3  -2 -13   49.89    1.15
  -4  -2 -13    3.14    0.12
  -4  -2 -13    3.29    0.14
  -4  -2 -13    3.20    0.13
  -4  -2 -13    3.32    0.13
  -5  -2 -13   32.70    0.79
  -5  -2 -13   33.44    0.72
  -3   3  13    0.30    0.06
  -3   3  13    0.01    0.03
  -3   3  13    0.11    0.04
  -2   3  13    1.00    0.07
  -2   3  13    1.02    0.10
  -2   3  13    0.90    0.09
  -2   3  13    0.99    0.07
  -2   3  13    0.97    0.08
   1  -3 -13    0.15    0.06
  -1   3  13    0.24    0.06
  -1   3  13    0.10    0.06
  -1   3  13    0.12    0.04
  -1   3  13    0.21    0.04
  -1   3  13    0.13    0.04
  -1   3  13    0.11    0.04
   0  -3 -13  138.26    4.01
   0   3  13  138.08    4.04
   0   3  13  138.42    2.88
   0   3  13  131.32    3.06
   0   3  13  135.13    2.86
   0   3  13  144.38    3.18
   0   3  13  130.36    2.93
  -1  -3 -13   94.96    2.82
  -1  -3 -13   91.64    2.00
  -1  -3 -13   90.31    2.18
   1   3  13   95.10    2.17
   1   3  13   96.16    2.01
   1   3  13  100.39    2.04
  -2  -3 -13  419.44    9.32
  -2  -3 -13  416.65    9.43
  -2  -3 -13  414.66    8.63
  -2  -3 -13  413.99    8.73
   2   3  13  397.55   11.77
   2   3  13  409.24    9.15
   2   3  13  421.40    8.61
  -3  -3 -13   16.70    0.43
  -3  -3 -13   17.38    0.47
  -3  -3 -13   16.87    0.44
  -4  -3 -13    0.21    0.04
  -4  -3 -13    0.24    0.05
  -4  -3 -13    0.19    0.04
  -5  -3 -13    1.21    0.07
  -3   4  13   78.09    1.85
  -3   4  13   80.84    1.71
  -3   4  13   81.84    2.09
  -2   4  13   32.73    0.74
  -2   4  13   31.94    0.92
  -2   4  13   33.11    0.73
  -2   4  13   31.55    0.84
  -2   4  13   30.74    0.81
  -1   4  13    0.14    0.05
  -1   4  13    0.36    0.07
  -1   4  13    0.29    0.06
  -1   4  13    0.10    0.04
  -1   4  13    0.20    0.04
   0  -4 -13    5.62    0.29
   0   4  13    5.94    0.23
   0   4  13    6.34    0.31
   0   4  13    5.67    0.24
   0   4  13    5.68    0.17
   0   4  13    5.56    0.21
   0   4  13    5.58    0.20
   0   4  13    5.51    0.19
  -1  -4 -13  105.59    3.15
  -1  -4 -13  101.75    2.44
   1   4  13  102.89    2.24
   1   4  13  106.43    2.28
   1   4  13  111.00    2.27
   1   4  13  108.94    3.18
   1   4  13  106.24    2.42
  -2  -4 -13   28.02    0.66
  -2  -4 -13   28.30    0.70
   2   4  13   25.70    0.90
   2   4  13   27.67    0.66
   2   4  13   27.11    0.70
  -3  -4 -13    4.26    0.16
  -3  -4 -13    3.86    0.16
  -3  -4 -13    3.34    0.14
  -3  -4 -13    4.10    0.15
  -3  -4 -13    3.75    0.14
   3   4  13    3.86    0.16
  -4  -4 -13    2.85    0.12
  -4  -4 -13    2.90    0.11
  -4  -4 -13    2.86    0.12
  -4  -4 -13    2.82    0.12
  -2   5  13    6.92    0.24
  -2   5  13    7.27    0.21
  -2   5  13    7.31    0.28
  -2   5  13    7.73    0.21
  -1   5  13    0.49    0.08
  -1   5  13    0.44    0.05
  -1   5  13    0.43    0.06
  -1   5  13    0.52    0.07
  -1   5  13    0.42    0.06
   0   5  13   44.60    1.04
   0   5  13   43.04    1.02
   0   5  13   46.32    1.11
   0   5  13   43.77    1.02
   0   5  13   45.68    1.24
   0   5  13   44.07    1.01
  -1  -5 -13    0.51    0.07
   1   5  13    0.49    0.06
   1   5  13    0.56    0.07
   1   5  13    0.51    0.06
   1   5  13    0.46    0.10
   1   5  13    0.47    0.05
  -2  -5 -13    0.66    0.07
  -2  -5 -13    0.72    0.07
   2   5  13    0.78    0.07
   2   5  13    0.81    0.08
  -3  -5 -13    9.12    0.27
  -3  -5 -13    8.94    0.28
  -3  -5 -13    9.45    0.26
   3   5  13    9.34    0.27
   3   5  13    9.15    0.29
  -4  -5 -13    0.59    0.05
  -4  -5 -13    0.56    0.05
  -4  -5 -13    0.58    0.05
  -2   6  13    4.72    0.17
  -2   6  13    4.99    0.15
  -2   6  13    4.81    0.15
  -2   6  13    5.04    0.20
  -1   6  13    0.42    0.07
  -1   6  13    0.34    0.05
  -1   6  13    0.32    0.07
  -1   6  13    0.43    0.05
  -1   6  13    0.40    0.05
   0   6  13   67.79    1.55
   0   6  13   69.84    1.52
   0   6  13   70.64    1.55
   0   6  13   70.12    1.87
   0   6  13   71.43    1.68
  -1  -6 -13    0.07    0.03
   1   6  13    0.10    0.05
   1   6  13    0.03    0.03
   1   6  13    0.13    0.04
   1   6  13    0.12    0.04
   1   6  13    0.08    0.03
  -2  -6 -13   15.86    0.45
   2   6  13   16.32    0.42
   2   6  13   16.20    0.44
   2   6  13   16.15    0.41
  -3  -6 -13   25.58    0.60
  -3  -6 -13   25.73    0.62
   3   6  13   26.11    0.65
   3   6  13   25.65    0.60
   3   6  13   24.92    0.60
  -4  -6 -13   10.84    0.30
  -4  -6 -13   12.19    0.29
   4   6  13   11.20    0.29
  -1   7  13    2.56    0.11
  -1   7  13    2.63    0.10
  -1   7  13    2.54    0.12
  -1   7  13    2.51    0.13
  -1   7  13    2.56    0.11
   0   7  13   11.59    0.34
   0   7  13   11.29    0.31
   0   7  13   11.71    0.32
   0   7  13   11.66    0.39
   0   7  13   11.58    0.32
  -1  -7 -13   18.24    0.50
   1   7  13   18.92    0.47
   1   7  13   19.12    0.47
   1   7  13   18.78    0.46
   1   7  13   17.64    0.42
   1   7  13   18.13    0.56
  -2  -7 -13    9.62    0.29
   2   7  13    9.36    0.28
   2   7  13    9.14    0.25
   2   7  13    9.63    0.27
  -3  -7 -13    8.98    0.24
  -3  -7 -13    8.70    0.24
   3   7  13    9.42    0.27
   3   7  13    9.06    0.24
   3   7  13    9.05    0.24
   0   8  13    1.76    0.10
   0   8  13    1.71    0.08
   0   8  13    1.58    0.09
   0   8  13    1.66    0.08
   0   8  13    1.79    0.09
  -1  -8 -13    1.56    0.09
   1   8  13    1.48    0.08
   1   8  13    1.36    0.09
   1   8  13    1.51    0.08
  -2  -8 -13    1.39    0.08
   2   8  13    1.23    0.05
   2   8  13    1.18    0.08
   2   8  13    1.38    0.07
   2   8  13    1.36    0.07
   0   7 -14    0.98    0.06
   0  -7  14    0.93    0.07
   0  -7  14    1.10    0.07
   2   6 -14   33.30    0.79
   2   6 -14   31.40    0.69
   2   6 -14   33.75    0.74
   1   6 -14   66.13    1.42
   1   6 -14   64.52    1.33
   1   6 -14   67.35    1.52
  -1  -6  14   67.72    1.51
  -1  -6  14   63.15    1.41
   0   6 -14   86.87    1.94
   0   6 -14   81.85    1.81
   0  -6  14   87.66    1.96
   0  -6  14   85.79    1.86
  -1   6 -14   38.43    0.82
  -1   6 -14   39.13    0.86
   1  -6  14   39.02    0.93
   1  -6  14   37.52    0.89
  -2   6 -14   15.76    0.38
  -2   6 -14   15.30    0.42
  -2   6 -14   16.28    0.39
   2   5 -14    0.10    0.03
   2   5 -14    0.06    0.03
   2   5 -14    0.08    0.03
  -2  -5  14    0.09    0.03
   1   5 -14   15.53    0.43
   1   5 -14   15.21    0.36
   1   5 -14   15.50    0.40
  -1  -5  14   15.28    0.39
  -1  -5  14   15.34    0.38
  -1  -5  14   15.79    0.42
   0   5 -14   13.29    0.35
   0   5 -14   13.40    0.37
   0   5 -14   13.01    0.36
   0  -5  14   13.16    0.38
   0  -5  14   13.56    0.37
  -1   5 -14    3.01    0.14
  -1   5 -14    2.90    0.13
  -1   5 -14    2.97    0.13
  -1   5 -14    2.79    0.11
   1  -5  14    2.81    0.14
   1  -5  14    2.91    0.14
   1  -5  14    2.88    0.16
  -2   5 -14    5.75    0.18
  -2   5 -14    5.43    0.20
  -2   5 -14    5.65    0.18
  -2   5 -14    5.20    0.17
   2  -5  14    5.52    0.21
  -3   5 -14    3.38    0.11
  -3   5 -14    3.41    0.13
  -3   5 -14    3.29    0.11
  -3   5 -14    3.43    0.10
  -3  -4  14    0.45    0.04
  -3  -4  14    0.40    0.05
  -3  -4  14    0.43    0.07
  -3  -4  14    0.40    0.04
   2   4 -14    5.26    0.20
   2   4 -14    5.72    0.19
  -2  -4  14    5.41    0.18
  -2  -4  14    5.78    0.18
  -2  -4  14    5.43    0.17
   1   4 -14   17.30    0.48
   1   4 -14   17.31    0.45
  -1  -4  14   17.52    0.47
  -1  -4  14   17.72    0.44
  -1  -4  14   17.22    0.43
   0   4 -14   28.64    0.71
   0   4 -14   27.55    0.67
   0   4 -14   27.96    0.67
   0  -4  14   28.34    0.69
   0  -4  14   27.86    0.72
   0  -4  14   28.33    0.78
  -1   4 -14    2.44    0.13
  -1   4 -14    2.30    0.11
  -1   4 -14    2.53    0.12
  -1   4 -14    2.35    0.10
  -1   4 -14    2.49    0.11
   1  -4  14    2.24    0.14
   1  -4  14    2.45    0.13
   1  -4  14    2.36    0.13
  -2   4 -14   22.75    0.60
  -2   4 -14   22.43    0.55
  -2   4 -14   22.46    0.55
   2  -4  14   23.20    0.63
  -3   4 -14    9.13    0.25
  -3   4 -14    9.13    0.25
  -3   4 -14    9.09    0.27
   3  -4  14    9.30    0.29
  -3  -3  14   38.42    0.83
  -3  -3  14   39.03    0.96
  -3  -3  14   38.99    0.92
  -3  -3  14   37.60    0.85
   2   3 -14   45.69    1.07
  -2  -3  14   46.64    1.05
  -2  -3  14   47.76    1.13
  -2  -3  14   47.55    1.02
   1   3 -14    8.43    0.28
   1   3 -14    8.18    0.26
  -1  -3  14    7.98    0.26
  -1  -3  14    8.42    0.24
  -1  -3  14    8.08    0.25
  -1  -3  14    8.36    0.26
   0   3 -14    5.45    0.21
   0   3 -14    5.46    0.20
   0   3 -14    5.62    0.20
   0  -3  14    5.42    0.18
   0  -3  14    5.58    0.21
   0  -3  14    5.48    0.20
   0  -3  14    5.63    0.24
  -1   3 -14    0.45    0.06
  -1   3 -14    0.24    0.06
  -1   3 -14    0.49    0.06
  -1   3 -14    0.32    0.05
   1  -3  14    0.26    0.06
   1  -3  14    0.28    0.06
   1  -3  14    0.30    0.06
  -2   3 -14    0.15    0.04
  -2   3 -14    0.15    0.04
  -2   3 -14    0.19    0.04
   2  -3  14    0.33    0.07
  -3   3 -14    4.65    0.16
  -3   3 -14    4.75    0.17
  -3   3 -14    4.92    0.17
   3  -3  14    4.68    0.19
  -4   3 -14    8.44    0.24
  -4   3 -14    8.38    0.21
  -3  -2  14   18.23    0.43
  -3  -2  14   17.80    0.42
  -3  -2  14   17.87    0.50
  -3  -2  14   18.59    0.47
  -2  -2  14   46.23    1.20
  -2  -2  14   46.68    1.07
  -2  -2  14   49.26    1.05
  -2  -2  14   48.92    1.16
   1   2 -14    5.31    0.20
  -1  -2  14    5.30    0.18
  -1  -2  14    5.47    0.20
  -1  -2  14    5.16    0.21
  -1  -2  14    5.33    0.18
  -1  -2  14    5.63    0.19
  -1  -2  14    5.38    0.18
   0   2 -14    1.53    0.10
   0   2 -14    1.53    0.13
   0  -2  14    1.53    0.12
   0  -2  14    1.54    0.10
   0  -2  14    1.48    0.10
   0  -2  14    1.52    0.09
  -1   2 -14    9.06    0.28
  -1   2 -14    9.29    0.26
  -1   2 -14    8.99    0.29
   1  -2  14    8.88    0.27
   1  -2  14    8.42    0.39
   1  -2  14    9.34    0.29
   1  -2  14    9.37    0.31
  -2   2 -14   10.68    0.33
  -2   2 -14   10.51    0.30
  -2   2 -14   10.56    0.29
  -2   2 -14   10.74    0.31
   2  -2  14   10.84    0.34
  -3   2 -14   12.98    0.34
  -3   2 -14   12.77    0.37
  -3   2 -14   12.88    0.34
   3  -2  14   12.79    0.39
  -4   2 -14    4.06    0.14
  -4   2 -14    4.06    0.13
  -4   2 -14    3.82    0.13
   4  -2  14    3.89    0.15
  -3  -1  14    0.76    0.08
  -3  -1  14    0.96    0.06
  -3  -1  14    0.95    0.07
  -3  -1  14    0.98    0.06
  -2  -1  14   10.44    0.35
  -2  -1  14   10.36    0.29
  -2  -1  14   10.49    0.28
  -2  -1  14   10.50    0.32
   1   1 -14    0.39    0.08
   1   1 -14    0.37    0.06
  -1  -1  14    0.44    0.05
  -1  -1  14    0.40    0.05
  -1  -1  14    0.48    0.07
  -1  -1  14    0.36    0.05
  -1  -1  14    0.39    0.05
  -1  -1  14    0.74    0.09
   0   1 -14   21.44    0.77
   0   1 -14   23.07    0.57
   0   1 -14   23.02    0.60
   0  -1  14   23.49    0.59
   0  -1  14   22.65    0.55
   0  -1  14   22.80    0.54
   0  -1  14   22.71    0.63
  -1   1 -14    2.41    0.11
  -1   1 -14    2.01    0.11
  -1   1 -14    2.06    0.12
  -1   1 -14    1.88    0.11
   1  -1  14    2.11    0.11
   1  -1  14    1.99    0.16
   1  -1  14    2.21    0.12
   1  -1  14    2.15    0.11
  -2   1 -14   17.73    0.48
  -2   1 -14   17.83    0.45
  -2   1 -14   17.65    0.45
   2  -1  14   17.69    0.50
   2  -1  14   17.21    0.45
   2  -1  14   16.59    0.64
  -3   1 -14   98.97    2.17
  -3   1 -14   99.61    2.11
  -3   1 -14  100.62    2.34
   3  -1  14  101.96    2.42
  -4   1 -14    4.71    0.16
  -4   1 -14    4.75    0.15
  -4   1 -14    4.47    0.14
   4  -1  14    4.71    0.17
  -3   0  14    4.73    0.16
  -3   0  14    4.61    0.19
  -3   0  14    4.52    0.14
  -3   0  14    4.40    0.14
  -2   0  14   45.02    1.09
  -2   0  14   45.44    1.00
  -2   0  14   44.56    1.16
  -2   0  14   43.81    0.98
   1   0 -14   52.95    1.69
  -1   0  14   54.31    1.27
  -1   0  14   52.96    1.21
  -1   0  14   56.62    1.20
  -1   0  14   56.01    1.33
  -1   0  14   55.67    1.38
   0   0 -14   34.15    1.12
   0   0 -14   34.87    0.87
   0   0 -14   34.20    0.82
   0   0  14   33.00    1.12
   0   0  14   35.79    0.80
   0   0  14   35.86    0.79
   0   0  14   36.08    0.87
   0   0  14   35.50    0.85
  -1   0 -14    8.88    0.26
  -1   0 -14    8.56    0.28
  -1   0 -14    8.57    0.26
   1   0  14    8.82    0.28
   1   0  14    8.38    0.28
   1   0  14    8.89    0.26
   1   0  14    8.48    0.37
  -2   0 -14    3.71    0.13
  -2   0 -14    3.81    0.14
  -2   0 -14    4.08    0.16
  -2   0 -14    3.85    0.16
   2   0  14    3.76    0.16
   2   0  14    3.47    0.21
   2   0  14    3.92    0.15
  -3   0 -14   19.68    0.52
  -3   0 -14   18.92    0.48
  -3   0 -14   19.20    0.48
  -4   0 -14    2.37    0.09
  -4   0 -14    2.34    0.10
  -4   0 -14    2.26    0.11
   4   0  14    2.42    0.12
  -3   1  14    0.59    0.07
  -3   1  14    0.68    0.06
  -3   1  14    0.58    0.06
  -3   1  14    0.63    0.04
  -3   1  14    0.55    0.04
  -2   1  14   38.72    0.97
  -2   1  14   40.10    1.03
  -2   1  14   38.72    0.87
  -2   1  14   39.38    0.89
   1  -1 -14    6.65    0.32
  -1   1  14    7.03    0.26
  -1   1  14    6.72    0.23
  -1   1  14    6.88    0.21
  -1   1  14    6.24    0.32
  -1   1  14    6.62    0.22
  -1   1  14    6.45    0.20
   0  -1 -14    2.16    0.12
   0  -1 -14    2.20    0.13
   0  -1 -14    2.24    0.16
   0  -1 -14    2.12    0.12
   0   1  14    2.33    0.10
   0   1  14    2.21    0.18
   0   1  14    2.43    0.12
   0   1  14    2.05    0.11
   0   1  14    2.20    0.11
   0   1  14    2.19    0.11
  -1  -1 -14    0.34    0.05
  -1  -1 -14    0.32    0.06
  -1  -1 -14    0.31    0.05
  -1  -1 -14    0.26    0.05
   1   1  14    0.29    0.05
   1   1  14    0.26    0.05
   1   1  14    0.31    0.05
   1   1  14    0.30    0.08
  -2  -1 -14   13.02    0.37
  -2  -1 -14   12.60    0.35
  -2  -1 -14   12.42    0.34
  -2  -1 -14   12.55    0.32
  -2  -1 -14   12.41    0.34
   2   1  14   12.34    0.36
   2   1  14   12.40    0.37
   2   1  14   11.46    0.47
   2   1  14   11.99    0.34
  -3  -1 -14    1.51    0.09
  -3  -1 -14    1.50    0.08
  -3  -1 -14    1.64    0.10
  -4  -1 -14    0.48    0.05
  -4  -1 -14    0.58    0.06
  -4  -1 -14    0.55    0.05
  -3   2  14    0.32    0.05
  -3   2  14    0.28    0.06
  -3   2  14    0.37    0.03
  -3   2  14    0.38    0.05
  -2   2  14    6.03    0.24
  -2   2  14    5.71    0.24
  -2   2  14    6.68    0.20
  -2   2  14    5.85    0.21
  -2   2  14    5.81    0.19
   1  -2 -14    0.65    0.11
  -1   2  14    0.77    0.09
  -1   2  14    0.56    0.06
  -1   2  14    0.55    0.06
  -1   2  14    0.75    0.12
   0  -2 -14    0.59    0.07
   0  -2 -14    0.61    0.07
   0  -2 -14    0.59    0.10
   0   2  14    0.56    0.06
   0   2  14    0.73    0.08
   0   2  14    0.63    0.06
   0   2  14    0.54    0.06
   0   2  14    0.64    0.11
   0   2  14    0.61    0.06
  -1  -2 -14  142.54    3.16
  -1  -2 -14  136.98    2.97
  -1  -2 -14  137.95    2.90
  -1  -2 -14  130.99    4.07
   1   2  14  143.30    2.96
   1   2  14  142.03    2.90
   1   2  14  141.77    3.15
  -2  -2 -14   11.14    0.32
  -2  -2 -14   10.90    0.30
  -2  -2 -14   11.33    0.33
  -2  -2 -14   11.00    0.31
  -2  -2 -14   10.84    0.33
  -2  -2 -14   10.65    0.30
   2   2  14    9.77    0.42
   2   2  14   10.99    0.33
   2   2  14   10.93    0.31
  -3  -2 -14   11.44    0.31
  -3  -2 -14   11.47    0.34
  -3  -2 -14   11.61    0.33
  -4  -2 -14    0.07    0.03
  -4  -2 -14    0.04    0.02
  -4  -2 -14    0.05    0.03
  -3   3  14    3.59    0.15
  -3   3  14    3.46    0.13
  -3   3  14    3.73    0.11
  -3   3  14    3.55    0.15
  -2   3  14   11.09    0.29
  -2   3  14   10.76    0.33
  -2   3  14   11.45    0.30
  -2   3  14   11.01    0.36
  -2   3  14   10.84    0.37
  -1   3  14    7.94    0.26
  -1   3  14    7.63    0.23
  -1   3  14    7.44    0.28
  -1   3  14    7.42    0.24
   0  -3 -14   71.23    1.76
   0  -3 -14   75.53    2.28
   0   3  14   77.70    1.61
   0   3  14   73.59    1.72
   0   3  14   75.80    2.30
   0   3  14   72.93    1.65
   0   3  14   78.22    1.79
   0   3  14   74.77    1.62
  -1  -3 -14   19.87    0.55
  -1  -3 -14   20.66    0.52
  -1  -3 -14   19.52    0.71
   1   3  14   21.08    0.50
   1   3  14   19.56    0.50
   1   3  14   20.14    0.53
  -2  -3 -14  321.52    6.68
  -2  -3 -14  327.71    7.16
  -2  -3 -14  314.89    6.55
  -2  -3 -14  318.32    7.28
   2   3  14  322.91    7.12
   2   3  14  317.68    6.69
  -3  -3 -14   25.01    0.60
  -3  -3 -14   24.23    0.59
  -3  -3 -14   25.00    0.64
   3   3  14   23.86    0.59
  -4  -3 -14    2.77    0.11
  -4  -3 -14    2.77    0.12
  -4  -3 -14    2.77    0.11
  -2   4  14    6.67    0.23
  -2   4  14    6.46    0.23
  -2   4  14    6.78    0.26
  -2   4  14    6.90    0.20
  -2   4  14    6.74    0.20
  -1   4  14    4.48    0.18
  -1   4  14    4.24    0.19
  -1   4  14    4.44    0.20
  -1   4  14    4.38    0.16
  -1   4  14    4.62    0.17
   0   4  14   34.86    0.85
   0   4  14   32.84    0.73
   0   4  14   31.92    0.79
   0   4  14   33.13    0.77
   0   4  14   31.72    0.77
  -1  -4 -14   13.00    0.39
   1   4  14   12.95    0.36
   1   4  14   13.29    0.53
   1   4  14   13.86    0.35
   1   4  14   12.92    0.37
  -2  -4 -14    0.95    0.07
  -2  -4 -14    0.95    0.08
  -2  -4 -14    0.84    0.07
   2   4  14    0.77    0.07
   2   4  14    0.77    0.07
  -3  -4 -14   78.67    1.69
  -3  -4 -14   81.07    1.87
  -3  -4 -14   78.26    1.73
   3   4  14   79.49    1.83
   3   4  14   78.83    1.72
  -4  -4 -14   11.72    0.32
  -4  -4 -14   10.99    0.29
  -4  -4 -14   11.50    0.30
  -2   5  14    7.49    0.26
  -2   5  14    7.39    0.20
  -2   5  14    7.47    0.20
  -2   5  14    7.08    0.23
  -1   5  14   21.91    0.54
  -1   5  14   21.85    0.66
  -1   5  14   22.82    0.59
  -1   5  14   21.77    0.54
   0   5  14    1.08    0.08
   0   5  14    1.07    0.06
   0   5  14    1.05    0.08
   0   5  14    1.12    0.08
   0   5  14    1.16    0.10
   0   5  14    1.05    0.09
  -1  -5 -14   12.41    0.39
   1   5  14   13.02    0.35
   1   5  14   13.30    0.33
   1   5  14   12.84    0.36
   1   5  14   12.92    0.36
  -2  -5 -14    1.21    0.09
  -2  -5 -14    1.23    0.08
   2   5  14    1.33    0.08
   2   5  14    1.21    0.09
   2   5  14    1.23    0.08
  -3  -5 -14    6.33    0.20
  -3  -5 -14    7.19    0.22
  -3  -5 -14    7.33    0.20
   3   5  14    7.08    0.22
   3   5  14    7.27    0.23
  -4  -5 -14   12.01    0.30
  -4  -5 -14   13.02    0.31
  -4  -5 -14   12.39    0.33
   4   5  14   11.90    0.31
  -2   6  14    8.60    0.28
  -2   6  14    8.85    0.22
  -2   6  14    8.36    0.24
  -1   6  14    6.52    0.20
  -1   6  14    6.46    0.22
  -1   6  14    6.53    0.25
  -1   6  14    6.73    0.20
   0   6  14   79.27    1.78
   0   6  14   69.50    1.63
   0   6  14   73.06    1.63
   0   6  14   75.64    1.98
   0   6  14   75.18    1.60
  -1  -6 -14    4.43    0.18
   1   6  14    4.49    0.14
   1   6  14    4.18    0.19
   1   6  14    4.56    0.16
   1   6  14    4.39    0.16
   1   6  14    4.39    0.17
  -2  -6 -14    5.43    0.19
   2   6  14    5.22    0.19
   2   6  14    5.29    0.17
   2   6  14    5.23    0.17
  -3  -6 -14    4.09    0.13
  -3  -6 -14    3.86    0.14
   3   6  14    3.96    0.14
   3   6  14    4.09    0.15
   3   6  14    3.95    0.14
  -1   7  14    0.86    0.07
  -1   7  14    0.95    0.07
  -1   7  14    0.87    0.06
  -1   7  14    0.92    0.07
  -1   7  14    0.92    0.05
   0   7  14    8.89    0.25
   0   7  14    8.90    0.25
   0   7  14    8.43    0.24
   0   7  14    8.90    0.27
   0   7  14    9.09    0.30
  -1  -7 -14    2.00    0.11
   1   7  14    1.97    0.11
   1   7  14    2.00    0.08
   1   7  14    1.88    0.10
   1   7  14    2.20    0.10
  -2  -7 -14    0.35    0.05
   2   7  14    0.33    0.04
   3   7  14    0.61    0.05
   3   7  14    0.70    0.05
   3   7  14    0.89    0.06
   0   8  14   22.57    0.51
  -1  -8 -14    2.21    0.10
   1   8  14    2.25    0.09
   1   8  14    1.97    0.11
   1   8  14    2.11    0.09
  -2  -8 -14   14.35    0.36
   2   8  14   13.61    0.34
   2   8  14   14.00    0.34
   1   6 -15   18.10    0.45
   1   6 -15   17.68    0.42
  -1  -6  15   17.88    0.44
   0   6 -15   58.67    1.36
   0   6 -15   58.79    1.21
   0  -6  15   62.26    1.39
   0  -6  15   60.06    1.31
  -1   6 -15   99.30    2.12
   1  -6  15  102.67    2.31
   1  -6  15  104.40    2.19
   2   5 -15   12.09    0.33
   2   5 -15   12.27    0.31
  -2  -5  15   12.24    0.30
   1   5 -15    4.08    0.15
   1   5 -15    4.16    0.16
  -1  -5  15    3.98    0.15
  -1  -5  15    3.75    0.14
   0   5 -15   48.19    1.06
   0   5 -15   49.16    1.14
   0  -5  15   48.13    1.09
   0  -5  15   49.12    1.15
  -1   5 -15   13.48    0.35
  -1   5 -15   12.81    0.32
   1  -5  15   13.14    0.37
   1  -5  15   12.87    0.36
   1  -5  15   13.04    0.40
  -2   5 -15   46.87    1.07
  -2   5 -15   48.90    1.16
  -2   5 -15   49.64    1.05
   2  -5  15   47.85    1.08
   2  -5  15   49.70    1.21
   2   4 -15    0.26    0.05
   2   4 -15    0.34    0.05
  -2  -4  15    0.24    0.05
  -2  -4  15    0.26    0.04
   1   4 -15   20.66    0.55
   1   4 -15   21.13    0.52
  -1  -4  15   21.37    0.53
  -1  -4  15   19.99    0.49
  -1  -4  15   20.63    0.49
   0   4 -15   60.69    1.33
   0   4 -15   60.96    1.42
   0  -4  15   59.84    1.53
   0  -4  15   61.39    1.43
   0  -4  15   60.81    1.35
  -1   4 -15   42.35    1.00
  -1   4 -15   42.43    0.96
   1  -4  15   42.11    0.98
   1  -4  15   42.92    1.10
   1  -4  15   42.60    1.03
  -2   4 -15    1.26    0.07
  -2   4 -15    1.24    0.09
  -2   4 -15    1.26    0.08
   2  -4  15    1.33    0.09
   2  -4  15    1.30    0.10
  -3   4 -15   14.80    0.36
  -3   4 -15   15.02    0.39
  -3   4 -15   14.77    0.30
  -3   4 -15   14.56    0.36
  -3  -3  15    6.70    0.18
  -3  -3  15    6.70    0.18
  -3  -3  15    6.95    0.20
   2   3 -15   14.75    0.39
  -2  -3  15   15.32    0.37
  -2  -3  15   15.19    0.40
  -2  -3  15   14.68    0.37
   1   3 -15   10.63    0.31
   1   3 -15   10.74    0.33
  -1  -3  15   10.60    0.29
  -1  -3  15   10.72    0.31
  -1  -3  15   10.67    0.29
   0   3 -15    7.79    0.26
   0   3 -15    7.73    0.24
   0  -3  15    7.67    0.29
   0  -3  15    7.84    0.26
   0  -3  15    7.86    0.25
  -1   3 -15   17.57    0.46
  -1   3 -15   17.25    0.43
  -1   3 -15   17.42    0.45
   1  -3  15   17.38    0.46
   1  -3  15   17.83    0.52
   1  -3  15   17.62    0.48
  -2   3 -15    1.35    0.09
  -2   3 -15    1.47    0.08
  -2   3 -15    1.57    0.09
   2  -3  15    1.47    0.11
   2  -3  15    1.38    0.09
  -3   3 -15    3.20    0.13
  -3   3 -15    3.18    0.12
  -3   3 -15    3.31    0.12
   3  -3  15    3.28    0.14
  -3  -2  15    1.88    0.09
  -3  -2  15    1.94    0.08
  -3  -2  15    1.91    0.08
  -2  -2  15   15.23    0.38
  -2  -2  15   15.26    0.38
  -2  -2  15   15.37    0.42
   1   2 -15    4.71    0.18
   1   2 -15    4.28    0.18
  -1  -2  15    4.50    0.16
  -1  -2  15    4.37    0.15
  -1  -2  15    4.44    0.19
  -1  -2  15    4.65    0.17
  -1  -2  15    4.43    0.17
   0   2 -15    0.27    0.05
   0  -2  15    0.31    0.08
   0  -2  15    0.27    0.06
   0  -2  15    0.22    0.04
   0  -2  15    0.32    0.06
  -1   2 -15    3.63    0.15
  -1   2 -15    3.65    0.14
  -1   2 -15    3.67    0.15
   1  -2  15    3.43    0.17
   1  -2  15    3.64    0.15
   1  -2  15    3.75    0.16
  -2   2 -15    2.90    0.11
  -2   2 -15    3.00    0.13
  -2   2 -15    3.01    0.12
  -2   2 -15    2.96    0.14
   2  -2  15    3.07    0.14
   2  -2  15    2.87    0.15
  -3   2 -15    3.23    0.13
  -3   2 -15    3.18    0.13
  -3   2 -15    3.14    0.12
   3  -2  15    2.99    0.14
  -4   2 -15    0.80    0.05
  -4   2 -15    0.80    0.06
  -3  -1  15    0.10    0.02
  -3  -1  15    0.10    0.04
  -3  -1  15    0.11    0.02
  -3  -1  15    0.12    0.03
  -2  -1  15   27.11    0.62
  -2  -1  15   26.82    0.63
  -2  -1  15   27.20    0.69
  -2  -1  15   26.63    0.73
   1   1 -15    0.32    0.06
   1   1 -15    0.11    0.04
  -1  -1  15    0.23    0.06
  -1  -1  15    0.23    0.04
  -1  -1  15    0.23    0.06
  -1  -1  15    0.35    0.05
  -1  -1  15    0.24    0.04
   0   1 -15   23.40    0.59
   0  -1  15   24.34    0.62
   0  -1  15   24.08    0.58
   0  -1  15   24.12    0.57
  -1   1 -15    3.44    0.14
  -1   1 -15    3.37    0.15
  -1   1 -15    3.32    0.16
   1  -1  15    3.60    0.16
   1  -1  15    3.30    0.14
   1  -1  15    3.55    0.16
  -2   1 -15    0.01    0.02
  -2   1 -15    0.04    0.02
  -2   1 -15    0.04    0.03
  -2   1 -15    0.09    0.03
   2  -1  15    0.18    0.04
   2  -1  15    0.07    0.04
  -3   1 -15   52.96    1.14
  -3   1 -15   50.44    1.15
  -3   1 -15   51.50    1.24
   3  -1  15   52.17    1.29
  -4   1 -15    2.06    0.09
  -4   1 -15    2.00    0.08
  -4   1 -15    2.03    0.08
   4  -1  15    1.97    0.10
  -3   0  15   12.83    0.31
  -3   0  15   12.85    0.34
  -3   0  15   12.44    0.37
  -3   0  15   12.18    0.30
  -2   0  15    2.10    0.10
  -2   0  15    2.04    0.09
  -2   0  15    2.13    0.13
  -2   0  15    2.17    0.11
   1   0 -15    2.76    0.14
  -1   0  15    3.02    0.14
  -1   0  15    2.89    0.12
  -1   0  15    3.01    0.13
  -1   0  15    2.82    0.16
  -1   0  15    2.67    0.11
   0   0 -15  165.51    3.51
   0   0 -15  153.27    4.80
   0   0 -15  169.68    3.73
   0   0  15  168.26    3.49
   0   0  15  163.09    3.41
   0   0  15  166.26    3.80
   0   0  15  171.01    3.71
  -1   0 -15   62.87    1.38
  -1   0 -15   64.33    1.40
  -1   0 -15   64.69    1.49
   1   0  15   63.91    1.56
   1   0  15   63.39    1.40
   1   0  15   63.58    1.48
   1   0  15   59.72    1.93
  -2   0 -15   17.49    0.45
  -2   0 -15   17.26    0.45
  -2   0 -15   17.22    0.42
  -2   0 -15   18.37    0.49
   2   0  15   17.87    0.48
   2   0  15   17.51    0.45
   2   0  15   17.93    0.50
  -3   0 -15    7.64    0.23
  -3   0 -15    7.92    0.25
  -3   0 -15    7.95    0.24
   3   0  15    8.15    0.26
  -4   0 -15    0.92    0.07
  -4   0 -15    1.00    0.06
  -4   0 -15    0.97    0.06
   4   0  15    1.03    0.07
  -3   1  15   10.86    0.26
  -3   1  15   10.29    0.26
  -3   1  15   10.74    0.32
  -3   1  15   11.07    0.29
  -2   1  15    0.60    0.08
  -2   1  15    0.55    0.05
  -2   1  15    0.59    0.07
  -2   1  15    0.50    0.05
  -1   1  15    5.21    0.17
  -1   1  15    5.56    0.21
  -1   1  15    5.53    0.23
  -1   1  15    5.50    0.19
  -1   1  15    5.69    0.18
   0  -1 -15    8.59    0.27
   0  -1 -15    8.31    0.38
   0  -1 -15    8.78    0.29
   0   1  15    8.99    0.26
   0   1  15    8.15    0.38
   0   1  15    9.44    0.29
   0   1  15    8.91    0.25
   0   1  15    9.13    0.27
  -1  -1 -15  202.28    4.29
  -1  -1 -15  201.73    4.20
  -1  -1 -15  201.34    4.56
   1   1  15  206.58    4.29
   1   1  15  207.50    4.20
   1   1  15  202.97    4.56
  -2  -1 -15    1.59    0.10
  -2  -1 -15    1.53    0.08
  -2  -1 -15    1.71    0.10
  -2  -1 -15    1.67    0.09
  -2  -1 -15    1.66    0.10
   2   1  15    1.64    0.10
   2   1  15    1.62    0.10
   2   1  15    1.68    0.10
  -3  -1 -15    0.18    0.04
  -3  -1 -15    0.20    0.04
  -3  -1 -15    0.21    0.05
   3   1  15    0.18    0.04
  -4  -1 -15    4.25    0.13
  -4  -1 -15    4.19    0.15
  -4  -1 -15    4.29    0.14
   4   1  15    3.90    0.15
  -3   2  15    6.93    0.20
  -3   2  15    6.76    0.22
  -3   2  15    6.87    0.18
  -2   2  15    2.12    0.13
  -2   2  15    1.92    0.09
  -2   2  15    2.08    0.09
  -2   2  15    2.09    0.11
  -1   2  15    1.05    0.10
  -1   2  15    1.22    0.09
  -1   2  15    1.02    0.08
  -1   2  15    1.09    0.07
   0  -2 -15    5.49    0.22
   0  -2 -15    4.77    0.20
   0  -2 -15    5.04    0.19
   0   2  15    4.69    0.17
   0   2  15    5.45    0.20
   0   2  15    5.14    0.18
   0   2  15    5.22    0.19
   0   2  15    5.27    0.17
   0   2  15    4.96    0.28
  -1  -2 -15  605.48   13.39
  -1  -2 -15  596.79   13.48
  -1  -2 -15  590.40   12.74
  -1  -2 -15  582.03   12.29
   1   2  15  603.48   12.24
   1   2  15  622.34   12.58
   1   2  15  603.29   13.45
  -2  -2 -15   35.08    0.88
  -2  -2 -15   35.56    0.81
  -2  -2 -15   34.95    0.82
  -2  -2 -15   35.71    0.87
   2   2  15   36.78    0.88
   2   2  15   35.07    0.82
  -3  -2 -15    3.82    0.14
  -3  -2 -15    3.74    0.15
  -3  -2 -15    3.79    0.15
   3   2  15    3.82    0.15
  -4  -2 -15    0.25    0.04
  -4  -2 -15    0.17    0.03
  -4  -2 -15    0.16    0.03
  -2   3  15    4.42    0.17
  -2   3  15    4.40    0.14
  -2   3  15    4.78    0.19
  -2   3  15    4.29    0.18
  -2   3  15    4.57    0.15
  -1   3  15    1.76    0.10
  -1   3  15    2.06    0.12
  -1   3  15    1.59    0.09
  -1   3  15    1.78    0.12
   0  -3 -15   42.63    0.98
   0  -3 -15   41.00    1.03
   0   3  15   41.77    0.99
   0   3  15   41.03    0.96
   0   3  15   42.43    0.92
   0   3  15   43.46    1.04
   0   3  15   42.05    0.95
  -1  -3 -15   57.43    1.39
  -1  -3 -15   58.50    1.31
   1   3  15   59.95    1.29
   1   3  15   57.32    1.27
   1   3  15   59.41    1.38
  -2  -3 -15   54.35    1.26
  -2  -3 -15   55.15    1.26
  -2  -3 -15   53.29    1.18
  -2  -3 -15   51.11    1.17
   2   3  15   52.93    1.18
   2   3  15   52.42    1.27
  -3  -3 -15    4.88    0.16
  -3  -3 -15    4.91    0.17
  -3  -3 -15    4.83    0.18
   3   3  15    4.63    0.17
  -4  -3 -15    1.45    0.07
  -4  -3 -15    1.48    0.08
  -4  -3 -15    1.49    0.08
  -2   4  15    5.40    0.20
  -2   4  15    5.63    0.16
  -2   4  15    5.58    0.21
  -2   4  15    5.89    0.19
  -2   4  15    5.76    0.17
  -1   4  15    0.10    0.03
  -1   4  15    0.13    0.04
  -1   4  15    0.13    0.05
  -1   4  15    0.08    0.03
  -1   4  15    0.12    0.04
   0  -4 -15    9.63    0.32
   0   4  15    9.78    0.28
   0   4  15   10.70    0.32
   0   4  15   10.15    0.29
   0   4  15    9.32    0.28
   0   4  15    9.93    0.33
  -1  -4 -15   18.57    0.52
  -1  -4 -15   19.17    0.49
   1   4  15   19.04    0.50
   1   4  15   18.98    0.48
   1   4  15   19.60    0.47
  -3  -4 -15    0.96    0.07
  -3  -4 -15    0.92    0.07
   3   4  15    0.98    0.07
   3   4  15    1.03    0.08
  -4  -4 -15    8.37    0.22
  -4  -4 -15    7.92    0.21
  -4  -4 -15    8.00    0.23
  -2   5  15    2.71    0.12
  -2   5  15    2.80    0.09
  -2   5  15    2.63    0.09
  -2   5  15    2.68    0.11
  -1   5  15   24.60    0.59
  -1   5  15   24.85    0.71
  -1   5  15   24.76    0.64
  -1   5  15   25.36    0.58
   0   5  15    0.69    0.07
   0   5  15    0.63    0.06
   0   5  15    0.68    0.07
  -1  -5 -15    5.55    0.21
   1   5  15    5.58    0.19
   1   5  15    5.78    0.19
   1   5  15    5.80    0.17
  -2  -5 -15    2.66    0.12
  -2  -5 -15    2.51    0.11
   2   5  15    2.58    0.11
   2   5  15    2.48    0.11
   2   5  15    2.56    0.12
  -3  -5 -15    0.01    0.02
  -3  -5 -15    0.00    0.02
   3   5  15    0.01    0.02
   3   5  15    0.02    0.02
   3   5  15    0.03    0.03
  -4  -5 -15    0.83    0.05
  -1   6  15    0.92    0.07
  -1   6  15    0.97    0.08
  -1   6  15    0.99    0.06
  -1   6  15    0.97    0.06
   0   6  15   17.33    0.43
   0   6  15   17.52    0.46
   0   6  15   16.26    0.42
   0   6  15   17.47    0.52
  -1  -6 -15    3.00    0.14
   1   6  15    2.94    0.10
   1   6  15    2.94    0.12
   1   6  15    3.02    0.12
   1   6  15    2.98    0.11
  -2  -6 -15    0.94    0.06
  -2  -6 -15    1.07    0.07
   2   6  15    0.98    0.06
   2   6  15    0.95    0.06
   2   6  15    0.96    0.07
  -3  -6 -15   12.33    0.31
   3   6  15   12.93    0.32
   3   6  15   12.77    0.34
   3   6  15   12.65    0.31
   0   7  15   38.89    0.94
   0   7  15   40.04    0.85
   0   7  15   39.44    0.87
   0   7  15   38.50    1.05
  -1  -7 -15   28.38    0.69
   1   7  15   27.63    0.64
   1   7  15   27.46    0.62
  -2  -7 -15   28.93    0.66
  -2  -7 -15   30.35    0.71
   2   7  15   30.17    0.70
   2   7  15   28.84    0.64
   2   7  15   29.78    0.67
   1   5 -16   12.02    0.33
   1   5 -16   12.18    0.31
  -1  -5  16   12.07    0.31
   0   5 -16    1.46    0.07
   0   5 -16    1.59    0.08
   0  -5  16    1.57    0.09
   0  -5  16    1.73    0.09
  -1   5 -16    4.64    0.15
   1  -5  16    4.65    0.16
   1  -5  16    4.51    0.16
  -2   5 -16    0.27    0.04
   2   4 -16    3.47    0.15
   2   4 -16    3.42    0.13
  -2  -4  16    3.23    0.14
  -2  -4  16    3.38    0.11
   1   4 -16    1.71    0.09
   1   4 -16    1.74    0.10
  -1  -4  16    1.75    0.09
  -1  -4  16    1.66    0.08
   0   4 -16    6.79    0.20
   0   4 -16    6.80    0.22
   0  -4  16    6.72    0.22
   0  -4  16    6.70    0.21
  -1   4 -16    4.31    0.16
  -1   4 -16    4.33    0.14
   1  -4  16    4.48    0.17
   1  -4  16    4.55    0.19
   1  -4  16    4.53    0.17
  -2   4 -16    0.33    0.05
  -2   4 -16    0.28    0.05
  -2   4 -16    0.30    0.04
   2  -4  16    0.29    0.06
   2  -4  16    0.34    0.06
   2   3 -16    5.13    0.17
  -2  -3  16    5.15    0.15
  -2  -3  16    4.86    0.15
  -2  -3  16    4.77    0.16
   1   3 -16   15.08    0.42
   1   3 -16   15.51    0.40
  -1  -3  16   15.49    0.38
  -1  -3  16   15.51    0.40
   0   3 -16    5.09    0.17
   0   3 -16    4.93    0.18
   0  -3  16    4.90    0.21
   0  -3  16    4.93    0.18
   0  -3  16    4.85    0.18
  -1   3 -16   22.95    0.54
  -1   3 -16   23.68    0.59
  -1   3 -16   23.06    0.57
   1  -3  16   23.83    0.61
   1  -3  16   23.92    0.66
   1  -3  16   23.60    0.58
  -2   3 -16    8.81    0.25
  -2   3 -16    8.93    0.26
  -2   3 -16    9.20    0.28
   2  -3  16    8.98    0.30
   2  -3  16    9.44    0.27
  -3   3 -16    0.39    0.04
  -3   3 -16    0.34    0.04
  -3   3 -16    0.40    0.05
  -3   3 -16    0.39    0.04
   3  -3  16    0.32    0.06
  -2  -2  16   20.60    0.48
  -2  -2  16   20.29    0.47
  -2  -2  16   20.29    0.52
   1   2 -16    1.74    0.11
   1   2 -16    1.63    0.10
  -1  -2  16    1.73    0.09
  -1  -2  16    1.71    0.10
  -1  -2  16    1.84    0.09
   0   2 -16    4.24    0.16
   0   2 -16    4.39    0.18
   0  -2  16    4.09    0.16
   0  -2  16    4.43    0.15
   0  -2  16    4.65    0.17
   0  -2  16    4.33    0.20
  -1   2 -16    1.88    0.10
  -1   2 -16    1.85    0.10
  -1   2 -16    1.90    0.09
   1  -2  16    1.93    0.11
   1  -2  16    2.13    0.13
   1  -2  16    1.92    0.11
  -2   2 -16   24.39    0.59
  -2   2 -16   24.46    0.64
  -2   2 -16   25.69    0.60
   2  -2  16   24.52    0.67
   2  -2  16   25.07    0.60
  -3   2 -16   10.70    0.31
  -3   2 -16   11.11    0.29
  -3   2 -16   11.22    0.29
   3  -2  16   10.78    0.33
  -3  -1  16    1.64    0.08
  -3  -1  16    1.57    0.07
  -2  -1  16   18.51    0.43
  -2  -1  16   18.40    0.48
  -2  -1  16   17.94    0.51
  -2  -1  16   17.59    0.44
   1   1 -16   16.44    0.43
  -1  -1  16   17.03    0.41
  -1  -1  16   15.75    0.42
  -1  -1  16   16.30    0.41
  -1  -1  16   16.37    0.44
  -1  -1  16   16.37    0.48
   0   1 -16    2.58    0.12
   0  -1  16    2.75    0.12
   0  -1  16    2.61    0.11
   0  -1  16    2.66    0.13
  -1   1 -16   10.12    0.32
  -1   1 -16   10.50    0.30
  -1   1 -16   10.41    0.29
   1  -1  16   10.52    0.30
   1  -1  16   10.41    0.34
   1  -1  16   10.74    0.32
  -2   1 -16   35.97    0.84
  -2   1 -16   36.62    0.86
  -2   1 -16   36.10    0.83
  -2   1 -16   36.21    0.90
   2  -1  16   35.88    0.84
   2  -1  16   37.05    0.94
   2  -1  16   36.80    0.89
  -3   1 -16    0.04    0.03
  -3   1 -16    0.04    0.02
  -3   1 -16    0.07    0.03
   3  -1  16    0.01    0.03
  -4   1 -16    0.28    0.04
  -3   0  16   30.92    0.74
  -3   0  16   30.86    0.68
  -2   0  16    4.06    0.15
  -2   0  16    4.08    0.14
  -2   0  16    4.17    0.18
  -2   0  16    4.05    0.14
   1   0 -16    0.37    0.06
  -1   0  16    0.34    0.05
  -1   0  16    0.39    0.05
  -1   0  16    0.30    0.06
  -1   0  16    0.25    0.06
  -1   0  16    0.27    0.04
   0   0 -16   42.29    1.03
   0   0 -16   40.62    0.96
   0   0  16   42.28    0.93
   0   0  16   43.09    1.01
   0   0  16   41.50    0.94
  -1   0 -16    1.80    0.10
  -1   0 -16    1.83    0.12
  -1   0 -16    2.01    0.11
   1   0  16    1.76    0.10
   1   0  16    1.74    0.10
  -2   0 -16    5.83    0.21
  -2   0 -16    5.72    0.20
  -2   0 -16    5.97    0.20
   2   0  16    6.01    0.21
   2   0  16    6.14    0.22
   2   0  16    5.76    0.20
  -3   0 -16    7.47    0.23
  -3   0 -16    7.61    0.22
  -3   0 -16    7.58    0.24
   3   0  16    7.78    0.25
  -4   0 -16    3.97    0.12
  -4   0 -16    4.08    0.14
  -4   0 -16    4.10    0.13
  -3   1  16    7.61    0.21
  -2   1  16   17.00    0.41
  -2   1  16   17.30    0.41
  -2   1  16   16.99    0.46
  -2   1  16   17.16    0.50
   1  -1 -16    0.09    0.04
  -1   1  16    0.18    0.04
  -1   1  16    0.10    0.04
  -1   1  16    0.08    0.05
  -1   1  16    0.23    0.04
   0  -1 -16  232.23    5.19
   0  -1 -16  227.40    4.89
   0   1  16  230.89    4.76
   0   1  16  229.10    5.30
   0   1  16  235.50    5.16
   0   1  16  237.99    4.85
  -1  -1 -16    0.24    0.05
  -1  -1 -16    0.48    0.08
  -1  -1 -16    0.32    0.06
   1   1  16    0.41    0.06
   1   1  16    0.32    0.06
  -2  -1 -16    4.72    0.17
  -2  -1 -16    4.68    0.18
  -2  -1 -16    4.53    0.17
  -2  -1 -16    4.61    0.15
   2   1  16    4.58    0.17
   2   1  16    4.73    0.18
  -3  -1 -16    3.22    0.13
  -3  -1 -16    3.06    0.13
  -3  -1 -16    3.07    0.12
   3   1  16    2.93    0.13
   3   1  16    2.92    0.13
  -4  -1 -16   15.94    0.38
  -4  -1 -16   15.60    0.41
  -4  -1 -16   15.87    0.37
  -2   2  16   15.82    0.46
  -2   2  16   16.29    0.43
  -2   2  16   15.91    0.38
  -2   2  16   15.69    0.39
  -1   2  16    1.99    0.13
  -1   2  16    1.98    0.09
  -1   2  16    1.97    0.10
  -1   2  16    1.94    0.11
   0  -2 -16  105.15    2.46
   0  -2 -16  107.27    2.32
   0   2  16  109.90    2.27
   0   2  16  109.82    2.50
   0   2  16  106.72    2.42
   0   2  16  104.89    2.25
  -1  -2 -16   23.02    0.57
  -1  -2 -16   23.29    0.61
   1   2  16   23.03    0.55
   1   2  16   23.91    0.56
   1   2  16   23.24    0.60
  -2  -2 -16    4.39    0.15
  -2  -2 -16    4.35    0.17
  -2  -2 -16    4.63    0.17
   2   2  16    4.43    0.16
   2   2  16    4.49    0.18
  -3  -2 -16   14.69    0.37
  -3  -2 -16   13.98    0.36
  -3  -2 -16   14.17    0.39
   3   2  16   13.84    0.37
  -4  -2 -16    1.94    0.08
  -4  -2 -16    1.85    0.08
  -4  -2 -16    1.90    0.09
  -2   3  16    0.15    0.03
  -2   3  16    0.10    0.04
  -2   3  16    0.12    0.04
  -2   3  16    0.16    0.03
  -1   3  16    2.65    0.14
  -1   3  16    2.45    0.12
  -1   3  16    2.35    0.10
  -1   3  16    2.50    0.11
   0  -3 -16    0.02    0.03
   0  -3 -16    0.00    0.03
   0  -3 -16    0.01    0.04
   0   3  16    0.00    0.03
   0   3  16    0.04    0.02
   0   3  16    0.04    0.03
  -1  -3 -16    0.34    0.05
  -1  -3 -16    0.46    0.08
  -1  -3 -16    0.43    0.06
   1   3  16    0.43    0.06
   1   3  16    0.39    0.05
   1   3  16    0.36    0.05
  -2  -3 -16   18.82    0.49
  -2  -3 -16   18.84    0.45
  -2  -3 -16   17.72    0.46
   2   3  16   18.55    0.46
   2   3  16   18.90    0.50
  -3  -3 -16   53.31    1.14
  -3  -3 -16   52.41    1.24
  -3  -3 -16   50.92    1.16
   3   3  16   51.26    1.15
   3   3  16   53.49    1.23
  -4  -3 -16    4.07    0.14
  -4  -3 -16    4.32    0.13
  -4  -3 -16    3.91    0.12
  -2   4  16   21.10    0.48
  -2   4  16   21.34    0.49
  -2   4  16   22.09    0.54
  -1   4  16    0.97    0.07
  -1   4  16    0.95    0.08
  -1   4  16    1.14    0.07
  -1   4  16    1.04    0.08
   0  -4 -16    2.14    0.11
   0  -4 -16    1.91    0.11
   0   4  16    2.03    0.10
   0   4  16    2.05    0.08
   0   4  16    1.98    0.12
   0   4  16    1.98    0.11
   0   4  16    1.85    0.09
  -1  -4 -16    0.23    0.05
  -1  -4 -16    0.09    0.03
   1   4  16    0.10    0.03
   1   4  16    0.03    0.02
   1   4  16    0.09    0.03
  -2  -4 -16    0.00    0.02
  -2  -4 -16    0.02    0.02
  -2  -4 -16    0.00    0.02
  -2  -4 -16    0.03    0.04
   2   4  16   -0.01    0.02
   2   4  16    0.05    0.03
  -3  -4 -16    0.51    0.05
   3   4  16    0.63    0.06
   3   4  16    0.56    0.06
  -4  -4 -16    0.25    0.04
  -1   5  16    6.00    0.18
  -1   5  16    6.00    0.19
  -1   5  16    5.76    0.17
   0  -5 -16    0.35    0.05
   0  -5 -16    0.27    0.05
   0   5  16    0.23    0.04
   0   5  16    0.29    0.05
   0   5  16    0.31    0.05
  -1  -5 -16    0.96    0.08
  -1  -5 -16    1.02    0.08
   1   5  16    0.93    0.07
   1   5  16    0.96    0.07
   1   5  16    1.00    0.06
  -2  -5 -16    9.37    0.28
  -2  -5 -16    9.59    0.25
  -2  -5 -16    9.38    0.28
   2   5  16    9.42    0.25
   2   5  16    9.42    0.28
  -3  -5 -16    0.15    0.03
   3   5  16    0.21    0.04
   3   5  16    0.11    0.03
   3   5  16    0.13    0.03
  -1   6  16    0.31    0.05
  -1   6  16    0.24    0.03
   0  -6 -16    7.79    0.23
   0   6  16    7.60    0.23
   0   6  16    7.56    0.21
  -1  -6 -16   13.35    0.33
  -1  -6 -16   12.50    0.35
   1   6  16   12.46    0.32
   1   6  16   12.56    0.32
  -2  -6 -16    0.33    0.04
  -2  -6 -16    0.28    0.04
   2   6  16    0.30    0.04
   2   6  16    0.33    0.04
   2   6  16    0.38    0.04
   3   6  16   36.53    0.84
   3   6  16   35.30    0.78
  -1  -7 -16   12.11    0.30
  -1  -7 -16   12.16    0.33
  -2  -7 -16   11.38    0.32
  -2  -7 -16   13.34    0.32
   0   5 -17    7.17    0.20
   0  -5  17    7.82    0.22
   1  -5  17    0.63    0.06
   1   4 -17    0.41    0.05
   1   4 -17    0.34    0.04
  -1  -4  17    0.36    0.04
   0   4 -17    6.12    0.19
   0   4 -17    6.05    0.17
   0  -4  17    6.15    0.19
   0  -4  17    6.22    0.20
  -1   4 -17   12.36    0.33
   1  -4  17   13.06    0.34
   1  -4  17   13.65    0.36
   1  -4  17   12.86    0.39
  -2   4 -17    0.16    0.03
   2  -4  17    0.17    0.04
  -2  -3  17    9.13    0.23
   1   3 -17    5.63    0.18
   1   3 -17    5.48    0.19
  -1  -3  17    5.31    0.16
  -1  -3  17    5.43    0.16
   0   3 -17    0.74    0.06
   0   3 -17    0.77    0.06
   0  -3  17    0.78    0.07
   0  -3  17    0.87    0.07
  -1   3 -17    2.26    0.10
  -1   3 -17    2.12    0.10
   1  -3  17    2.22    0.11
   1  -3  17    2.20    0.13
   1  -3  17    2.14    0.11
  -2   3 -17    7.46    0.22
   2  -3  17    7.22    0.25
   2  -3  17    7.52    0.23
   2  -3  17    7.54    0.23
   2   2 -17   12.21    0.32
  -2  -2  17   12.49    0.30
  -2  -2  17   12.16    0.32
  -2  -2  17   11.82    0.30
   1   2 -17    2.70    0.12
   1   2 -17    2.55    0.12
  -1  -2  17    2.62    0.10
  -1  -2  17    2.66    0.10
   0   2 -17    4.79    0.17
   0   2 -17    4.98    0.18
   0  -2  17    4.67    0.17
   0  -2  17    4.82    0.18
  -1   2 -17    5.35    0.18
  -1   2 -17    5.29    0.16
  -1   2 -17    5.08    0.18
   1  -2  17    5.21    0.21
   1  -2  17    5.38    0.19
   1  -2  17    5.28    0.19
  -2   2 -17   13.62    0.38
  -2   2 -17   14.13    0.36
   2  -2  17   14.16    0.37
   2  -2  17   14.43    0.41
   2  -2  17   14.26    0.39
  -3   2 -17    0.21    0.05
  -3   2 -17    0.20    0.03
  -3   2 -17    0.18    0.03
   3  -2  17    0.23    0.05
  -2  -1  17    2.13    0.11
  -2  -1  17    2.38    0.09
  -2  -1  17    2.27    0.10
  -2  -1  17    2.26    0.09
   1   1 -17    3.49    0.14
  -1  -1  17    3.39    0.14
  -1  -1  17    3.46    0.13
  -1  -1  17    3.47    0.16
   0   1 -17    0.87    0.07
   0  -1  17    0.84    0.07
   0  -1  17    0.88    0.07
   0  -1  17    0.65    0.06
  -1   1 -17   73.21    1.56
  -1   1 -17   72.69    1.55
   1  -1  17   73.48    1.67
   1  -1  17   71.34    1.58
   1  -1  17   70.31    1.77
  -2   1 -17   25.52    0.60
  -2   1 -17   25.79    0.61
  -2   1 -17   25.08    0.65
   2  -1  17   26.44    0.65
   2  -1  17   25.14    0.61
   2  -1  17   26.01    0.68
  -3   1 -17    8.02    0.24
  -3   1 -17    8.00    0.22
  -3   1 -17    8.31    0.23
   3  -1  17    8.09    0.25
  -2   0  17    0.06    0.02
  -2   0  17    0.04    0.03
  -2   0  17    0.02    0.02
  -2   0  17    0.03    0.04
   1   0 -17   17.23    0.44
  -1   0  17   17.58    0.50
  -1   0  17   17.00    0.46
  -1   0  17   16.69    0.42
  -1   0  17   17.00    0.42
   0   0 -17   60.24    1.43
   0   0 -17   60.56    1.34
   0   0  17   60.40    1.30
   0   0  17   60.15    1.32
   0   0  17   61.17    1.41
  -1   0 -17    5.22    0.18
  -1   0 -17    5.41    0.20
  -1   0 -17    5.47    0.18
   1   0  17    5.25    0.18
   1   0  17    5.44    0.19
  -2   0 -17   32.11    0.74
   2   0  17   32.87    0.79
   2   0  17   31.54    0.83
   2   0  17   31.77    0.75
  -3   0 -17   15.29    0.41
  -3   0 -17   15.20    0.38
  -3   0 -17   15.90    0.38
   3   0  17   15.27    0.42
   3   0  17   15.13    0.39
  -2   1  17   13.55    0.33
  -2   1  17   13.27    0.36
  -2   1  17   13.37    0.39
  -2   1  17   13.33    0.32
   1  -1 -17    9.54    0.29
  -1   1  17    9.82    0.29
  -1   1  17   10.06    0.33
  -1   1  17    9.73    0.27
  -1   1  17    9.48    0.26
   0  -1 -17   55.50    1.25
   0  -1 -17   57.21    1.34
   0   1  17   55.91    1.30
   0   1  17   55.72    1.22
   0   1  17   56.40    1.21
  -1  -1 -17   23.56    0.57
  -1  -1 -17   23.63    0.61
   1   1  17   23.16    0.60
   1   1  17   23.15    0.56
  -2  -1 -17   20.29    0.50
  -2  -1 -17   20.33    0.47
   2   1  17   20.61    0.53
   2   1  17   20.24    0.50
  -3  -1 -17   10.58    0.30
  -3  -1 -17   10.74    0.28
  -3  -1 -17   10.19    0.27
   3   1  17   10.49    0.28
   3   1  17   10.35    0.31
  -2   2  17    0.50    0.04
  -2   2  17    0.65    0.06
  -2   2  17    0.43    0.06
  -2   2  17    0.58    0.04
   1  -2 -17    2.18    0.11
  -1   2  17    2.37    0.13
  -1   2  17    2.32    0.11
  -1   2  17    2.56    0.11
  -1   2  17    2.21    0.10
   0  -2 -17   84.42    1.80
   0  -2 -17   81.69    1.91
   0   2  17   82.29    1.88
   0   2  17   82.30    1.75
  -1  -2 -17    8.88    0.26
  -1  -2 -17    9.55    0.29
   1   2  17    8.53    0.27
   1   2  17    8.88    0.25
  -2  -2 -17    0.10    0.04
  -2  -2 -17    0.16    0.04
  -2  -2 -17    0.17    0.04
   2   2  17    0.18    0.04
   2   2  17    0.22    0.05
  -3  -2 -17   56.26    1.32
  -3  -2 -17   54.86    1.23
  -3  -2 -17   57.20    1.21
   3   2  17   54.80    1.22
   3   2  17   57.36    1.31
  -2   3  17    0.27    0.05
  -2   3  17    0.22    0.03
  -2   3  17    0.25    0.03
  -1   3  17    1.38    0.08
  -1   3  17    1.40    0.09
  -1   3  17    1.41    0.07
  -1   3  17    1.55    0.10
   0  -3 -17    5.91    0.20
   0  -3 -17    5.60    0.21
   0   3  17    5.51    0.17
   0   3  17    5.57    0.20
   0   3  17    6.09    0.23
   0   3  17    5.60    0.18
  -1  -3 -17    7.62    0.24
  -1  -3 -17    8.24    0.26
   1   3  17    7.87    0.22
   1   3  17    7.52    0.24
   1   3  17    7.37    0.22
  -2  -3 -17   11.92    0.32
  -2  -3 -17   12.34    0.34
  -2  -3 -17   12.32    0.31
   2   3  17   12.11    0.32
   2   3  17   12.35    0.35
  -3  -3 -17   36.65    0.80
   3   3  17   36.92    0.87
   3   3  17   35.37    0.81
  -1   4  17    0.12    0.03
  -1   4  17    0.12    0.03
  -1   4  17    0.13    0.03
  -1   4  17    0.09    0.04
   0  -4 -17    4.71    0.19
   0  -4 -17    4.41    0.17
   0  -4 -17    4.72    0.17
   0   4  17    4.80    0.19
   0   4  17    4.71    0.17
   0   4  17    4.43    0.16
  -1  -4 -17    0.96    0.08
  -1  -4 -17    1.29    0.08
  -1  -4 -17    1.10    0.09
   1   4  17    1.09    0.07
   1   4  17    1.07    0.06
   1   4  17    1.09    0.07
  -2  -4 -17    0.18    0.04
  -2  -4 -17    0.16    0.04
   2   4  17    0.13    0.03
   2   4  17    0.17    0.04
  -3  -4 -17    7.85    0.22
   3   4  17    8.31    0.22
   3   4  17    8.41    0.24
  -1   5  17   32.17    0.70
  -1   5  17   31.34    0.72
  -1   5  17   34.06    0.78
   0  -5 -17    3.50    0.13
   0  -5 -17    3.43    0.15
   0  -5 -17    3.20    0.13
   0   5  17    3.25    0.12
  -1  -5 -17   15.96    0.42
  -1  -5 -17   15.99    0.39
  -1  -5 -17   15.21    0.41
   1   5  17   14.65    0.37
   1   5  17   14.81    0.38
  -2  -5 -17    1.32    0.08
  -2  -5 -17    1.38    0.06
   2   5  17    1.45    0.07
   2   5  17    1.38    0.08
   3   5  17    4.45    0.14
   3   5  17    4.17    0.13
   0  -6 -17    0.14    0.03
   0   6  17    0.08    0.03
  -1  -6 -17   35.34    0.86
  -1  -6 -17   36.17    0.86
  -1  -6 -17   37.42    0.81
   2   6  17   23.01    0.55
   0   4 -18   12.77    0.33
   0  -4  18   13.25    0.33
   1  -4  18   24.86    0.57
   1  -4  18   25.07    0.61
   1   3 -18    0.63    0.05
   1   3 -18    0.54    0.06
   0   3 -18   21.01    0.49
   0   3 -18   21.09    0.52
   0  -3  18   20.49    0.48
   0  -3  18   21.30    0.52
  -1   3 -18   12.41    0.31
   1  -3  18   12.78    0.34
   1  -3  18   12.30    0.37
   1  -3  18   12.49    0.32
  -2   3 -18    0.02    0.02
   2  -3  18    0.08    0.04
   1   2 -18    1.74    0.09
   1   2 -18    1.75    0.09
  -1  -2  18    1.72    0.07
   0   2 -18   19.00    0.48
   0   2 -18   18.98    0.45
   0  -2  18   17.96    0.44
   0  -2  18   18.60    0.47
  -1   2 -18    0.03    0.02
  -1   2 -18    0.04    0.02
   1  -2  18    0.04    0.03
   1  -2  18    0.00    0.03
   1  -2  18    0.05    0.03
  -2   2 -18   22.74    0.53
   2  -2  18   22.55    0.60
   2  -2  18   22.94    0.54
   2  -2  18   22.73    0.57
  -2  -1  18    4.80    0.14
   1   1 -18    6.10    0.19
   1   1 -18    6.11    0.20
  -1  -1  18    5.45    0.20
  -1  -1  18    5.77    0.17
   0   1 -18   10.96    0.29
   0   1 -18   10.10    0.31
   0  -1  18   10.81    0.30
   0  -1  18   10.51    0.27
   0  -1  18   10.68    0.27
   0  -1  18   10.61    0.33
  -1   1 -18    7.53    0.21
  -1   1 -18    7.52    0.23
   1  -1  18    7.63    0.24
   1  -1  18    7.36    0.22
  -2   1 -18   11.22    0.30
   2  -1  18   11.40    0.30
   2  -1  18   11.02    0.31
   2  -1  18   11.02    0.33
  -3   1 -18    7.92    0.21
  -2   0  18    3.87    0.12
   1   0 -18    8.13    0.23
  -1   0  18    7.88    0.22
  -1   0  18    7.57    0.23
  -1   0  18    7.74    0.26
   0   0 -18   32.52    0.75
   0   0  18   32.44    0.78
   0   0  18   32.67    0.84
   0   0  18   32.36    0.72
   0   0  18   31.70    0.72
  -1   0 -18   43.80    0.98
   1   0  18   45.07    1.06
   1   0  18   44.50    0.99
  -2   0 -18    4.32    0.15
  -2   0 -18    4.24    0.13
   2   0  18    4.22    0.15
   2   0  18    4.25    0.16
  -3   0 -18    2.29    0.09
  -3   0 -18    2.25    0.10
   3   0  18    2.36    0.10
  -2   1  18   10.29    0.25
   1  -1 -18   18.23    0.45
  -1   1  18   17.96    0.46
  -1   1  18   18.31    0.50
  -1   1  18   16.93    0.42
  -1   1  18   18.01    0.42
   0  -1 -18   25.21    0.59
   0  -1 -18   24.98    0.63
   0   1  18   24.23    0.60
   0   1  18   24.02    0.66
   0   1  18   24.39    0.56
  -1  -1 -18   92.11    1.94
  -1  -1 -18   90.18    2.07
   1   1  18   89.24    1.94
   1   1  18   90.86    2.06
  -2  -1 -18   87.81    1.87
   2   1  18   88.84    1.91
   2   1  18   90.15    2.03
  -3  -1 -18    0.12    0.03
   3   1  18    0.14    0.04
   1  -2 -18    1.57    0.09
  -1   2  18    1.53    0.10
  -1   2  18    1.54    0.07
  -1   2  18    1.60    0.08
  -1   2  18    1.64    0.08
   0  -2 -18   34.09    0.83
   0  -2 -18   33.89    0.78
   0   2  18   35.23    0.88
   0   2  18   32.90    0.75
   0   2  18   32.24    0.78
  -1  -2 -18    7.85    0.25
  -1  -2 -18    8.07    0.23
   1   2  18    8.05    0.22
   1   2  18    8.01    0.24
  -2  -2 -18    1.33    0.08
  -2  -2 -18    1.25    0.08
   2   2  18    1.34    0.08
   2   2  18    1.34    0.08
  -3  -2 -18    0.30    0.04
   3   2  18    0.28    0.05
   3   2  18    0.28    0.04
   1  -3 -18    1.04    0.07
  -1   3  18    0.96    0.07
  -1   3  18    0.89    0.05
  -1   3  18    0.94    0.06
  -1   3  18    1.04    0.08
   0  -3 -18    8.58    0.27
   0  -3 -18    8.52    0.25
   0   3  18    8.42    0.23
   0   3  18    8.79    0.28
  -1  -3 -18   12.40    0.35
  -1  -3 -18   12.58    0.33
   1   3  18   12.82    0.31
   1   3  18   12.15    0.33
  -2  -3 -18    0.15    0.03
  -2  -3 -18    0.07    0.03
   2   3  18    0.10    0.03
   2   3  18    0.13    0.03
  -3  -3 -18    0.45    0.04
   3   3  18    0.39    0.05
   3   3  18    0.50    0.05
  -1   4  18   23.88    0.53
   0  -4 -18    0.04    0.03
   0  -4 -18    0.06    0.03
   0   4  18    0.10    0.03
   0   4  18    0.06    0.03
  -1  -4 -18    1.11    0.08
  -1  -4 -18    1.04    0.07
   1   4  18    1.08    0.08
   1   4  18    0.94    0.06
  -2  -4 -18    2.89    0.09
  -2  -4 -18    2.74    0.11
   2   4  18    2.87    0.11
   2   4  18    2.95    0.10
   3   4  18    0.12    0.03
   0  -5 -18    6.59    0.19
   0   5  18    6.02    0.17
  -1  -5 -18   45.72    0.94
   1   5  18   39.60    0.96
   2   5  18    2.25    0.09
   2   5  18    2.35    0.08
   0   2 -19    0.03    0.02
   0   2 -19    0.04    0.02
   0  -2  19    0.08    0.02
  -1   2 -19   20.08    0.49
   1  -2  19   21.01    0.51
   1  -2  19   20.67    0.48
   1   1 -19    0.21    0.05
  -1  -1  19    0.21    0.03
   0   1 -19    0.12    0.03
   0   1 -19    0.14    0.03
   0  -1  19    0.07    0.04
   0  -1  19    0.15    0.03
  -1   1 -19    0.01    0.02
  -1   1 -19    0.08    0.02
   1  -1  19    0.01    0.03
   1  -1  19    0.01    0.02
  -2   1 -19   20.53    0.48
   2  -1  19   21.24    0.52
   2  -1  19   20.88    0.49
   1   0 -19   10.42    0.27
   1   0 -19   10.48    0.30
  -1   0  19   10.25    0.26
   0   0 -19    0.84    0.06
   0   0  19    0.84    0.05
   0   0  19    0.92    0.06
   0   0  19    0.72    0.07
  -1   0 -19   13.67    0.33
   1   0  19   13.71    0.36
   1   0  19   13.34    0.34
  -2   0 -19    3.03    0.11
   2   0  19    3.17    0.12
   2   0  19    3.29    0.12
   1  -1 -19   39.75    0.88
  -1   1  19   39.30    0.84
   0  -1 -19   44.35    0.96
   0  -1 -19   43.79    1.03
   0   1  19   41.72    0.98
   0   1  19   42.09    0.92
   0   1  19   44.33    1.08
  -1  -1 -19    7.70    0.21
  -1  -1 -19    7.76    0.23
   1   1  19    7.59    0.23
   1   1  19    7.59    0.21
  -2  -1 -19   11.92    0.30
  -2  -1 -19   11.84    0.30
   2   1  19   12.60    0.31
   2   1  19   12.69    0.33
  -1   2  19    0.66    0.05
   0  -2 -19    3.54    0.14
   0  -2 -19    3.27    0.12
   0   2  19    3.08    0.11
   0   2  19    3.24    0.14
  -1  -2 -19    0.05    0.03
  -1  -2 -19    0.00    0.03
   1   2  19   -0.01    0.02
   1   2  19    0.02    0.02
  -2  -2 -19    0.01    0.02
   2   2  19    0.16    0.04
   2   2  19    0.01    0.02
   0  -3 -19    2.05    0.10
   0  -3 -19    2.09    0.09
   0   3  19    2.02    0.10
   0   3  19    1.91    0.08
  -1  -3 -19    2.98    0.12
  -1  -3 -19    3.00    0.11
   1   3  19    2.73    0.10
  -2  -3 -19    2.10    0.08
   2   3  19    2.27    0.09
   2   3  19    2.23    0.08
  -1  -4 -19    5.89    0.16
  -1  -4 -19    5.59    0.18
   1   4  19    5.03    0.15
   2   4  19    4.73    0.14
   1  -1  20    0.76    0.05
   0   0 -20    8.52    0.22
   0   0 -20    8.60    0.24
  -1   0 -20   35.60    0.83
   1   0  20   36.01    0.83
   0  -1 -20   43.47    0.95
  -1  -1 -20   12.28    0.29
   1   1  20   12.73    0.32
   0  -2 -20    6.18    0.17
  -1  -2 -20    5.30    0.16
  -1  -2 -20    5.36    0.14
   1   2  20    5.08    0.15
   0   0   0    0.00    0.00
;
_shelx_hkl_checksum              1918
#END Tags that were not found in dictionaries
loop_
_space_group_symop_operation_xyz
'x, y, z'
'-x, -y, -z'
loop_
_atom_site_label
_atom_site_type_symbol
_atom_site_fract_x
_atom_site_fract_y
_atom_site_fract_z
_atom_site_U_iso_or_equiv
_atom_site_adp_type
_atom_site_occupancy
_atom_site_site_symmetry_order
_atom_site_calc_flag
_atom_site_refinement_flags_posn
C1 C -0.4501(3) 1.36063(16) 1.12394(7) 0.0332(3) Uani 1 1 d .
H1A H -0.6346 1.3937 1.1097 0.050 Uiso 1 1 calc GR
H1B H -0.3952 1.4384 1.1541 0.050 Uiso 1 1 calc GR
H1C H -0.4481 1.2651 1.1567 0.050 Uiso 1 1 calc GR
C2 C -0.2520(2) 1.33680(14) 1.04832(7) 0.0260(3) Uani 1 1 d .
H2A H -0.0652 1.3070 1.0630 0.031 Uiso 1 1 calc R
H2B H -0.2537 1.4339 1.0158 0.031 Uiso 1 1 calc R
C3 C -0.3212(2) 1.21568(13) 0.99841(7) 0.0238(3) Uani 1 1 d .
H3A H -0.3193 1.1188 1.0311 0.029 Uiso 1 1 calc R
H3B H -0.5085 1.2455 0.9841 0.029 Uiso 1 1 calc R
C4 C -0.1262(2) 1.19015(13) 0.92228(7) 0.0228(2) Uani 1 1 d .
H4A H 0.0621 1.1645 0.9364 0.027 Uiso 1 1 calc R
H4B H -0.1340 1.2858 0.8885 0.027 Uiso 1 1 calc R
C5 C -0.1897(2) 1.06418(13) 0.87429(6) 0.0216(2) Uani 1 1 d .
H5A H -0.1726 0.9672 0.9070 0.026 Uiso 1 1 calc R
H5B H -0.3808 1.0871 0.8623 0.026 Uiso 1 1 calc R
C6 C -0.0011(2) 1.04565(12) 0.79645(6) 0.0192(2) Uani 1 1 d .
H6A H 0.1900 1.0259 0.8087 0.023 Uiso 1 1 calc R
H6B H -0.0218 1.1422 0.7635 0.023 Uiso 1 1 calc R
C7 C -0.0544(2) 0.91757(12) 0.74775(6) 0.0177(2) Uani 1 1 d .
H7A H -0.0023 0.8183 0.7759 0.021 Uiso 1 1 calc R
H7B H -0.2513 0.9273 0.7420 0.021 Uiso 1 1 calc R
C8 C 0.1100(2) 0.92472(11) 0.66570(6) 0.0173(2) Uani 1 1 d .
H8A H 0.0524 1.0229 0.6373 0.021 Uiso 1 1 calc R
H8B H 0.3057 0.9201 0.6720 0.021 Uiso 1 1 calc R
C9 C -0.1175(2) 0.82792(12) 0.56365(6) 0.0160(2) Uani 1 1 d .
C10 C -0.1334(2) 0.70284(11) 0.51195(6) 0.0149(2) Uani 1 1 d .
C11 C 0.0188(2) 0.55877(11) 0.52365(6) 0.0144(2) Uani 1 1 d .
C12 C 0.1972(2) 0.53155(11) 0.58358(6) 0.0146(2) Uani 1 1 d .
C13 C 0.2458(2) 0.66333(12) 0.62714(6) 0.0158(2) Uani 1 1 d .
C14 C 0.4798(2) 0.33529(11) 0.66943(6) 0.0160(2) Uani 1 1 d .
C15 C 0.3260(2) 0.38504(12) 0.59777(6) 0.0150(2) Uani 1 1 d .
C16 C 0.3003(2) 0.26990(11) 0.54763(6) 0.0155(2) Uani 1 1 d .
H16 H 0.3999 0.1719 0.5551 0.019 Uiso 1 1 calc R
F1 F 0.33931(12) 0.38379(7) 0.73721(3) 0.02002(16) Uani 1 1 d .
F2 F 0.72805(12) 0.37893(7) 0.66284(4) 0.02136(16) Uani 1 1 d .
F3 F 0.51904(13) 0.18330(7) 0.67866(4) 0.02103(16) Uani 1 1 d .
N1 N 0.07504(18) 0.79964(10) 0.61712(5) 0.0158(2) Uani 1 1 d .
O1 O -0.26061(16) 0.94925(8) 0.55844(5) 0.02137(19) Uani 1 1 d .
O2 O 0.42958(15) 0.65479(8) 0.66819(4) 0.02079(19) Uani 1 1 d .
loop_
_atom_site_aniso_label
_atom_site_aniso_U_11
_atom_site_aniso_U_22
_atom_site_aniso_U_33
_atom_site_aniso_U_23
_atom_site_aniso_U_13
_atom_site_aniso_U_12
C1 0.0383(7) 0.0395(7) 0.0229(6) -0.0139(5) -0.0036(5) -0.0021(6)
C2 0.0288(6) 0.0287(6) 0.0221(6) -0.0100(5) -0.0041(5) -0.0041(5)
C3 0.0242(6) 0.0284(6) 0.0203(6) -0.0093(5) -0.0014(5) -0.0053(5)
C4 0.0237(6) 0.0262(6) 0.0200(6) -0.0084(5) -0.0012(4) -0.0057(4)
C5 0.0220(6) 0.0244(6) 0.0196(6) -0.0071(4) -0.0021(4) -0.0044(4)
C6 0.0201(5) 0.0206(5) 0.0181(5) -0.0061(4) -0.0034(4) -0.0030(4)
C7 0.0202(5) 0.0167(5) 0.0168(5) -0.0037(4) -0.0035(4) -0.0021(4)
C8 0.0212(5) 0.0143(5) 0.0175(5) -0.0053(4) -0.0031(4) -0.0032(4)
C9 0.0169(5) 0.0159(5) 0.0148(5) -0.0026(4) -0.0001(4) -0.0018(4)
C10 0.0154(5) 0.0155(5) 0.0136(5) -0.0024(4) 0.0008(4) -0.0027(4)
C11 0.0147(5) 0.0156(5) 0.0127(5) -0.0013(4) 0.0008(4) -0.0032(4)
C12 0.0144(5) 0.0164(5) 0.0129(5) -0.0026(4) 0.0005(4) -0.0030(4)
C13 0.0176(5) 0.0164(5) 0.0132(5) -0.0015(4) 0.0003(4) -0.0032(4)
C14 0.0173(5) 0.0147(5) 0.0158(5) -0.0028(4) -0.0009(4) -0.0017(4)
C15 0.0138(5) 0.0177(5) 0.0134(5) -0.0017(4) 0.0002(4) -0.0031(4)
C16 0.0160(5) 0.0142(5) 0.0154(5) -0.0016(4) 0.0002(4) -0.0010(4)
F1 0.0244(3) 0.0227(3) 0.0128(3) -0.0039(2) -0.0009(2) -0.0022(2)
F2 0.0166(3) 0.0258(3) 0.0226(3) 0.0005(3) -0.0052(2) -0.0045(2)
F3 0.0290(4) 0.0142(3) 0.0205(3) -0.0010(2) -0.0089(3) 0.0003(2)
N1 0.0186(5) 0.0149(4) 0.0148(4) -0.0043(3) -0.0026(3) -0.0025(3)
O1 0.0245(4) 0.0164(4) 0.0233(4) -0.0065(3) -0.0065(3) 0.0031(3)
O2 0.0236(4) 0.0191(4) 0.0219(4) -0.0037(3) -0.0096(3) -0.0030(3)
loop_
_atom_type_symbol
_atom_type_description
_atom_type_scat_dispersion_real
_atom_type_scat_dispersion_imag
_atom_type_scat_source
C C 0.0181 0.0091 'International Tables Vol C Tables 4.2.6.8 and 6.1.1.4'
H H 0.0000 0.0000 'International Tables Vol C Tables 4.2.6.8 and 6.1.1.4'
N N 0.0311 0.0180 'International Tables Vol C Tables 4.2.6.8 and 6.1.1.4'
O O 0.0492 0.0322 'International Tables Vol C Tables 4.2.6.8 and 6.1.1.4'
F F 0.0727 0.0534 'International Tables Vol C Tables 4.2.6.8 and 6.1.1.4'
loop_
_geom_angle_atom_site_label_1
_geom_angle_atom_site_label_2
_geom_angle_atom_site_label_3
_geom_angle
_geom_angle_site_symmetry_1
_geom_angle_site_symmetry_3
H1A C1 H1B 109.5 . .
H1A C1 H1C 109.5 . .
H1B C1 H1C 109.5 . .
C2 C1 H1A 109.5 . .
C2 C1 H1B 109.5 . .
C2 C1 H1C 109.5 . .
C1 C2 H2A 109.0 . .
C1 C2 H2B 109.0 . .
C1 C2 C3 112.79(10) . .
H2A C2 H2B 107.8 . .
C3 C2 H2A 109.0 . .
C3 C2 H2B 109.0 . .
C2 C3 H3A 108.8 . .
C2 C3 H3B 108.8 . .
H3A C3 H3B 107.7 . .
C4 C3 C2 113.76(10) . .
C4 C3 H3A 108.8 . .
C4 C3 H3B 108.8 . .
C3 C4 H4A 108.9 . .
C3 C4 H4B 108.9 . .
C3 C4 C5 113.49(9) . .
H4A C4 H4B 107.7 . .
C5 C4 H4A 108.9 . .
C5 C4 H4B 108.9 . .
C4 C5 H5A 109.1 . .
C4 C5 H5B 109.1 . .
H5A C5 H5B 107.8 . .
C6 C5 C4 112.65(9) . .
C6 C5 H5A 109.1 . .
C6 C5 H5B 109.1 . .
C5 C6 H6A 108.7 . .
C5 C6 H6B 108.7 . .
C5 C6 C7 114.05(9) . .
H6A C6 H6B 107.6 . .
C7 C6 H6A 108.7 . .
C7 C6 H6B 108.7 . .
C6 C7 H7A 109.7 . .
C6 C7 H7B 109.7 . .
H7A C7 H7B 108.2 . .
C8 C7 C6 110.02(9) . .
C8 C7 H7A 109.7 . .
C8 C7 H7B 109.7 . .
C7 C8 H8A 109.1 . .
C7 C8 H8B 109.1 . .
H8A C8 H8B 107.9 . .
N1 C8 C7 112.38(8) . .
N1 C8 H8A 109.1 . .
N1 C8 H8B 109.1 . .
N1 C9 C10 116.34(9) . .
O1 C9 C10 122.00(9) . .
O1 C9 N1 121.64(9) . .
C11 C10 C9 120.83(9) . .
C16 C10 C9 118.71(9) 2_566 .
C16 C10 C11 120.46(9) 2_566 .
C10 C11 C11 118.30(12) . 2_566
C10 C11 C12 120.59(9) . .
C11 C11 C12 121.06(12) 2_566 .
C11 C12 C13 118.48(9) . .
C15 C12 C11 118.85(9) . .
C15 C12 C13 122.63(9) . .
N1 C13 C12 117.44(9) . .
O2 C13 C12 122.10(9) . .
O2 C13 N1 120.43(9) . .
F1 C14 C15 112.02(8) . .
F1 C14 F2 108.49(8) . .
F1 C14 F3 106.05(8) . .
F2 C14 C15 113.96(8) . .
F2 C14 F3 105.91(8) . .
F3 C14 C15 109.94(8) . .
C12 C15 C14 123.78(9) . .
C12 C15 C16 119.85(9) . .
C16 C15 C14 116.19(9) . .
C10 C16 C15 121.11(9) 2_566 .
C10 C16 H16 119.4 2_566 .
C15 C16 H16 119.4 . .
C9 N1 C8 117.95(8) . .
C9 N1 C13 125.19(9) . .
C13 N1 C8 116.82(8) . .
loop_
_geom_bond_atom_site_label_1
_geom_bond_atom_site_label_2
_geom_bond_distance
_geom_bond_site_symmetry_2
C1 H1A 0.9800 .
C1 H1B 0.9800 .
C1 H1C 0.9800 .
C1 C2 1.5229(17) .
C2 H2A 0.9900 .
C2 H2B 0.9900 .
C2 C3 1.5236(15) .
C3 H3A 0.9900 .
C3 H3B 0.9900 .
C3 C4 1.5233(15) .
C4 H4A 0.9900 .
C4 H4B 0.9900 .
C4 C5 1.5264(15) .
C5 H5A 0.9900 .
C5 H5B 0.9900 .
C5 C6 1.5235(15) .
C6 H6A 0.9900 .
C6 H6B 0.9900 .
C6 C7 1.5307(14) .
C7 H7A 0.9900 .
C7 H7B 0.9900 .
C7 C8 1.5224(15) .
C8 H8A 0.9900 .
C8 H8B 0.9900 .
C8 N1 1.4779(12) .
C9 C10 1.4863(14) .
C9 N1 1.3883(13) .
C9 O1 1.2123(13) .
C10 C11 1.4101(15) .
C10 C16 1.3760(15) 2_566
C11 C11 1.414(2) 2_566
C11 C12 1.4195(15) .
C12 C13 1.4981(14) .
C12 C15 1.3894(15) .
C13 N1 1.3939(14) .
C13 O2 1.2107(13) .
C14 C15 1.5235(14) .
C14 F1 1.3339(12) .
C14 F2 1.3385(13) .
C14 F3 1.3415(12) .
C15 C16 1.4110(14) .
C16 C10 1.3760(15) 2_566
C16 H16 0.9500 .
loop_
_geom_torsion_atom_site_label_1
_geom_torsion_atom_site_label_2
_geom_torsion_atom_site_label_3
_geom_torsion_atom_site_label_4
_geom_torsion
_geom_torsion_site_symmetry_1
_geom_torsion_site_symmetry_4
C1 C2 C3 C4 179.82(10) . .
C2 C3 C4 C5 177.62(10) . .
C3 C4 C5 C6 177.22(9) . .
C4 C5 C6 C7 178.56(9) . .
C5 C6 C7 C8 170.69(9) . .
C6 C7 C8 N1 177.67(8) . .
C7 C8 N1 C9 95.88(11) . .
C7 C8 N1 C13 -86.10(11) . .
C9 C10 C11 C11 175.64(11) . 2_566
C9 C10 C11 C12 -1.97(15) . .
C10 C9 N1 C8 175.92(8) . .
C10 C9 N1 C13 -1.92(15) . .
C10 C11 C12 C13 -7.35(14) . .
C10 C11 C12 C15 174.64(9) . .
C11 C11 C12 C13 175.10(11) 2_566 .
C11 C11 C12 C15 -2.91(17) 2_566 .
C11 C12 C13 N1 11.82(14) . .
C11 C12 C13 O2 -166.44(10) . .
C11 C12 C15 C14 -168.55(9) . .
C11 C12 C15 C16 6.44(15) . .
C12 C13 N1 C8 174.94(8) . .
C12 C13 N1 C9 -7.21(15) . .
C12 C15 C16 C10 -4.75(15) . 2_566
C13 C12 C15 C14 13.52(15) . .
C13 C12 C15 C16 -171.49(9) . .
C14 C15 C16 C10 170.61(9) . 2_566
C15 C12 C13 N1 -170.25(9) . .
C15 C12 C13 O2 11.49(15) . .
C16 C10 C11 C11 -4.21(17) 2_566 2_566
C16 C10 C11 C12 178.18(9) 2_566 .
F1 C14 C15 C12 46.21(13) . .
F1 C14 C15 C16 -128.95(9) . .
F2 C14 C15 C12 -77.45(12) . .
F2 C14 C15 C16 107.40(10) . .
F3 C14 C15 C12 163.85(9) . .
F3 C14 C15 C16 -11.31(12) . .
N1 C9 C10 C11 6.80(14) . .
N1 C9 C10 C16 -173.35(9) . 2_566
O1 C9 C10 C11 -174.69(10) . .
O1 C9 C10 C16 5.16(15) . 2_566
O1 C9 N1 C8 -2.60(15) . .
O1 C9 N1 C13 179.57(10) . .
O2 C13 N1 C8 -6.77(14) . .
O2 C13 N1 C9 171.09(10) . .
