#------------------------------------------------------------------------------
#$Date: 2016-02-14 16:26:36 +0200 (Sun, 14 Feb 2016) $
#$Revision: 176435 $
#$URL: svn://www.crystallography.net/cod/cif/1/51/32/1513209.cif $
#------------------------------------------------------------------------------
#
# This file is available in the Crystallography Open Database (COD),
# http://www.crystallography.net/
#
# All data on this site have been placed in the public domain by the
# contributors.
#
data_1513209
loop_
_publ_author_name
'J. Pl\'a\<sil'
'A. R. Kampf'
'A. V. Kasatkin'
'J. Marty'
'R. \<Skoda'
'S. Silva'
'J. \<Cejka'
_publ_section_title
;
 Meisserite, Na5(UO2)(SO4)3(SO3OH)(H2O), a new uranyl sulfate mineral from
 the Blue Lizard mine, San Juan County, Utah, USA
;
_journal_issue                   7
_journal_name_full               'Mineralogical Magazine'
_journal_page_first              2975
_journal_page_last               2988
_journal_paper_doi               10.1180/minmag.2013.077.7.07
_journal_volume                  77
_journal_year                    2013
_chemical_compound_source
'From the Blue Lizard mine, San Juan County, Utah, USA'
_chemical_formula_sum            'H3 Na5 O19 S4 U'
_chemical_formula_weight         788.2
_chemical_name_mineral           Meisserite
_space_group_IT_number           2
_symmetry_cell_setting           triclinic
_symmetry_Int_Tables_number      2
_symmetry_space_group_name_Hall  '-P 1'
_symmetry_space_group_name_H-M   'P -1'
_atom_sites_solution_hydrogens   difmap
_atom_sites_solution_primary     direct
_atom_sites_solution_secondary   difmap
_cell_angle_alpha                102.864
_cell_angle_beta                 97.414
_cell_angle_gamma                91.461
_cell_formula_units_Z            2
_cell_length_a                   5.3232
_cell_length_b                   11.5105
_cell_length_c                   13.5562
_cell_measurement_temperature    293
_cell_volume                     801.743
_diffrn_ambient_temperature      293
_diffrn_measured_fraction_theta_full 0.99
_diffrn_measured_fraction_theta_max 0.99
_diffrn_radiation_probe          x-ray
_diffrn_radiation_source         'X-ray tube'
_diffrn_radiation_type           'Mo K\a'
_diffrn_radiation_wavelength     0.71075
_diffrn_reflns_av_R_equivalents  0.0274
_diffrn_reflns_av_sigmaI/netI    0.0224
_diffrn_reflns_limit_h_max       6
_diffrn_reflns_limit_h_min       -6
_diffrn_reflns_limit_k_max       14
_diffrn_reflns_limit_k_min       -14
_diffrn_reflns_limit_l_max       17
_diffrn_reflns_limit_l_min       -17
_diffrn_reflns_number            13998
_diffrn_reflns_theta_full        27.47
_diffrn_reflns_theta_max         27.47
_diffrn_reflns_theta_min         3.11
_exptl_absorpt_coefficient_mu    10.883
_exptl_crystal_density_diffrn    3.264
_exptl_crystal_F_000             732
_refine_diff_density_max         0.78
_refine_diff_density_min         -0.78
_refine_ls_extinction_method     none
_refine_ls_goodness_of_fit_gt    1.36
_refine_ls_goodness_of_fit_ref   1.34
_refine_ls_hydrogen_treatment    refall
_refine_ls_number_constraints    3
_refine_ls_number_parameters     274
_refine_ls_number_reflns         3627
_refine_ls_number_restraints     3
_refine_ls_R_factor_all          0.0215
_refine_ls_R_factor_gt           0.0180
_refine_ls_shift/su_max          0.0271
_refine_ls_shift/su_mean         0.0016
_refine_ls_structure_factor_coef Fsqd
_refine_ls_weighting_details     w=1/(\s^2^(I)+0.0004I^2^)
_refine_ls_weighting_scheme      sigma
_refine_ls_wR_factor_gt          0.0439
_refine_ls_wR_factor_ref         0.0457
_reflns_number_gt                3306
_reflns_number_total             3627
_reflns_threshold_expression     I>3\s(I)
_cod_data_source_file            ciffile.cif.txt
_cod_data_source_block           I
_cod_original_cell_volume        801.7432
_cod_original_formula_sum        'H3 Na5 O19 S4 U1'
_cod_database_code               1513209
_cod_database_fobs_code          1513209
loop_
_symmetry_equiv_pos_site_id
_symmetry_equiv_pos_as_xyz
1 x,y,z
2 -x,-y,-z
loop_
_atom_site_label
_atom_site_type_symbol
_atom_site_fract_x
_atom_site_fract_y
_atom_site_fract_z
_atom_site_adp_type
_atom_site_U_iso_or_equiv
_atom_site_symmetry_multiplicity
_atom_site_occupancy
_atom_site_calc_flag
U U 0.51553(2) 0.726339(11) 0.421436(10) Uani 0.01041(5) 2 1 d
S1 S 0.53696(16) 0.61313(8) 0.14996(7) Uani 0.0121(3) 2 1 d
S2 S 0.48968(17) 1.02464(8) 0.36262(7) Uani 0.0128(3) 2 1 d
S3 S 0.47165(17) 0.60341(8) 0.64320(7) Uani 0.0125(3) 2 1 d
S4 S -0.96290(18) 0.17485(9) 0.06747(8) Uani 0.0196(3) 2 1 d
Na1 Na 0 0.5 0 Uani 0.0466(11) 1 1 d
Na2 Na -0.4716(3) 0.32662(15) 0.08994(12) Uani 0.0281(6) 2 1 d
Na3 Na 0 1 0.5 Uani 0.0287(9) 1 1 d
Na4 Na 0.0011(3) 0.49703(15) 0.25123(13) Uani 0.0263(6) 2 1 d
Na5 Na 0.9482(3) 0.21045(14) 0.32254(13) Uani 0.0251(6) 2 1 d
Na6 Na 0.5866(4) 0.9623(2) 0.11352(15) Uani 0.0566(9) 2 1 d
O1 O 0.5202(6) 0.7039(3) 0.0909(2) Uani 0.0301(11) 2 1 d
O2 O 0.2901(5) 0.5562(3) 0.1505(2) Uani 0.0269(10) 2 1 d
O3 O -0.2907(5) 0.5217(2) 0.1105(2) Uani 0.0205(9) 2 1 d
O4 O 0.6528(5) 0.6709(2) 0.25806(19) Uani 0.0157(8) 2 1 d
O5 O 0.5627(5) 1.0682(2) 0.2774(2) Uani 0.0223(9) 2 1 d
O6 O 0.2126(5) 1.0214(2) 0.3616(2) Uani 0.0212(9) 2 1 d
O7 O 0.5863(5) 0.9044(2) 0.3597(2) Uani 0.0221(9) 2 1 d
O8 O 0.6176(5) 1.1035(2) 0.46037(19) Uani 0.0143(8) 2 1 d
O9 O 0.2566(5) 0.3748(3) 0.3309(2) Uani 0.0293(11) 2 1 d
O10 O -0.3360(5) 0.3569(2) 0.26893(19) Uani 0.0195(9) 2 1 d
O11 O 0.5954(6) 0.5256(2) 0.3980(2) Uani 0.0281(10) 2 1 d
O12 O 0.3715(5) 0.6662(2) 0.56277(19) Uani 0.0167(8) 2 1 d
O13 O -1.0691(6) 0.1245(3) 0.1416(2) Uani 0.0308(11) 2 1 d
O14 O -0.9695(6) 0.3042(3) 0.0879(2) Uani 0.0317(11) 2 1 d
O15 O -0.7105(5) 0.1365(2) 0.0487(2) Uani 0.0216(9) 2 1 d
Oh16 O -1.1472(5) 0.1239(3) -0.0331(2) Uani 0.0268(10) 2 1 d
H16 H -1.079(8) 0.132(4) -0.085(3) Uiso 0.0322 2 1 d
O17 O 0.2030(5) 0.6982(2) 0.3568(2) Uani 0.0193(9) 2 1 d
O18 O 0.8268(5) 0.7599(2) 0.4885(2) Uani 0.0190(9) 2 1 d
Ow19 O 0.9502(7) 0.8665(3) 0.1920(3) Uani 0.0403(12) 2 1 d
H19a H 1.017(10) 0.912(4) 0.251(3) Uiso 0.0483 2 1 d
H19b H 0.922(10) 0.799(3) 0.205(4) Uiso 0.0483 2 1 d
loop_
_atom_site_aniso_label
_atom_site_aniso_type_symbol
_atom_site_aniso_U_11
_atom_site_aniso_U_22
_atom_site_aniso_U_33
_atom_site_aniso_U_12
_atom_site_aniso_U_13
_atom_site_aniso_U_23
U U 0.01315(8) 0.00957(7) 0.00852(7) 0.00027(5) 0.00252(5) 0.00154(5)
S1 S 0.0132(4) 0.0140(4) 0.0087(4) -0.0005(3) 0.0011(3) 0.0022(3)
S2 S 0.0183(5) 0.0112(4) 0.0093(4) -0.0007(3) 0.0047(3) 0.0022(3)
S3 S 0.0164(4) 0.0118(4) 0.0112(4) 0.0027(3) 0.0049(3) 0.0046(3)
S4 S 0.0195(5) 0.0205(5) 0.0186(5) -0.0009(4) 0.0071(4) 0.0018(4)
Na1 Na 0.0171(13) 0.104(3) 0.0132(13) -0.0051(14) 0.0023(10) 0.0017(14)
Na2 Na 0.0366(10) 0.0272(9) 0.0183(9) -0.0109(7) -0.0009(7) 0.0047(7)
Na3 Na 0.0179(12) 0.0495(16) 0.0257(13) 0.0091(11) 0.0077(10) 0.0197(11)
Na4 Na 0.0208(8) 0.0324(9) 0.0282(10) -0.0044(7) -0.0023(7) 0.0157(8)
Na5 Na 0.0249(9) 0.0243(9) 0.0272(9) 0.0001(7) 0.0030(7) 0.0084(7)
Na6 Na 0.0341(11) 0.0974(19) 0.0243(11) -0.0123(11) 0.0092(9) -0.0168(11)
O1 O 0.0464(19) 0.0266(16) 0.0183(16) 0.0002(14) -0.0035(14) 0.0123(13)
O2 O 0.0188(15) 0.0418(18) 0.0158(15) -0.0115(13) 0.0034(11) -0.0019(13)
O3 O 0.0208(14) 0.0206(14) 0.0181(14) 0.0065(11) 0.0053(11) -0.0021(11)
O4 O 0.0169(13) 0.0185(13) 0.0094(13) -0.0003(10) 0.0013(10) -0.0014(10)
O5 O 0.0313(16) 0.0259(15) 0.0117(14) -0.0031(12) 0.0081(12) 0.0064(11)
O6 O 0.0168(14) 0.0280(15) 0.0159(14) -0.0027(11) 0.0014(11) -0.0002(11)
O7 O 0.0363(17) 0.0113(13) 0.0215(15) 0.0038(12) 0.0161(13) 0.0025(11)
O8 O 0.0166(13) 0.0130(12) 0.0114(13) 0.0006(10) 0.0005(10) -0.0008(10)
O9 O 0.0168(15) 0.0428(19) 0.0348(18) 0.0006(13) 0.0023(12) 0.0233(15)
O10 O 0.0252(15) 0.0246(15) 0.0108(13) 0.0049(12) 0.0089(11) 0.0042(11)
O11 O 0.051(2) 0.0105(14) 0.0241(16) 0.0036(13) 0.0100(14) 0.0041(12)
O12 O 0.0209(14) 0.0180(13) 0.0142(13) 0.0037(11) 0.0028(11) 0.0095(11)
O13 O 0.0324(17) 0.0350(18) 0.0274(17) -0.0049(14) 0.0175(14) 0.0051(14)
O14 O 0.0390(18) 0.0191(15) 0.0344(19) 0.0001(13) 0.0083(15) -0.0013(13)
O15 O 0.0175(14) 0.0278(16) 0.0202(15) 0.0003(12) 0.0070(11) 0.0043(12)
Oh16 O 0.0205(15) 0.0333(17) 0.0239(17) -0.0020(12) 0.0005(12) 0.0027(13)
O17 O 0.0140(13) 0.0279(15) 0.0158(14) -0.0013(11) 0.0029(10) 0.0041(11)
O18 O 0.0145(13) 0.0245(15) 0.0160(14) 0.0005(11) 0.0006(10) 0.0013(11)
Ow19 O 0.054(2) 0.041(2) 0.0202(17) -0.0213(18) 0.0048(16) -0.0026(15)
loop_
_atom_type_symbol
_atom_type_scat_dispersion_real
_atom_type_scat_dispersion_imag
_atom_type_scat_source
H 0.0000 0.0000 'International Tables Vol C tables 4.2.6.8 and 6.1.1.1'
Na 0.0362 0.0249 'International Tables Vol C tables 4.2.6.8 and 6.1.1.1'
O 0.0106 0.0060 'International Tables Vol C tables 4.2.6.8 and 6.1.1.1'
S 0.1246 0.1234 'International Tables Vol C tables 4.2.6.8 and 6.1.1.1'
U -9.6767 9.6646 'International Tables Vol C tables 4.2.6.8 and 6.1.1.1'
loop_
_geom_bond_atom_site_label_1
_geom_bond_atom_site_label_2
_geom_bond_site_symmetry_2
_geom_bond_distance
U O4 . 2.380(3)
U O7 . 2.419(3)
U O8 2_676 2.422(2)
U O11 . 2.318(3)
U O12 . 2.382(3)
U O17 . 1.764(2)
U O18 . 1.774(2)
S1 O1 . 1.448(3)
S1 O2 . 1.454(3)
S1 O3 1_655 1.468(3)
S1 O4 . 1.509(2)
S1 H19b . 2.79(4)
S2 O5 . 1.452(3)
S2 O6 . 1.473(3)
S2 O7 . 1.482(3)
S2 O8 . 1.497(2)
S2 H19a 1_455 2.89(4)
S3 O9 2_666 1.446(3)
S3 O10 2_566 1.467(3)
S3 O11 2_666 1.483(3)
S3 O12 . 1.489(3)
S4 O13 . 1.435(4)
S4 O14 . 1.454(3)
S4 O15 . 1.460(3)
S4 Oh16 . 1.562(3)
S4 H16 . 2.00(4)
Na1 O2 . 2.347(3)
Na1 O2 2_565 2.347(3)
Na1 O3 . 2.272(3)
Na1 O3 2_565 2.272(3)
Na1 O14 1_655 2.772(3)
Na1 O14 2_465 2.772(3)
Na2 O1 2_565 2.379(3)
Na2 O2 1_455 2.955(3)
Na2 O3 . 2.363(3)
Na2 O10 . 2.383(3)
Na2 O14 . 2.652(4)
Na2 O14 1_655 2.696(4)
Na2 O15 . 2.420(3)
Na3 O6 . 2.365(3)
Na3 O6 2_576 2.365(3)
Na3 O7 1_455 2.747(3)
Na3 O7 2_676 2.747(3)
Na3 O8 1_455 2.447(2)
Na3 O8 2_676 2.447(2)
Na3 O18 1_455 2.857(3)
Na3 O18 2_676 2.857(3)
Na4 O2 . 2.368(4)
Na4 O3 . 2.374(3)
Na4 O4 1_455 2.756(3)
Na4 O9 . 2.322(4)
Na4 O10 . 2.451(3)
Na4 O14 1_655 2.791(3)
Na4 O17 . 2.562(3)
Na5 O5 1_545 2.515(3)
Na5 O6 1_645 2.735(3)
Na5 O9 1_655 2.447(3)
Na5 O10 1_655 2.460(3)
Na5 O12 2_666 2.676(3)
Na5 O13 1_755 2.420(3)
Na5 O18 2_766 2.627(3)
Na6 O1 . 2.929(4)
Na6 O5 . 2.302(3)
Na6 O13 1_765 2.512(4)
Na6 O15 1_665 2.807(4)
Na6 O15 2_565 2.422(3)
Na6 Oh16 2_465 2.526(3)
Na6 H16 2_465 2.84(4)
Na6 H16 2_565 2.92(5)
Na6 Ow19 . 2.491(4)
Na6 H19a . 2.91(5)
Na6 H19b . 2.92(5)
O1 O2 . 2.406(5)
O1 O3 1_655 2.401(4)
O1 O4 . 2.398(4)
O1 Oh16 2_465 2.995(4)
O1 Ow19 . 2.909(4)
O1 H19b . 2.50(5)
O2 O3 1_655 2.383(4)
O2 O4 . 2.426(3)
O3 O4 1_455 2.384(3)
O4 O7 . 2.789(3)
O4 O11 . 2.834(4)
O4 O17 . 2.883(4)
O4 H19b . 2.25(5)
O5 O6 . 2.420(4)
O5 O7 . 2.394(4)
O5 O8 . 2.404(4)
O6 O7 . 2.429(4)
O6 O8 . 2.433(3)
O6 O18 2_676 2.893(3)
O6 Ow19 1_455 2.762(4)
O6 H19a 1_455 1.88(4)
O7 O8 . 2.382(3)
O7 O8 2_676 2.811(4)
O7 O18 . 2.880(4)
O7 H19a . 2.84(5)
O7 H19b . 2.87(5)
O8 O12 2_676 2.738(4)
O8 O18 2_676 2.944(4)
O9 O10 1_655 2.425(4)
O9 O11 . 2.410(4)
O9 O12 2_666 2.416(4)
O10 O11 1_455 2.380(4)
O10 O12 2_566 2.388(4)
O11 O12 . 2.861(4)
O11 O12 2_666 2.389(4)
O11 O18 . 2.873(4)
O12 O17 . 2.924(4)
O13 O14 . 2.411(5)
O13 O15 . 2.436(4)
O13 Oh16 . 2.351(4)
O14 O15 . 2.403(4)
O14 Oh16 . 2.424(4)
O14 H16 . 2.67(4)
O15 Oh16 . 2.430(4)
O15 H16 . 2.47(4)
Oh16 H16 . 0.83(4)
Oh16 Ow19 2_565 2.535(5)
H16 Ow19 2_565 1.71(4)
H16 H19a 2_565 2.34(6)
H16 H19b 2_565 2.30(7)
O17 O18 1_455 2.852(4)
O17 H19b 1_455 2.89(5)
Ow19 H19a . 0.91(4)
Ow19 H19b . 0.86(5)
H19a H19b . 1.36(6)
loop_
_geom_hbond_atom_site_label_D
_geom_hbond_atom_site_label_H
_geom_hbond_atom_site_label_A
_geom_hbond_site_symmetry_A
_geom_hbond_distance_DH
_geom_hbond_distance_HA
_geom_hbond_distance_DA
_geom_hbond_angle_DHA
Oh16 H16 Ow19 2_565 0.83(4) 1.71(4) 2.535(5) 172(5)
Ow19 H19a O6 1_655 0.91(4) 1.88(4) 2.762(4) 163(5)
Ow19 H19b O4 . 0.86(5) 2.25(5) 3.075(5) 160(5)
loop_
_refln_index_h
_refln_index_k
_refln_index_l
_refln_F_squared_calc
_refln_F_squared_meas
_refln_F_squared_sigma
_refln_observed_status
0 0 2 7720.54 7934.29 50.73 o
0 0 3 1123.08 1137.20 12.92 o
0 0 4 23486.40 24458.90 211.39 o
0 0 5 1402.44 1335.88 20.54 o
0 0 6 13485.20 13622.90 127.39 o
0 0 7 4029.67 3993.21 56.48 o
0 0 8 687.56 640.01 24.28 o
0 0 9 429.50 465.54 31.31 o
0 0 10 793.06 873.09 43.31 o
0 0 11 437.53 483.24 33.69 o
0 0 12 8802.54 8675.61 148.17 o
0 0 13 7541.01 7390.65 149.76 o
0 0 14 8670.75 8576.99 153.13 o
0 0 15 1426.93 1484.30 89.61 o
0 0 16 14.03 28.51 42.71 <
0 1 -17 1767.82 1859.40 92.72 o
0 1 -16 6694.79 6572.62 173.60 o
0 1 -15 4881.86 4697.04 141.08 o
0 1 -14 1360.69 1398.63 70.87 o
0 1 -13 755.91 771.96 47.10 o
0 1 -12 6367.77 6004.79 101.73 o
0 1 -11 3722.75 3600.35 72.94 o
0 1 -10 9641.21 9504.81 119.69 o
0 1 -9 3175.78 2952.62 53.29 o
0 1 -8 12432.60 12482.70 132.48 o
0 1 -7 316.90 359.30 22.97 o
0 1 -6 3219.21 3355.32 44.19 o
0 1 -5 5715.10 5287.34 55.17 o
0 1 -4 46024.20 47371.20 515.89 o
0 1 -3 6911.33 7104.46 59.92 o
0 1 -2 16949.00 17512.40 136.92 o
0 1 2 4804.26 4842.14 29.59 o
0 1 3 14962.00 15362.80 108.32 o
0 1 4 32427.80 32524.30 270.39 o
0 1 5 709.05 697.98 15.79 o
0 1 6 656.33 787.54 23.35 o
0 1 7 12121.60 12287.50 126.29 o
0 1 8 10039.80 9983.25 112.73 o
0 1 9 7306.46 7036.02 102.51 o
0 1 10 10348.20 10328.10 140.43 o
0 1 11 1255.74 1348.49 47.08 o
0 1 12 486.51 514.64 39.89 o
0 1 13 278.95 287.56 46.41 o
0 1 14 2299.87 2293.17 89.59 o
0 1 15 3730.29 3732.19 107.10 o
0 1 16 2765.82 2635.64 123.67 o
0 2 -17 19.44 19.83 43.68 <
0 2 -16 17.16 -5.12 37.66 <
0 2 -15 1423.49 1460.08 76.70 o
0 2 -14 3616.58 3813.01 105.09 o
0 2 -13 3292.25 3151.91 93.83 o
0 2 -12 19823.80 19470.80 250.34 o
0 2 -11 1077.87 1091.11 40.95 o
0 2 -10 364.91 420.76 27.40 o
0 2 -9 1515.97 1536.25 41.49 o
0 2 -8 48077.20 47732.80 604.02 o
0 2 -7 7889.69 7644.43 89.44 o
0 2 -6 11079.30 11101.50 114.87 o
0 2 -5 993.25 900.38 20.80 o
0 2 -4 978.42 1088.97 18.43 o
0 2 -3 6117.64 6246.39 49.81 o
0 2 -2 8323.45 8544.22 54.90 o
0 2 -1 18130.00 19443.00 120.80 o
0 2 0 9928.11 10150.60 71.59 o
0 2 1 4206.64 4263.41 33.21 o
0 2 2 15189.60 15925.00 121.60 o
0 2 3 977.79 1051.62 17.83 o
0 2 4 4306.30 4110.63 35.77 o
0 2 5 6187.69 6150.54 56.57 o
0 2 6 28047.70 28168.80 262.35 o
0 2 7 7093.37 6940.11 72.41 o
0 2 8 5991.79 6184.60 84.51 o
0 2 9 168.06 211.22 25.96 o
0 2 10 2445.78 2590.90 69.41 o
0 2 11 11542.70 11278.90 158.89 o
0 2 12 3010.83 3062.72 75.97 o
0 2 13 4703.53 4561.01 109.57 o
0 2 14 1477.82 1529.39 85.40 o
0 2 15 28.03 86.48 53.16 <
0 2 16 51.61 7.82 40.41 <
0 3 -17 3041.12 3093.68 123.75 o
0 3 -16 8409.31 8361.33 169.38 o
0 3 -15 412.52 433.66 54.89 o
0 3 -14 14.60 59.78 34.53 <
0 3 -13 3454.12 3332.23 88.77 o
0 3 -12 8533.87 8459.11 164.10 o
0 3 -11 1827.52 1797.54 64.09 o
0 3 -10 3429.36 3337.82 74.58 o
0 3 -9 1630.58 1633.92 41.85 o
0 3 -8 2061.25 2027.47 41.31 o
0 3 -7 97.18 129.63 15.48 o
0 3 -6 3796.29 4215.85 50.46 o
0 3 -5 9821.91 9955.21 98.86 o
0 3 -4 31213.10 31103.10 309.98 o
0 3 -3 14789.10 15293.00 118.25 o
0 3 -2 34165.00 36838.10 284.68 o
0 3 -1 2731.75 2922.84 22.10 o
0 3 0 9492.16 9727.82 93.03 o
0 3 1 31976.70 33546.60 324.48 o
0 3 2 36642.30 37259.80 378.58 o
0 3 3 10374.90 9809.70 85.74 o
0 3 4 345.83 407.56 16.35 o
0 3 5 5960.23 6429.37 68.21 o
0 3 6 1966.39 2025.17 33.73 o
0 3 7 3059.27 2892.94 54.12 o
0 3 8 1274.65 1265.78 38.91 o
0 3 9 6785.15 6750.56 96.41 o
0 3 10 2961.62 2971.94 72.53 o
0 3 11 5051.42 5070.15 117.51 o
0 3 12 322.25 323.36 48.02 o
0 3 13 1754.01 1856.66 99.15 o
0 3 14 7391.94 7431.12 168.38 o
0 3 15 9222.90 9102.67 245.83 o
0 4 -17 7.93 29.96 54.75 <
0 4 -16 3345.14 3268.34 102.80 o
0 4 -15 3848.46 3907.13 102.25 o
0 4 -14 5979.38 5942.66 124.85 o
0 4 -13 5990.89 5863.09 134.52 o
0 4 -12 4757.52 4714.27 97.63 o
0 4 -11 15.70 47.18 28.59 <
0 4 -10 52.19 64.08 21.94 <
0 4 -9 8151.20 8098.46 118.12 o
0 4 -8 1620.32 1496.91 35.78 o
0 4 -7 5689.94 5638.64 70.06 o
0 4 -6 17397.00 17842.10 189.94 o
0 4 -5 867.91 922.11 20.93 o
0 4 -4 318.02 415.29 12.21 o
0 4 -3 4705.96 4665.60 35.40 o
0 4 -2 22387.80 23002.10 189.24 o
0 4 -1 30017.00 29677.50 252.30 o
0 4 0 6414.54 6118.52 53.76 o
0 4 1 10895.00 11290.30 102.64 o
0 4 2 0.24 22.58 8.12 <
0 4 3 3645.76 3703.83 41.17 o
0 4 4 2514.04 2440.98 35.89 o
0 4 5 10270.90 10188.00 117.32 o
0 4 6 7371.38 7332.72 87.86 o
0 4 7 2703.86 2580.59 46.72 o
0 4 8 15.35 17.77 16.34 <
0 4 9 219.49 241.79 29.91 o
0 4 10 11820.60 11557.70 166.52 o
0 4 11 7413.56 7349.00 162.23 o
0 4 12 5486.90 5329.07 133.04 o
0 4 13 3376.34 3364.68 130.10 o
0 4 14 26.45 34.53 39.94 <
0 4 15 167.48 127.21 51.85 <
0 5 -17 2401.29 2456.39 114.16 o
0 5 -16 2324.49 2583.72 114.04 o
0 5 -15 879.83 994.65 70.40 o
0 5 -14 1203.55 1188.82 77.84 o
0 5 -13 1644.64 1677.36 75.45 o
0 5 -12 3968.93 4058.33 108.94 o
0 5 -11 5199.17 5178.72 95.46 o
0 5 -10 12273.60 12290.80 177.34 o
0 5 -9 3324.62 3308.71 65.86 o
0 5 -8 1.03 17.31 14.35 <
0 5 -7 3971.46 4030.87 59.15 o
0 5 -6 39289.20 39432.10 408.04 o
0 5 -5 21784.60 21771.20 201.95 o
0 5 -4 3949.60 4100.54 40.89 o
0 5 -3 16544.40 17355.50 134.14 o
0 5 -2 929.32 1074.93 16.66 o
0 5 -1 361.35 448.10 12.97 o
0 5 0 10758.50 11572.10 110.87 o
0 5 1 8989.13 8726.53 87.73 o
0 5 2 9127.52 9190.10 111.41 o
0 5 3 27194.30 27567.20 278.41 o
0 5 4 5055.95 4902.08 60.01 o
0 5 5 130.05 134.48 15.84 o
0 5 6 7726.98 7835.10 94.46 o
0 5 7 13452.80 13660.30 166.21 o
0 5 8 6874.01 6713.11 97.14 o
0 5 9 11578.00 11423.90 155.17 o
0 5 10 651.95 608.90 53.03 o
0 5 11 513.63 441.72 50.00 o
0 5 12 1597.39 1958.60 89.50 o
0 5 13 3607.84 3811.17 136.95 o
0 5 14 1656.51 1803.90 105.03 o
0 6 -17 767.71 746.64 67.73 o
0 6 -16 1462.08 1462.28 112.46 o
0 6 -15 4938.78 4728.86 143.24 o
0 6 -14 6323.08 6238.58 138.32 o
0 6 -13 2386.47 2329.61 77.81 o
0 6 -12 1021.76 987.24 56.65 o
0 6 -11 21.22 47.20 31.56 <
0 6 -10 2631.21 2730.83 67.30 o
0 6 -9 6982.80 6826.64 97.91 o
0 6 -8 5232.35 5260.83 74.27 o
0 6 -7 11722.00 11878.10 130.36 o
0 6 -6 1355.63 1315.76 29.87 o
0 6 -5 1986.90 2058.83 29.60 o
0 6 -4 69.85 105.21 9.29 o
0 6 -3 13267.40 13165.60 116.54 o
0 6 -2 35183.20 35365.70 339.18 o
0 6 -1 39835.50 41278.60 459.96 o
0 6 0 323.19 328.19 16.27 o
0 6 1 12.11 25.79 10.70 <
0 6 2 14002.50 13998.30 150.52 o
0 6 3 4156.76 3923.57 49.25 o
0 6 4 4864.37 4741.63 59.58 o
0 6 5 6954.98 6801.07 92.65 o
0 6 6 567.54 637.48 32.04 o
0 6 7 2668.91 2770.90 67.50 o
0 6 8 48.38 93.23 26.67 o
0 6 9 1645.75 1641.30 53.44 o
0 6 10 2465.27 2557.86 91.67 o
0 6 11 7331.12 7312.68 162.48 o
0 6 12 5512.50 5598.28 164.76 o
0 6 13 1594.02 1726.13 101.29 o
0 7 -16 1024.22 957.00 77.82 o
0 7 -15 4.27 44.08 42.48 <
0 7 -14 3837.25 3727.96 107.27 o
0 7 -13 5428.91 5343.52 133.05 o
0 7 -12 2474.30 2293.25 62.04 o
0 7 -11 8317.47 8281.92 123.98 o
0 7 -10 1563.39 1588.04 57.00 o
0 7 -9 2003.36 2010.52 42.56 o
0 7 -8 510.91 475.45 28.37 o
0 7 -7 1442.70 1430.27 30.18 o
0 7 -6 4453.01 4397.28 52.95 o
0 7 -5 16943.60 16920.60 163.27 o
0 7 -4 11243.40 11244.40 108.44 o
0 7 -3 3480.12 3325.18 43.07 o
0 7 -2 4244.15 4162.16 48.93 o
0 7 -1 708.06 630.44 27.97 o
0 7 0 7366.24 7278.48 82.57 o
0 7 1 9330.73 9023.95 103.52 o
0 7 2 10765.30 10652.90 124.56 o
0 7 3 7543.69 7560.90 89.98 o
0 7 4 686.93 708.21 30.70 o
0 7 5 1668.72 1680.58 43.26 o
0 7 6 5254.21 5076.90 78.57 o
0 7 7 2040.20 2149.09 58.87 o
0 7 8 7223.59 7368.21 115.15 o
0 7 9 3021.63 2992.12 74.24 o
0 7 10 103.77 91.77 41.31 <
0 7 11 56.69 115.59 45.77 <
0 7 12 1830.52 2051.21 106.49 o
0 7 13 2166.60 2152.63 113.05 o
0 8 -16 831.28 793.12 71.43 o
0 8 -15 4003.39 4130.56 117.29 o
0 8 -14 2713.60 2916.94 95.52 o
0 8 -13 4630.62 4586.94 96.68 o
0 8 -12 103.12 112.76 36.59 o
0 8 -11 438.57 428.58 33.08 o
0 8 -10 12919.60 12893.30 169.57 o
0 8 -9 11731.50 11891.20 156.90 o
0 8 -8 3951.44 4003.52 66.42 o
0 8 -7 2475.29 2493.72 42.58 o
0 8 -6 6735.72 6808.22 81.53 o
0 8 -5 861.52 867.59 29.53 o
0 8 -4 9648.98 9616.65 104.41 o
0 8 -3 7382.44 7299.74 83.11 o
0 8 -2 3804.10 3775.55 48.87 o
0 8 -1 7500.41 7434.26 77.74 o
0 8 0 4125.31 4042.98 68.07 o
0 8 1 315.71 330.52 28.43 o
0 8 2 855.90 869.87 38.90 o
0 8 3 3303.54 3296.48 56.43 o
0 8 4 10848.20 10676.80 129.68 o
0 8 5 12786.80 12656.60 180.40 o
0 8 6 2920.87 3073.53 63.03 o
0 8 7 561.22 574.62 44.03 o
0 8 8 4480.86 4597.30 91.44 o
0 8 9 6604.35 6684.94 134.48 o
0 8 10 5040.10 5214.37 143.68 o
0 8 11 4033.98 4226.87 117.26 o
0 8 12 520.36 457.83 68.23 o
0 9 -15 60.86 95.21 43.73 <
0 9 -14 2877.49 2888.84 103.55 o
0 9 -13 1720.34 1796.74 66.01 o
0 9 -12 3856.63 3965.56 91.65 o
0 9 -11 2374.78 2346.14 61.07 o
0 9 -10 493.38 355.84 35.00 o
0 9 -9 1265.79 1354.67 44.93 o
0 9 -8 1017.51 1157.44 39.39 o
0 9 -7 5859.11 5895.61 110.15 o
0 9 -6 12520.90 12668.90 164.35 o
0 9 -5 11000.50 11146.30 124.12 o
0 9 -4 5731.30 5665.88 70.60 o
0 9 -3 1123.98 1116.38 30.61 o
0 9 -2 1836.44 1846.76 50.28 o
0 9 -1 2698.71 2724.22 42.86 o
0 9 0 9321.99 9509.11 125.56 o
0 9 1 4307.36 4317.84 70.65 o
0 9 2 893.01 953.63 41.91 o
0 9 3 969.18 1033.88 34.86 o
0 9 4 751.38 756.57 34.60 o
0 9 5 1391.39 1407.02 50.60 o
0 9 6 3178.60 3173.32 80.82 o
0 9 7 4611.94 4646.88 106.68 o
0 9 8 3004.24 3226.04 91.00 o
0 9 9 1976.70 2067.03 81.94 o
0 9 10 289.80 172.82 47.92 o
0 9 11 1333.49 1332.74 79.52 o
0 10 -15 2734.72 2761.95 95.06 o
0 10 -14 148.67 135.97 43.22 o
0 10 -13 145.60 172.61 36.82 o
0 10 -12 854.30 756.22 51.46 o
0 10 -11 1268.94 1539.27 71.42 o
0 10 -10 3167.67 3239.44 79.47 o
0 10 -9 2931.17 2924.65 61.16 o
0 10 -8 5329.06 5408.01 99.96 o
0 10 -7 3859.78 3848.64 89.61 o
0 10 -6 47.32 71.79 23.01 o
0 10 -5 121.37 134.60 20.14 o
0 10 -4 12876.00 13019.80 152.62 o
0 10 -3 17518.80 17019.60 196.37 o
0 10 -2 8386.63 8218.86 100.57 o
0 10 -1 2744.97 2703.88 47.92 o
0 10 0 887.99 923.46 31.24 o
0 10 1 3195.65 3220.04 80.11 o
0 10 2 4813.51 4857.15 91.41 o
0 10 3 7973.41 7899.50 118.54 o
0 10 4 3717.56 3866.01 79.43 o
0 10 5 539.44 650.36 38.84 o
0 10 6 1139.69 1224.28 59.88 o
0 10 7 61.18 83.57 30.41 <
0 10 8 942.75 988.49 86.11 o
0 10 9 3129.03 3142.66 107.70 o
0 11 -14 2517.64 2619.02 97.30 o
0 11 -13 3401.13 3547.28 108.65 o
0 11 -12 4757.61 4739.09 113.00 o
0 11 -11 2259.40 2348.02 74.41 o
0 11 -10 176.32 207.51 43.03 o
0 11 -9 1229.27 1278.99 53.88 o
0 11 -8 8839.58 8960.60 142.00 o
0 11 -7 7264.92 7396.97 126.28 o
0 11 -6 3369.98 3339.47 74.69 o
0 11 -5 1326.97 1286.20 42.65 o
0 11 -4 195.22 229.86 24.86 o
0 11 -3 689.38 723.34 31.19 o
0 11 -2 352.32 381.23 31.94 o
0 11 -1 4998.92 4930.22 78.66 o
0 11 0 3852.05 4090.22 89.13 o
0 11 1 5056.54 4841.52 110.56 o
0 11 2 6350.00 6454.88 103.78 o
0 11 3 3.91 51.28 23.97 <
0 11 4 1293.97 1296.78 50.68 o
0 11 5 4714.37 4871.56 118.17 o
0 11 6 6845.10 6934.46 135.02 o
0 11 7 3253.79 3343.00 89.60 o
0 11 8 755.76 609.77 58.80 o
0 12 -13 11.76 28.87 38.54 <
0 12 -12 1358.54 1477.15 85.87 o
0 12 -11 4222.87 4323.92 124.01 o
0 12 -10 5120.29 5180.43 137.86 o
0 12 -9 3694.21 3808.10 93.32 o
0 12 -8 933.79 994.61 65.60 o
0 12 -7 11.84 23.18 26.05 <
0 12 -6 34.65 38.19 26.69 <
0 12 -5 4021.83 4199.47 94.82 o
0 12 -4 7015.03 6893.76 139.29 o
0 12 -3 3946.31 3950.17 84.07 o
0 12 -2 3900.38 3833.51 77.18 o
0 12 -1 217.52 159.45 25.98 o
0 12 0 376.22 286.82 34.61 o
0 12 1 1020.39 1217.06 46.99 o
0 12 2 3728.05 3776.67 79.07 o
0 12 3 3316.63 3352.24 88.57 o
0 12 4 828.26 881.12 49.02 o
0 12 5 646.33 479.63 46.84 o
0 12 6 170.96 137.20 36.40 o
0 13 -11 50.52 110.65 39.09 <
0 13 -10 71.36 45.67 37.21 <
0 13 -9 1295.56 1409.93 70.95 o
0 13 -8 1560.12 1697.45 65.24 o
0 13 -7 4455.45 4344.90 106.48 o
0 13 -6 8114.75 7952.84 173.68 o
0 13 -5 1879.80 1969.72 75.01 o
0 13 -4 58.92 30.33 23.87 <
0 13 -3 2092.18 2033.46 58.13 o
0 13 -2 3523.84 3510.60 82.34 o
0 13 -1 5805.14 5487.15 113.29 o
0 13 0 2719.29 3165.00 110.75 o
0 13 1 1440.30 1417.83 47.29 o
0 13 2 89.91 60.39 24.23 <
0 13 3 1703.49 1838.49 74.93 o
0 13 4 612.39 499.89 66.66 o
0 14 -9 1671.99 1635.87 88.20 o
0 14 -8 50.82 67.38 43.28 <
0 14 -7 456.31 181.11 44.78 o
0 14 -6 1180.66 1282.40 91.22 o
0 14 -5 3221.67 3208.26 137.52 o
0 14 -4 943.74 1054.79 93.44 o
0 14 -3 2715.63 2339.55 124.63 o
0 14 -2 1877.55 2009.89 92.68 o
0 14 -1 1.43 16.10 42.85 <
0 14 0 46.12 4.00 70.59 <
0 14 1 2281.72 2389.03 186.40 o
0 14 2 3027.41 3402.16 174.90 o
1 -14 -2 5856.57 6233.77 192.96 o
1 -14 -1 1442.21 1437.00 107.05 o
1 -14 0 94.70 79.60 45.92 <
1 -14 1 133.27 41.05 50.16 <
1 -14 2 839.36 479.57 77.92 o
1 -14 3 1614.02 1669.19 103.27 o
1 -14 4 2327.90 2344.79 145.15 o
1 -14 5 2365.25 2414.56 123.45 o
1 -14 6 3697.60 3666.35 133.22 o
1 -14 7 440.16 40.19 45.97 <
1 -14 8 30.06 -21.60 36.49 <
1 -13 -4 1693.62 1726.31 114.13 o
1 -13 -3 1057.61 876.59 62.43 o
1 -13 -2 81.81 51.51 47.42 <
1 -13 -1 1438.56 1544.32 91.81 o
1 -13 0 3279.61 3421.73 134.03 o
1 -13 1 6668.94 6739.46 242.58 o
1 -13 2 6758.81 7360.07 197.96 o
1 -13 3 1358.56 1312.98 72.68 o
1 -13 4 22.11 50.92 44.05 <
1 -13 5 1627.10 1613.91 82.44 o
1 -13 6 3040.53 3211.40 117.04 o
1 -13 7 2506.39 2548.40 94.42 o
1 -13 8 913.84 423.38 98.75 o
1 -13 9 993.45 1066.07 73.81 o
1 -13 10 13.17 9.77 29.71 <
1 -13 11 56.54 54.43 44.12 <
1 -12 -7 379.14 197.74 61.75 o
1 -12 -6 250.32 183.87 45.35 o
1 -12 -5 723.54 688.96 58.29 o
1 -12 -4 927.53 1027.32 60.59 o
1 -12 -3 3628.33 3844.81 138.39 o
1 -12 -2 5775.36 5680.31 159.90 o
1 -12 -1 2287.92 2464.45 88.72 o
1 -12 0 454.57 343.39 47.96 o
1 -12 1 227.69 128.05 22.67 o
1 -12 2 3022.42 3151.74 93.65 o
1 -12 3 5165.15 5238.44 97.44 o
1 -12 4 3805.19 3797.35 66.22 o
1 -12 5 5188.45 5212.74 105.72 o
1 -12 6 410.43 608.55 46.01 o
1 -12 7 78.64 79.50 35.17 <
1 -12 8 776.69 399.31 71.51 o
1 -12 9 4347.17 4413.48 123.50 o
1 -12 10 2712.06 2680.56 88.01 o
1 -12 11 3340.85 3210.16 95.93 o
1 -12 12 3124.91 3262.53 100.23 o
1 -11 -8 269.70 243.05 51.81 o
1 -11 -7 3877.59 3823.98 113.21 o
1 -11 -6 6197.16 6118.47 127.11 o
1 -11 -5 4938.31 4830.59 106.30 o
1 -11 -4 580.56 681.43 47.03 o
1 -11 -3 2.65 52.23 24.96 <
1 -11 -2 2090.87 2117.26 72.52 o
1 -11 -1 4325.83 4163.76 69.12 o
1 -11 0 4201.58 4016.69 67.96 o
1 -11 1 7500.24 7263.34 99.92 o
1 -11 2 494.96 523.32 28.78 o
1 -11 3 473.70 521.13 30.67 o
1 -11 4 151.55 106.67 25.81 o
1 -11 5 2387.71 2384.99 69.33 o
1 -11 6 1377.84 1564.67 58.60 o
1 -11 7 7300.52 7392.17 141.18 o
1 -11 8 5775.03 5836.54 111.58 o
1 -11 9 2140.57 2257.61 71.90 o
1 -11 10 37.09 32.13 30.34 <
1 -11 11 1879.43 2064.21 66.63 o
1 -11 12 4533.32 4411.30 128.88 o
1 -11 13 5334.45 5448.33 122.18 o
1 -10 -10 3071.49 3218.33 108.78 o
1 -10 -9 4151.31 4248.31 102.26 o
1 -10 -8 2000.16 2025.95 71.58 o
1 -10 -7 592.59 585.50 44.59 o
1 -10 -6 174.19 175.01 36.56 o
1 -10 -5 1755.34 1799.14 55.38 o
1 -10 -4 1330.30 1320.15 52.55 o
1 -10 -3 11990.70 12136.40 187.60 o
1 -10 -2 5517.11 5577.28 102.86 o
1 -10 -1 3137.79 3001.98 58.25 o
1 -10 0 257.38 253.07 23.55 o
1 -10 1 3072.57 3145.98 49.90 o
1 -10 2 2881.02 2745.52 46.31 o
1 -10 3 11727.30 11377.10 118.26 o
1 -10 4 13734.40 13710.20 162.81 o
1 -10 5 4486.42 4491.71 83.87 o
1 -10 6 461.77 470.91 37.46 o
1 -10 7 1389.81 1433.27 59.96 o
1 -10 8 2164.78 2185.36 52.11 o
1 -10 9 3774.95 3705.12 85.00 o
1 -10 10 1612.50 1553.12 58.85 o
1 -10 11 3170.62 3344.54 90.18 o
1 -10 12 378.76 435.45 49.64 o
1 -10 13 71.31 91.20 35.08 <
1 -10 14 223.29 90.15 48.68 <
1 -9 -11 1965.78 1951.29 82.10 o
1 -9 -10 20.09 52.90 32.73 <
1 -9 -9 994.26 1100.58 63.24 o
1 -9 -8 1812.20 1879.43 73.78 o
1 -9 -7 6269.93 6300.44 102.66 o
1 -9 -6 387.02 383.35 34.96 o
1 -9 -5 1862.13 1900.96 55.69 o
1 -9 -4 1495.50 1446.00 47.37 o
1 -9 -3 187.76 176.89 24.96 o
1 -9 -2 3413.96 3306.61 70.97 o
1 -9 -1 8988.97 9139.84 100.28 o
1 -9 0 13718.80 13628.70 141.68 o
1 -9 1 9734.99 10116.70 113.51 o
1 -9 2 577.69 598.12 23.98 o
1 -9 3 20.87 21.02 15.81 <
1 -9 4 10189.60 10051.20 116.88 o
1 -9 5 7354.51 7453.51 101.51 o
1 -9 6 2791.67 2806.06 53.22 o
1 -9 7 5017.33 4951.65 82.61 o
1 -9 8 992.29 1080.26 42.11 o
1 -9 9 72.05 80.09 35.80 <
1 -9 10 1115.99 1100.73 51.99 o
1 -9 11 5217.01 5109.24 110.92 o
1 -9 12 3306.97 3446.84 83.42 o
1 -9 13 4214.80 4282.04 112.63 o
1 -9 14 2444.23 2484.22 84.70 o
1 -9 15 1167.27 1082.94 94.71 o
1 -8 -12 271.81 302.21 53.17 o
1 -8 -11 4027.40 4071.42 112.53 o
1 -8 -10 2725.11 2924.99 95.68 o
1 -8 -9 7018.26 7121.24 153.30 o
1 -8 -8 2463.35 2497.16 65.05 o
1 -8 -7 413.98 442.56 43.69 o
1 -8 -6 4390.40 4296.99 74.92 o
1 -8 -5 10015.10 10213.40 127.21 o
1 -8 -4 20233.40 20128.90 257.25 o
1 -8 -3 13358.80 13261.10 167.03 o
1 -8 -2 133.42 109.52 18.95 o
1 -8 -1 18.88 66.44 19.22 o
1 -8 0 482.02 497.45 21.75 o
1 -8 1 3721.15 3620.81 44.23 o
1 -8 2 842.23 892.63 29.55 o
1 -8 3 9160.98 9164.68 99.76 o
1 -8 4 3506.64 3439.54 48.24 o
1 -8 5 3197.78 3342.95 53.64 o
1 -8 6 2758.11 2878.91 45.23 o
1 -8 7 1488.27 1521.28 35.85 o
1 -8 8 7923.43 7906.54 107.17 o
1 -8 9 9798.21 9968.17 133.86 o
1 -8 10 5357.02 5467.29 95.76 o
1 -8 11 1610.31 1636.22 59.90 o
1 -8 12 150.20 160.62 31.58 o
1 -8 13 637.08 628.11 47.58 o
1 -8 14 3399.07 3354.48 93.15 o
1 -8 15 4545.12 4482.49 115.93 o
1 -7 -13 1964.02 2072.60 97.30 o
1 -7 -12 2562.91 2673.01 98.43 o
1 -7 -11 436.89 436.22 51.97 o
1 -7 -10 392.63 389.03 40.69 o
1 -7 -9 1350.61 1460.99 59.95 o
1 -7 -8 9621.45 9533.46 141.80 o
1 -7 -7 6331.76 6221.66 107.40 o
1 -7 -6 1864.10 1844.27 47.16 o
1 -7 -5 5141.14 5147.26 75.70 o
1 -7 -4 292.80 293.69 20.08 o
1 -7 -3 1240.48 1226.78 32.72 o
1 -7 -2 6232.99 6385.54 81.90 o
1 -7 -1 20417.80 20415.00 236.42 o
1 -7 0 6608.33 6335.04 62.12 o
1 -7 1 3376.37 3280.80 34.83 o
1 -7 2 14.51 28.06 9.95 <
1 -7 3 3556.26 3502.51 47.32 o
1 -7 4 7450.15 7537.47 77.96 o
1 -7 5 5950.66 5731.15 64.72 o
1 -7 6 7412.23 7440.37 81.98 o
1 -7 7 3599.82 3574.41 52.18 o
1 -7 8 120.47 91.93 19.70 o
1 -7 9 796.96 880.68 36.86 o
1 -7 10 1838.01 1813.56 55.02 o
1 -7 11 6999.51 6937.62 108.88 o
1 -7 12 8945.93 8244.20 140.23 o
1 -7 13 4283.83 4241.31 109.98 o
1 -7 14 2171.90 2132.18 87.06 o
1 -7 15 11.48 -15.62 37.70 <
1 -7 16 540.24 569.63 70.29 o
1 -6 -14 387.71 359.50 78.06 o
1 -6 -13 964.67 1236.54 85.82 o
1 -6 -12 5566.89 5681.79 153.97 o
1 -6 -11 5225.03 5298.93 116.38 o
1 -6 -10 488.86 425.81 38.31 o
1 -6 -9 1707.33 1738.05 64.72 o
1 -6 -8 13.07 35.90 22.73 <
1 -6 -7 20.83 35.54 22.00 <
1 -6 -6 133.38 182.84 20.30 o
1 -6 -5 6252.27 6228.34 81.09 o
1 -6 -4 8111.86 7800.55 97.85 o
1 -6 -3 9761.01 10041.00 97.16 o
1 -6 -2 7915.65 8021.45 92.88 o
1 -6 -1 1.83 10.05 10.03 <
1 -6 0 12288.60 12366.60 111.03 o
1 -6 1 10846.00 11089.00 88.96 o
1 -6 2 26741.40 27072.60 254.56 o
1 -6 3 13963.20 14268.90 118.94 o
1 -6 4 1594.65 1551.15 27.81 o
1 -6 5 66.23 79.56 13.42 o
1 -6 6 1293.05 1218.03 29.00 o
1 -6 7 7271.74 6960.08 87.13 o
1 -6 8 2952.90 2982.25 55.06 o
1 -6 9 3064.24 2999.66 80.82 o
1 -6 10 4087.18 4004.62 79.82 o
1 -6 11 182.37 182.62 32.07 o
1 -6 12 13.43 29.35 31.04 <
1 -6 13 402.98 354.54 53.14 o
1 -6 14 7369.84 7359.88 174.97 o
1 -6 15 5228.96 5174.80 142.95 o
1 -6 16 4953.96 4938.68 168.29 o
1 -5 -14 2243.59 2115.44 118.70 o
1 -5 -13 5776.00 6041.08 196.27 o
1 -5 -12 660.23 663.10 65.70 o
1 -5 -11 299.00 321.24 41.19 o
1 -5 -10 540.97 471.32 44.68 o
1 -5 -9 8754.47 8427.94 119.46 o
1 -5 -8 12922.20 12720.60 156.53 o
1 -5 -7 5291.20 5288.05 74.03 o
1 -5 -6 9926.58 9814.81 115.13 o
1 -5 -5 546.90 620.41 25.30 o
1 -5 -4 2635.90 2598.72 38.03 o
1 -5 -3 8673.35 8749.56 101.45 o
1 -5 -2 24379.30 24755.90 223.07 o
1 -5 -1 20065.80 20391.00 201.36 o
1 -5 0 8876.33 9046.38 75.65 o
1 -5 1 8207.40 8814.37 88.02 o
1 -5 2 2270.18 2411.49 23.07 o
1 -5 3 4000.16 3934.10 35.34 o
1 -5 4 7613.64 7771.61 72.27 o
1 -5 5 5508.28 5388.84 61.00 o
1 -5 6 15913.00 15962.00 155.94 o
1 -5 7 2124.82 2036.49 44.85 o
1 -5 8 1081.69 1143.17 43.46 o
1 -5 9 2667.40 2591.15 67.51 o
1 -5 10 21695.90 21599.80 297.71 o
1 -5 11 5546.88 5705.53 126.48 o
1 -5 12 7457.16 7396.36 135.59 o
1 -5 13 1352.47 1399.27 66.42 o
1 -5 14 19.21 90.83 47.16 <
1 -5 15 312.59 295.07 47.23 o
1 -5 16 1595.07 1669.59 95.30 o
1 -4 -15 34.68 57.69 44.67 <
1 -4 -14 15.60 54.74 47.02 <
1 -4 -13 1324.34 1560.59 90.43 o
1 -4 -12 3332.49 3332.93 102.22 o
1 -4 -11 2773.84 2731.57 105.56 o
1 -4 -10 14472.90 14125.10 190.15 o
1 -4 -9 2051.02 2024.20 56.57 o
1 -4 -8 1935.54 1939.81 42.76 o
1 -4 -7 1386.33 1348.71 33.00 o
1 -4 -6 13923.70 13497.10 141.06 o
1 -4 -5 16588.80 16632.60 164.78 o
1 -4 -4 12479.70 12249.30 122.61 o
1 -4 -3 5464.25 5484.09 65.86 o
1 -4 -2 2504.14 2824.63 27.90 o
1 -4 -1 4437.96 4600.94 36.23 o
1 -4 0 3921.51 3852.87 41.99 o
1 -4 1 4494.69 4401.49 43.28 o
1 -4 2 15773.90 15111.30 109.68 o
1 -4 3 9567.22 10153.00 81.84 o
1 -4 4 44.30 97.19 9.13 o
1 -4 5 2197.30 2401.12 36.82 o
1 -4 6 14576.90 14730.70 166.17 o
1 -4 7 9202.16 8991.05 114.42 o
1 -4 8 15136.40 14895.00 182.36 o
1 -4 9 6755.25 6499.67 113.62 o
1 -4 10 1743.53 1714.38 57.17 o
1 -4 11 678.58 720.06 42.67 o
1 -4 12 121.48 158.17 34.77 o
1 -4 13 8877.39 8462.43 139.57 o
1 -4 14 5715.02 5554.28 127.86 o
1 -4 15 2408.54 2388.09 85.70 o
1 -4 16 3083.96 3062.85 105.50 o
1 -3 -16 4608.75 4608.30 181.02 o
1 -3 -15 3757.86 3888.05 124.79 o
1 -3 -14 7210.99 7134.70 179.36 o
1 -3 -13 1244.09 1253.68 80.29 o
1 -3 -12 7.68 20.70 27.51 <
1 -3 -11 1559.43 1528.30 57.92 o
1 -3 -10 6082.70 5910.90 119.76 o
1 -3 -9 8432.17 8265.29 106.72 o
1 -3 -8 1637.10 1612.96 45.17 o
1 -3 -7 5117.16 4941.29 62.59 o
1 -3 -6 7880.69 7786.69 84.11 o
1 -3 -5 206.25 231.70 16.07 o
1 -3 -4 3100.96 3343.89 42.73 o
1 -3 -3 17069.20 17991.20 164.13 o
1 -3 -2 43245.80 45484.70 465.49 o
1 -3 -1 8922.49 9141.85 64.72 o
1 -3 0 44006.60 45409.70 473.42 o
1 -3 1 4780.77 4948.77 36.23 o
1 -3 2 25428.50 26453.30 221.19 o
1 -3 3 10536.40 10170.50 81.77 o
1 -3 4 4476.92 3889.09 47.76 o
1 -3 5 3873.03 3683.46 45.35 o
1 -3 6 4597.10 4596.77 66.08 o
1 -3 7 2143.63 2296.34 47.16 o
1 -3 8 422.49 560.53 31.21 o
1 -3 9 6856.83 6688.59 100.57 o
1 -3 10 2486.00 2543.78 69.36 o
1 -3 11 2094.97 2148.35 73.17 o
1 -3 12 11065.60 10706.10 153.31 o
1 -3 13 623.14 622.22 56.05 o
1 -3 14 124.76 212.25 49.17 o
1 -3 15 1373.72 1596.98 84.79 o
1 -3 16 4084.70 4111.47 133.40 o
1 -2 -16 81.63 77.33 58.23 <
1 -2 -15 2.38 -12.90 36.46 <
1 -2 -14 2255.71 2176.64 85.97 o
1 -2 -13 3497.72 3447.76 103.60 o
1 -2 -12 6720.97 6497.83 124.05 o
1 -2 -11 4823.25 4830.18 94.06 o
1 -2 -10 3071.15 3228.88 83.07 o
1 -2 -9 6.80 11.27 17.47 <
1 -2 -8 117.56 150.36 20.30 o
1 -2 -7 14468.00 14512.60 152.07 o
1 -2 -6 25133.30 25549.90 255.73 o
1 -2 -5 24908.40 25405.90 240.51 o
1 -2 -4 8744.96 8894.21 76.36 o
1 -2 -3 1764.24 1860.27 19.43 o
1 -2 -2 3566.03 3704.02 31.34 o
1 -2 -1 5384.08 5270.90 34.61 o
1 -2 0 7662.55 7858.05 52.07 o
1 -2 1 14824.90 14768.90 93.74 o
1 -2 2 10964.50 11353.50 92.82 o
1 -2 3 1451.63 1423.44 18.89 o
1 -2 4 13874.10 14068.10 137.54 o
1 -2 5 3684.55 3588.75 47.72 o
1 -2 6 14021.30 13963.80 155.37 o
1 -2 7 8593.59 8373.72 112.76 o
1 -2 8 16952.80 17049.20 215.04 o
1 -2 9 1816.66 1858.07 41.77 o
1 -2 10 28.93 43.79 19.73 <
1 -2 11 492.19 542.43 39.13 o
1 -2 12 8987.43 8874.60 145.13 o
1 -2 13 8373.43 8195.49 137.93 o
1 -2 14 3891.70 3858.08 97.01 o
1 -2 15 3449.22 3165.78 114.60 o
1 -2 16 240.17 192.57 55.97 o
1 -1 -16 1439.33 1523.98 86.64 o
1 -1 -15 3553.43 3447.78 126.26 o
1 -1 -14 3716.27 3764.16 106.01 o
1 -1 -13 762.51 755.73 51.50 o
1 -1 -12 3083.02 3104.86 78.98 o
1 -1 -11 1167.24 1179.49 47.76 o
1 -1 -10 8681.07 8425.14 139.60 o
1 -1 -9 6755.22 6406.25 97.96 o
1 -1 -8 14641.60 14253.40 168.67 o
1 -1 -7 858.62 850.53 25.96 o
1 -1 -6 2296.88 2263.92 39.13 o
1 -1 -5 663.52 650.37 16.91 o
1 -1 -4 5204.14 5040.22 44.97 o
1 -1 -3 38770.00 40801.10 403.23 o
1 -1 -2 10144.00 10323.00 74.70 o
1 -1 -1 6702.40 7000.73 47.11 o
1 -1 0 5644.28 5857.44 39.19 o
1 -1 1 7075.99 7550.28 58.56 o
1 -1 2 385.30 374.20 8.75 o
1 -1 3 6989.64 6949.28 61.58 o
1 -1 4 20018.40 20390.40 199.65 o
1 -1 5 1956.92 1819.26 29.25 o
1 -1 6 5284.13 5296.61 59.85 o
1 -1 7 367.16 511.58 23.03 o
1 -1 8 1281.86 1270.53 31.95 o
1 -1 9 17766.00 17295.80 203.21 o
1 -1 10 12048.10 11812.10 153.18 o
1 -1 11 17005.60 16800.10 238.76 o
1 -1 12 698.27 734.75 43.06 o
1 -1 13 24.81 7.81 24.96 <
1 -1 14 240.46 247.82 51.90 o
1 -1 15 3352.89 3396.61 117.60 o
1 -1 16 2196.27 2167.02 105.67 o
1 0 -17 1223.82 1298.57 90.06 o
1 0 -16 1030.91 975.02 87.11 o
1 0 -15 3038.29 2970.79 100.86 o
1 0 -14 4615.23 4729.41 124.58 o
1 0 -13 6215.14 6058.83 112.02 o
1 0 -12 4638.07 4535.66 93.97 o
1 0 -11 192.11 212.01 27.92 o
1 0 -10 38.76 43.42 20.93 <
1 0 -9 448.95 482.91 25.75 o
1 0 -8 1027.82 957.43 31.41 o
1 0 -7 7171.21 7021.18 78.50 o
1 0 -6 41261.50 43639.20 455.65 o
1 0 -5 17895.00 18656.20 167.47 o
1 0 -4 45657.90 47674.80 511.58 o
1 0 -3 0.21 34.17 6.19 o
1 0 -2 2924.18 3038.28 25.88 o
1 0 0 47651.60 56883.20 807.57 o
1 0 1 48278.00 55918.30 511.30 o
1 0 2 4289.70 4364.09 33.77 o
1 0 3 42.72 70.70 8.26 o
1 0 4 10790.10 10484.30 89.70 o
1 0 5 4108.04 3793.83 40.57 o
1 0 6 4988.70 4714.28 54.09 o
1 0 7 22613.80 22775.70 236.02 o
1 0 8 1525.19 1473.18 38.99 o
1 0 9 2050.21 2030.01 45.12 o
1 0 10 150.27 185.13 30.09 o
1 0 11 455.71 532.77 41.19 o
1 0 12 1811.97 1759.53 71.64 o
1 0 13 8507.27 8383.27 145.38 o
1 0 14 6844.78 6522.09 135.60 o
1 0 15 2981.53 2822.60 105.01 o
1 0 16 807.93 717.08 94.27 o
1 1 -17 1684.23 1394.96 85.34 o
1 1 -16 5043.84 5003.71 128.82 o
1 1 -15 3776.03 3883.07 113.53 o
1 1 -14 664.00 817.47 61.97 o
1 1 -13 264.61 264.36 42.22 o
1 1 -12 207.91 239.23 31.44 o
1 1 -11 12288.30 12103.10 155.91 o
1 1 -10 8322.98 8251.71 113.01 o
1 1 -9 14750.00 14682.00 162.75 o
1 1 -8 4412.56 4245.71 60.34 o
1 1 -7 1154.03 1133.35 28.57 o
1 1 -6 24.32 44.48 11.81 o
1 1 -5 11064.60 11492.30 112.42 o
1 1 -4 15050.00 15234.40 145.74 o
1 1 -3 23071.30 23912.40 250.89 o
1 1 -2 3544.91 3364.96 31.43 o
1 1 -1 9307.24 9732.88 87.18 o
1 1 0 1356.85 1373.30 9.26 o
1 1 1 9262.82 9636.51 59.30 o
1 1 2 6974.91 6910.69 46.28 o
1 1 3 40994.70 42493.10 366.18 o
1 1 4 1316.45 1123.22 19.15 o
1 1 5 5445.48 5404.95 51.30 o
1 1 6 688.98 665.86 20.94 o
1 1 7 4917.72 5147.11 64.91 o
1 1 8 15694.60 15696.60 179.94 o
1 1 9 8063.79 7787.88 111.43 o
1 1 10 9750.40 9693.54 132.60 o
1 1 11 4476.90 4435.52 95.25 o
1 1 12 117.70 98.94 34.42 <
1 1 13 73.79 99.54 39.66 <
1 1 14 2831.51 2931.45 102.61 o
1 1 15 3127.94 3202.40 117.76 o
1 1 16 1264.61 1312.14 82.74 o
1 2 -17 426.62 370.48 58.11 o
1 2 -16 11.66 65.23 45.75 <
1 2 -15 926.15 964.15 60.54 o
1 2 -14 1670.52 1755.88 87.85 o
1 2 -13 6298.94 5950.13 108.64 o
1 2 -12 12323.00 12326.30 185.47 o
1 2 -11 7244.88 7153.65 102.99 o
1 2 -10 262.02 296.48 29.46 o
1 2 -9 4056.59 4186.46 76.11 o
1 2 -8 13698.60 13750.10 168.65 o
1 2 -7 27982.00 28011.30 325.61 o
1 2 -6 14015.20 13806.10 148.80 o
1 2 -5 4396.72 4224.81 52.55 o
1 2 -4 10790.20 11112.40 100.88 o
1 2 -3 4473.44 4573.05 44.21 o
1 2 -2 2274.65 2178.96 18.25 o
1 2 -1 12939.70 13325.10 114.30 o
1 2 0 5348.34 5242.17 33.71 o
1 2 1 8746.63 8912.72 61.66 o
1 2 2 10029.70 10431.90 74.37 o
1 2 3 812.90 798.77 14.02 o
1 2 4 554.16 499.41 16.30 o
1 2 5 13675.90 13803.00 124.79 o
1 2 6 19428.40 19615.20 187.75 o
1 2 7 16238.80 16415.10 166.14 o
1 2 8 330.45 357.17 24.59 o
1 2 9 405.81 466.94 33.01 o
1 2 10 3196.22 3264.34 79.42 o
1 2 11 3331.36 3430.34 90.19 o
1 2 12 8442.98 8093.26 147.17 o
1 2 13 2628.91 2696.98 84.06 o
1 2 14 685.75 707.37 58.92 o
1 2 15 138.52 147.89 51.43 <
1 3 -17 4414.59 4277.16 157.65 o
1 3 -16 2845.86 2963.49 114.04 o
1 3 -15 2126.27 2111.26 85.76 o
1 3 -14 140.20 160.69 48.16 o
1 3 -13 481.74 534.08 40.38 o
1 3 -12 9912.86 9537.26 156.18 o
1 3 -11 5064.14 5119.49 103.64 o
1 3 -10 2425.72 2475.68 56.62 o
1 3 -9 4785.25 4924.19 83.01 o
1 3 -8 2543.56 2564.21 46.48 o
1 3 -7 50.77 71.11 17.15 o
1 3 -6 4548.77 4664.88 55.37 o
1 3 -5 33845.60 36303.40 395.48 o
1 3 -4 20077.90 20443.90 174.31 o
1 3 -3 27178.00 27146.90 255.34 o
1 3 -2 18429.50 18734.90 140.64 o
1 3 -1 9376.85 9543.57 159.75 o
1 3 0 34525.30 35024.40 498.60 o
1 3 1 4849.25 4725.63 43.13 o
1 3 2 9423.11 8944.91 66.68 o
1 3 3 3650.64 3270.59 32.77 o
1 3 4 180.83 225.47 12.97 o
1 3 5 12221.80 12731.80 118.09 o
1 3 6 1983.71 1970.29 32.73 o
1 3 7 1124.24 1104.36 28.61 o
1 3 8 6421.56 6305.84 83.04 o
1 3 9 11994.60 12171.90 173.43 o
1 3 10 5727.57 5696.20 104.26 o
1 3 11 4583.76 4604.28 102.97 o
1 3 12 207.42 267.94 43.19 o
1 3 13 635.61 577.79 53.27 o
1 3 14 5091.27 5160.96 143.95 o
1 3 15 3433.21 3421.10 114.74 o
1 4 -17 27.94 40.40 39.08 <
1 4 -16 1810.89 1851.22 107.63 o
1 4 -15 4232.81 4296.27 107.11 o
1 4 -14 3231.35 3072.76 97.35 o
1 4 -13 5052.54 5315.23 127.28 o
1 4 -12 126.19 112.49 30.63 o
1 4 -11 776.02 863.06 47.40 o
1 4 -10 65.20 92.95 22.87 o
1 4 -9 2202.78 2213.53 54.54 o
1 4 -8 10708.10 10216.60 130.95 o
1 4 -7 17804.40 17797.40 214.13 o
1 4 -6 9943.76 9771.98 106.39 o
1 4 -5 9951.54 10353.10 93.73 o
1 4 -4 135.04 131.79 8.43 o
1 4 -3 1795.75 1930.29 19.70 o
1 4 -2 13169.60 12493.50 94.22 o
1 4 -1 5791.20 5558.22 83.02 o
1 4 0 3473.63 3390.36 37.93 o
1 4 1 1928.81 1782.13 25.08 o
1 4 2 32.97 60.88 10.09 o
1 4 3 224.56 252.07 13.59 o
1 4 4 25262.10 25455.10 235.44 o
1 4 5 9667.93 9646.56 95.91 o
1 4 6 11434.10 11341.10 114.72 o
1 4 7 1730.29 1637.20 35.99 o
1 4 8 1367.83 1324.88 41.27 o
1 4 9 15.52 19.04 21.98 <
1 4 10 4642.07 4488.80 86.01 o
1 4 11 5329.99 5147.08 103.60 o
1 4 12 6010.23 5820.04 120.91 o
1 4 13 4002.10 4067.81 149.60 o
1 4 14 337.92 395.29 70.95 o
1 5 -17 1934.75 2109.77 122.22 o
1 5 -16 1945.04 1850.27 82.28 o
1 5 -15 1403.11 1535.89 80.47 o
1 5 -14 390.35 402.44 59.36 o
1 5 -13 76.47 82.52 32.85 <
1 5 -12 10460.00 10294.10 185.57 o
1 5 -11 9539.97 9496.07 165.11 o
1 5 -10 16912.40 16770.30 229.27 o
1 5 -9 9254.69 9121.27 127.17 o
1 5 -8 4942.93 5057.69 71.91 o
1 5 -7 73.83 102.02 13.51 o
1 5 -6 15399.50 15823.00 153.47 o
1 5 -5 7407.55 7079.99 68.18 o
1 5 -4 11133.70 11262.60 110.41 o
1 5 -3 13945.10 14415.70 122.68 o
1 5 -2 779.64 872.16 15.70 o
1 5 -1 10.31 37.44 9.61 o
1 5 0 2224.62 2236.68 26.66 o
1 5 1 14897.40 15363.20 160.12 o
1 5 2 16851.60 16748.70 180.78 o
1 5 3 11418.50 11689.80 129.55 o
1 5 4 8766.61 9020.93 100.05 o
1 5 5 1618.00 1642.42 45.45 o
1 5 6 2694.00 2919.30 63.88 o
1 5 7 6473.18 6510.24 109.16 o
1 5 8 14942.40 15317.80 201.71 o
1 5 9 7434.76 7313.68 115.67 o
1 5 10 1920.73 1775.98 60.47 o
1 5 11 208.43 247.73 48.85 o
1 5 12 248.14 236.42 48.11 o
1 5 13 2175.33 2187.45 97.21 o
1 5 14 1810.40 1811.70 100.55 o
1 6 -17 71.69 93.94 51.06 <
1 6 -16 3754.48 3550.82 141.36 o
1 6 -15 2975.98 3071.31 123.10 o
1 6 -14 6409.28 6308.34 139.74 o
1 6 -13 3631.87 3508.37 113.31 o
1 6 -12 53.54 77.94 32.30 <
1 6 -11 63.95 42.73 27.21 <
1 6 -10 2169.23 2158.82 62.08 o
1 6 -9 3184.72 3199.65 58.23 o
1 6 -8 9486.46 9483.92 116.11 o
1 6 -7 19099.50 19242.10 199.56 o
1 6 -6 5538.60 5359.31 58.36 o
1 6 -5 46.60 45.04 12.81 o
1 6 -4 5422.24 5388.33 54.11 o
1 6 -3 5544.65 5465.52 54.96 o
1 6 -2 14573.60 14501.00 136.11 o
1 6 -1 11538.00 11654.30 133.54 o
1 6 0 9513.91 9608.76 85.66 o
1 6 1 136.38 122.50 11.97 o
1 6 2 2984.33 3125.48 52.27 o
1 6 3 5755.89 5518.81 74.25 o
1 6 4 5074.00 4898.58 72.86 o
1 6 5 9377.67 9260.75 126.05 o
1 6 6 5827.98 5591.06 88.06 o
1 6 7 92.23 93.84 28.61 o
1 6 8 59.03 124.29 29.77 o
1 6 9 2264.11 2321.33 78.24 o
1 6 10 2304.26 2343.87 70.95 o
1 6 11 4510.05 4644.01 108.21 o
1 6 12 7354.53 7595.50 174.65 o
1 6 13 1283.30 1328.41 101.10 o
1 7 -16 711.63 745.15 71.42 o
1 7 -15 423.00 429.21 71.11 o
1 7 -14 673.50 728.79 63.88 o
1 7 -13 2701.45 2695.69 78.07 o
1 7 -12 4820.48 4970.91 100.16 o
1 7 -11 5553.06 5533.21 103.79 o
1 7 -10 5399.02 5344.69 80.94 o
1 7 -9 183.51 179.91 27.67 o
1 7 -8 118.22 124.75 17.49 o
1 7 -7 2152.71 2058.94 36.70 o
1 7 -6 14701.00 14603.60 168.84 o
1 7 -5 4272.41 4128.10 59.69 o
1 7 -4 15491.30 15556.40 153.86 o
1 7 -3 4496.85 4319.28 46.31 o
1 7 -2 40.13 88.25 13.92 o
1 7 -1 5105.86 5093.19 72.68 o
1 7 0 7333.14 6897.76 69.61 o
1 7 1 5486.20 5298.63 59.87 o
1 7 2 6988.58 7112.68 79.79 o
1 7 3 399.60 439.29 31.53 o
1 7 4 2351.88 2429.45 63.40 o
1 7 5 3250.51 3102.11 80.04 o
1 7 6 3451.98 3399.17 71.47 o
1 7 7 4521.88 4527.00 107.07 o
1 7 8 5640.43 5878.63 103.87 o
1 7 9 5082.18 5151.85 111.29 o
1 7 10 1397.30 1401.60 62.30 o
1 7 11 7.07 -5.38 39.72 <
1 7 12 1292.98 1268.60 82.67 o
1 8 -16 777.99 863.91 72.79 o
1 8 -15 2764.85 2905.58 99.38 o
1 8 -14 5750.66 5917.67 148.78 o
1 8 -13 1375.58 1512.23 59.15 o
1 8 -12 134.06 152.42 29.26 o
1 8 -11 982.57 1093.92 53.02 o
1 8 -10 10950.40 10786.90 144.57 o
1 8 -9 12925.60 12712.30 158.52 o
1 8 -8 16749.20 16586.60 192.05 o
1 8 -7 3224.84 3191.15 54.78 o
1 8 -6 320.63 357.82 21.59 o
1 8 -5 5476.27 5267.74 62.01 o
1 8 -4 547.75 563.09 19.93 o
1 8 -3 7278.97 7187.56 79.93 o
1 8 -2 3217.06 3222.30 50.97 o
1 8 -1 3588.18 3541.92 61.85 o
1 8 0 3227.95 3264.74 50.88 o
1 8 1 232.02 262.86 22.41 o
1 8 2 176.57 195.64 23.41 o
1 8 3 8578.07 8487.99 112.49 o
1 8 4 11973.50 11980.50 177.33 o
1 8 5 13863.20 13663.70 207.19 o
1 8 6 3947.69 4032.42 87.19 o
1 8 7 68.79 27.24 35.64 <
1 8 8 361.55 391.70 39.53 o
1 8 9 6068.47 5890.00 118.91 o
1 8 10 2238.25 2239.96 88.50 o
1 8 11 3658.31 3873.43 140.70 o
1 9 -16 1451.77 1541.54 80.64 o
1 9 -15 29.93 31.51 37.71 <
1 9 -14 2577.01 2684.53 99.24 o
1 9 -13 3999.09 3832.06 91.29 o
1 9 -12 3988.10 4189.38 88.09 o
1 9 -11 4809.39 4872.10 88.01 o
1 9 -10 2560.39 2563.00 65.75 o
1 9 -9 26.38 72.31 29.30 <
1 9 -8 45.04 83.01 21.64 o
1 9 -7 6557.74 6610.63 104.24 o
1 9 -6 3902.77 3915.77 70.15 o
1 9 -5 5651.48 5821.05 72.71 o
1 9 -4 8148.65 8083.01 94.13 o
1 9 -3 42.19 45.66 16.89 <
1 9 -2 404.12 420.39 26.13 o
1 9 -1 5781.26 5803.16 88.78 o
1 9 0 4893.63 4920.57 65.67 o
1 9 1 5550.09 5528.09 72.38 o
1 9 2 1469.88 1504.34 41.91 o
1 9 3 1384.39 1309.64 41.63 o
1 9 4 1.72 5.40 16.56 <
1 9 5 3377.08 3311.85 79.78 o
1 9 6 804.19 787.59 50.00 o
1 9 7 9309.69 9386.36 170.21 o
1 9 8 4802.32 4692.14 132.87 o
1 9 9 762.66 824.82 87.47 o
1 9 10 574.73 339.91 64.15 o
1 10 -15 3149.39 3218.14 122.97 o
1 10 -14 192.43 193.78 44.65 o
1 10 -13 36.04 36.18 35.35 <
1 10 -12 200.45 184.40 33.97 o
1 10 -11 1360.38 1310.94 50.98 o
1 10 -10 1612.69 1776.90 68.87 o
1 10 -9 6689.79 6551.05 142.43 o
1 10 -8 5216.07 5067.85 89.74 o
1 10 -7 2516.30 2494.86 56.64 o
1 10 -6 1475.62 1569.90 46.79 o
1 10 -5 1984.24 1935.19 53.35 o
1 10 -4 6820.46 6954.67 97.49 o
1 10 -3 15921.50 15876.20 228.09 o
1 10 -2 4335.81 4233.68 71.61 o
1 10 -1 3656.48 3743.97 76.61 o
1 10 0 299.68 239.50 31.03 o
1 10 1 2961.26 2854.83 68.61 o
1 10 2 1742.40 1726.21 54.66 o
1 10 3 11971.50 12055.30 172.75 o
1 10 4 3856.55 4009.18 89.43 o
1 10 5 1496.47 1602.38 52.50 o
1 10 6 608.95 602.95 49.10 o
1 10 7 107.56 46.32 37.98 <
1 10 8 596.40 570.98 66.79 o
1 10 9 1862.60 1778.28 153.87 o
1 11 -14 814.53 679.11 68.09 o
1 11 -13 6780.04 6858.88 194.88 o
1 11 -12 6874.00 6750.24 152.90 o
1 11 -11 1876.33 2006.17 86.24 o
1 11 -10 45.16 74.52 34.67 <
1 11 -9 1992.45 1993.49 83.29 o
1 11 -8 3340.50 3404.15 74.93 o
1 11 -7 10158.30 9935.79 145.70 o
1 11 -6 1477.03 1542.29 61.17 o
1 11 -5 5337.12 5014.95 91.33 o
1 11 -4 553.52 560.39 42.08 o
1 11 -3 155.33 168.16 30.46 o
1 11 -2 108.68 142.56 23.48 o
1 11 -1 6562.52 6745.80 97.26 o
1 11 0 5892.77 6091.60 90.38 o
1 11 1 3663.30 3714.04 77.08 o
1 11 2 3251.05 3091.86 71.32 o
1 11 3 346.58 366.98 31.67 o
1 11 4 1178.80 1321.52 58.23 o
1 11 5 3102.99 3138.02 92.02 o
1 11 6 7537.25 7475.72 144.68 o
1 11 7 5121.11 4973.30 111.86 o
1 12 -13 31.19 8.20 38.59 <
1 12 -12 1292.13 1385.58 72.71 o
1 12 -11 3964.87 4058.71 127.47 o
1 12 -10 3088.47 3020.84 97.39 o
1 12 -9 8784.16 8913.93 167.41 o
1 12 -8 1963.35 1863.17 60.69 o
1 12 -7 42.96 71.74 26.91 <
1 12 -6 447.97 405.73 41.76 o
1 12 -5 2285.24 2420.30 68.68 o
1 12 -4 2639.44 2547.59 68.74 o
1 12 -3 2338.46 2417.14 68.05 o
1 12 -2 1954.35 2015.47 71.03 o
1 12 -1 877.95 826.92 32.84 o
1 12 0 380.64 430.81 40.52 o
1 12 1 512.89 600.13 38.29 o
1 12 2 4098.40 4194.96 123.24 o
1 12 3 6374.47 6228.16 161.15 o
1 12 4 2408.72 2584.71 108.06 o
1 12 5 1360.47 1466.90 112.81 o
1 12 6 30.91 26.83 44.20 <
1 13 -11 653.71 520.45 54.10 o
1 13 -10 118.26 124.40 44.86 <
1 13 -9 1092.78 1179.53 58.90 o
1 13 -8 2775.69 2671.53 77.47 o
1 13 -7 2974.70 2925.27 88.98 o
1 13 -6 4336.05 4308.23 113.08 o
1 13 -5 3832.15 3950.24 139.74 o
1 13 -4 4.87 0.40 35.35 <
1 13 -3 1088.67 1029.34 68.78 o
1 13 -2 6135.40 6653.36 174.41 o
1 13 -1 6234.02 6598.32 150.76 o
1 13 0 1613.33 1927.84 91.20 o
1 13 1 2368.15 2245.20 122.00 o
1 13 2 326.76 280.00 55.12 o
1 13 3 378.09 293.22 58.00 o
1 13 4 645.43 602.56 71.39 o
1 14 -9 2360.13 2548.22 132.27 o
1 14 -8 40.81 42.52 49.38 <
1 14 -7 12.64 22.45 53.02 <
1 14 -6 1766.37 1733.69 128.32 o
1 14 -5 1934.70 1836.21 83.20 o
1 14 -4 1764.29 1732.42 80.10 o
1 14 -3 1673.55 1592.27 80.16 o
1 14 -2 1225.82 1251.14 72.10 o
1 14 -1 111.70 209.25 64.17 o
1 14 0 34.14 67.53 39.87 <
1 14 1 1015.26 870.43 71.40 o
2 -14 0 423.62 215.38 68.42 o
2 -14 1 34.10 14.99 47.64 <
2 -14 2 530.89 499.68 76.26 o
2 -14 3 2092.29 1625.88 152.84 o
2 -14 4 884.93 347.72 74.80 o
2 -14 5 2484.60 2638.94 266.42 o
2 -14 6 1745.04 2072.32 117.70 o
2 -13 -4 937.93 864.11 78.94 o
2 -13 -3 1928.57 1884.32 114.75 o
2 -13 -2 131.35 175.26 57.54 o
2 -13 -1 801.72 889.59 87.78 o
2 -13 0 1731.32 1990.63 108.37 o
2 -13 1 5587.64 5836.43 182.54 o
2 -13 2 2481.34 2758.41 129.17 o
2 -13 3 1985.54 2059.24 155.62 o
2 -13 4 15.39 39.73 62.90 <
2 -13 5 221.27 230.76 57.96 o
2 -13 6 4319.21 4629.56 163.07 o
2 -13 7 3724.81 3466.89 120.31 o
2 -13 8 881.14 878.30 112.16 o
2 -13 9 1375.78 1436.68 88.71 o
2 -12 -6 23.03 35.74 40.43 <
2 -12 -5 335.51 251.08 48.66 o
2 -12 -4 633.77 590.81 76.88 o
2 -12 -3 3314.94 3572.08 114.10 o
2 -12 -2 5139.78 4928.40 132.54 o
2 -12 -1 4505.84 4620.11 126.84 o
2 -12 0 329.25 223.53 56.61 o
2 -12 1 40.26 39.10 42.05 <
2 -12 2 3659.77 3681.95 130.44 o
2 -12 3 2975.74 3353.17 172.03 o
2 -12 4 4563.29 4749.81 147.46 o
2 -12 5 4606.92 4689.42 123.12 o
2 -12 6 567.85 602.74 56.23 o
2 -12 7 5.77 2.38 28.75 <
2 -12 8 159.66 222.54 60.34 o
2 -12 9 2002.98 1976.57 93.14 o
2 -12 10 4131.21 4355.06 172.78 o
2 -12 11 2914.87 2825.56 98.24 o
2 -11 -8 447.91 437.87 67.93 o
2 -11 -7 2587.55 2725.44 98.18 o
2 -11 -6 6869.16 7045.42 152.16 o
2 -11 -5 5723.50 5717.21 148.09 o
2 -11 -4 1174.61 1166.76 69.52 o
2 -11 -3 100.11 168.16 54.51 o
2 -11 -2 3831.76 3992.10 124.67 o
2 -11 -1 2995.72 2935.85 89.30 o
2 -11 0 1880.04 2017.17 75.06 o
2 -11 1 4648.58 4774.89 137.83 o
2 -11 2 1836.26 1961.16 86.34 o
2 -11 3 893.38 992.65 54.20 o
2 -11 4 250.50 215.36 37.85 o
2 -11 5 898.06 923.87 55.16 o
2 -11 6 2815.41 2645.59 66.06 o
2 -11 7 2763.05 3030.16 106.12 o
2 -11 8 7105.93 7103.96 133.47 o
2 -11 9 1492.29 1628.46 56.27 o
2 -11 10 69.69 95.95 37.69 <
2 -11 11 720.66 701.99 52.25 o
2 -11 12 4347.58 4288.83 123.75 o
2 -10 -9 3440.61 3525.04 113.75 o
2 -10 -8 2606.09 2788.08 112.82 o
2 -10 -7 999.26 1082.12 81.55 o
2 -10 -6 681.65 702.07 53.20 o
2 -10 -5 660.28 597.64 49.40 o
2 -10 -4 2569.66 2841.12 87.38 o
2 -10 -3 5671.69 5901.56 127.68 o
2 -10 -2 6405.31 6611.62 134.58 o
2 -10 -1 4069.37 3895.97 109.22 o
2 -10 0 2030.78 1876.06 114.26 o
2 -10 1 711.23 786.43 81.48 o
2 -10 2 4792.87 4854.79 124.52 o
2 -10 3 3294.62 3491.21 81.93 o
2 -10 4 9102.89 9065.72 161.82 o
2 -10 5 1455.91 1379.52 46.20 o
2 -10 6 448.67 363.76 49.13 o
2 -10 7 502.71 445.93 36.66 o
2 -10 8 4489.01 4523.63 89.00 o
2 -10 9 3907.71 3892.13 89.01 o
2 -10 10 4398.02 4283.99 105.85 o
2 -10 11 2849.07 3027.94 101.32 o
2 -10 12 1681.79 1783.01 81.39 o
2 -10 13 219.35 176.09 47.24 o
2 -9 -11 1224.10 1069.08 73.99 o
2 -9 -10 66.83 118.93 32.98 o
2 -9 -9 255.32 198.54 37.62 o
2 -9 -8 1976.24 1967.04 58.21 o
2 -9 -7 4676.84 4754.56 84.30 o
2 -9 -6 6708.61 6627.96 97.82 o
2 -9 -5 1438.23 1430.98 49.06 o
2 -9 -4 2156.95 1967.58 59.14 o
2 -9 -3 150.34 153.37 31.87 o
2 -9 -2 3934.91 3762.10 85.77 o
2 -9 -1 2964.69 3081.26 74.59 o
2 -9 0 14739.90 14968.50 230.98 o
2 -9 1 2313.74 2450.87 65.07 o
2 -9 2 1546.80 1667.27 57.56 o
2 -9 3 75.35 55.80 29.62 <
2 -9 4 1930.88 2014.37 61.51 o
2 -9 5 10409.30 10316.70 158.60 o
2 -9 6 8737.35 8836.63 125.49 o
2 -9 7 8045.13 7739.35 119.86 o
2 -9 8 1885.94 1992.55 66.12 o
2 -9 9 106.62 134.90 33.73 o
2 -9 10 75.38 92.68 31.66 <
2 -9 11 2350.10 2165.19 79.27 o
2 -9 12 4257.83 4395.86 107.67 o
2 -9 13 2051.94 2208.55 97.14 o
2 -9 14 2849.86 2757.02 102.20 o
2 -8 -12 401.11 330.21 61.70 o
2 -8 -11 2247.26 2182.16 97.08 o
2 -8 -10 5380.39 5424.50 129.33 o
2 -8 -9 5107.63 5124.64 107.38 o
2 -8 -8 7585.58 7532.56 130.90 o
2 -8 -7 6.87 9.80 18.73 <
2 -8 -6 1003.29 1022.10 46.60 o
2 -8 -5 8223.36 8235.62 103.81 o
2 -8 -4 13094.80 12768.70 164.29 o
2 -8 -3 6743.49 6668.42 117.86 o
2 -8 -2 4127.45 4240.93 83.83 o
2 -8 -1 30.67 47.92 21.58 <
2 -8 0 517.20 569.20 39.62 o
2 -8 1 5391.05 5279.88 80.29 o
2 -8 2 758.60 749.97 30.97 o
2 -8 3 5683.46 5607.90 83.78 o
2 -8 4 5352.31 5398.66 73.75 o
2 -8 5 114.29 156.43 20.36 o
2 -8 6 3713.92 3832.51 64.39 o
2 -8 7 924.03 1031.80 34.82 o
2 -8 8 2684.12 2672.82 63.68 o
2 -8 9 6079.60 6227.90 117.39 o
2 -8 10 12087.10 12013.30 228.54 o
2 -8 11 1040.18 1097.48 54.57 o
2 -8 12 108.75 99.61 33.78 <
2 -8 13 1941.25 2075.08 76.09 o
2 -8 14 2057.30 2030.82 95.51 o
2 -8 15 2935.19 2926.59 142.94 o
2 -7 -13 2091.26 2243.95 119.43 o
2 -7 -12 3354.62 3477.01 100.76 o
2 -7 -11 59.51 50.94 37.17 <
2 -7 -10 75.07 68.31 29.95 <
2 -7 -9 1180.82 1180.33 51.08 o
2 -7 -8 9191.23 9329.83 134.38 o
2 -7 -7 6776.00 6597.64 103.76 o
2 -7 -6 4713.56 4795.32 69.50 o
2 -7 -5 1555.12 1626.99 43.63 o
2 -7 -4 695.82 709.49 26.85 o
2 -7 -3 4482.32 4328.15 63.05 o
2 -7 -2 3690.87 3695.16 69.80 o
2 -7 -1 13906.60 13899.80 201.20 o
2 -7 0 7862.30 7735.54 124.24 o
2 -7 1 152.95 151.08 21.75 o
2 -7 2 6102.55 5854.12 79.18 o
2 -7 3 639.51 598.83 17.47 o
2 -7 4 6481.95 6537.59 80.29 o
2 -7 5 7542.70 7633.30 85.28 o
2 -7 6 10625.90 10466.00 117.60 o
2 -7 7 2335.06 2422.53 47.09 o
2 -7 8 1186.78 1172.03 42.22 o
2 -7 9 58.51 80.82 23.28 o
2 -7 10 914.99 904.08 51.29 o
2 -7 11 6564.30 6362.04 122.43 o
2 -7 12 3950.12 3838.22 91.14 o
2 -7 13 4420.06 4562.81 107.54 o
2 -7 14 3243.99 3313.05 138.57 o
2 -7 15 106.64 78.79 65.73 <
2 -6 -13 1484.45 1645.03 86.35 o
2 -6 -12 3044.29 3209.10 104.35 o
2 -6 -11 4255.84 4213.32 108.31 o
2 -6 -10 2867.54 2899.73 77.51 o
2 -6 -9 1169.76 1245.46 50.59 o
2 -6 -8 50.36 79.05 22.75 o
2 -6 -7 3587.67 3434.35 63.72 o
2 -6 -6 189.77 213.13 21.97 o
2 -6 -5 6006.87 6005.00 70.11 o
2 -6 -4 11025.30 11250.00 118.03 o
2 -6 -3 4305.06 4305.72 60.29 o
2 -6 -2 15803.40 15869.60 210.82 o
2 -6 -1 578.46 567.58 30.22 o
2 -6 0 321.88 378.22 20.18 o
2 -6 1 8574.87 8544.81 103.44 o
2 -6 2 15255.80 15435.90 150.09 o
2 -6 3 9893.48 9689.88 91.29 o
2 -6 4 671.06 674.73 19.85 o
2 -6 5 11.61 25.39 11.55 <
2 -6 6 1171.00 1142.63 29.02 o
2 -6 7 6076.24 5892.65 77.35 o
2 -6 8 5614.94 5653.19 81.15 o
2 -6 9 9482.79 9410.94 127.04 o
2 -6 10 3655.77 3477.43 83.20 o
2 -6 11 148.18 181.89 41.90 o
2 -6 12 390.97 347.94 46.44 o
2 -6 13 477.30 488.52 60.09 o
2 -6 14 2903.93 2999.60 124.11 o
2 -6 15 3399.85 3518.32 110.68 o
2 -5 -14 1797.94 1670.13 109.26 o
2 -5 -13 2830.13 2728.20 100.75 o
2 -5 -12 3454.49 3368.99 99.93 o
2 -5 -11 294.81 223.81 43.27 o
2 -5 -10 110.45 138.76 28.37 o
2 -5 -9 10807.30 10965.10 147.68 o
2 -5 -8 9854.88 9949.46 137.93 o
2 -5 -7 13566.10 13247.80 156.00 o
2 -5 -6 16091.50 16076.90 195.32 o
2 -5 -5 486.98 472.96 19.41 o
2 -5 -4 1190.73 1163.31 27.04 o
2 -5 -3 8011.90 7872.42 76.17 o
2 -5 -2 3855.43 3842.29 49.08 o
2 -5 -1 4226.87 3964.76 65.23 o
2 -5 0 5941.00 6062.21 72.68 o
2 -5 1 4964.52 5175.67 67.74 o
2 -5 2 1107.93 1121.23 20.51 o
2 -5 3 3117.71 3137.51 40.96 o
2 -5 4 5320.44 5363.33 56.36 o
2 -5 5 10993.90 10935.70 112.58 o
2 -5 6 19725.00 19437.00 206.23 o
2 -5 7 3081.83 3033.73 59.24 o
2 -5 8 634.58 565.77 33.67 o
2 -5 9 477.50 527.80 40.74 o
2 -5 10 8725.87 8736.28 156.55 o
2 -5 11 4513.25 4406.78 100.72 o
2 -5 12 5278.59 5127.50 146.48 o
2 -5 13 2632.99 2550.54 92.96 o
2 -5 14 48.91 38.58 38.98 <
2 -5 15 682.60 706.18 73.63 o
2 -4 -15 71.85 127.31 62.05 <
2 -4 -14 521.74 486.87 71.12 o
2 -4 -13 1823.80 1915.17 94.58 o
2 -4 -12 3453.74 3645.63 119.72 o
2 -4 -11 6031.23 5973.90 118.71 o
2 -4 -10 11566.50 11190.80 173.24 o
2 -4 -9 3322.99 3302.73 66.83 o
2 -4 -8 201.52 189.40 22.79 o
2 -4 -7 2868.76 2918.91 54.46 o
2 -4 -6 10148.20 10013.50 117.11 o
2 -4 -5 7771.06 7530.99 85.40 o
2 -4 -4 1938.69 1863.82 26.54 o
2 -4 -3 14654.50 14963.00 132.36 o
2 -4 -2 95.39 145.14 11.14 o
2 -4 -1 4994.02 4918.77 48.27 o
2 -4 0 7688.56 7819.20 58.12 o
2 -4 1 16972.80 16722.90 143.24 o
2 -4 2 8995.13 8587.80 73.67 o
2 -4 3 4120.90 3977.80 44.67 o
2 -4 4 7933.49 7923.78 80.08 o
2 -4 5 553.03 572.57 18.96 o
2 -4 6 7163.25 7099.66 92.41 o
2 -4 7 12387.50 12419.50 156.93 o
2 -4 8 9723.36 9535.28 134.58 o
2 -4 9 12529.90 12358.80 177.51 o
2 -4 10 1769.53 1775.29 60.10 o
2 -4 11 7.80 52.45 29.54 <
2 -4 12 2417.79 2556.96 78.51 o
2 -4 13 3725.41 3647.20 108.05 o
2 -4 14 2589.67 2628.80 88.36 o
2 -4 15 1900.88 2004.18 112.69 o
2 -4 16 2346.01 2476.58 116.31 o
2 -3 -15 7597.17 7631.08 180.37 o
2 -3 -14 4361.13 4294.69 122.44 o
2 -3 -13 2180.69 2113.93 96.80 o
2 -3 -12 17.92 15.59 36.04 <
2 -3 -11 871.60 874.41 57.78 o
2 -3 -10 1966.54 1885.78 71.88 o
2 -3 -9 7801.16 7636.14 135.46 o
2 -3 -8 7495.16 7329.44 94.76 o
2 -3 -7 6745.45 6749.93 82.74 o
2 -3 -6 5878.67 5881.97 69.06 o
2 -3 -5 1027.97 1022.77 25.82 o
2 -3 -4 1144.27 1198.32 19.19 o
2 -3 -3 16247.20 16361.60 137.06 o
2 -3 -2 23139.00 22751.70 217.47 o
2 -3 -1 5091.17 4615.19 44.91 o
2 -3 0 4926.13 5016.78 42.21 o
2 -3 1 6150.26 6138.44 60.48 o
2 -3 2 2214.88 2037.44 23.64 o
2 -3 3 6095.74 5900.12 59.36 o
2 -3 4 20512.20 20385.10 219.18 o
2 -3 5 7710.47 7520.76 89.09 o
2 -3 6 1930.35 1935.52 44.52 o
2 -3 7 135.44 172.26 21.87 o
2 -3 8 208.82 214.12 25.85 o
2 -3 9 2126.36 2178.64 63.93 o
2 -3 10 5250.91 5127.27 86.78 o
2 -3 11 1694.81 1734.54 68.35 o
2 -3 12 3690.10 3651.99 85.58 o
2 -3 13 2470.49 2427.67 77.96 o
2 -3 14 136.41 127.31 53.70 <
2 -3 15 92.02 103.36 43.26 <
2 -3 16 6024.47 5908.44 167.95 o
2 -2 -16 170.86 135.67 68.45 <
2 -2 -15 48.07 98.26 44.99 <
2 -2 -14 838.10 857.26 71.21 o
2 -2 -13 4526.99 4510.29 111.06 o
2 -2 -12 2610.44 2558.77 91.11 o
2 -2 -11 15073.20 15014.20 244.61 o
2 -2 -10 4240.50 4268.30 87.79 o
2 -2 -9 52.20 70.44 23.50 <
2 -2 -8 1317.63 1260.92 40.37 o
2 -2 -7 8167.20 8329.65 102.88 o
2 -2 -6 20671.90 20583.90 201.56 o
2 -2 -5 11038.90 10787.80 107.54 o
2 -2 -4 21530.10 21915.50 214.16 o
2 -2 -3 1505.45 1395.90 18.51 o
2 -2 -2 3350.11 3371.39 31.98 o
2 -2 -1 369.31 325.00 8.83 o
2 -2 0 12251.10 12538.00 98.08 o
2 -2 1 3138.40 3001.81 31.82 o
2 -2 2 12344.20 12482.10 104.54 o
2 -2 3 1496.65 1429.05 24.86 o
2 -2 4 1672.39 1761.63 34.12 o
2 -2 5 54.72 101.92 17.44 o
2 -2 6 7223.26 7252.14 97.81 o
2 -2 7 7364.69 7448.24 102.22 o
2 -2 8 27863.80 27605.60 319.56 o
2 -2 9 8075.58 7917.32 121.43 o
2 -2 10 44.81 64.04 29.61 <
2 -2 11 11.78 10.08 28.24 <
2 -2 12 5614.02 5502.28 107.95 o
2 -2 13 3594.12 3696.50 122.73 o
2 -2 14 2371.89 2439.66 84.58 o
2 -2 15 3462.12 3301.74 119.17 o
2 -1 -16 2046.92 1992.49 114.97 o
2 -1 -15 3508.18 3455.75 111.45 o
2 -1 -14 2483.75 2449.19 88.18 o
2 -1 -13 541.62 538.62 48.39 o
2 -1 -12 120.19 162.41 44.54 o
2 -1 -11 78.86 94.95 27.59 o
2 -1 -10 12722.10 12466.70 173.57 o
2 -1 -9 9930.56 9847.69 146.99 o
2 -1 -8 8877.30 8815.45 111.51 o
2 -1 -7 5305.03 5042.39 67.36 o
2 -1 -6 10.54 43.06 17.99 <
2 -1 -5 67.30 66.42 11.25 o
2 -1 -4 12832.30 12836.50 135.02 o
2 -1 -3 3707.58 3446.47 39.92 o
2 -1 -2 9174.06 9606.87 76.18 o
2 -1 -1 535.35 490.90 9.41 o
2 -1 0 734.62 717.35 14.41 o
2 -1 1 469.02 515.52 11.76 o
2 -1 2 5442.61 5494.69 55.99 o
2 -1 3 16108.10 16656.20 148.86 o
2 -1 4 21440.40 21549.70 208.58 o
2 -1 5 17819.00 18158.60 188.43 o
2 -1 6 3559.22 3527.51 48.25 o
2 -1 7 1206.51 1244.67 39.81 o
2 -1 8 6298.17 6414.19 86.51 o
2 -1 9 3974.62 3895.95 74.23 o
2 -1 10 6374.24 6167.70 110.28 o
2 -1 11 5046.73 4868.69 93.52 o
2 -1 12 3327.58 3312.24 83.02 o
2 -1 13 8.64 2.99 31.15 <
2 -1 14 683.47 742.60 59.37 o
2 -1 15 1132.29 1180.98 100.76 o
2 0 -16 128.82 112.76 58.22 <
2 0 -15 265.81 297.11 57.30 o
2 0 -14 7273.25 6993.62 145.26 o
2 0 -13 4274.38 4186.45 120.06 o
2 0 -12 15902.40 15332.60 243.15 o
2 0 -11 2333.13 2400.39 72.55 o
2 0 -10 191.29 200.69 25.79 o
2 0 -9 536.47 550.72 32.66 o
2 0 -8 2093.91 2001.51 46.14 o
2 0 -7 1009.48 1043.75 31.05 o
2 0 -6 18176.70 18282.50 194.59 o
2 0 -5 13570.10 14155.20 144.37 o
2 0 -4 7972.57 8031.52 86.96 o
2 0 -3 4830.27 4692.34 57.90 o
2 0 -2 1076.23 979.76 19.40 o
2 0 -1 239.21 216.82 17.99 o
2 0 0 64371.60 65647.00 1069.09 o
2 0 1 24958.80 26730.80 251.35 o
2 0 2 8774.90 9092.42 82.81 o
2 0 3 5513.61 5697.03 53.98 o
2 0 4 5921.42 6001.30 64.71 o
2 0 5 978.43 911.24 22.74 o
2 0 6 9883.08 9797.87 109.98 o
2 0 7 10370.30 10383.70 123.11 o
2 0 8 3616.12 3528.69 65.64 o
2 0 9 504.21 521.88 33.86 o
2 0 10 53.71 65.07 28.08 <
2 0 11 93.06 98.29 39.00 <
2 0 12 3498.93 3596.99 95.91 o
2 0 13 2252.93 2276.60 84.27 o
2 0 14 6434.87 6528.76 142.88 o
2 0 15 1900.75 1937.96 89.66 o
2 1 -17 1811.60 2047.64 102.77 o
2 1 -16 4064.56 3974.89 150.97 o
2 1 -15 4118.88 4159.35 117.06 o
2 1 -14 1667.82 1563.49 70.23 o
2 1 -13 1241.59 1254.61 66.61 o
2 1 -12 1251.69 1221.59 52.56 o
2 1 -11 2384.87 2414.67 65.66 o
2 1 -10 11219.30 11246.40 159.68 o
2 1 -9 10240.00 10077.40 136.66 o
2 1 -8 12233.20 12018.70 148.00 o
2 1 -7 1660.64 1735.96 38.25 o
2 1 -6 2483.81 2637.38 46.86 o
2 1 -5 6834.62 6878.31 86.76 o
2 1 -4 16329.20 15793.30 180.59 o
2 1 -3 6609.29 6743.02 130.05 o
2 1 -2 5642.94 5373.18 63.16 o
2 1 -1 3181.30 3051.79 33.69 o
2 1 0 354.32 382.31 8.05 o
2 1 1 2424.63 2564.41 23.73 o
2 1 2 15413.30 15978.90 129.36 o
2 1 3 10127.80 10257.10 88.69 o
2 1 4 36062.70 35910.00 369.31 o
2 1 5 2132.37 2115.22 36.21 o
2 1 6 19.23 53.97 15.58 o
2 1 7 879.58 920.57 30.64 o
2 1 8 10420.30 10560.20 146.15 o
2 1 9 6919.87 6683.92 99.42 o
2 1 10 9130.71 9195.11 148.18 o
2 1 11 5733.25 5657.65 107.32 o
2 1 12 119.90 119.78 38.06 o
2 1 13 3.58 -12.93 33.77 <
2 1 14 1713.57 1785.07 89.50 o
2 1 15 2379.43 2412.91 115.28 o
2 2 -17 649.05 543.84 80.44 o
2 2 -16 476.48 498.39 91.61 o
2 2 -15 198.23 212.74 53.25 o
2 2 -14 3030.95 2919.35 114.59 o
2 2 -13 2851.08 2836.26 91.97 o
2 2 -12 15168.00 14731.00 213.35 o
2 2 -11 4781.11 4750.35 95.41 o
2 2 -10 360.39 358.28 28.59 o
2 2 -9 1147.85 1255.03 44.65 o
2 2 -8 29536.10 29237.10 408.55 o
2 2 -7 8799.82 8611.10 132.44 o
2 2 -6 9584.15 9440.74 128.43 o
2 2 -5 5145.23 4995.98 66.27 o
2 2 -4 3051.11 3320.27 60.84 o
2 2 -3 3820.92 3774.67 43.00 o
2 2 -2 7420.39 7672.95 85.75 o
2 2 -1 9004.73 8731.89 74.89 o
2 2 0 7837.69 7714.22 58.30 o
2 2 1 2408.19 2316.28 23.24 o
2 2 2 3150.77 2965.02 29.83 o
2 2 3 1303.59 1380.25 21.59 o
2 2 4 4835.07 4877.22 53.62 o
2 2 5 2910.27 2859.66 42.02 o
2 2 6 23898.20 24026.50 239.25 o
2 2 7 10247.00 10135.70 129.71 o
2 2 8 6562.01 6434.45 93.67 o
2 2 9 187.15 187.34 32.46 o
2 2 10 2486.46 2510.68 71.49 o
2 2 11 3452.29 3588.27 86.31 o
2 2 12 2447.26 2384.93 90.05 o
2 2 13 1465.83 1533.32 79.75 o
2 2 14 1051.10 1185.10 74.12 o
2 3 -17 3081.76 3219.72 120.70 o
2 3 -16 8548.19 8384.30 222.31 o
2 3 -15 595.86 665.41 58.85 o
2 3 -14 177.27 192.64 38.60 o
2 3 -13 964.33 979.25 55.04 o
2 3 -12 5681.32 5538.65 122.60 o
2 3 -11 8904.75 8916.15 143.60 o
2 3 -10 10035.50 9743.99 144.24 o
2 3 -9 5011.38 4902.20 81.61 o
2 3 -8 7116.37 7221.16 103.89 o
2 3 -7 2358.00 2348.51 56.42 o
2 3 -6 3982.91 4232.30 68.98 o
2 3 -5 3234.63 3158.54 44.03 o
2 3 -4 35427.00 35502.80 430.75 o
2 3 -3 3196.97 2942.71 42.71 o
2 3 -2 730.42 657.11 11.55 o
2 3 -1 11550.50 12461.70 117.32 o
2 3 0 2187.12 2112.42 19.72 o
2 3 1 5612.12 5429.03 46.26 o
2 3 2 29017.90 29574.10 275.81 o
2 3 3 20840.10 20656.00 190.45 o
2 3 4 1092.53 1112.22 22.39 o
2 3 5 3083.95 3107.85 45.41 o
2 3 6 69.17 94.77 20.54 o
2 3 7 3703.79 3786.12 64.81 o
2 3 8 1893.42 1842.22 56.02 o
2 3 9 3863.51 3725.54 91.17 o
2 3 10 2940.75 2975.47 83.11 o
2 3 11 1541.49 1444.18 70.30 o
2 3 12 1932.57 1878.72 74.14 o
2 3 13 363.05 387.73 56.99 o
2 3 14 2657.14 2671.41 115.95 o
2 4 -17 119.21 172.31 77.87 <
2 4 -16 1669.93 1643.11 81.11 o
2 4 -15 3271.06 3070.35 103.95 o
2 4 -14 3743.12 3831.16 112.39 o
2 4 -13 7014.97 6701.78 138.02 o
2 4 -12 6156.81 6054.13 119.95 o
2 4 -11 64.99 89.11 33.88 <
2 4 -10 132.02 112.16 36.60 o
2 4 -9 2107.23 2156.63 59.27 o
2 4 -8 4017.75 3936.06 71.05 o
2 4 -7 2405.36 2366.21 43.42 o
2 4 -6 8833.95 9002.76 94.36 o
2 4 -5 1728.93 1752.45 32.26 o
2 4 -4 427.33 449.19 17.30 o
2 4 -3 398.91 382.86 13.16 o
2 4 -2 12021.40 11991.90 95.35 o
2 4 -1 17416.60 17220.40 236.35 o
2 4 0 11922.40 11968.00 181.45 o
2 4 1 2401.27 2340.66 30.77 o
2 4 2 26.98 33.60 11.67 <
2 4 3 5301.77 5431.27 56.94 o
2 4 4 970.52 983.02 27.43 o
2 4 5 10861.50 10884.00 114.46 o
2 4 6 11938.70 11630.10 124.14 o
2 4 7 5569.86 5247.38 72.97 o
2 4 8 284.27 278.79 29.69 o
2 4 9 39.43 58.48 27.12 <
2 4 10 1966.18 1981.06 70.74 o
2 4 11 5903.01 5732.52 119.13 o
2 4 12 3556.37 3460.30 117.02 o
2 4 13 4256.41 4374.38 129.92 o
2 5 -17 2152.69 2182.21 114.71 o
2 5 -16 3583.68 3517.74 110.13 o
2 5 -15 1437.49 1453.02 81.49 o
2 5 -14 620.46 607.73 63.81 o
2 5 -13 72.42 130.74 37.27 o
2 5 -12 7175.95 7071.43 155.72 o
2 5 -11 6461.20 6441.47 114.25 o
2 5 -10 10773.70 10427.30 152.57 o
2 5 -9 8040.08 7743.49 113.48 o
2 5 -8 109.79 129.21 19.05 o
2 5 -7 1166.08 1135.51 27.49 o
2 5 -6 8462.82 8189.88 92.43 o
2 5 -5 19449.90 19773.30 247.11 o
2 5 -4 1494.32 1537.28 38.42 o
2 5 -3 10297.90 10227.70 99.04 o
2 5 -2 4901.55 5058.14 90.16 o
2 5 -1 79.02 94.17 22.28 o
2 5 0 901.17 920.18 33.54 o
2 5 1 4589.64 4500.06 54.16 o
2 5 2 11998.10 12212.30 133.48 o
2 5 3 16287.20 16224.80 185.20 o
2 5 4 7734.51 7784.99 89.95 o
2 5 5 1878.02 1818.31 38.15 o
2 5 6 1948.90 1946.81 46.23 o
2 5 7 8883.71 8763.03 116.99 o
2 5 8 3054.62 3164.63 63.55 o
2 5 9 7321.23 7255.64 116.11 o
2 5 10 1170.89 1208.97 55.82 o
2 5 11 146.30 138.08 38.05 o
2 5 12 319.50 260.68 53.38 o
2 5 13 2006.49 2057.43 121.27 o
2 6 -16 1107.43 1111.94 97.03 o
2 6 -15 3116.44 3038.01 146.84 o
2 6 -14 7248.11 7042.95 154.74 o
2 6 -13 7844.51 7741.44 152.45 o
2 6 -12 59.18 111.18 32.81 o
2 6 -11 22.18 14.86 22.22 <
2 6 -10 2080.12 2169.67 58.45 o
2 6 -9 7684.07 7578.55 117.44 o
2 6 -8 3430.29 3475.77 65.62 o
2 6 -7 12076.00 12041.40 147.98 o
2 6 -6 6690.74 6554.64 85.88 o
2 6 -5 136.54 129.54 13.84 o
2 6 -4 44.16 52.42 15.71 o
2 6 -3 2457.99 2296.35 45.18 o
2 6 -2 12987.70 12854.70 202.27 o
2 6 -1 17569.90 18197.60 302.99 o
2 6 0 4299.27 4106.45 77.26 o
2 6 1 2765.78 2727.87 66.44 o
2 6 2 2879.01 2932.32 48.90 o
2 6 3 8132.85 8128.56 107.19 o
2 6 4 4508.58 4308.41 71.03 o
2 6 5 16345.40 15977.20 218.96 o
2 6 6 1580.95 1717.44 64.11 o
2 6 7 2096.21 2150.52 67.80 o
2 6 8 101.19 108.15 32.86 o
2 6 9 2274.87 2423.58 80.04 o
2 6 10 897.72 1013.23 74.50 o
2 6 11 3860.46 3886.38 122.91 o
2 6 12 2958.99 2993.03 118.00 o
2 7 -16 1208.34 1209.34 89.41 o
2 7 -15 366.46 293.83 52.32 o
2 7 -14 479.15 439.07 46.47 o
2 7 -13 3913.82 4078.43 102.11 o
2 7 -12 2217.25 2271.82 78.22 o
2 7 -11 6638.94 6544.64 108.75 o
2 7 -10 8115.31 8057.19 120.47 o
2 7 -9 1691.71 1696.63 42.71 o
2 7 -8 15.78 3.77 15.36 <
2 7 -7 848.37 789.22 29.49 o
2 7 -6 5083.69 5025.22 72.84 o
2 7 -5 6209.03 6037.13 73.62 o
2 7 -4 3902.77 3902.25 60.51 o
2 7 -3 4649.62 4621.98 85.15 o
2 7 -2 359.13 353.58 31.56 o
2 7 -1 2096.35 2082.55 60.99 o
2 7 0 4274.39 4298.04 96.64 o
2 7 1 18216.70 17834.30 259.94 o
2 7 2 5484.88 5182.25 62.68 o
2 7 3 9510.95 9455.51 126.87 o
2 7 4 26.16 40.36 22.44 <
2 7 5 148.31 143.68 27.63 o
2 7 6 3292.25 3085.52 84.37 o
2 7 7 2027.44 2031.22 68.55 o
2 7 8 2863.42 2912.34 97.55 o
2 7 9 4796.02 4781.68 125.58 o
2 7 10 110.78 116.56 38.80 o
2 7 11 706.49 673.26 60.73 o
2 8 -16 947.21 795.54 87.65 o
2 8 -15 4262.76 4344.47 121.91 o
2 8 -14 6378.95 6246.97 137.36 o
2 8 -13 4340.21 4271.89 115.55 o
2 8 -12 662.16 770.43 56.36 o
2 8 -11 339.95 350.27 33.72 o
2 8 -10 8894.82 8437.10 143.67 o
2 8 -9 11097.20 11051.20 156.24 o
2 8 -8 3297.21 3258.53 66.65 o
2 8 -7 11047.40 10971.00 139.34 o
2 8 -6 880.80 887.95 30.24 o
2 8 -5 84.34 144.25 17.72 o
2 8 -4 3463.30 3493.29 89.63 o
2 8 -3 13763.70 13337.90 196.91 o
2 8 -2 1500.64 1541.66 59.07 o
2 8 -1 9696.14 9779.19 153.13 o
2 8 0 2841.46 2902.50 69.96 o
2 8 1 323.97 281.57 32.56 o
2 8 2 93.64 91.77 21.08 o
2 8 3 915.76 971.29 38.33 o
2 8 4 6513.48 6572.18 134.78 o
2 8 5 11537.90 11292.80 188.98 o
2 8 6 2853.55 2820.69 90.81 o
2 8 7 1566.54 1618.96 66.51 o
2 8 8 1490.08 1526.99 87.78 o
2 8 9 3581.86 3371.69 106.09 o
2 8 10 2101.44 2139.64 95.18 o
2 9 -15 118.94 80.91 54.46 <
2 9 -14 1468.12 1368.39 81.27 o
2 9 -13 3118.70 3090.74 86.61 o
2 9 -12 3579.10 3489.88 104.66 o
2 9 -11 4943.60 5136.53 114.19 o
2 9 -10 196.46 228.96 34.56 o
2 9 -9 1658.08 1749.75 64.26 o
2 9 -8 65.62 92.40 28.48 o
2 9 -7 5588.05 5379.01 84.40 o
2 9 -6 5516.74 5311.50 78.16 o
2 9 -5 5616.66 5651.93 71.23 o
2 9 -4 1377.76 1357.22 51.11 o
2 9 -3 1113.88 1155.51 55.76 o
2 9 -2 111.70 124.77 34.89 o
2 9 -1 932.43 986.39 47.03 o
2 9 0 9327.84 9389.30 179.36 o
2 9 1 10146.20 10302.20 180.31 o
2 9 2 1443.62 1540.29 72.82 o
2 9 3 1964.53 1846.04 44.37 o
2 9 4 90.57 72.75 23.58 o
2 9 5 2237.79 2207.75 69.33 o
2 9 6 2428.44 2331.05 76.28 o
2 9 7 3410.45 3305.12 118.22 o
2 9 8 3005.12 3101.90 122.56 o
2 9 9 1141.05 1036.89 72.38 o
2 10 -14 473.34 395.00 92.85 o
2 10 -13 475.98 461.24 55.02 o
2 10 -12 221.41 249.09 51.51 o
2 10 -11 1646.47 1686.32 79.24 o
2 10 -10 1132.75 1232.57 74.38 o
2 10 -9 3050.56 3084.72 86.99 o
2 10 -8 4861.69 4887.43 97.87 o
2 10 -7 2363.60 2520.84 63.37 o
2 10 -6 235.60 160.76 30.23 o
2 10 -5 656.88 579.16 34.29 o
2 10 -4 4457.75 4516.10 101.49 o
2 10 -3 12737.70 12881.50 216.44 o
2 10 -2 9043.83 8719.78 138.74 o
2 10 -1 6988.25 6611.61 135.02 o
2 10 0 294.66 189.18 47.41 o
2 10 1 648.84 652.14 50.72 o
2 10 2 2278.58 2321.59 83.27 o
2 10 3 4425.60 4549.71 120.89 o
2 10 4 6103.65 6159.89 150.57 o
2 10 5 1385.08 1443.47 79.58 o
2 10 6 1015.34 1031.69 75.10 o
2 10 7 51.89 110.24 67.60 <
2 10 8 336.36 358.14 81.59 o
2 11 -13 4570.42 4795.11 137.05 o
2 11 -12 5487.56 5463.60 145.55 o
2 11 -11 3860.98 3791.66 113.88 o
2 11 -10 451.34 482.08 53.25 o
2 11 -9 22.89 9.48 30.27 <
2 11 -8 5413.52 5149.43 105.99 o
2 11 -7 5400.37 5026.62 103.60 o
2 11 -6 3232.46 3240.35 83.41 o
2 11 -5 2290.51 2263.49 79.12 o
2 11 -4 749.35 843.91 53.77 o
2 11 -3 0.28 -11.30 23.91 <
2 11 -2 394.94 304.87 48.24 o
2 11 -1 2137.36 2126.82 118.46 o
2 11 0 6289.67 6409.80 145.27 o
2 11 1 4038.37 4174.09 133.11 o
2 11 2 7725.74 7771.38 197.06 o
2 11 3 384.97 364.95 53.78 o
2 11 4 645.03 670.84 78.02 o
2 11 5 2078.35 2213.03 120.21 o
2 11 6 5336.93 5453.19 189.78 o
2 12 -12 1103.78 1046.84 71.67 o
2 12 -11 1867.56 1861.52 91.31 o
2 12 -10 3900.79 3574.96 111.64 o
2 12 -9 3471.46 3580.13 139.96 o
2 12 -8 1289.16 1335.30 115.49 o
2 12 -7 57.02 52.77 44.20 <
2 12 -6 43.90 -7.36 34.46 <
2 12 -5 2033.53 2207.76 160.18 o
2 12 -3 2192.99 2132.80 137.22 o
2 12 -2 4536.09 4499.08 119.45 o
2 12 -1 515.06 540.38 46.86 o
2 12 0 28.41 20.28 34.47 <
2 12 1 677.50 682.56 64.35 o
2 12 2 3244.76 3430.07 120.14 o
2 12 3 4829.52 5037.44 193.48 o
2 12 4 1895.89 2048.69 105.13 o
2 13 -10 286.73 284.14 71.48 o
2 13 -9 891.11 819.40 89.78 o
2 13 -8 1957.20 1951.90 116.00 o
2 13 -7 3255.94 3197.17 171.08 o
2 13 -6 6136.66 5990.55 255.84 o
2 13 -5 2409.40 2294.78 120.01 o
2 13 -4 512.77 465.94 54.81 o
2 13 -3 591.64 487.55 54.90 o
2 13 -2 2742.59 2609.72 100.43 o
2 13 -1 6575.56 6756.46 188.72 o
2 13 0 3565.20 3851.86 110.90 o
2 13 1 1229.43 1394.95 86.96 o
2 13 2 1215.54 1026.25 105.12 o
2 14 -6 483.11 528.55 102.95 o
2 14 -5 2885.19 2819.22 109.32 o
2 14 -4 1649.05 1798.69 143.99 o
2 14 -3 1701.93 1736.11 116.50 o
2 14 -2 2458.01 2510.68 105.23 o
3 -13 -2 191.63 137.56 60.77 <
3 -13 -1 168.02 169.95 63.81 <
3 -13 0 1491.65 1621.37 90.21 o
3 -13 1 3654.38 4012.08 158.57 o
3 -13 2 5254.92 5338.45 255.04 o
3 -13 4 50.90 160.11 91.63 <
3 -13 5 442.41 291.46 56.03 o
3 -13 6 2191.36 2265.84 130.36 o
3 -13 7 2837.92 2667.48 219.42 o
3 -12 -5 694.14 575.38 83.17 o
3 -12 -4 959.09 970.86 75.54 o
3 -12 -3 1524.01 1607.18 87.34 o
3 -12 -2 4633.96 4671.52 155.66 o
3 -12 -1 1609.91 1794.11 104.82 o
3 -12 0 2346.47 2477.26 117.57 o
3 -12 1 23.57 22.23 39.89 <
3 -12 2 1420.95 1551.30 77.31 o
3 -12 3 3276.43 3502.68 137.54 o
3 -12 4 3979.90 4152.73 127.38 o
3 -12 5 5261.88 5354.46 171.56 o
3 -12 6 2028.94 2154.50 117.06 o
3 -12 7 67.54 0.97 36.53 <
3 -12 8 286.35 328.54 59.93 o
3 -12 9 2330.14 2318.00 111.07 o
3 -11 -7 2821.48 2829.06 107.52 o
3 -11 -6 6415.63 6549.87 232.85 o
3 -11 -5 3920.65 3993.69 128.27 o
3 -11 -4 2157.63 2179.34 110.82 o
3 -11 -3 61.89 93.51 49.33 <
3 -11 -2 608.89 689.38 57.60 o
3 -11 -1 2434.94 2662.69 108.50 o
3 -11 0 2516.71 2486.30 102.69 o
3 -11 1 3491.43 3618.71 101.57 o
3 -11 2 859.14 729.33 54.77 o
3 -11 3 134.54 137.97 51.62 <
3 -11 4 355.32 412.62 67.02 o
3 -11 5 930.22 863.78 86.87 o
3 -11 6 1311.07 1360.82 75.87 o
3 -11 7 4054.14 4065.99 124.25 o
3 -11 8 5440.78 5617.15 167.65 o
3 -11 9 2816.46 2713.93 112.20 o
3 -11 10 327.01 373.52 79.85 o
3 -10 -8 3469.73 3461.58 115.51 o
3 -10 -7 1771.73 1840.03 93.89 o
3 -10 -6 4.01 -24.65 35.36 <
3 -10 -5 768.38 739.18 70.75 o
3 -10 -4 830.41 1057.79 63.83 o
3 -10 -3 4168.40 4215.76 111.12 o
3 -10 -2 2812.15 3017.07 91.54 o
3 -10 -1 1931.11 1917.78 71.64 o
3 -10 0 1563.67 1619.04 64.46 o
3 -10 1 1120.66 1175.25 57.68 o
3 -10 2 1066.23 1269.55 60.08 o
3 -10 3 5629.66 5708.81 191.18 o
3 -10 4 8871.00 8576.39 199.62 o
3 -10 5 4995.85 5230.93 127.25 o
3 -10 6 315.16 348.60 47.01 o
3 -10 7 437.22 323.96 38.29 o
3 -10 8 1308.44 1284.25 56.55 o
3 -10 9 4442.98 4472.07 91.91 o
3 -10 10 766.30 794.03 61.04 o
3 -10 11 2944.53 2993.93 98.77 o
3 -10 12 617.46 503.60 57.97 o
3 -9 -10 26.46 54.93 46.99 <
3 -9 -9 427.60 478.30 58.70 o
3 -9 -8 1672.90 1672.55 89.42 o
3 -9 -7 5387.51 5502.92 139.35 o
3 -9 -6 1705.06 1791.40 77.11 o
3 -9 -5 1576.66 1695.21 71.15 o
3 -9 -4 1622.68 1679.52 81.31 o
3 -9 -3 6.70 -14.26 29.09 <
3 -9 -2 245.42 199.82 40.49 o
3 -9 -1 7170.01 7098.33 145.31 o
3 -9 0 7612.94 7876.37 187.82 o
3 -9 1 11134.20 11150.10 241.10 o
3 -9 2 1560.47 1630.55 58.40 o
3 -9 3 814.23 869.87 50.84 o
3 -9 4 1462.14 1459.96 62.75 o
3 -9 5 8250.65 7815.28 153.28 o
3 -9 6 3485.39 3384.69 71.98 o
3 -9 7 8502.64 8354.03 117.07 o
3 -9 8 1413.32 1546.84 54.97 o
3 -9 9 188.07 149.53 30.91 o
3 -9 10 38.99 51.07 30.60 <
3 -9 11 1276.95 1167.21 65.45 o
3 -9 12 1915.19 2154.81 103.17 o
3 -8 -11 3588.31 3706.28 111.02 o
3 -8 -10 2217.41 2296.38 77.69 o
3 -8 -9 7915.36 8038.46 136.91 o
3 -8 -8 4594.31 4556.61 85.47 o
3 -8 -7 801.00 736.53 37.96 o
3 -8 -6 148.17 127.64 24.46 o
3 -8 -5 6846.08 6460.80 102.72 o
3 -8 -4 8363.80 8436.11 152.20 o
3 -8 -3 11508.00 11631.30 190.89 o
3 -8 -2 311.00 250.36 40.08 o
3 -8 -1 412.56 424.85 35.46 o
3 -8 0 30.94 44.23 30.63 <
3 -8 1 2799.68 2818.49 60.85 o
3 -8 2 702.94 739.32 36.11 o
3 -8 3 6451.19 6564.66 132.30 o
3 -8 4 2662.46 2686.79 57.45 o
3 -8 5 993.60 1036.10 39.28 o
3 -8 6 934.32 1006.94 37.48 o
3 -8 7 311.90 336.60 29.92 o
3 -8 8 4146.81 4286.51 97.37 o
3 -8 9 4772.97 4947.16 94.54 o
3 -8 10 6441.36 6502.71 120.17 o
3 -8 11 2650.47 2773.95 84.29 o
3 -8 12 39.90 57.30 46.23 <
3 -8 13 463.08 432.75 67.59 o
3 -7 -12 2987.96 3178.82 110.77 o
3 -7 -11 576.68 466.35 67.93 o
3 -7 -10 29.27 45.22 30.93 <
3 -7 -9 997.25 1107.35 47.61 o
3 -7 -8 3682.74 3838.07 78.01 o
3 -7 -7 8043.73 8134.27 121.17 o
3 -7 -6 2862.39 2913.40 57.47 o
3 -7 -5 4486.11 4511.85 90.42 o
3 -7 -4 82.07 68.53 28.06 <
3 -7 -3 130.92 169.03 30.81 o
3 -7 -2 2015.72 2036.10 54.83 o
3 -7 -1 12475.70 12458.90 182.69 o
3 -7 0 8245.57 8124.69 125.70 o
3 -7 1 2810.71 2682.93 55.07 o
3 -7 2 30.08 78.85 25.08 o
3 -7 3 535.21 503.76 27.19 o
3 -7 4 3093.82 3052.38 57.91 o
3 -7 5 5592.08 5538.87 82.09 o
3 -7 6 10661.30 10520.30 139.13 o
3 -7 7 7203.50 7219.21 113.11 o
3 -7 8 211.31 227.62 34.08 o
3 -7 9 841.21 883.16 46.37 o
3 -7 10 637.71 612.44 43.93 o
3 -7 11 1405.11 1456.12 64.15 o
3 -7 12 3195.64 2989.20 98.04 o
3 -7 13 2257.97 2364.59 90.09 o
3 -7 14 1414.76 1566.25 90.82 o
3 -6 -13 1276.62 1394.45 91.42 o
3 -6 -12 4609.91 4549.32 150.52 o
3 -6 -11 6297.94 6299.35 149.68 o
3 -6 -10 1620.04 1586.04 58.02 o
3 -6 -9 2463.00 2639.10 76.28 o
3 -6 -8 277.82 298.50 33.72 o
3 -6 -7 556.10 562.28 28.71 o
3 -6 -6 1036.07 1101.39 38.23 o
3 -6 -5 2332.27 2346.11 47.73 o
3 -6 -4 1738.14 1712.19 38.92 o
3 -6 -3 4928.16 4842.00 66.09 o
3 -6 -2 3328.98 3333.18 68.78 o
3 -6 -1 3259.41 3236.06 61.31 o
3 -6 0 4862.74 4624.88 69.72 o
3 -6 1 3293.10 3372.49 56.17 o
3 -6 2 17080.70 17121.00 201.74 o
3 -6 3 21507.20 21053.10 247.26 o
3 -6 4 4669.37 4535.33 81.26 o
3 -6 5 701.85 672.32 27.16 o
3 -6 6 3871.53 3969.89 72.09 o
3 -6 7 4884.41 4721.25 75.43 o
3 -6 8 1382.29 1439.81 52.84 o
3 -6 9 1044.55 1166.45 55.45 o
3 -6 10 3203.69 3090.49 90.03 o
3 -6 11 359.21 401.20 41.48 o
3 -6 12 124.38 88.92 34.66 <
3 -6 13 129.16 105.85 43.90 <
3 -6 14 2631.00 2591.59 110.86 o
3 -5 -13 6992.48 7119.65 168.23 o
3 -5 -12 2068.54 2104.86 93.27 o
3 -5 -11 1713.48 1732.11 87.05 o
3 -5 -10 367.60 370.75 44.55 o
3 -5 -9 4475.51 4388.51 79.85 o
3 -5 -8 8419.22 8304.06 120.65 o
3 -5 -7 6926.13 6739.32 90.12 o
3 -5 -6 3960.93 3983.74 58.45 o
3 -5 -5 1420.49 1330.04 28.90 o
3 -5 -4 353.14 360.61 26.41 o
3 -5 -3 1000.77 1001.93 35.72 o
3 -5 -2 12471.80 12349.40 138.74 o
3 -5 -1 5381.71 5365.52 52.15 o
3 -5 0 3685.58 3611.02 39.66 o
3 -5 1 2593.57 2597.97 44.11 o
3 -5 2 1238.81 1257.65 31.04 o
3 -5 3 173.93 188.10 25.61 o
3 -5 4 5367.56 5389.41 73.30 o
3 -5 5 2565.15 2602.61 46.59 o
3 -5 6 11233.20 11057.70 129.96 o
3 -5 7 3052.05 3068.79 60.03 o
3 -5 8 3191.60 3096.54 73.28 o
3 -5 9 438.98 411.67 40.76 o
3 -5 10 9307.69 9412.41 179.28 o
3 -5 11 6168.84 6155.28 153.44 o
3 -5 12 3964.91 4088.26 102.34 o
3 -5 13 845.58 794.72 79.73 o
3 -5 14 80.42 79.41 41.59 <
3 -4 -14 110.86 74.15 48.37 <
3 -4 -13 255.34 134.95 46.81 <
3 -4 -12 3557.70 3349.13 107.40 o
3 -4 -11 2399.70 2495.88 85.15 o
3 -4 -10 6249.31 6319.90 129.76 o
3 -4 -9 8615.60 8587.18 141.37 o
3 -4 -8 252.20 270.49 25.38 o
3 -4 -7 338.06 343.62 21.61 o
3 -4 -6 9633.39 9461.46 108.16 o
3 -4 -5 11301.60 10836.90 108.65 o
3 -4 -4 7803.04 7577.73 86.12 o
3 -4 -3 3124.73 3045.76 43.61 o
3 -4 -2 769.36 763.39 19.85 o
3 -4 -1 4492.71 4703.88 51.25 o
3 -4 0 3257.51 3280.40 34.19 o
3 -4 1 6302.17 6319.07 75.80 o
3 -4 2 15872.20 15680.90 179.06 o
3 -4 3 8300.82 8294.86 99.40 o
3 -4 4 4584.40 4633.39 57.33 o
3 -4 5 0.58 30.79 15.37 <
3 -4 6 4468.15 4444.34 70.53 o
3 -4 7 6079.85 6073.88 110.88 o
3 -4 8 11235.70 11321.20 178.35 o
3 -4 9 4396.64 4565.85 127.36 o
3 -4 10 3176.24 3139.98 80.63 o
3 -4 11 62.02 66.18 32.10 <
3 -4 12 20.32 15.96 33.25 <
3 -4 13 2346.87 2487.88 117.86 o
3 -4 14 3891.67 3976.86 132.67 o
3 -3 -15 3970.47 4102.48 146.75 o
3 -3 -14 7421.27 7435.01 184.15 o
3 -3 -13 1972.26 2012.19 91.65 o
3 -3 -12 142.54 110.32 35.78 o
3 -3 -11 753.24 698.44 56.50 o
3 -3 -10 3772.36 3879.02 99.32 o
3 -3 -9 6037.57 5955.70 101.99 o
3 -3 -8 4707.44 4516.82 85.12 o
3 -3 -7 1453.35 1462.44 48.66 o
3 -3 -6 6102.82 6033.32 70.67 o
3 -3 -5 916.32 944.81 26.35 o
3 -3 -4 166.61 142.94 15.93 o
3 -3 -3 1315.27 1277.27 24.42 o
3 -3 -2 22974.20 22346.00 222.79 o
3 -3 -1 7868.87 7523.99 77.35 o
3 -3 0 18980.50 19329.40 200.55 o
3 -3 1 35.55 44.98 11.73 o
3 -3 2 3970.19 3905.73 52.83 o
3 -3 3 10405.10 10460.50 115.68 o
3 -3 4 15208.20 15303.80 155.55 o
3 -3 5 4803.02 4897.58 74.91 o
3 -3 6 3384.44 3471.02 65.54 o
3 -3 7 39.99 86.31 28.23 o
3 -3 8 19.60 -9.01 18.05 <
3 -3 9 1249.89 1192.10 45.30 o
3 -3 10 1487.70 1580.33 64.17 o
3 -3 11 1028.48 1166.98 64.00 o
3 -3 12 3918.53 3971.91 121.65 o
3 -3 13 1003.84 1161.53 93.92 o
3 -3 14 246.48 252.16 57.54 o
3 -2 -15 55.71 63.39 43.35 <
3 -2 -14 555.76 574.74 64.75 o
3 -2 -13 3675.53 3609.16 103.26 o
3 -2 -12 9102.20 9101.51 162.35 o
3 -2 -11 5105.11 5121.34 116.46 o
3 -2 -10 11312.80 11390.00 177.79 o
3 -2 -9 221.15 223.60 27.88 o
3 -2 -8 16.11 22.21 18.74 <
3 -2 -7 1671.32 1722.63 45.43 o
3 -2 -6 14710.20 14425.10 189.36 o
3 -2 -5 5646.54 5547.64 88.90 o
3 -2 -4 8762.99 8667.33 105.74 o
3 -2 -3 67.74 101.19 12.72 o
3 -2 -2 70.29 57.29 10.28 o
3 -2 -1 3470.71 3522.58 69.18 o
3 -2 0 8214.96 8232.71 83.71 o
3 -2 1 10226.80 10278.60 109.99 o
3 -2 2 16039.90 16481.20 172.40 o
3 -2 3 2596.65 2525.72 49.38 o
3 -2 4 3778.50 3782.74 49.52 o
3 -2 5 1196.99 1205.34 31.41 o
3 -2 6 3642.19 3725.35 57.78 o
3 -2 7 4358.79 4300.79 68.14 o
3 -2 8 6158.19 6338.46 94.69 o
3 -2 9 7112.31 6774.71 114.81 o
3 -2 10 94.23 100.21 30.75 o
3 -2 11 25.98 45.65 35.54 <
3 -2 12 2819.29 2895.11 86.86 o
3 -2 13 4757.36 4739.67 139.64 o
3 -2 14 1888.20 1783.32 93.73 o
3 -1 -16 2018.21 2021.96 133.55 o
3 -1 -15 2211.56 2275.47 117.29 o
3 -1 -14 7190.46 7257.91 181.47 o
3 -1 -13 548.46 534.97 62.01 o
3 -1 -12 342.56 364.76 41.36 o
3 -1 -11 73.19 98.22 29.33 o
3 -1 -10 5018.59 4907.52 97.39 o
3 -1 -9 4901.17 4768.29 83.30 o
3 -1 -8 11101.10 10984.30 143.29 o
3 -1 -7 1012.54 1073.36 35.82 o
3 -1 -6 66.85 75.30 16.79 o
3 -1 -5 3253.34 3184.09 54.08 o
3 -1 -4 856.53 792.35 23.13 o
3 -1 -3 29655.40 29621.00 363.03 o
3 -1 -2 10874.90 10943.40 161.26 o
3 -1 -1 7038.13 7083.13 157.57 o
3 -1 0 582.06 543.80 25.74 o
3 -1 1 1982.97 2057.53 29.82 o
3 -1 2 215.51 250.19 17.57 o
3 -1 3 4570.88 4569.75 56.90 o
3 -1 4 12456.60 12543.40 130.24 o
3 -1 5 10622.50 10740.80 122.97 o
3 -1 6 4833.82 4839.31 73.68 o
3 -1 7 60.08 93.94 20.11 o
3 -1 8 129.10 147.48 24.58 o
3 -1 9 7006.72 6878.73 123.93 o
3 -1 10 6003.75 6035.55 114.05 o
3 -1 11 4677.71 4662.97 109.96 o
3 -1 12 2097.75 2119.08 77.53 o
3 -1 13 39.24 56.84 50.71 <
3 -1 14 14.73 5.18 36.11 <
3 0 -16 1648.03 1566.38 90.73 o
3 0 -15 1201.66 1208.41 76.33 o
3 0 -14 4602.60 4644.30 133.14 o
3 0 -13 6169.73 5997.91 144.04 o
3 0 -12 4611.98 4508.52 99.45 o
3 0 -11 3188.90 3236.48 75.96 o
3 0 -10 1236.80 1281.74 52.42 o
3 0 -9 676.57 640.77 32.75 o
3 0 -8 400.88 424.81 26.67 o
3 0 -7 3343.76 3253.20 63.85 o
3 0 -6 5901.98 5851.60 74.33 o
3 0 -5 4589.35 4629.34 74.96 o
3 0 -4 19561.30 19347.50 225.76 o
3 0 -3 4245.15 4407.57 48.14 o
3 0 -2 239.05 214.55 27.57 o
3 0 -1 781.43 749.98 37.80 o
3 0 0 9072.55 8973.52 111.21 o
3 0 1 41096.00 43016.60 483.01 o
3 0 2 11589.40 12009.70 124.64 o
3 0 3 1576.52 1581.28 30.80 o
3 0 4 4710.36 4679.23 64.14 o
3 0 5 10917.60 11081.30 124.22 o
3 0 6 1112.05 1081.85 33.03 o
3 0 7 2695.51 2727.71 61.54 o
3 0 8 2585.92 2645.73 65.13 o
3 0 9 502.34 592.25 47.12 o
3 0 10 355.95 375.51 37.92 o
3 0 11 67.84 121.21 40.84 <
3 0 12 1142.73 1205.77 74.93 o
3 0 13 3635.48 3874.69 130.12 o
3 0 14 5252.63 5441.84 160.72 o
3 1 -16 3242.41 3337.98 137.29 o
3 1 -15 6456.94 6414.01 169.31 o
3 1 -14 2016.72 2057.33 92.22 o
3 1 -13 397.22 425.38 45.09 o
3 1 -12 347.95 289.01 48.10 o
3 1 -11 11984.20 11774.30 184.33 o
3 1 -10 6338.50 6267.58 101.11 o
3 1 -9 7258.18 7303.59 118.40 o
3 1 -8 3824.00 3872.12 72.47 o
3 1 -7 478.79 498.50 32.20 o
3 1 -6 1035.07 963.27 39.16 o
3 1 -5 1419.15 1431.10 35.69 o
3 1 -4 8383.98 8283.41 79.69 o
3 1 -3 16880.10 16999.90 195.83 o
3 1 -2 5890.73 5768.26 78.26 o
3 1 -1 3487.46 3371.89 40.51 o
3 1 0 647.06 655.95 16.71 o
3 1 1 4328.39 4354.29 50.99 o
3 1 2 9317.02 9393.85 101.57 o
3 1 3 18511.40 18240.80 202.09 o
3 1 4 6804.49 6725.31 83.21 o
3 1 5 9811.88 9659.30 112.19 o
3 1 6 1969.02 2016.89 55.72 o
3 1 7 293.07 306.65 27.38 o
3 1 8 8634.72 8413.76 122.18 o
3 1 9 5960.42 5962.73 103.74 o
3 1 10 4424.42 4374.27 105.28 o
3 1 11 4406.10 4656.19 105.92 o
3 1 12 68.40 73.82 36.61 <
3 1 13 15.46 -15.96 40.38 <
3 2 -16 683.78 713.29 81.44 o
3 2 -15 1063.34 1174.12 71.95 o
3 2 -14 1481.58 1595.50 84.31 o
3 2 -13 2596.16 2753.76 91.02 o
3 2 -12 8048.56 8027.91 138.52 o
3 2 -11 8062.31 7888.98 138.47 o
3 2 -10 1867.75 1768.17 50.76 o
3 2 -9 60.92 103.45 22.28 o
3 2 -8 4112.68 4040.77 88.85 o
3 2 -7 27430.90 26743.60 478.65 o
3 2 -6 5447.45 5403.21 117.70 o
3 2 -5 7459.00 7626.48 106.09 o
3 2 -4 1471.62 1503.36 30.35 o
3 2 -3 3725.21 3944.79 51.37 o
3 2 -2 4874.29 5009.59 64.06 o
3 2 -1 7263.15 7056.25 64.08 o
3 2 0 13629.30 13726.00 117.75 o
3 2 1 4523.81 4372.20 42.08 o
3 2 2 5963.99 5861.93 65.90 o
3 2 3 4066.10 4171.65 50.69 o
3 2 4 1010.07 1062.80 28.31 o
3 2 5 1964.93 2064.65 49.86 o
3 2 6 8921.36 8876.25 117.31 o
3 2 7 11232.30 11331.00 161.92 o
3 2 8 346.72 290.19 33.53 o
3 2 9 299.37 296.04 40.80 o
3 2 10 404.72 381.83 49.99 o
3 2 11 4013.91 4050.89 125.60 o
3 2 12 4159.29 4190.78 144.24 o
3 2 13 2831.15 2816.26 125.11 o
3 3 -16 6055.83 6042.11 153.29 o
3 3 -15 3930.70 3803.95 111.79 o
3 3 -14 280.09 348.97 46.07 o
3 3 -13 134.17 155.37 35.29 o
3 3 -12 5457.37 5224.57 104.11 o
3 3 -11 5341.10 5255.51 118.66 o
3 3 -10 2969.96 2906.92 79.96 o
3 3 -9 5574.67 5534.46 105.87 o
3 3 -8 529.51 585.33 35.53 o
3 3 -7 3297.36 3213.50 58.27 o
3 3 -6 83.63 90.91 17.07 o
3 3 -5 4270.76 4153.49 64.24 o
3 3 -4 15889.20 16269.80 166.36 o
3 3 -3 20636.10 20547.20 246.61 o
3 3 -2 11412.90 11119.20 140.45 o
3 3 -1 10190.40 10484.00 106.31 o
3 3 0 5916.39 5859.51 54.36 o
3 3 1 4427.88 4492.48 47.87 o
3 3 2 8697.42 8609.42 86.49 o
3 3 3 14632.10 14796.40 144.76 o
3 3 4 199.62 200.50 20.11 o
3 3 5 574.19 553.17 30.25 o
3 3 6 40.99 34.21 16.15 <
3 3 7 1610.08 1764.25 49.50 o
3 3 8 502.92 526.78 45.99 o
3 3 9 4637.39 4694.93 110.12 o
3 3 10 3650.05 3652.21 92.67 o
3 3 11 2591.11 2615.88 86.77 o
3 3 12 637.78 631.60 70.28 o
3 3 13 100.55 138.57 48.26 <
3 4 -16 975.09 1108.41 89.93 o
3 4 -15 4175.62 4124.89 116.62 o
3 4 -14 3036.52 2969.60 100.30 o
3 4 -13 6967.48 6721.19 157.60 o
3 4 -12 658.56 623.61 52.87 o
3 4 -11 196.97 216.89 37.71 o
3 4 -10 112.66 142.68 32.32 o
3 4 -9 1497.95 1545.89 62.03 o
3 4 -8 6007.66 5964.64 95.78 o
3 4 -7 2487.53 2625.32 59.20 o
3 4 -6 4677.44 4694.20 86.79 o
3 4 -5 5864.20 5890.84 81.13 o
3 4 -4 39.04 56.83 12.11 o
3 4 -3 719.22 737.53 19.27 o
3 4 -2 5684.02 5582.95 53.60 o
3 4 -1 20154.60 20519.40 223.17 o
3 4 0 7179.75 7039.85 77.07 o
3 4 1 7197.45 7128.40 68.68 o
3 4 2 606.55 606.89 18.80 o
3 4 3 1860.84 1757.28 32.64 o
3 4 4 8845.96 8637.43 100.78 o
3 4 5 3242.26 3172.86 55.27 o
3 4 6 8015.41 7984.45 110.49 o
3 4 7 2523.78 2564.82 70.96 o
3 4 8 1010.67 1106.15 54.94 o
3 4 9 421.21 439.82 49.01 o
3 4 10 1863.63 1935.45 73.73 o
3 4 11 1948.88 1873.85 91.88 o
3 4 12 2926.99 2929.38 119.63 o
3 5 -16 2499.97 2448.73 101.64 o
3 5 -15 2345.00 2495.78 109.59 o
3 5 -14 586.89 668.23 76.29 o
3 5 -13 32.94 33.42 36.47 <
3 5 -12 4259.70 4247.59 132.04 o
3 5 -11 5790.78 5869.99 114.36 o
3 5 -10 10930.70 10685.30 154.63 o
3 5 -9 10662.30 10814.00 184.08 o
3 5 -8 687.25 793.01 35.99 o
3 5 -7 135.99 141.08 24.42 o
3 5 -6 4603.76 4507.77 73.15 o
3 5 -5 9196.17 9493.39 130.91 o
3 5 -4 7090.62 7007.89 75.58 o
3 5 -3 5454.18 5365.62 50.19 o
3 5 -2 1822.00 1845.74 51.44 o
3 5 -1 38.97 36.48 21.07 <
3 5 0 51.88 71.19 21.39 o
3 5 1 1620.06 1662.74 45.41 o
3 5 2 9766.96 9701.38 109.54 o
3 5 3 4992.86 4931.10 67.11 o
3 5 4 8066.47 7923.64 98.50 o
3 5 5 4259.35 4283.86 70.57 o
3 5 6 972.11 958.59 40.96 o
3 5 7 2533.74 2507.53 72.46 o
3 5 8 7465.50 7586.97 123.73 o
3 5 9 5509.68 5701.90 124.19 o
3 5 10 472.04 468.97 50.91 o
3 5 11 42.62 49.56 46.86 <
3 6 -16 4084.68 3929.32 156.29 o
3 6 -15 1606.27 1661.59 79.94 o
3 6 -14 4478.12 4318.49 129.74 o
3 6 -13 5801.20 5979.48 124.11 o
3 6 -12 1469.98 1478.59 65.31 o
3 6 -11 370.08 490.08 42.29 o
3 6 -10 1213.67 1374.72 60.32 o
3 6 -9 2250.48 2290.78 66.78 o
3 6 -8 3761.18 3791.02 79.71 o
3 6 -7 6487.88 6669.17 104.21 o
3 6 -6 8732.75 8631.56 122.78 o
3 6 -5 370.98 402.72 29.57 o
3 6 -4 1419.32 1391.57 37.05 o
3 6 -3 2278.22 2229.12 62.13 o
3 6 -2 9347.89 9540.99 158.54 o
3 6 -1 11409.10 11698.90 209.32 o
3 6 0 13359.20 13229.90 209.44 o
3 6 1 5100.50 5143.16 100.13 o
3 6 2 2309.79 2364.98 52.93 o
3 6 3 5177.93 4932.81 80.64 o
3 6 4 1639.82 1621.78 47.65 o
3 6 5 6524.98 6486.93 92.10 o
3 6 6 1910.87 1909.84 56.35 o
3 6 7 687.86 653.31 56.69 o
3 6 8 744.75 778.59 46.54 o
3 6 9 500.15 437.23 43.53 o
3 6 10 1718.74 1677.71 102.27 o
3 7 -15 1022.62 988.13 83.62 o
3 7 -14 121.38 125.51 44.07 <
3 7 -13 2054.65 2009.19 73.37 o
3 7 -12 3519.33 3637.24 133.25 o
3 7 -11 1990.18 1939.85 68.75 o
3 7 -10 2131.77 2274.83 68.95 o
3 7 -9 67.18 82.04 29.09 <
3 7 -8 1106.43 1106.09 44.73 o
3 7 -7 178.95 172.98 27.45 o
3 7 -6 7541.22 7514.88 114.05 o
3 7 -5 5338.34 5157.21 64.62 o
3 7 -4 11749.60 11578.50 218.80 o
3 7 -3 10879.20 11032.10 167.97 o
3 7 -2 23.46 3.02 28.63 <
3 7 -1 766.64 794.96 46.67 o
3 7 0 8596.24 8392.47 140.10 o
3 7 1 9219.33 8904.55 152.41 o
3 7 2 3286.99 3271.79 89.82 o
3 7 3 1163.13 1171.84 46.42 o
3 7 4 2235.78 2185.18 72.40 o
3 7 5 348.27 279.28 37.60 o
3 7 6 1758.42 1714.30 62.11 o
3 7 7 2303.91 2293.18 90.67 o
3 7 8 3727.07 3716.10 114.14 o
3 7 9 1807.75 1905.44 99.52 o
3 7 10 1482.43 1396.46 83.78 o
3 8 -15 2842.06 2995.94 131.87 o
3 8 -14 4983.34 4873.19 139.07 o
3 8 -13 2735.64 2839.84 98.50 o
3 8 -12 901.12 932.97 71.48 o
3 8 -11 23.55 7.64 39.36 <
3 8 -10 4451.27 4584.17 103.61 o
3 8 -9 9396.51 9382.15 159.84 o
3 8 -8 12189.30 12152.40 193.35 o
3 8 -7 7991.13 7699.50 124.98 o
3 8 -6 74.57 73.47 23.93 o
3 8 -5 1712.70 1787.62 74.00 o
3 8 -4 238.16 194.64 29.78 o
3 8 -3 5639.54 5504.49 116.40 o
3 8 -2 3336.03 3356.17 91.80 o
3 8 -1 2214.45 2267.16 66.35 o
3 8 0 5908.50 5823.89 128.72 o
3 8 1 253.21 204.43 41.49 o
3 8 2 360.50 340.39 40.24 o
3 8 3 1453.08 1526.90 67.36 o
3 8 4 6560.87 6489.95 112.56 o
3 8 5 5300.23 5115.20 106.34 o
3 8 6 3497.84 3636.00 115.94 o
3 8 7 170.49 187.46 50.96 o
3 8 8 122.62 97.19 87.42 <
3 9 -14 884.33 954.48 74.86 o
3 9 -13 2100.61 2151.09 89.85 o
3 9 -12 3842.22 4029.77 128.27 o
3 9 -11 4254.02 4453.21 112.07 o
3 9 -10 1104.75 1100.53 77.69 o
3 9 -9 22.09 54.85 28.42 <
3 9 -8 223.81 221.84 34.60 o
3 9 -7 3355.42 3299.58 77.81 o
3 9 -6 3509.83 3414.18 112.47 o
3 9 -5 5779.89 5802.56 147.19 o
3 9 -4 7649.80 7812.68 144.04 o
3 9 -3 48.46 79.92 29.56 <
3 9 -2 18.80 15.06 25.13 <
3 9 -1 3154.42 3156.93 87.34 o
3 9 0 5758.40 5643.29 124.29 o
3 9 1 5035.67 5024.50 119.46 o
3 9 2 3041.28 3115.78 112.79 o
3 9 3 651.72 557.15 79.75 o
3 9 4 16.23 -5.76 30.41 <
3 9 5 593.70 782.91 66.09 o
3 9 6 647.43 684.87 68.27 o
3 9 7 4036.47 4010.09 174.27 o
3 10 -13 46.83 47.41 44.48 <
3 10 -12 120.90 103.42 47.31 <
3 10 -11 914.97 834.51 63.84 o
3 10 -10 585.81 515.82 74.83 o
3 10 -9 1897.79 1875.61 68.90 o
3 10 -8 3462.33 3458.98 130.02 o
3 10 -7 2446.26 2515.84 103.46 o
3 10 -6 1595.01 1759.58 132.99 o
3 10 -5 48.49 84.36 61.74 <
3 10 -4 3211.00 3232.43 117.80 o
3 10 -3 8054.71 7920.15 272.18 o
3 10 -2 9017.01 8718.52 217.00 o
3 10 -1 5810.37 5729.97 164.79 o
3 10 0 879.35 778.62 68.52 o
3 10 1 1410.98 1458.78 73.63 o
3 10 2 861.23 835.59 64.01 o
3 10 3 3852.11 3916.53 121.17 o
3 10 4 2011.93 2086.18 111.49 o
3 10 5 809.34 651.94 84.34 o
3 10 6 892.10 788.81 92.52 o
3 11 -12 5982.24 5771.81 208.97 o
3 11 -11 2019.78 2027.54 119.89 o
3 11 -10 636.20 651.04 107.00 o
3 11 -9 165.42 270.42 61.48 o
3 11 -8 1797.91 1698.82 101.53 o
3 11 -7 5904.84 6174.55 214.01 o
3 11 -6 3827.40 3881.84 142.05 o
3 11 -5 3918.43 3878.85 185.54 o
3 11 -4 1184.84 1340.30 85.28 o
3 11 -3 8.43 24.73 32.83 <
3 11 -2 463.08 416.43 44.85 o
3 11 -1 2745.76 2619.27 97.14 o
3 11 0 2828.49 2695.88 117.06 o
3 11 1 2811.26 3041.14 140.10 o
3 11 2 3963.66 4105.42 129.81 o
3 11 3 912.48 834.67 87.35 o
3 11 4 14.61 -33.36 42.52 <
3 12 -10 2159.52 2099.64 127.80 o
3 12 -9 5520.35 5623.48 194.72 o
3 12 -8 2512.50 2434.15 154.90 o
3 12 -7 56.20 41.36 48.83 <
3 12 -6 157.85 90.03 74.51 <
3 12 -5 2443.00 2257.27 172.25 o
3 12 -4 1881.33 1984.71 111.01 o
3 12 -3 2851.36 2960.84 131.39 o
3 12 -2 2328.01 2649.91 174.08 o
3 12 -1 1538.75 1442.77 100.56 o
3 12 0 10.42 56.20 42.22 <
3 12 1 765.36 661.47 69.99 o
3 12 2 1469.62 1617.89 112.22 o
3 13 -7 3261.84 2721.70 304.45 o
3 13 -6 5138.61 5249.18 272.80 o
3 13 -5 5030.15 5411.22 273.60 o
3 13 -4 1153.10 1163.89 103.25 o
3 13 -3 306.99 130.41 62.20 <
3 13 -2 3330.00 3276.59 218.35 o
4 -12 -1 3733.58 4276.96 182.66 o
4 -12 0 2015.16 2325.32 132.21 o
4 -12 1 262.73 220.24 83.11 <
4 -12 2 1535.68 1665.61 142.43 o
4 -12 3 3092.87 3106.93 147.07 o
4 -12 4 3585.99 3840.44 139.59 o
4 -12 5 3949.81 3890.00 143.86 o
4 -11 -4 1452.90 1635.40 87.42 o
4 -11 -3 221.73 243.14 52.91 o
4 -11 -2 1941.41 1973.16 113.90 o
4 -11 -1 1691.84 1730.08 96.96 o
4 -11 0 1576.98 2751.76 129.76 o
4 -11 1 3099.61 3236.91 118.44 o
4 -11 2 1312.32 1353.95 158.48 o
4 -11 3 1090.52 1001.59 143.46 o
4 -11 4 308.78 519.78 123.35 o
4 -11 5 155.58 163.52 64.67 <
4 -11 6 990.53 950.08 98.07 o
4 -11 7 2178.03 2201.91 109.81 o
4 -10 -6 16.58 -15.42 36.39 <
4 -10 -5 153.77 173.96 47.43 o
4 -10 -4 1600.85 1701.71 83.13 o
4 -10 -3 3976.43 4341.42 159.52 o
4 -10 -2 2706.61 2832.70 95.75 o
4 -10 -1 2223.21 2189.29 90.94 o
4 -10 0 1044.31 1120.53 84.08 o
4 -10 1 205.41 239.46 41.90 o
4 -10 2 2242.81 2263.26 109.13 o
4 -10 3 2730.30 2740.97 100.89 o
4 -10 4 3372.27 3420.11 138.90 o
4 -10 5 2541.00 2463.23 125.72 o
4 -10 6 630.25 615.03 64.68 o
4 -10 7 19.39 74.92 44.68 <
4 -10 8 1631.65 1555.80 103.60 o
4 -10 9 1958.40 2252.38 138.07 o
4 -9 -8 464.53 403.85 69.69 o
4 -9 -7 2862.00 2828.84 105.72 o
4 -9 -6 3064.99 3038.60 104.88 o
4 -9 -5 1924.63 1869.71 81.80 o
4 -9 -4 1300.85 1349.98 69.35 o
4 -9 -3 382.60 404.83 47.41 o
4 -9 -2 259.70 314.20 43.05 o
4 -9 -1 1495.97 1533.11 68.05 o
4 -9 0 11802.70 12359.70 232.23 o
4 -9 1 8836.65 8738.68 213.45 o
4 -9 2 2832.85 3041.49 98.59 o
4 -9 3 419.95 407.03 70.87 o
4 -9 4 920.83 966.28 81.72 o
4 -9 5 3283.52 3294.93 107.71 o
4 -9 6 5226.25 5383.24 139.13 o
4 -9 7 2631.87 2685.72 113.85 o
4 -9 8 1464.12 1392.14 86.19 o
4 -9 9 31.78 41.09 34.42 <
4 -9 10 316.55 192.07 39.55 o
4 -8 -9 3585.06 3736.90 145.54 o
4 -8 -8 4387.61 4441.97 131.76 o
4 -8 -7 649.06 597.10 58.15 o
4 -8 -6 36.54 27.23 32.48 <
4 -8 -5 1785.20 1816.56 82.30 o
4 -8 -4 6422.98 6559.77 148.55 o
4 -8 -3 4939.36 5183.51 128.39 o
4 -8 -2 4515.07 4588.57 128.04 o
4 -8 -1 69.67 120.21 34.61 o
4 -8 0 389.15 440.03 39.01 o
4 -8 1 2025.51 2024.48 99.38 o
4 -8 2 1959.17 1747.30 72.41 o
4 -8 3 1310.12 1397.20 68.27 o
4 -8 4 6041.74 5858.86 118.49 o
4 -8 5 853.46 843.68 61.66 o
4 -8 6 1411.51 1477.27 61.34 o
4 -8 7 34.22 65.84 31.99 <
4 -8 8 2638.68 2521.50 70.33 o
4 -8 9 3251.00 3215.84 91.22 o
4 -8 10 6668.74 6635.41 152.03 o
4 -8 11 1616.22 1641.33 96.26 o
4 -7 -11 827.30 860.91 100.56 o
4 -7 -10 197.42 165.95 48.08 o
4 -7 -9 31.09 44.80 31.32 <
4 -7 -8 3272.65 3273.09 82.04 o
4 -7 -7 4398.07 4175.43 102.42 o
4 -7 -6 5697.57 5657.78 98.87 o
4 -7 -5 1560.58 1500.98 47.25 o
4 -7 -4 259.05 313.39 41.63 o
4 -7 -3 1702.29 1622.67 58.94 o
4 -7 -2 2977.43 3039.60 75.38 o
4 -7 -1 5438.36 5508.61 109.75 o
4 -7 0 9828.19 9745.83 157.52 o
4 -7 1 2071.37 2292.67 78.95 o
4 -7 2 2864.37 2811.58 82.53 o
4 -7 3 67.84 2.50 29.62 <
4 -7 4 3093.44 3029.97 83.36 o
4 -7 5 1842.98 1824.16 73.66 o
4 -7 6 5402.63 5331.89 107.40 o
4 -7 7 2149.81 2131.14 72.79 o
4 -7 8 1089.29 1196.24 53.39 o
4 -7 9 6.58 25.55 26.97 <
4 -7 10 29.93 57.46 31.97 <
4 -7 11 1805.46 1986.67 93.02 o
4 -6 -11 3784.42 3911.19 112.70 o
4 -6 -10 2458.50 2544.76 79.39 o
4 -6 -9 477.56 532.40 62.98 o
4 -6 -8 128.74 206.36 31.19 o
4 -6 -7 339.76 296.04 40.16 o
4 -6 -6 452.69 427.34 35.17 o
4 -6 -5 854.94 870.42 36.36 o
4 -6 -4 7262.36 7295.63 100.20 o
4 -6 -3 4797.30 4560.14 70.59 o
4 -6 -2 11053.00 11039.00 112.48 o
4 -6 -1 2084.57 2028.84 33.72 o
4 -6 0 651.28 683.29 33.07 o
4 -6 1 7367.97 7151.08 89.16 o
4 -6 2 10173.40 10542.10 147.63 o
4 -6 3 6681.26 6835.34 108.02 o
4 -6 4 2245.35 2195.28 54.53 o
4 -6 5 150.09 173.21 34.67 o
4 -6 6 8.04 10.73 22.73 <
4 -6 7 3832.54 3680.10 83.63 o
4 -6 8 1701.79 1779.85 74.64 o
4 -6 9 1641.79 1753.64 62.47 o
4 -6 10 2813.97 2746.19 97.64 o
4 -6 11 499.96 461.55 50.74 o
4 -6 12 814.68 787.37 64.98 o
4 -5 -12 4154.27 4254.66 157.13 o
4 -5 -11 100.22 130.93 40.07 o
4 -5 -10 122.03 122.00 34.22 o
4 -5 -9 2250.70 2308.09 74.35 o
4 -5 -8 6906.95 6811.69 158.86 o
4 -5 -7 3761.96 3752.75 72.46 o
4 -5 -6 8048.48 8049.34 118.62 o
4 -5 -5 629.96 661.92 30.24 o
4 -5 -4 116.27 185.47 22.05 o
4 -5 -3 2882.11 2882.38 50.24 o
4 -5 -2 2184.21 2174.17 37.83 o
4 -5 -1 3503.17 3567.66 45.14 o
4 -5 0 4582.32 4611.99 65.32 o
4 -5 1 366.08 521.25 42.87 o
4 -5 2 3049.43 3071.88 60.87 o
4 -5 3 1144.46 1166.02 39.07 o
4 -5 4 1213.42 1313.95 41.62 o
4 -5 5 4672.65 4575.31 81.92 o
4 -5 6 9106.01 9280.35 139.95 o
4 -5 7 2403.60 2472.67 60.50 o
4 -5 8 512.57 631.78 49.40 o
4 -5 9 5.36 12.10 23.27 <
4 -5 10 3535.57 3601.42 96.82 o
4 -5 11 4534.84 4436.67 112.20 o
4 -5 12 3358.76 3538.14 120.96 o
4 -4 -13 240.74 120.85 54.31 <
4 -4 -12 2377.55 2440.07 96.96 o
4 -4 -11 2517.94 2547.33 85.94 o
4 -4 -10 5363.34 5449.48 114.86 o
4 -4 -9 4060.32 4089.93 88.38 o
4 -4 -8 1629.37 1531.24 58.49 o
4 -4 -7 1808.85 1773.15 57.19 o
4 -4 -6 3883.18 3890.64 79.25 o
4 -4 -5 13573.60 13516.50 160.54 o
4 -4 -4 4991.76 4828.87 70.43 o
4 -4 -3 3228.74 3292.75 51.30 o
4 -4 -2 1969.52 1962.86 31.48 o
4 -4 -1 2318.88 2249.56 41.81 o
4 -4 0 4369.00 4425.44 59.67 o
4 -4 1 5387.51 5385.14 77.42 o
4 -4 2 6200.91 6066.47 86.63 o
4 -4 3 3828.83 3788.97 68.41 o
4 -4 4 6939.74 7001.60 109.26 o
4 -4 5 1991.79 1992.80 51.36 o
4 -4 6 607.41 573.03 30.73 o
4 -4 7 4492.69 4523.31 72.71 o
4 -4 8 3327.17 3481.13 78.52 o
4 -4 9 7132.07 7196.90 126.05 o
4 -4 10 1960.59 2040.41 72.08 o
4 -4 11 224.35 219.15 51.86 o
4 -4 12 324.70 294.82 66.59 o
4 -3 -14 4913.14 5017.28 169.00 o
4 -3 -13 2099.82 2297.67 126.25 o
4 -3 -12 59.61 85.23 40.39 <
4 -3 -11 507.52 570.88 49.14 o
4 -3 -10 85.13 135.87 33.71 o
4 -3 -9 2631.77 2645.23 91.01 o
4 -3 -8 4363.74 4150.68 87.61 o
4 -3 -7 1831.13 1915.22 60.91 o
4 -3 -6 5292.20 5285.87 98.43 o
4 -3 -5 17.40 40.39 20.99 <
4 -3 -4 85.50 125.85 20.13 o
4 -3 -3 2266.03 2245.08 59.38 o
4 -3 -2 20969.80 20097.30 339.84 o
4 -3 -1 16460.50 16822.70 233.07 o
4 -3 0 5366.62 5456.42 95.51 o
4 -3 1 3657.20 4053.71 78.29 o
4 -3 2 1940.67 1963.02 33.90 o
4 -3 3 6301.31 6270.47 72.90 o
4 -3 4 4386.40 4581.32 61.41 o
4 -3 5 6086.85 6349.58 83.40 o
4 -3 6 180.85 226.63 27.61 o
4 -3 7 86.28 69.64 24.67 <
4 -3 8 81.77 102.09 31.88 o
4 -3 9 212.28 232.72 37.18 o
4 -3 10 2370.25 2413.49 92.21 o
4 -3 11 3280.23 3417.38 105.16 o
4 -3 12 3649.28 3666.27 129.70 o
4 -2 -14 45.70 64.94 54.69 <
4 -2 -13 3502.56 3652.46 120.88 o
4 -2 -12 2697.46 2721.60 88.36 o
4 -2 -11 5294.74 5431.72 122.54 o
4 -2 -10 4719.41 4859.45 116.83 o
4 -2 -9 65.85 74.21 27.34 <
4 -2 -8 54.86 92.98 30.11 o
4 -2 -7 893.88 946.97 40.58 o
4 -2 -6 5553.66 5814.24 94.99 o
4 -2 -5 8005.38 7996.55 130.71 o
4 -2 -4 11407.70 11234.80 162.79 o
4 -2 -3 8547.56 8559.59 177.54 o
4 -2 -2 741.98 775.95 39.60 o
4 -2 -1 2235.01 2291.14 63.80 o
4 -2 0 2034.74 2077.15 57.37 o
4 -2 1 7134.51 7593.39 129.78 o
4 -2 2 3268.53 3283.39 53.48 o
4 -2 3 5534.62 5481.32 77.21 o
4 -2 4 72.20 55.11 18.78 <
4 -2 5 178.60 142.70 32.00 o
4 -2 6 4561.50 4643.82 92.46 o
4 -2 7 2910.82 3032.77 78.63 o
4 -2 8 8529.67 8606.45 142.79 o
4 -2 9 6529.60 6545.33 129.22 o
4 -2 10 42.07 53.16 31.72 <
4 -2 11 17.89 30.63 30.74 <
4 -2 12 1301.03 1217.46 82.74 o
4 -1 -14 3132.71 3187.84 109.31 o
4 -1 -13 1009.60 1042.48 74.65 o
4 -1 -12 244.40 252.20 51.33 o
4 -1 -11 93.84 80.52 36.86 <
4 -1 -10 3996.39 4125.98 88.97 o
4 -1 -9 12463.50 12403.20 210.87 o
4 -1 -8 4925.16 5043.20 98.12 o
4 -1 -7 14406.00 14439.00 213.38 o
4 -1 -6 1056.18 1101.95 51.10 o
4 -1 -5 3078.71 3041.85 57.68 o
4 -1 -4 4380.75 4383.16 66.77 o
4 -1 -3 8824.89 8939.78 175.98 o
4 -1 -2 4461.66 4321.73 89.82 o
4 -1 -1 2444.42 2362.30 63.60 o
4 -1 0 3881.55 3652.11 69.38 o
4 -1 1 290.62 325.49 27.21 o
4 -1 2 2004.47 2090.09 66.91 o
4 -1 3 1131.23 1176.42 27.39 o
4 -1 4 10472.00 10381.90 136.35 o
4 -1 5 8596.89 8629.63 131.37 o
4 -1 6 2855.81 2850.30 65.93 o
4 -1 7 2123.85 2125.60 57.56 o
4 -1 8 1671.01 1686.62 63.34 o
4 -1 9 1868.16 1965.63 66.04 o
4 -1 10 3978.26 4071.86 99.81 o
4 -1 11 4074.83 4098.81 135.25 o
4 -1 12 3160.23 3362.49 117.00 o
4 0 -15 10.29 27.13 43.77 <
4 0 -14 4328.02 4299.34 134.70 o
4 0 -13 3454.32 3523.05 117.90 o
4 0 -12 4698.90 4786.37 125.33 o
4 0 -11 4170.67 4192.71 94.32 o
4 0 -10 150.41 126.45 36.27 o
4 0 -9 205.14 248.68 33.31 o
4 0 -8 213.57 233.00 30.67 o
4 0 -7 624.61 664.50 37.65 o
4 0 -6 4790.30 4727.51 79.50 o
4 0 -5 7064.63 7105.11 81.14 o
4 0 -4 8288.21 8138.53 91.28 o
4 0 -3 7805.02 8029.62 145.80 o
4 0 -2 1709.63 1773.61 73.32 o
4 0 -1 1200.49 1138.63 58.47 o
4 0 0 20769.30 20300.80 282.86 o
4 0 1 7510.16 7797.10 117.42 o
4 0 2 1334.23 1379.33 33.51 o
4 0 3 2411.41 2505.42 48.31 o
4 0 4 1342.45 1378.27 39.22 o
4 0 5 879.49 965.60 37.02 o
4 0 6 2114.33 2225.51 63.58 o
4 0 7 2154.43 2250.73 61.25 o
4 0 8 2694.77 2821.39 74.98 o
4 0 9 1368.22 1522.70 63.89 o
4 0 10 137.92 162.85 45.72 o
4 0 11 23.64 -10.46 36.57 <
4 0 12 4294.43 4299.10 123.28 o
4 1 -15 6358.69 6424.65 221.87 o
4 1 -14 1188.83 1354.19 73.52 o
4 1 -13 450.77 529.23 61.61 o
4 1 -12 5.60 13.75 30.97 <
4 1 -11 1006.51 1063.09 55.39 o
4 1 -10 4727.54 4729.88 118.93 o
4 1 -9 2543.39 2496.78 80.36 o
4 1 -8 7771.26 8004.19 160.36 o
4 1 -7 1599.03 1597.07 66.01 o
4 1 -6 587.58 583.34 28.34 o
4 1 -5 45.45 86.87 13.62 o
4 1 -4 15192.00 15098.40 150.59 o
4 1 -3 9955.60 9757.81 170.22 o
4 1 -2 7536.31 7171.78 169.66 o
4 1 -1 10206.00 10083.90 256.88 o
4 1 0 36.84 55.93 23.35 <
4 1 1 267.33 268.81 25.03 o
4 1 2 4533.09 4535.99 67.55 o
4 1 3 4756.25 4707.66 69.83 o
4 1 4 15301.20 15212.00 195.08 o
4 1 5 1245.80 1269.13 46.41 o
4 1 6 532.50 540.25 40.06 o
4 1 7 126.38 108.54 33.66 o
4 1 8 2724.80 2746.47 89.77 o
4 1 9 3237.82 3239.70 86.77 o
4 1 10 5321.39 5367.34 122.50 o
4 1 11 4895.48 4941.02 132.99 o
4 1 12 453.25 394.80 57.71 o
4 2 -15 46.79 56.67 51.09 <
4 2 -14 1367.19 1568.09 88.70 o
4 2 -13 1424.08 1565.05 69.97 o
4 2 -12 5590.26 5671.41 124.75 o
4 2 -11 4887.76 5056.11 130.58 o
4 2 -10 501.27 506.86 40.92 o
4 2 -9 546.72 492.28 37.39 o
4 2 -8 19417.60 19286.30 283.65 o
4 2 -7 8740.66 8853.39 122.42 o
4 2 -6 11373.80 11290.20 125.93 o
4 2 -5 6243.06 6246.94 88.12 o
4 2 -4 935.47 1024.89 32.29 o
4 2 -3 495.26 514.53 24.59 o
4 2 -2 2832.69 2806.94 52.54 o
4 2 -1 2438.66 2346.63 46.46 o
4 2 0 5114.97 5157.38 93.98 o
4 2 1 687.72 742.59 26.05 o
4 2 2 5734.37 5853.64 83.54 o
4 2 3 1869.07 1963.28 47.33 o
4 2 4 576.83 586.50 30.75 o
4 2 5 1457.32 1480.92 45.82 o
4 2 6 9184.71 9174.17 140.76 o
4 2 7 8750.71 8956.37 170.59 o
4 2 8 3787.28 3804.31 99.86 o
4 2 9 168.38 129.01 45.92 <
4 2 10 665.74 631.47 56.54 o
4 2 11 3267.80 3381.06 130.34 o
4 3 -15 1559.75 1571.48 118.33 o
4 3 -14 111.31 152.17 43.04 o
4 3 -13 528.59 500.11 60.88 o
4 3 -12 2233.31 2229.30 79.57 o
4 3 -11 1608.86 1728.79 66.94 o
4 3 -10 6847.40 6641.69 125.41 o
4 3 -9 6477.09 6537.11 97.61 o
4 3 -8 3537.02 3623.11 75.45 o
4 3 -7 1624.01 1635.55 57.76 o
4 3 -6 131.21 143.73 19.73 o
4 3 -5 901.82 889.00 33.40 o
4 3 -4 17061.30 17463.00 232.79 o
4 3 -3 7783.21 8096.07 112.67 o
4 3 -2 5236.60 5311.80 75.56 o
4 3 -1 2144.73 2104.68 35.42 o
4 3 0 229.15 229.58 25.01 o
4 3 1 3648.06 3592.44 47.53 o
4 3 2 6498.04 6607.40 74.86 o
4 3 3 9901.28 10046.00 111.66 o
4 3 4 242.50 336.15 29.28 o
4 3 5 257.99 277.94 32.04 o
4 3 6 599.84 646.32 52.80 o
4 3 7 571.74 592.04 47.34 o
4 3 8 549.03 514.41 46.88 o
4 3 9 3129.09 3344.56 105.63 o
4 3 10 6101.59 6096.32 148.73 o
4 3 11 1194.49 1165.81 87.30 o
4 4 -15 2541.01 2647.56 124.93 o
4 4 -14 3519.89 3671.61 108.03 o
4 4 -13 3519.59 3528.66 116.60 o
4 4 -12 2827.54 2839.17 73.76 o
4 4 -11 153.54 178.12 37.12 o
4 4 -10 0.28 0.25 22.42 <
4 4 -9 1364.54 1291.76 56.08 o
4 4 -8 1469.73 1533.17 54.66 o
4 4 -7 1842.73 1901.07 51.41 o
4 4 -6 12306.10 12406.60 152.79 o
4 4 -5 4823.23 4920.29 74.06 o
4 4 -4 283.77 269.83 22.33 o
4 4 -3 971.40 996.71 27.25 o
4 4 -2 9613.64 9380.23 124.22 o
4 4 -1 9208.40 9248.32 103.52 o
4 4 0 8986.03 9116.14 106.84 o
4 4 1 3426.56 3450.04 57.15 o
4 4 2 695.72 705.17 28.52 o
4 4 3 1434.95 1449.98 40.45 o
4 4 4 378.06 427.10 29.54 o
4 4 5 4440.65 4433.10 84.29 o
4 4 6 5523.31 5503.44 105.29 o
4 4 7 3350.84 3314.26 91.26 o
4 4 8 865.31 789.69 55.01 o
4 4 9 167.10 177.95 42.30 o
4 4 10 377.34 264.92 66.40 o
4 5 -15 1439.92 1346.35 96.43 o
4 5 -14 1513.92 1618.83 78.23 o
4 5 -13 91.32 135.43 40.80 o
4 5 -12 2372.22 2528.88 85.71 o
4 5 -11 3598.66 3721.39 108.51 o
4 5 -10 10807.50 10656.60 209.08 o
4 5 -9 6438.96 6442.10 139.47 o
4 5 -8 982.56 1066.08 46.55 o
4 5 -7 2224.75 2275.67 48.64 o
4 5 -6 4761.61 4714.82 74.25 o
4 5 -5 8851.16 8953.23 111.37 o
4 5 -4 890.94 894.11 29.98 o
4 5 -3 2647.72 2581.52 43.70 o
4 5 -2 4549.55 4552.62 47.50 o
4 5 -1 314.51 302.07 20.08 o
4 5 0 626.70 596.58 27.81 o
4 5 1 859.26 854.38 32.05 o
4 5 2 3829.30 3881.22 60.47 o
4 5 3 6336.43 6338.98 92.85 o
4 5 4 3288.99 3308.71 70.39 o
4 5 5 2145.36 2184.71 67.77 o
4 5 6 959.80 944.05 42.44 o
4 5 7 4346.23 4315.10 115.03 o
4 5 8 2503.19 2521.10 84.53 o
4 5 9 7197.10 7003.53 167.10 o
4 6 -14 4064.92 4175.80 172.29 o
4 6 -13 3377.41 3353.02 118.10 o
4 6 -12 1718.06 1685.87 74.79 o
4 6 -11 280.99 362.46 49.12 o
4 6 -10 460.00 450.21 48.64 o
4 6 -9 4978.24 4945.41 111.61 o
4 6 -8 2247.93 2390.12 68.10 o
4 6 -7 9595.73 9714.66 146.23 o
4 6 -6 5775.08 5640.00 103.61 o
4 6 -5 2178.97 2127.30 38.28 o
4 6 -4 203.85 208.54 19.51 o
4 6 -3 4951.10 5033.51 140.24 o
4 6 -2 4227.20 4443.84 115.12 o
4 6 -1 8117.20 8316.56 138.05 o
4 6 0 791.41 864.88 50.01 o
4 6 1 3100.79 3149.38 86.15 o
4 6 2 38.13 81.16 29.61 <
4 6 3 1982.61 1903.96 44.73 o
4 6 4 1430.82 1385.30 44.58 o
4 6 5 6340.35 6133.48 112.36 o
4 6 6 2792.03 2857.25 87.78 o
4 6 7 3033.10 2947.30 93.45 o
4 6 8 1635.04 1638.46 87.21 o
4 7 -14 112.61 62.37 43.44 <
4 7 -13 2110.20 2148.79 134.62 o
4 7 -12 441.21 496.20 59.87 o
4 7 -11 3377.06 3367.50 107.82 o
4 7 -10 3013.69 2987.89 86.51 o
4 7 -9 2213.91 2225.86 75.31 o
4 7 -8 239.41 185.17 33.81 o
4 7 -7 26.77 26.20 20.35 <
4 7 -6 2785.16 2675.14 42.66 o
4 7 -5 10138.00 10122.40 321.68 o
4 7 -4 5548.97 5323.64 162.94 o
4 7 -3 7020.39 7048.36 129.08 o
4 7 -2 51.45 101.41 35.68 <
4 7 -1 763.70 730.56 44.76 o
4 7 0 1709.04 1842.92 73.00 o
4 7 1 10486.30 10617.60 202.92 o
4 7 2 3251.58 3427.80 103.92 o
4 7 3 2812.83 2927.17 101.69 o
4 7 4 180.56 208.08 44.02 o
4 7 5 13.05 -44.76 36.64 <
4 7 6 250.07 217.34 72.89 <
4 7 7 1631.65 1621.05 103.60 o
4 8 -13 4580.58 4588.48 149.80 o
4 8 -12 1435.50 1392.07 97.61 o
4 8 -11 2.07 -6.14 34.23 <
4 8 -10 2120.53 2001.35 81.22 o
4 8 -9 8678.91 8614.31 162.63 o
4 8 -8 3417.52 3257.79 68.15 o
4 8 -7 8367.66 7889.76 200.97 o
4 8 -6 415.68 533.65 63.67 o
4 8 -5 29.57 95.93 46.10 <
4 8 -4 576.51 638.05 67.85 o
4 8 -3 3704.73 3661.63 92.25 o
4 8 -2 694.04 852.52 58.56 o
4 8 -1 4130.41 4012.00 100.45 o
4 8 0 2633.97 2726.56 86.65 o
4 8 1 721.74 769.06 74.47 o
4 8 2 8.93 27.72 31.49 <
4 8 3 602.72 761.71 60.83 o
4 8 4 3539.86 3613.84 117.55 o
4 8 5 6192.61 6179.00 181.01 o
4 8 6 2416.19 2352.07 105.74 o
4 9 -12 2637.05 2482.16 139.92 o
4 9 -11 6684.14 7007.48 274.38 o
4 9 -10 799.19 779.68 82.92 o
4 9 -9 285.56 266.41 60.15 o
4 9 -8 95.18 63.78 50.32 <
4 9 -7 2549.18 2458.82 136.41 o
4 9 -6 4596.80 4611.08 247.19 o
4 9 -4 1838.74 2020.97 162.63 o
4 9 -3 1176.63 1235.11 64.45 o
4 9 -2 97.02 54.22 35.80 <
4 9 -1 119.70 142.85 39.31 o
4 9 0 4028.63 3931.87 111.70 o
4 9 1 5173.70 5056.90 133.49 o
4 9 2 1809.47 1654.82 85.27 o
4 9 3 1497.06 1398.93 131.03 o
4 9 4 193.06 139.79 57.21 <
4 9 5 406.48 406.72 63.97 o
4 10 -11 264.09 241.66 99.61 <
4 10 -10 642.17 615.68 83.61 o
4 10 -9 1418.65 1392.86 122.52 o
4 10 -8 4788.80 5025.94 172.29 o
4 10 -7 4756.29 4518.60 209.90 o
4 10 -6 683.80 566.44 77.89 o
4 10 -5 293.20 286.86 61.07 o
4 10 -4 2349.95 2344.47 116.63 o
4 10 -3 5926.92 6067.86 148.56 o
4 10 -2 4267.12 4385.95 125.61 o
4 10 -1 3622.66 3994.22 145.10 o
4 10 0 59.45 10.22 34.21 <
4 10 1 389.57 243.78 50.54 o
4 10 2 595.08 389.87 58.01 o
4 10 3 1657.00 1734.95 109.26 o
4 11 -9 50.22 12.82 47.65 <
4 11 -8 1729.19 1815.29 120.56 o
4 11 -7 3966.10 4146.84 163.77 o
4 11 -6 1617.53 1632.72 173.31 o
4 11 -5 1542.08 1743.92 171.30 o
4 11 -3 129.56 -2.33 37.55 <
4 11 -2 48.97 43.46 38.80 <
4 11 -1 411.21 209.49 50.88 o
4 11 0 3357.70 3495.25 143.54 o
4 11 1 3009.52 3068.57 123.26 o
5 -10 -2 1673.73 921.59 65.39 o
5 -10 -1 791.58 252.20 74.09 o
5 -10 0 934.72 988.86 94.43 o
5 -10 1 94.07 45.14 53.56 <
5 -10 2 518.90 222.62 68.90 o
5 -10 3 2072.18 1957.04 133.54 o
5 -10 4 3721.85 3646.07 139.51 o
5 -9 -5 2356.06 2199.69 107.19 o
5 -9 -4 3011.86 2954.92 112.79 o
5 -9 -3 344.53 203.47 49.29 o
5 -9 -2 76.45 15.59 29.26 <
5 -9 -1 2173.42 1692.62 110.63 o
5 -9 0 5124.75 4757.06 165.44 o
5 -9 1 7020.13 5358.28 205.64 o
5 -9 2 1910.64 1753.96 110.46 o
5 -9 3 249.19 209.54 58.96 o
5 -9 4 44.13 133.21 62.36 <
5 -9 5 1544.35 1530.00 91.92 o
5 -9 6 843.10 879.51 100.58 o
5 -8 -7 626.68 468.94 75.95 o
5 -8 -6 7.00 -0.68 33.32 <
5 -8 -5 1789.52 1736.46 112.07 o
5 -8 -4 4574.58 3729.82 123.26 o
5 -8 -3 5988.71 5268.79 126.32 o
5 -8 -2 1081.46 947.46 60.71 o
5 -8 -1 836.10 653.97 78.52 o
5 -8 0 70.69 40.66 35.23 <
5 -8 1 890.31 765.33 67.05 o
5 -8 2 548.64 363.70 83.59 o
5 -8 3 2711.72 2785.96 118.44 o
5 -8 4 2275.22 2376.24 99.78 o
5 -8 5 1159.05 1130.82 104.56 o
5 -8 6 353.96 353.25 73.90 o
5 -8 7 83.97 150.59 49.49 o
5 -8 8 2569.46 2555.26 125.60 o
5 -7 -8 1646.36 1672.33 116.25 o
5 -7 -7 6208.51 6092.96 199.44 o
5 -7 -6 2721.72 2517.18 92.02 o
5 -7 -5 4258.41 4270.74 112.54 o
5 -7 -4 169.47 139.18 42.08 o
5 -7 -3 319.59 227.85 53.60 o
5 -7 -2 821.80 562.45 65.29 o
5 -7 -1 2911.99 2890.98 108.63 o
5 -7 0 4587.65 3969.12 120.34 o
5 -7 1 2178.30 1776.91 74.95 o
5 -7 2 467.92 392.14 41.93 o
5 -7 3 65.99 37.68 29.35 <
5 -7 4 466.90 420.75 41.60 o
5 -7 5 1965.22 2117.66 72.12 o
5 -7 6 3316.42 3325.10 119.26 o
5 -7 7 5593.36 5592.03 149.43 o
5 -7 8 840.11 825.04 78.57 o
5 -7 9 128.53 78.26 35.15 <
5 -6 -9 2468.66 2501.37 131.72 o
5 -6 -8 789.23 829.28 85.23 o
5 -6 -7 4.16 48.26 30.79 <
5 -6 -6 287.11 178.11 40.50 o
5 -6 -5 2382.60 2157.90 70.97 o
5 -6 -4 3216.02 3048.51 56.55 o
5 -6 -3 3790.21 3593.59 59.75 o
5 -6 -2 4110.97 3821.86 85.15 o
5 -6 -1 2871.54 2727.22 56.49 o
5 -6 0 492.52 457.15 22.74 o
5 -6 1 3380.34 2947.44 60.35 o
5 -6 2 4131.84 3715.19 90.37 o
5 -6 3 7249.65 7173.20 124.44 o
5 -6 4 1408.16 1432.31 56.59 o
5 -6 5 411.20 443.99 47.20 o
5 -6 6 13.70 46.28 23.45 <
5 -6 7 1941.95 1947.07 66.23 o
5 -6 8 1071.68 1103.52 63.77 o
5 -6 9 1171.45 1103.69 66.16 o
5 -5 -10 64.06 -6.29 47.57 <
5 -5 -9 1031.39 1057.00 67.52 o
5 -5 -8 3929.34 4077.03 126.79 o
5 -5 -7 3723.56 3783.76 127.48 o
5 -5 -6 3430.43 3479.75 88.93 o
5 -5 -5 1516.33 1619.71 63.36 o
5 -5 -4 25.72 26.12 25.75 <
5 -5 -3 1189.49 1210.08 50.79 o
5 -5 -2 3912.10 4006.48 91.37 o
5 -5 -1 4384.26 4249.25 94.15 o
5 -5 0 1042.24 1080.81 49.78 o
5 -5 1 778.13 837.20 49.57 o
5 -5 2 679.81 528.26 29.41 o
5 -5 3 48.48 46.37 24.86 <
5 -5 4 2228.33 2261.98 53.12 o
5 -5 5 1565.54 1570.70 47.86 o
5 -5 6 6969.33 6875.36 115.04 o
5 -5 7 2395.03 2509.08 65.86 o
5 -5 8 375.36 329.04 36.92 o
5 -5 9 67.41 47.58 36.62 <
5 -5 10 3166.54 3221.38 104.31 o
5 -4 -11 2201.35 2296.24 121.81 o
5 -4 -10 4497.77 4443.49 122.59 o
5 -4 -9 6086.80 6045.67 136.77 o
5 -4 -8 30.62 53.95 30.93 <
5 -4 -7 161.39 109.11 32.38 o
5 -4 -6 5463.43 5366.76 112.59 o
5 -4 -5 9451.40 8997.33 179.43 o
5 -4 -4 4803.83 4674.47 87.95 o
5 -4 -3 1782.62 1907.00 61.07 o
5 -4 -2 1971.60 1990.66 70.95 o
5 -4 -1 6.06 -1.92 20.15 <
5 -4 0 237.75 253.60 31.66 o
5 -4 1 895.61 945.85 54.55 o
5 -4 2 7391.37 7510.75 149.86 o
5 -4 3 3165.49 3393.01 113.71 o
5 -4 4 1449.14 1479.23 43.30 o
5 -4 5 1843.60 1773.21 49.51 o
5 -4 6 705.96 728.52 53.16 o
5 -4 7 1815.63 1893.14 67.44 o
5 -4 8 4235.68 4328.81 109.22 o
5 -4 9 5013.06 4987.67 105.56 o
5 -4 10 1922.80 2099.49 78.70 o
5 -3 -12 111.24 91.43 50.15 <
5 -3 -11 165.93 96.24 44.43 <
5 -3 -10 1460.21 1513.23 86.73 o
5 -3 -9 1585.85 1573.28 75.88 o
5 -3 -8 2854.40 2977.18 117.03 o
5 -3 -7 3515.45 3604.29 97.19 o
5 -3 -6 5845.93 5869.56 119.69 o
5 -3 -5 1588.27 1706.26 106.00 o
5 -3 -4 72.96 40.49 33.18 <
5 -3 -3 387.85 373.51 53.14 o
5 -3 -2 8654.16 8813.55 157.93 o
5 -3 -1 7399.45 7462.89 128.58 o
5 -3 0 3283.56 3431.87 100.14 o
5 -3 1 559.83 671.73 46.56 o
5 -3 2 1830.67 1840.97 67.26 o
5 -3 3 2324.62 2372.20 78.21 o
5 -3 4 2541.58 2688.64 77.62 o
5 -3 5 4886.19 5018.04 81.11 o
5 -3 6 3767.57 3698.97 75.94 o
5 -3 7 348.33 352.86 37.74 o
5 -3 8 36.80 51.73 27.65 <
5 -3 9 315.03 293.68 39.25 o
5 -3 10 1955.97 1740.88 118.10 o
5 -2 -12 2510.35 2603.65 131.37 o
5 -2 -11 2548.43 2667.19 97.63 o
5 -2 -10 6381.28 6567.94 139.16 o
5 -2 -9 837.44 894.34 57.06 o
5 -2 -8 124.03 70.45 32.44 <
5 -2 -7 257.94 260.58 32.97 o
5 -2 -6 6877.21 6694.55 114.44 o
5 -2 -5 3612.57 3744.93 110.12 o
5 -2 -4 3193.78 3314.90 100.29 o
5 -2 -3 3635.39 3677.11 115.85 o
5 -2 -2 31.76 21.20 22.34 <
5 -2 -1 230.28 245.11 30.50 o
5 -2 0 3432.68 3505.57 119.39 o
5 -2 1 3843.68 3812.46 114.31 o
5 -2 2 6128.33 6326.18 151.28 o
5 -2 3 1705.09 1802.22 78.37 o
5 -2 4 2866.80 2816.89 75.83 o
5 -2 5 614.07 522.87 39.89 o
5 -2 6 2740.76 2899.51 62.94 o
5 -2 7 1319.24 1357.18 49.89 o
5 -2 8 4088.00 4269.70 122.12 o
5 -2 9 2614.36 2721.22 112.38 o
5 -2 10 1050.41 940.37 74.52 o
5 -1 -13 2424.08 2475.59 136.08 o
5 -1 -12 354.23 198.05 48.65 o
5 -1 -11 39.13 46.20 35.14 <
5 -1 -10 3657.34 3772.16 117.18 o
5 -1 -9 5797.10 5835.69 135.30 o
5 -1 -8 9604.24 9961.76 171.24 o
5 -1 -7 3616.45 3659.64 82.61 o
5 -1 -6 229.77 234.32 29.59 o
5 -1 -5 2087.79 2089.86 81.48 o
5 -1 -4 919.69 949.73 57.83 o
5 -1 -3 5484.76 5658.32 132.33 o
5 -1 -2 6371.13 6719.74 143.46 o
5 -1 -1 1673.03 1666.02 69.59 o
5 -1 0 4139.29 4129.15 110.67 o
5 -1 1 5.37 20.49 24.34 <
5 -1 2 23.81 75.36 28.32 <
5 -1 3 289.97 275.83 38.76 o
5 -1 4 8075.50 7774.51 100.13 o
5 -1 5 5299.28 5329.91 100.91 o
5 -1 6 3962.12 4098.09 99.71 o
5 -1 7 633.82 610.90 58.00 o
5 -1 8 95.46 78.12 34.11 <
5 -1 9 3013.04 3170.28 106.23 o
5 -1 10 2764.00 2906.30 128.07 o
5 0 -13 2348.66 2464.21 103.44 o
5 0 -12 3182.25 3385.08 111.17 o
5 0 -11 2656.09 2621.33 91.84 o
5 0 -10 1740.26 1808.56 76.27 o
5 0 -9 74.87 109.22 36.39 o
5 0 -8 150.27 132.65 28.29 o
5 0 -7 2915.92 2789.96 66.20 o
5 0 -6 4460.22 4669.32 168.23 o
5 0 -5 1915.56 2006.09 95.83 o
5 0 -4 8604.74 8909.10 210.61 o
5 0 -3 1258.45 1290.17 60.63 o
5 0 -2 21.65 15.52 22.53 <
5 0 -1 425.03 399.90 58.91 o
5 0 0 4205.18 4390.92 131.23 o
5 0 1 5626.94 5764.13 112.82 o
5 0 2 2079.78 2211.83 69.56 o
5 0 3 1312.21 1348.88 59.08 o
5 0 4 309.52 312.56 39.61 o
5 0 5 3158.60 3222.64 77.82 o
5 0 6 1420.93 1327.87 56.44 o
5 0 7 3157.80 3340.22 92.81 o
5 0 8 3866.17 3871.23 118.83 o
5 0 9 918.98 890.48 77.91 o
5 0 10 948.98 645.84 88.61 o
5 1 -13 77.50 96.01 59.84 <
5 1 -12 184.97 181.26 59.57 o
5 1 -11 2012.58 2058.48 87.81 o
5 1 -10 3242.86 3282.52 118.86 o
5 1 -9 3834.19 3838.38 71.90 o
5 1 -8 6118.29 6316.04 94.36 o
5 1 -7 1999.63 2012.49 46.22 o
5 1 -6 787.69 825.29 59.02 o
5 1 -5 30.90 15.94 28.45 <
5 1 -4 5749.65 5905.91 136.88 o
5 1 -3 6497.82 6277.11 142.44 o
5 1 -2 4557.86 4596.21 187.47 o
5 1 -1 1597.52 1635.70 79.70 o
5 1 0 658.68 627.98 73.24 o
5 1 1 607.19 519.71 55.78 o
5 1 2 595.10 610.97 56.30 o
5 1 3 7932.19 7635.19 113.43 o
5 1 4 4408.51 4397.61 86.89 o
5 1 5 5150.67 5054.66 98.85 o
5 1 6 1948.00 1941.26 78.54 o
5 1 7 43.77 28.01 29.68 <
5 1 8 355.56 296.30 64.41 o
5 1 9 2455.30 2440.06 93.89 o
5 2 -13 1819.83 1928.82 91.14 o
5 2 -12 6997.73 7375.09 192.17 o
5 2 -11 4627.96 4587.89 95.54 o
5 2 -10 1617.14 1523.18 53.21 o
5 2 -9 9.77 23.26 23.00 <
5 2 -8 2350.94 2453.97 52.33 o
5 2 -7 13196.90 13199.00 158.28 o
5 2 -6 4050.22 4040.84 60.11 o
5 2 -5 2739.26 2975.10 93.74 o
5 2 -4 327.17 386.96 53.13 o
5 2 -3 424.85 446.11 45.18 o
5 2 -2 162.99 197.26 38.43 o
5 2 -1 3638.48 3634.45 113.30 o
5 2 0 4645.74 4745.17 121.56 o
5 2 1 3987.00 4071.94 114.19 o
5 2 2 3502.51 3395.23 93.63 o
5 2 3 997.70 1085.13 46.81 o
5 2 4 51.00 60.37 27.13 <
5 2 5 1620.10 1682.28 66.32 o
5 2 6 4205.51 4202.92 116.84 o
5 2 7 7746.70 7803.43 180.82 o
5 2 8 905.27 921.96 73.90 o
5 2 9 919.23 828.37 65.92 o
5 3 -13 134.22 106.46 35.18 o
5 3 -12 691.96 554.03 45.00 o
5 3 -11 2570.28 2802.16 91.44 o
5 3 -10 1790.21 1831.44 58.04 o
5 3 -9 5430.73 5407.15 86.85 o
5 3 -8 2072.59 2272.87 49.95 o
5 3 -7 1158.88 1244.18 38.03 o
5 3 -6 236.13 224.08 21.72 o
5 3 -5 2151.30 2046.97 39.62 o
5 3 -4 2142.65 2252.14 82.18 o
5 3 -3 10845.40 10929.20 221.04 o
5 3 -2 3331.31 3502.15 133.48 o
5 3 -1 1439.00 1536.21 63.05 o
5 3 0 555.44 536.23 53.21 o
5 3 1 910.63 886.09 47.36 o
5 3 2 1635.75 1652.42 48.91 o
5 3 3 6968.46 7064.51 115.48 o
5 3 4 2524.34 2621.28 76.95 o
5 3 5 1290.75 1368.13 64.35 o
5 3 6 67.38 66.83 40.98 <
5 3 7 579.82 414.92 46.49 o
5 3 8 707.64 549.81 65.16 o
5 4 -13 3229.84 3227.61 91.06 o
5 4 -12 1420.53 1496.87 67.36 o
5 4 -11 641.93 675.26 48.00 o
5 4 -10 145.67 175.88 31.16 o
5 4 -9 1113.41 1238.93 59.95 o
5 4 -8 4652.02 4824.82 110.64 o
5 4 -7 3334.75 3397.95 78.08 o
5 4 -6 4090.71 4086.90 79.99 o
5 4 -5 4953.64 4967.03 89.94 o
5 4 -4 467.12 491.08 30.84 o
5 4 -3 39.46 23.60 16.92 <
5 4 -2 2339.98 2153.85 44.17 o
5 4 -1 8072.73 8012.24 164.51 o
5 4 0 2585.98 2579.45 96.04 o
5 4 1 6289.04 6112.82 92.71 o
5 4 2 810.08 830.35 47.36 o
5 4 3 66.48 115.51 27.37 o
5 4 4 3142.87 3129.34 73.99 o
5 4 5 2223.39 2211.61 69.14 o
5 4 6 2146.91 2076.27 93.17 o
5 4 7 3002.46 2862.55 99.08 o
5 5 -13 13.28 16.97 31.57 <
5 5 -12 1592.45 1582.83 65.79 o
5 5 -11 5472.04 5693.04 117.57 o
5 5 -10 6109.51 6068.70 123.26 o
5 5 -9 7309.29 7575.29 132.73 o
5 5 -8 140.78 103.29 28.12 o
5 5 -7 5.71 21.69 19.33 <
5 5 -6 1039.35 1592.58 108.86 o
5 5 -5 3040.13 3070.34 65.80 o
5 5 -4 1733.85 1734.18 45.28 o
5 5 -3 2271.02 2112.20 49.22 o
5 5 -2 302.35 280.53 28.19 o
5 5 -1 734.78 743.92 44.15 o
5 5 0 144.40 169.19 35.70 o
5 5 1 408.07 346.57 35.85 o
5 5 2 3911.42 3758.89 95.65 o
5 5 3 5520.55 5466.21 128.79 o
5 5 4 2402.59 2382.52 132.78 o
5 5 5 2693.51 2639.65 135.36 o
5 5 6 216.19 186.53 98.39 <
5 5 7 1192.53 1107.17 108.94 o
5 6 -12 1540.46 1674.78 92.97 o
5 6 -11 1577.77 1691.72 111.29 o
5 6 -10 173.10 196.80 36.46 o
5 6 -9 2496.14 2402.20 82.39 o
5 6 -8 2267.18 2321.93 65.73 o
5 6 -7 3760.93 3575.83 76.68 o
5 6 -6 2224.31 2024.05 54.47 o
5 6 -5 1868.74 1645.84 36.12 o
5 6 -4 476.58 398.15 35.33 o
5 6 -3 321.27 306.96 53.35 o
5 6 -2 3353.34 3388.37 116.85 o
5 6 -1 3691.89 3665.06 92.97 o
5 6 0 4207.33 3994.46 100.43 o
5 6 1 2935.04 2853.61 122.13 o
5 6 2 140.93 99.61 36.94 <
5 6 3 928.13 995.89 63.53 o
5 6 4 1436.83 1434.45 79.28 o
5 6 5 3176.75 3052.15 154.40 o
5 7 -11 1480.31 1398.57 84.03 o
5 7 -10 2287.04 2443.07 171.23 o
5 7 -9 1487.36 1505.61 101.13 o
5 7 -8 481.98 407.90 76.39 o
5 7 -7 81.89 135.20 57.87 <
5 7 -6 2880.92 2689.53 117.77 o
5 7 -5 4346.82 4264.39 152.81 o
5 7 -4 6436.05 6107.99 244.38 o
5 7 -3 4305.04 4244.57 143.47 o
5 7 -2 437.71 345.33 53.70 o
5 7 -1 127.28 93.64 39.60 <
5 7 0 2116.51 2078.46 95.06 o
5 7 1 3100.93 3265.60 112.19 o
5 7 2 4572.10 4525.81 171.12 o
5 7 3 1309.64 1317.89 78.13 o
5 7 4 1507.26 1440.39 94.88 o
5 8 -10 1468.42 1411.01 153.98 o
5 8 -9 3759.46 3655.98 153.30 o
5 8 -8 4824.83 4905.66 172.99 o
5 8 -7 3084.99 3049.45 139.49 o
5 8 -6 759.86 533.89 73.67 o
5 8 -5 66.17 0.41 55.66 <
5 8 -4 35.33 52.23 54.59 <
5 8 -3 673.16 627.84 65.21 o
5 8 -2 3677.94 3418.04 150.39 o
5 8 -1 898.43 806.66 77.90 o
5 8 0 3814.46 3773.34 127.98 o
5 8 1 463.96 345.16 61.28 o
5 8 2 121.67 43.35 47.78 <
5 8 3 546.67 249.92 73.77 o
5 9 -9 49.72 12.62 54.94 <
5 9 -8 0.28 -52.21 49.04 <
5 9 -7 559.71 475.54 79.20 o
5 9 -6 2948.36 2991.48 157.62 o
5 9 -5 1781.59 2156.27 132.61 o
5 9 -4 5011.08 5195.49 183.77 o
5 9 -3 199.13 155.02 63.15 <
5 9 -2 3.80 30.45 36.73 <
5 9 -1 526.09 351.52 65.40 o
5 9 0 1011.24 284.48 105.25 <
5 9 1 4102.81 4148.75 288.45 o
5 10 -5 8.46 37.67 56.54 <
5 10 -4 562.04 502.79 83.23 o
6 -7 -1 1419.01 1586.27 187.15 o
6 -7 2 2417.52 2254.80 214.06 o
6 -7 3 87.90 49.58 66.73 <
6 -6 -5 801.86 910.24 160.91 o
6 -6 -4 3963.98 4045.08 267.33 o
6 -6 -1 1232.90 1420.99 165.12 o
6 -6 2 3466.55 3495.76 239.55 o
6 -6 3 4144.63 4303.23 193.30 o
6 -6 4 1886.93 2064.81 185.66 o
6 -5 -6 4476.81 4573.24 419.47 o
6 -5 -5 480.21 510.84 129.68 o
6 -5 -4 68.56 41.26 39.14 <
6 -5 -3 270.07 125.46 52.96 <
6 -5 -2 1249.03 1230.32 60.57 o
6 -5 -1 1929.82 1988.11 80.23 o
6 -5 0 2527.85 2258.96 79.29 o
6 -5 1 594.81 376.83 43.95 o
6 -5 2 538.32 351.71 65.76 o
6 -5 3 451.92 410.75 65.82 o
6 -5 4 825.01 732.53 71.41 o
6 -5 5 2225.60 2091.56 105.16 o
6 -4 -8 1318.51 1250.35 102.06 o
6 -4 -7 57.99 36.17 48.32 <
6 -4 -6 601.40 529.07 98.45 o
6 -4 -5 4902.87 5053.34 127.40 o
6 -4 -4 2830.39 2813.21 92.82 o
6 -4 -3 1801.37 1857.46 96.66 o
6 -4 -2 1343.76 1354.08 72.62 o
6 -4 -1 74.17 98.56 33.78 <
6 -4 0 580.69 544.85 48.77 o
6 -4 1 1555.05 1663.12 71.04 o
6 -4 2 2575.03 2730.19 120.71 o
6 -4 3 2801.95 2922.39 142.31 o
6 -4 4 2247.04 2453.76 104.57 o
6 -4 5 1869.55 1566.02 117.77 o
6 -4 6 12.05 12.60 40.33 <
6 -3 -9 1715.60 1811.42 109.55 o
6 -3 -8 1047.81 878.17 91.03 o
6 -3 -7 2430.66 2643.70 126.15 o
6 -3 -6 1957.49 1953.06 106.09 o
6 -3 -5 241.60 174.90 49.35 o
6 -3 -4 97.52 127.62 37.35 o
6 -3 -3 448.76 423.25 49.46 o
6 -3 -2 2970.59 2926.73 116.82 o
6 -3 -1 6338.99 6739.97 144.73 o
6 -3 0 3786.33 3873.82 104.35 o
6 -3 1 2656.31 2746.08 114.33 o
6 -3 2 168.60 70.54 40.97 <
6 -3 3 2101.20 2119.24 93.54 o
6 -3 4 2885.87 3105.42 130.67 o
6 -3 5 3984.44 4230.78 137.04 o
6 -3 6 1580.65 1640.27 109.86 o
6 -2 -9 896.13 805.78 100.85 o
6 -2 -8 3.10 -12.82 40.44 <
6 -2 -7 224.09 284.22 62.41 o
6 -2 -6 1953.28 2159.08 106.53 o
6 -2 -5 2640.50 2898.01 118.94 o
6 -2 -4 3225.06 3225.32 97.20 o
6 -2 -3 2849.32 2971.07 112.02 o
6 -2 -2 90.56 0.30 37.56 <
6 -2 -1 410.06 -0.57 61.04 <
6 -2 0 887.29 855.59 148.80 o
6 -2 1 3758.40 4453.02 171.57 o
6 -2 2 3036.92 3222.98 123.41 o
6 -2 3 2834.65 2896.76 127.31 o
6 -2 4 617.93 601.46 77.28 o
6 -2 5 34.61 -16.52 37.70 <
6 -2 6 1335.85 1473.24 92.47 o
6 -1 -10 1919.42 1759.30 106.01 o
6 -1 -9 5687.48 6199.06 203.49 o
6 -1 -8 3814.55 3846.88 133.80 o
6 -1 -7 6107.46 6551.68 193.93 o
6 -1 -6 410.82 210.26 65.46 o
6 -1 -5 186.36 73.12 42.30 <
6 -1 -4 897.84 1203.52 77.33 o
6 -1 -3 2176.34 2353.98 82.65 o
6 -1 -2 2458.23 2604.78 85.66 o
6 -1 -1 2150.18 2287.80 80.91 o
6 -1 0 2425.99 2532.70 105.39 o
6 -1 1 510.74 549.83 63.00 o
6 -1 2 762.51 789.95 61.16 o
6 -1 3 419.98 173.29 58.49 <
6 -1 4 2682.13 2448.01 101.30 o
6 -1 5 4478.64 4580.42 142.68 o
6 -1 6 1849.09 1972.69 102.74 o
6 0 -10 334.15 237.15 59.87 o
6 0 -9 608.78 568.22 82.42 o
6 0 -8 7.04 66.73 42.40 <
6 0 -7 198.92 81.76 42.10 <
6 0 -6 2492.30 2785.09 164.59 o
6 0 -5 2658.84 2981.00 165.15 o
6 0 -4 973.36 942.58 99.95 o
6 0 -3 2554.08 2548.36 107.03 o
6 0 -2 230.64 156.29 58.27 <
6 0 -1 478.01 448.04 72.70 o
6 0 0 5361.90 5391.74 182.27 o
6 0 1 5656.63 5895.81 210.34 o
6 0 2 2091.16 2204.70 106.31 o
6 0 3 1831.59 1819.35 83.18 o
6 0 4 53.74 66.43 39.67 <
6 0 5 969.60 934.41 73.93 o
6 0 6 1753.42 1542.04 116.19 o
6 1 -10 2859.20 2986.76 140.91 o
6 1 -9 1758.04 1922.35 142.38 o
6 1 -8 3573.42 3587.51 118.88 o
6 1 -7 1346.37 1433.57 77.85 o
6 1 -6 127.89 94.20 46.10 <
6 1 -5 46.18 50.74 39.46 <
6 1 -4 1266.60 1266.11 76.61 o
6 1 -3 4525.60 4522.20 120.07 o
6 1 -2 3911.29 4088.59 115.79 o
6 1 -1 6304.58 6208.41 172.37 o
6 1 0 295.22 279.38 80.79 o
6 1 1 3.53 42.69 49.27 <
6 1 2 647.67 790.96 73.77 o
6 1 3 2674.53 2536.86 96.46 o
6 1 4 4214.16 4129.52 127.02 o
6 1 5 1873.10 1785.96 128.28 o
6 2 -10 598.42 623.34 69.60 o
6 2 -9 166.61 121.40 45.93 <
6 2 -8 1560.43 1772.89 110.77 o
6 2 -7 4034.12 4354.13 124.47 o
6 2 -6 4670.33 5037.09 151.81 o
6 2 -5 3241.18 3291.53 150.73 o
6 2 -4 1482.39 1420.09 139.73 o
6 2 -3 6.26 20.45 35.27 <
6 2 -2 911.21 1016.09 73.44 o
6 2 -1 807.27 774.98 71.61 o
6 2 0 3265.99 3379.46 142.18 o
6 2 1 1612.30 1562.57 106.82 o
6 2 2 1875.33 1803.63 103.59 o
6 2 3 2246.69 2316.08 90.94 o
6 2 4 127.44 17.35 51.64 <
6 2 5 276.61 233.07 51.58 o
6 3 -10 1730.91 1841.72 113.78 o
6 3 -9 2742.15 2896.10 107.00 o
6 3 -8 1908.97 1975.32 100.55 o
6 3 -7 548.51 519.55 54.76 o
6 3 -6 16.62 38.69 30.69 <
6 3 -5 47.19 7.88 28.85 <
6 3 -4 3706.48 3559.18 137.32 o
6 3 -3 2483.04 2478.82 109.97 o
6 3 -2 3589.43 3908.91 131.97 o
6 3 -1 2309.74 2159.31 137.18 o
6 3 0 3.03 -34.24 37.31 <
6 3 1 1226.86 1096.13 86.62 o
6 3 2 2921.46 2824.07 124.03 o
6 3 3 5177.61 5020.06 175.51 o
6 3 4 1906.47 2001.48 117.87 o
6 4 -9 62.45 69.05 39.34 <
6 4 -8 1703.77 1757.03 114.74 o
6 4 -7 1339.39 1368.22 78.20 o
6 4 -6 2588.33 2520.04 88.92 o
6 4 -5 3888.05 3914.40 116.57 o
6 4 -4 567.16 423.25 55.63 o
6 4 -3 3.23 -30.38 26.62 <
6 4 -2 1713.12 2483.44 225.71 o
6 4 -1 4877.02 5183.54 441.47 o
6 4 0 5387.18 5535.58 314.57 o
6 4 1 2854.85 2852.61 232.91 o
6 4 2 1480.99 1443.06 192.47 o
6 4 3 12.93 40.57 94.86 <
6 5 -9 4346.10 4618.81 283.11 o
6 5 -8 679.24 663.11 139.80 o
6 5 -7 126.90 209.00 167.47 <
6 5 -6 931.17 994.34 152.62 o
6 5 -5 3063.98 3774.28 248.82 o
6 5 -4 1568.57 1887.07 196.97 o
6 5 -2 2457.04 2245.04 211.86 o
6 5 -1 139.22 146.76 108.91 <
6 5 0 25.35 63.39 93.43 <
6 5 1 232.37 277.06 123.53 <
6 5 2 2084.43 2453.08 244.77 o
6 6 -5 622.66 776.64 151.04 o
6 6 -4 379.10 289.22 125.19 <
6 6 -2 2097.03 2410.58 228.20 o
6 6 -1 3915.25 3943.01 295.40 o
6 6 0 1372.36 1225.15 299.54 o
6 7 -4 3213.77 3521.81 199.31 o
