#------------------------------------------------------------------------------
#$Date: 2016-02-18 17:37:37 +0200 (Thu, 18 Feb 2016) $
#$Revision: 176729 $
#$URL: svn://www.crystallography.net/cod/cif/1/51/43/1514325.cif $
#------------------------------------------------------------------------------
#
# This file is available in the Crystallography Open Database (COD),
# http://www.crystallography.net/
#
# All data on this site have been placed in the public domain by the
# contributors.
#
data_1514325
loop_
_publ_author_name
'McCrary, Parker D.'
'Chatel, Gregory'
'Alaniz, Spencer A.'
'Cojocaru, O. Andreea'
'Beasley, Preston A.'
'Flores, Luis A.'
'Kelley, Steven P.'
'Barber, Patrick S.'
'Rogers, Robin D.'
_publ_section_title
;
 Evaluating Ionic Liquids as Hypergolic Fuels: Exploring Reactivity from
 Molecular Structure
;
_journal_issue                   5
_journal_name_full               'Energy &amp; Fuels'
_journal_page_first              3460
_journal_paper_doi               10.1021/ef500264z
_journal_volume                  28
_journal_year                    2014
_chemical_formula_sum            'C3 H7 N7'
_chemical_formula_weight         141.16
_chemical_name_systematic
; 
 ? 
;
_space_group_crystal_system      monoclinic
_space_group_IT_number           14
_space_group_name_Hall           '-P 2yn'
_space_group_name_H-M_alt        'P 1 21/n 1'
_symmetry_space_group_name_Hall  '-P 2yn'
_symmetry_space_group_name_H-M   'P 1 21/n 1'
_atom_sites_solution_hydrogens   mixed
_atom_sites_solution_primary     direct
_atom_sites_solution_secondary   difmap
_audit_creation_method           SHELXL-2013
_cell_angle_alpha                90
_cell_angle_beta                 114.27(3)
_cell_angle_gamma                90
_cell_formula_units_Z            4
_cell_length_a                   5.668(10)
_cell_length_b                   20.59(4)
_cell_length_c                   6.402(11)
_cell_measurement_reflns_used    1107
_cell_measurement_temperature    100(2)
_cell_measurement_theta_max      26.69
_cell_measurement_theta_min      3.63
_cell_volume                     681(2)
_computing_cell_refinement       'Bruker SAINT'
_computing_data_collection       'Bruker APEX2'
_computing_data_reduction        'Bruker SAINT'
_computing_molecular_graphics    'Bruker SHELXTL'
_computing_publication_material  'Bruker SHELXTL'
_computing_structure_refinement  'SHELXL-2013 (Sheldrick, 2013)'
_computing_structure_solution    'SHELXS-97 (Sheldrick, 2008)'
_diffrn_ambient_temperature      100(2)
_diffrn_measured_fraction_theta_full 0.993
_diffrn_measured_fraction_theta_max 0.982
_diffrn_measurement_device_type  'Bruker APEX-II CCD'
_diffrn_measurement_method       '\f and \w scans'
_diffrn_radiation_type           MoK\a
_diffrn_radiation_wavelength     0.71073
_diffrn_reflns_av_R_equivalents  0.0847
_diffrn_reflns_av_unetI/netI     0.0716
_diffrn_reflns_Laue_measured_fraction_full 0.993
_diffrn_reflns_Laue_measured_fraction_max 0.982
_diffrn_reflns_limit_h_max       7
_diffrn_reflns_limit_h_min       -7
_diffrn_reflns_limit_k_max       26
_diffrn_reflns_limit_k_min       -25
_diffrn_reflns_limit_l_max       8
_diffrn_reflns_limit_l_min       -8
_diffrn_reflns_number            6207
_diffrn_reflns_point_group_measured_fraction_full 0.993
_diffrn_reflns_point_group_measured_fraction_max 0.982
_diffrn_reflns_theta_full        25.242
_diffrn_reflns_theta_max         26.749
_diffrn_reflns_theta_min         1.978
_exptl_absorpt_coefficient_mu    0.103
_exptl_absorpt_correction_T_max  0.7454
_exptl_absorpt_correction_T_min  0.3072
_exptl_absorpt_correction_type   multi-scan
_exptl_absorpt_process_details   'Bruker AXScale'
_exptl_crystal_colour            colourless
_exptl_crystal_density_diffrn    1.376
_exptl_crystal_density_method    'not measured'
_exptl_crystal_description       Plate
_exptl_crystal_F_000             296
_exptl_crystal_size_max          0.390
_exptl_crystal_size_mid          0.190
_exptl_crystal_size_min          0.030
_refine_diff_density_max         0.355
_refine_diff_density_min         -0.364
_refine_diff_density_rms         0.079
_refine_ls_extinction_method     none
_refine_ls_goodness_of_fit_ref   0.979
_refine_ls_hydrogen_treatment    constr
_refine_ls_matrix_type           full
_refine_ls_number_parameters     92
_refine_ls_number_reflns         1419
_refine_ls_number_restraints     0
_refine_ls_restrained_S_all      0.979
_refine_ls_R_factor_all          0.1066
_refine_ls_R_factor_gt           0.0612
_refine_ls_shift/su_max          0.000
_refine_ls_shift/su_mean         0.000
_refine_ls_structure_factor_coef Fsqd
_refine_ls_weighting_details
'w=1/[\s^2^(Fo^2^)+(0.1003P)^2^] where P=(Fo^2^+2Fc^2^)/3'
_refine_ls_weighting_scheme      calc
_refine_ls_wR_factor_gt          0.1525
_refine_ls_wR_factor_ref         0.1770
_reflns_Friedel_coverage         0.000
_reflns_number_gt                837
_reflns_number_total             1419
_reflns_threshold_expression     'I > 2\s(I)'
_cod_data_source_file            ef500264z_si_002.cif
_cod_data_source_block           C1NTriN3
_cod_depositor_comments
'Adding full bibliography for 1514323--1514327.cif.'
_cod_database_code               1514325
#BEGIN Tags that were not found in dictionaries:
_shelx_space_group_comment
; 
The symmetry employed for this shelxl refinement is uniquely defined 
by the following loop, which should always be used as a source of 
symmetry information in preference to the above space-group names. 
They are only intended as comments. 
;
_shelx_estimated_absorpt_t_min   0.961
_shelx_estimated_absorpt_t_max   0.997
_shelxl_version_number           2013-4
_shelx_res_file
; 
TITL p2 in P2(1)/n 
CELL 0.71073   5.6682  20.5909   6.4023  90.000 114.270  90.000 
ZERR    4.00   0.0104   0.0356   0.0114   0.000   0.031   0.000 
LATT 1 
SYMM 0.5-X, 0.5+Y, 0.5-Z 
SFAC C  H  N 
UNIT 12  28 28 
  
L.S. 10 
PLAN 20 
ACTA 
FMAP 2 
SIZE 0.03 0.19 0.39 
TEMP -173 
  
WGHT    0.100300 
FVAR       0.30018 
N2    3    0.739019    0.060725    0.119666    11.00000    0.03979    0.04213 = 
         0.06121   -0.00098    0.01987   -0.00392 
C5    1    1.005995    0.143813    0.271117    11.00000    0.03216    0.03988 = 
         0.02838   -0.00176    0.00982   -0.00054 
AFIX  43 
H5A   2    1.158900    0.168228    0.351716    11.00000   -1.20000 
AFIX   0 
N6    3    0.683737    0.232933    0.143697    11.00000    0.04324    0.03653 = 
         0.03506    0.00143    0.01086    0.00527 
AFIX   1 
H6B   2    0.827462    0.255870    0.153808    11.00000   -1.50000 
H6A   2    0.660915    0.241423    0.269459    11.00000   -1.50000 
AFIX   0 
N4    3    0.767330    0.167180    0.162745    11.00000    0.03183    0.03643 = 
         0.02671    0.00182    0.00987    0.00186 
C3    1    0.608718    0.115502    0.070754    11.00000    0.03434    0.04545 = 
         0.04223    0.00235    0.01198   -0.00396 
AFIX  43 
H3A   2    0.427352    0.118636   -0.017373    11.00000   -1.20000 
AFIX   0 
N1    3    0.989142    0.080183    0.244952    11.00000    0.03653    0.04138 = 
         0.04024    0.00270    0.01649    0.00402 
C7    1    1.200393    0.032762    0.332777    11.00000    0.04883    0.05282 = 
         0.07910    0.00647    0.02466    0.01736 
AFIX 137 
H7A   2    1.351981    0.052922    0.453194    11.00000   -1.50000 
H7B   2    1.245149    0.018340    0.207733    11.00000   -1.50000 
H7C   2    1.145241   -0.004672    0.396102    11.00000   -1.50000 
AFIX   0 
N8    3    1.487846    0.366640    0.262380    11.00000    0.04134    0.05782 = 
         0.05221   -0.01228    0.01720   -0.00474 
N9    3    1.287299    0.340537    0.167948    11.00000    0.03618    0.04154 = 
         0.03082    0.00125    0.01633    0.00902 
N10   3    1.085243    0.313909    0.070492    11.00000    0.03684    0.07987 = 
         0.04370   -0.00379    0.01416   -0.00783 
  
HKLF 4 
  
REM  p2 in P2(1)/n 
REM R1 =  0.0612 for     837 Fo > 4sig(Fo)  and  0.1066 for all    1419 data 
REM     92 parameters refined using      0 restraints 
  
END 
  
WGHT      0.1008      0.0000 
  
REM Highest difference peak  0.355,  deepest hole -0.364,  1-sigma level  0.079 
Q1    1   1.2408  0.0282  0.5023  11.00000  0.05    0.35 
Q2    1   1.0819  0.0723  0.4241  11.00000  0.05    0.26 
Q3    1   0.8081  0.1540  0.3609  11.00000  0.05    0.24 
Q4    1   1.1913  0.3495 -0.0395  11.00000  0.05    0.23 
Q5    1   1.2903 -0.0323  0.0885  11.00000  0.05    0.22 
Q6    1   1.1013  0.2768  0.3021  11.00000  0.05    0.22 
Q7    1   1.4548  0.3557  0.0380  11.00000  0.05    0.22 
Q8    1   0.6071  0.2324 -0.0579  11.00000  0.05    0.21 
Q9    1   1.4043  0.3384  0.3809  11.00000  0.05    0.21 
Q10   1   0.8907  0.2799  0.0874  11.00000  0.05    0.21 
Q11   1   1.6001  0.3643  0.4635  11.00000  0.05    0.21 
Q12   1   1.1511  0.3138  0.2873  11.00000  0.05    0.21 
Q13   1   0.9922  0.1087  0.3997  11.00000  0.05    0.21 
Q14   1   1.6057  0.3898  0.0971  11.00000  0.05    0.20 
Q15   1   0.4612  0.1287  0.2374  11.00000  0.05    0.19 
Q16   1   0.5202  0.0610 -0.1812  11.00000  0.05    0.19 
Q17   1   1.2950  0.3759 -0.0182  11.00000  0.05    0.19 
Q18   1   0.3727  0.0607 -0.2507  11.00000  0.05    0.18 
Q19   1   0.6312  0.1368  0.1797  11.00000  0.05    0.18 
Q20   1   0.5909  0.1844  0.2827  11.00000  0.05    0.18 
;
_shelx_res_checksum              82500
_shelx_hkl_file
; 
   1   0   0    0.11    0.14 
  -1   0   0   -0.06    0.12 
  -2   0   0   23.49    1.40 
   2   0   0   24.91    1.80 
  -2   0   0   26.65    2.28 
  -3   0   0   -0.25    0.31 
   3   0   0   -0.01    0.32 
  -3   0   0   -0.07    0.24 
   4   0   0   57.50    4.03 
  -4   0   0   56.37    3.16 
  -4   0   0   57.20    5.08 
   5   0   0   -0.69    0.57 
   6   0   0    0.01    0.76 
  -1  -1   0  116.77    5.89 
   1  -1   0  119.17    7.33 
   1  -1   0  110.11    5.88 
   1   1   0  106.53    7.32 
  -1   1   0  113.77    5.88 
   2  -1   0   61.33    3.98 
  -2  -1   0   57.73    3.17 
  -2   1   0   57.73    3.16 
   2   1   0   58.31    3.96 
  -2   1   0   61.99    5.07 
   3  -1   0   21.93    1.69 
  -3  -1   0   21.87    2.10 
  -3  -1   0   20.44    1.28 
   3   1   0   21.45    1.68 
  -3   1   0   19.54    2.08 
  -3   1   0   22.06    1.28 
  -4  -1   0    1.35    0.45 
  -4  -1   0    0.99    0.38 
   4  -1   0    1.02    0.54 
   4   1   0    0.63    0.52 
  -4   1   0    1.04    0.39 
  -4   1   0    1.05    0.41 
   5  -1   0   25.28    2.13 
   5   1   0   25.01    2.16 
   6  -1   0    1.46    0.85 
   6   1   0    1.02    0.83 
   0  -2   0   32.78    1.74 
  -1  -2   0  443.34   22.34 
   1  -2   0  428.02   22.33 
   1  -2   0  420.78   27.77 
  -1   2   0  437.06   22.33 
  -2  -2   0    0.37    0.31 
  -2  -2   0    0.56    0.22 
   2  -2   0    0.33    0.27 
  -2   2   0    0.36    0.21 
  -2   2   0    0.46    0.32 
   2   2   0    0.52    0.25 
  -3  -2   0    2.20    0.34 
   3  -2   0    2.62    0.51 
  -3  -2   0    2.05    0.44 
  -3   2   0    2.59    0.36 
  -3   2   0    1.24    0.37 
   3   2   0    2.65    0.48 
   4  -2   0    2.25    0.62 
  -4  -2   0    2.18    0.54 
  -4  -2   0    2.37    0.43 
  -4   2   0    2.12    0.63 
   4   2   0    3.11    0.66 
  -4   2   0    2.23    0.47 
   5  -2   0    7.09    1.06 
   5   2   0    7.89    1.10 
   6  -2   0   -0.46    0.73 
   6   2   0   -0.94    0.72 
   0  -3   0   -0.05    0.07 
  -1  -3   0    2.75    0.33 
   1  -3   0    4.09    0.37 
   1  -3   0    3.63    0.39 
  -2  -3   0    4.51    0.47 
   2  -3   0    5.30    0.62 
   2  -3   0    4.47    0.44 
   2   3   0    4.23    0.56 
  -2   3   0    4.02    0.58 
  -2   3   0    4.47    0.42 
  -3  -3   0   16.49    1.06 
   3  -3   0   17.55    1.43 
  -3  -3   0   18.20    1.81 
  -3   3   0   17.06    1.80 
  -3   3   0   16.64    1.08 
   3   3   0   14.75    1.38 
  -4  -3   0   -0.11    0.45 
   4  -3   0    0.75    0.53 
  -4  -3   0   -0.12    0.32 
   4   3   0   -0.24    0.50 
  -4   3   0   -0.22    0.37 
  -4   3   0    0.19    0.47 
   5  -3   0   18.53    1.71 
   5   3   0   17.23    1.76 
   6  -3   0    0.43    0.80 
   6   3   0   -0.52    0.79 
   0  -4   0  243.76   12.62 
   1  -4   0  157.74   11.20 
  -1  -4   0  152.44    9.03 
   1  -4   0  191.12    9.02 
   1   4   0  192.52   11.18 
  -2  -4   0  140.46    7.47 
   2  -4   0  146.11    9.29 
   2  -4   0  135.28    7.44 
  -2   4   0  136.29    7.44 
  -2   4   0  136.07   11.93 
   2   4   0  159.99    9.26 
  -3  -4   0    0.85    0.31 
   3  -4   0    1.24    0.44 
  -3  -4   0    1.10    0.34 
   3   4   0    1.25    0.41 
  -3   4   0    1.42    0.36 
  -3   4   0    1.36    0.51 
   4  -4   0   14.82    1.42 
  -4  -4   0   14.38    1.06 
  -4  -4   0   14.01    1.77 
  -4   4   0   13.64    1.03 
  -4   4   0   12.70    1.77 
   4   4   0   13.77    1.49 
   5  -4   0    0.46    0.62 
   5   4   0   -0.09    0.58 
   6  -4   0    0.04    0.79 
   6   4   0   -0.83    0.80 
   0  -5   0    0.19    0.17 
  -1  -5   0   96.65    7.26 
  -1  -5   0   75.61    4.58 
   1  -5   0   82.76    4.57 
   1  -5   0   80.79    5.64 
   1   5   0   96.83    5.62 
  -2  -5   0   12.69    0.89 
   2  -5   0   12.97    0.85 
   2  -5   0   14.22    1.10 
   2   5   0   13.28    1.03 
  -2   5   0   13.12    1.60 
  -2   5   0   12.24    0.85 
  -3  -5   0   31.74    3.08 
  -3  -5   0   33.75    1.97 
   3  -5   0   34.26    2.47 
   3  -5   0   33.37    1.95 
   3   5   0   30.33    2.41 
  -3   5   0   33.70    3.19 
   3   5   0   38.76    3.22 
  -3   5   0   33.77    1.92 
  -4  -5   0   31.81    1.95 
  -4  -5   0   31.27    3.12 
   4  -5   0   31.16    2.49 
   4   5   0   31.70    2.53 
  -4   5   0   35.90    3.22 
   5  -5   0    0.57    0.64 
   5   5   0    0.50    0.64 
   6  -5   0    5.70    1.06 
   6   5   0    5.01    1.14 
   0  -6   0   39.49    2.03 
   0   6   0   34.26    3.47 
   1  -6   0    0.68    0.23 
  -1  -6   0    0.38    0.20 
  -1  -6   0    0.33    0.23 
   1  -6   0    0.52    0.21 
   1   6   0    0.64    0.20 
  -1   6   0    0.13    0.36 
   1   6   0    0.40    0.22 
   2  -6   0   12.75    1.04 
  -2  -6   0   13.95    1.32 
  -2  -6   0   10.00    0.85 
   2  -6   0   10.25    0.80 
  -2   6   0    9.64    1.57 
   2   6   0   12.30    0.97 
  -2   6   0   10.67    0.79 
   2   6   0   14.12    1.41 
  -3  -6   0    0.47    0.44 
   3  -6   0    0.98    0.34 
   3  -6   0    1.33    0.46 
  -3  -6   0    0.73    0.35 
  -3   6   0    0.61    0.56 
   3   6   0    0.68    0.39 
  -3   6   0    0.46    0.34 
   3   6   0    0.43    0.39 
   4  -6   0    2.19    0.63 
  -4  -6   0    1.78    0.66 
  -4  -6   0    1.18    0.45 
  -4   6   0    1.69    0.69 
   4   6   0    1.43    0.65 
   4   6   0    2.61    0.65 
   5  -6   0    0.49    0.64 
   5   6   0    0.52    0.66 
   6  -6   0    1.34    0.92 
   6   6   0    2.53    1.03 
   0  -7   0   -0.20    0.15 
   0   7   0   -0.14    0.33 
   1  -7   0   62.57    3.61 
   1  -7   0   66.00    4.43 
  -1  -7   0   75.05    5.74 
   1   7   0   75.43    5.77 
   1   7   0   68.15    4.41 
  -1   7   0   57.17    5.90 
   2  -7   0    1.33    0.36 
  -2  -7   0    0.71    0.35 
  -2  -7   0    1.07    0.31 
   2  -7   0    1.00    0.30 
   2   7   0    1.41    0.30 
  -2   7   0    0.29    0.58 
   2   7   0    0.90    0.33 
   3  -7   0    7.44    0.97 
  -3  -7   0    7.46    1.22 
  -3  -7   0    7.60    0.76 
   3  -7   0    7.00    0.66 
  -3   7   0    7.36    1.02 
  -3   7   0    8.59    0.70 
   3   7   0    7.17    0.92 
   3   7   0    6.45    0.97 
  -4  -7   0    4.55    0.83 
   4  -7   0    6.19    0.90 
  -4  -7   0    6.31    0.69 
  -4   7   0    5.25    0.90 
   4   7   0    5.55    0.99 
   4   7   0    6.13    0.86 
   5  -7   0    8.10    1.12 
   5   7   0    9.31    1.24 
   6  -7   0   -0.46    0.81 
   6   7   0   -0.90    0.87 
   0  -8   0    1.20    0.23 
   0   8   0    1.14    0.43 
   1  -8   0   -0.22    0.17 
  -1  -8   0    0.30    0.31 
   1  -8   0    0.25    0.22 
  -1  -8   0   -0.02    0.21 
   1   8   0    0.05    0.26 
   1   8   0    0.32    0.27 
  -1   8   0   -0.40    0.39 
   2  -8   0   33.42    2.08 
  -2  -8   0   34.30    2.12 
   2  -8   0   35.73    2.56 
  -2  -8   0   42.21    3.30 
  -2   8   0   31.22    3.50 
   2   8   0   36.76    2.51 
   2   8   0   42.20    3.34 
  -3  -8   0    8.93    1.46 
   3  -8   0   12.64    1.18 
  -3  -8   0   10.38    0.93 
   3  -8   0   11.93    0.91 
  -3   8   0   10.50    1.37 
   3   8   0   12.11    1.66 
   3   8   0    9.55    1.11 
  -3   8   0   12.21    0.89 
  -4  -8   0    3.30    0.80 
  -4  -8   0    3.69    0.59 
   4  -8   0    4.09    0.76 
   4   8   0    3.69    0.74 
   4   8   0    3.90    0.85 
  -4   8   0    3.59    0.91 
   5  -8   0    2.33    0.78 
   5   8   0    2.57    0.86 
   6  -8   0    4.16    1.01 
   6   8   0    4.49    1.24 
   0  -9   0   -0.19    0.15 
   0   9   0   -0.04    0.36 
   1  -9   0   17.75    1.24 
  -1  -9   0   22.63    1.28 
   1  -9   0   21.27    1.45 
  -1   9   0   17.01    2.53 
   1   9   0   22.10    2.09 
   1   9   0   19.67    1.54 
  -2  -9   0    0.12    0.31 
  -2  -9   0    0.48    0.36 
   2  -9   0    0.01    0.28 
   2  -9   0   -0.20    0.29 
  -2   9   0    0.32    0.62 
   2   9   0    0.04    0.28 
   2   9   0   -0.17    0.29 
  -3  -9   0   15.45    1.88 
  -3  -9   0   17.18    1.25 
   3  -9   0   17.30    1.17 
   3  -9   0   17.00    1.47 
   3   9   0   15.66    1.98 
   3   9   0   13.40    1.44 
  -3   9   0   17.71    2.29 
  -3   9   0   18.07    1.17 
  -4  -9   0    2.22    0.72 
   4  -9   0    2.97    0.68 
  -4  -9   0    2.85    0.55 
   4   9   0    2.50    0.68 
   4   9   0    2.54    0.77 
  -4   9   0    2.76    0.85 
   5  -9   0    2.49    0.73 
   5   9   0    2.56    0.85 
   6  -9   0    0.49    0.94 
   6   9   0   -1.28    0.88 
   0 -10   0  113.77    5.56 
   0  10   0   95.57    8.99 
  -1 -10   0   46.92    2.61 
   1 -10   0   47.91    3.10 
   1 -10   0   42.58    2.58 
   1  10   0   50.68    4.18 
   1  10   0   47.30    3.17 
  -1  10   0   42.41    4.46 
  -2 -10   0   45.22    3.92 
   2 -10   0   42.20    3.02 
  -2 -10   0   38.45    2.48 
   2 -10   0   42.95    2.50 
   2  10   0   49.46    3.98 
   2  10   0   50.44    3.00 
  -2  10   0   36.57    4.16 
  -3 -10   0   14.53    1.92 
   3 -10   0   18.27    1.50 
   3 -10   0   14.81    1.18 
  -3 -10   0   18.33    1.29 
  -3  10   0   17.71    2.42 
   3  10   0   15.73    1.47 
  -3  10   0   17.88    1.19 
   3  10   0   16.62    2.01 
  -4 -10   0   21.17    2.46 
   4 -10   0   23.93    1.92 
  -4 -10   0   22.00    1.54 
   4  10   0   20.59    2.56 
  -4  10   0   26.53    2.66 
   4  10   0   20.56    1.96 
   5 -10   0    6.70    1.03 
  -5 -10   0    7.10    0.82 
   5  10   0    6.47    1.10 
   6 -10   0   -0.54    0.94 
   0 -11   0    0.10    0.21 
   0  11   0   -0.24    0.40 
   1 -11   0    5.86    0.63 
  -1 -11   0    6.12    0.59 
   1 -11   0    7.70    0.63 
   1  11   0    4.42    0.80 
  -1  11   0    5.22    1.00 
   2 -11   0   14.76    1.16 
  -2 -11   0   17.38    1.86 
   2 -11   0   15.83    1.37 
  -2 -11   0   14.64    1.15 
  -2  11   0   14.94    2.43 
   2  11   0   20.36    1.40 
   2  11   0   18.67    1.94 
  -3 -11   0    9.71    1.00 
   3 -11   0   11.62    1.24 
   3 -11   0   11.18    0.99 
  -3  11   0   10.36    1.55 
  -3  11   0   10.97    0.95 
   3  11   0   10.18    1.71 
  -3  11   0   10.46    1.55 
   3  11   0   10.37    1.22 
  -4 -11   0    0.47    0.47 
   4 -11   0    0.78    0.58 
  -4 -11   0    0.17    0.56 
   4  11   0    0.18    0.55 
  -4  11   0    1.30    0.76 
   4  11   0    0.22    0.55 
   5 -11   0    0.46    0.73 
  -5 -11   0    0.05    0.44 
   5  11   0   -0.88    0.64 
   0 -12   0   13.18    0.88 
   0  12   0   11.58    1.93 
   1 -12   0   41.56    2.51 
   1 -12   0   33.92    2.13 
  -1 -12   0   35.61    2.16 
  -1  12   0   37.50    3.96 
   1  12   0   34.75    3.55 
   2 -12   0   12.38    1.11 
   2 -12   0   11.83    0.99 
  -2 -12   0   10.51    1.00 
   2  12   0   14.14    1.78 
  -2  12   0    9.94    1.55 
  -3 -12   0   21.25    2.60 
   3 -12   0   27.15    2.01 
  -3 -12   0   22.32    1.64 
   3 -12   0   26.44    1.66 
  -3  12   0   26.41    3.22 
   3  12   0   24.09    2.69 
  -3  12   0   26.06    1.64 
  -4 -12   0    4.01    0.84 
  -4 -12   0    5.75    0.72 
   4 -12   0    5.42    0.86 
   4  12   0    2.92    0.86 
  -4  12   0    5.06    1.12 
  -5 -12   0    0.24    0.45 
   5 -12   0    0.19    0.76 
   0 -13   0    0.25    0.29 
   0  13   0    0.03    0.52 
  -1 -13   0   30.34    1.91 
   1 -13   0   32.72    1.89 
  -1  13   0   36.23    3.74 
   1  13   0   27.54    3.19 
   2 -13   0    0.39    0.39 
   2 -13   0    0.61    0.46 
  -2 -13   0    0.63    0.44 
   2  13   0    0.69    0.53 
  -2  13   0    1.09    1.16 
   3 -13   0    6.95    0.78 
  -3 -13   0    7.91    0.83 
  -3 -13   0    4.80    0.91 
   3 -13   0    8.85    1.07 
   3  13   0    5.82    1.04 
  -4 -13   0   -0.04    0.59 
   4 -13   0    0.86    0.62 
  -4 -13   0    1.23    0.45 
   4  13   0   -0.16    0.61 
  -4  13   0    1.40    0.87 
   5 -13   0    0.01    0.79 
  -5 -13   0    0.97    0.49 
   0 -14   0    0.36    0.34 
   0  14   0   -0.11    0.59 
  -1 -14   0    8.57    0.80 
   1 -14   0    8.22    0.79 
   1  14   0    5.49    1.03 
  -1  14   0    6.09    1.31 
   2 -14   0   20.54    1.48 
  -2 -14   0   18.24    1.43 
  -2  14   0   24.53    3.38 
   2  14   0   22.35    2.46 
   3 -14   0    9.51    0.89 
  -3 -14   0    5.63    1.03 
  -3 -14   0    9.51    0.92 
   3  14   0    6.34    1.13 
  -3  14   0    9.86    1.59 
  -4 -14   0    5.70    0.75 
  -4 -14   0    5.24    1.00 
   4 -14   0    6.88    0.96 
   4  14   0    3.59    1.07 
  -5 -14   0   -0.67    0.43 
   5 -14   0    0.18    0.86 
   0 -15   0   -0.14    0.35 
   0  15   0   -0.08    0.65 
  -1 -15   0    6.38    0.72 
   1 -15   0    6.83    0.72 
  -1  15   0    6.40    1.37 
   1  15   0    4.32    0.99 
  -2 -15   0    6.75    0.81 
   2 -15   0    5.69    0.75 
   2  15   0    4.21    0.96 
  -2  15   0    6.66    1.53 
  -3 -15   0    8.41    0.89 
   3  15   0    5.76    1.13 
  -3  15   0    7.99    1.58 
  -4 -15   0    0.20    0.46 
  -4 -15   0   -0.34    0.67 
  -4  15   0    1.89    0.93 
   4  15   0    0.03    0.78 
  -5 -15   0   -0.25    0.44 
   0 -16   0    0.56    0.41 
   0  16   0    0.20    0.74 
   1 -16   0   16.77    1.30 
  -1 -16   0   15.01    1.26 
  -1  16   0   22.97    3.43 
   1  16   0   21.37    2.64 
   2 -16   0    5.75    0.78 
  -2 -16   0    4.99    0.76 
  -2  16   0    5.80    1.58 
   2  16   0    3.75    0.95 
  -3 -16   0    1.84    0.59 
  -3  16   0    3.21    1.25 
   3  16   0    1.89    0.86 
  -4 -16   0    1.54    0.54 
  -4  16   0    2.27    0.99 
   4  16   0   -0.01    0.85 
  -5 -16   0    0.23    0.50 
   0 -17   0   -0.10    0.40 
   0  17   0    0.21    0.78 
   1 -17   0   22.37    1.57 
  -1 -17   0   20.42    1.52 
  -1  17   0   22.13    3.66 
   1  17   0   28.47    3.00 
   2 -17   0   -0.21    0.44 
  -2 -17   0    0.21    0.42 
   2  17   0    1.03    0.75 
  -2  17   0    1.64    1.46 
  -3 -17   0    0.48    0.52 
  -3  17   0    2.16    1.19 
   3  17   0   -0.97    0.71 
  -4 -17   0    0.07    0.52 
   4  17   0   -0.16    0.88 
  -4  17   0    3.22    1.11 
   0 -18   0    0.64    0.43 
   0  18   0    0.47    0.79 
   1 -18   0    6.03    0.73 
  -1 -18   0    5.12    0.68 
  -1  18   0    7.52    1.67 
   1  18   0    4.70    1.09 
   2 -18   0   29.94    1.97 
  -2 -18   0   25.08    1.85 
  -2  18   0   31.03    4.22 
   2  18   0   29.82    3.32 
  -3 -18   0    0.37    0.53 
  -3  18   0    2.83    1.22 
   3  18   0   -0.95    0.85 
  -4 -18   0    0.67    0.58 
  -4  18   0    2.41    1.10 
   4  18   0   -0.94    0.88 
   0 -19   0   -0.51    0.34 
   0  19   0   -0.61    0.78 
   1 -19   0    1.40    0.51 
  -1 -19   0    1.07    0.46 
   1  19   0    1.54    0.85 
  -1  19   0    2.36    1.41 
  -2 -19   0    0.39    0.49 
   2 -19   0    0.11    0.51 
  -2  19   0    0.27    1.46 
   2  19   0    0.90    0.93 
  -3 -19   0    6.79    0.97 
  -3  19   0   12.32    2.39 
  -4 -19   0    1.50    0.61 
   4  19   0   -1.17    0.98 
  -4  19   0    3.48    1.13 
   0 -20   0    4.36    0.64 
   0  20   0    2.32    1.08 
  -1 -20   0    6.56    0.80 
   1 -20   0    7.25    0.84 
  -1  20   0    7.50    1.92 
   1  20   0    5.58    1.25 
  -2 -20   0   -0.42    0.44 
   2 -20   0   -0.19    0.47 
   2  20   0    0.27    1.00 
  -2  20   0   -0.35    1.48 
  -3 -20   0    3.84    0.75 
  -3  20   0   11.13    2.21 
   3  20   0    1.13    1.08 
  -4 -20   0    0.33    0.59 
   4  20   0   -2.22    0.98 
  -4  20   0    3.21    1.30 
   0 -21   0   -0.57    0.33 
   0  21   0   -0.56    0.92 
  -1 -21   0    0.22    0.40 
   1 -21   0   -0.19    0.43 
  -1  21   0    1.75    1.57 
   1  21   0   -0.28    0.90 
  -2 -21   0    0.13    0.45 
   2 -21   0   -0.09    0.49 
  -2  21   0    2.06    1.67 
   2  21   0   -0.63    1.09 
  -3 -21   0    3.72    0.74 
   3  21   0    1.13    1.09 
  -3  21   0    8.75    2.25 
   0 -22   0    0.84    0.46 
   0  22   0    0.58    1.17 
  -1 -22   0    0.61    0.51 
   1 -22   0    1.38    0.55 
  -1  22   0    1.73    1.85 
   1  22   0    0.50    1.09 
  -2 -22   0    3.61    0.68 
   2 -22   0    3.88    0.75 
   2  22   0    2.50    1.41 
  -2  22   0    3.36    1.85 
  -3 -22   0    0.00    0.53 
   3  22   0    0.08    1.12 
  -3  22   0    3.94    1.61 
   0 -23   0   -0.21    0.42 
   0  23   0    1.04    1.30 
   1 -23   0    0.60    0.50 
  -1 -23   0    0.42    0.52 
  -1  23   0    2.12    1.59 
   1  23   0    0.50    1.19 
   2 -23   0    0.58    0.58 
  -2 -23   0    0.39    0.54 
   2  23   0    0.52    0.95 
  -2  23   0    1.92    1.72 
  -3 -23   0   -0.17    0.54 
   3  23   0   -0.13    1.14 
   0 -24   0    0.46    0.48 
   0  24   0   -0.11    1.43 
   1 -24   0    0.66    0.55 
  -1 -24   0    1.10    0.55 
  -1  24   0    1.35    1.54 
   1  24   0    0.21    0.94 
  -2 -24   0   -0.08    0.54 
   2 -24   0    0.44    0.62 
  -2  24   0   -0.27    1.67 
   2  24   0   -0.98    0.87 
   0 -25   0   -0.05    0.47 
   0  25   0   -0.32    1.13 
   1 -25   0   -0.22    0.50 
  -1 -25   0   -0.05    0.53 
   1  25   0   -0.13    0.97 
  -1  25   0    1.10    1.69 
   0  26   0    0.72    1.33 
   6   0  -1   -0.36    0.88 
  -5   0   1    5.23    0.69 
   5   0  -1    4.68    0.99 
  -4   0   1   -0.06    0.37 
   4   0  -1    0.40    0.56 
  -3   0   1   69.71    3.75 
  -3   0   1   73.12    5.85 
   3   0  -1   63.87    4.65 
  -2   0   1   -0.32    0.22 
   2   0  -1    0.09    0.28 
   1   0  -1   66.43    3.47 
  -1   0   1   65.46    3.48 
   0   0   1   -0.12    0.13 
   0   0  -1   -0.25    0.09 
   0   0  -1   -0.35    0.13 
  -1   0  -1    2.23    0.39 
   1   0   1    3.53    0.44 
  -2   0  -1   -0.09    0.31 
   2   0   1   -0.10    0.21 
  -2   0  -1   -0.18    0.15 
   3   0   1    1.15    0.40 
  -3   0  -1    1.22    0.26 
  -3   0  -1    0.93    0.49 
   4   0   1    0.24    0.45 
  -4   0  -1    0.55    0.51 
   5   0   1    1.00    0.61 
   6   0   1   -1.21    0.67 
   6  -1  -1   -0.62    0.87 
   6   1  -1   -0.25    0.90 
  -5  -1   1    1.10    0.45 
   5  -1  -1    1.55    0.76 
  -5   1   1    0.96    0.46 
   5   1  -1    0.78    0.71 
   4  -1  -1    2.20    0.69 
  -4  -1   1    2.34    0.51 
   4   1  -1    3.00    0.71 
  -4   1   1    2.66    0.49 
  -3  -1   1    0.91    0.31 
   3  -1  -1    1.20    0.46 
  -3  -1   1    0.99    0.33 
   3   1  -1    0.94    0.43 
  -3   1   1    0.92    0.31 
  -3   1   1    0.77    0.31 
   2  -1  -1    7.26    0.80 
   2  -1  -1    6.87    0.59 
  -2  -1   1    7.21    0.58 
  -2   1   1    7.44    0.59 
   2   1  -1    7.25    0.75 
   1  -1  -1   81.80    3.95 
   1   1  -1   65.48    4.94 
  -1   1   1   76.82    3.94 
   0  -1   1    9.83    0.72 
   0  -1  -1    9.30    0.71 
   0   1  -1    9.24    0.72 
   1  -1   1   17.85    1.30 
  -1  -1  -1   18.76    1.75 
  -1  -1  -1   18.32    0.99 
   1   1   1   18.28    1.30 
  -1   1  -1   17.31    1.75 
  -2  -1  -1   24.35    2.35 
  -2  -1  -1   25.77    1.37 
   2  -1   1   24.62    1.78 
  -2   1  -1   22.76    2.34 
   2   1   1   26.21    1.80 
  -2   1  -1   23.81    1.34 
   3  -1   1   35.85    2.58 
  -3  -1  -1   37.70    1.99 
  -3  -1  -1   34.30    3.35 
  -3   1  -1   34.16    1.95 
  -3   1  -1   36.58    3.39 
   3   1   1   36.16    2.59 
   4  -1   1    4.02    0.71 
  -4  -1  -1    4.18    0.81 
   4   1   1    4.53    0.74 
  -4   1  -1    4.45    0.82 
   5  -1   1   -0.18    0.52 
   5   1   1   -1.22    0.48 
   6  -1   1    1.28    0.84 
   6   1   1    0.57    0.83 
   6  -2  -1   -0.45    0.92 
   6   2  -1   -0.48    0.87 
   5  -2  -1   -0.25    0.76 
  -5  -2   1    0.34    0.40 
  -5   2   1   -0.08    0.43 
   5   2  -1   -0.05    0.66 
  -4  -2   1   19.35    1.37 
   4  -2  -1   22.58    1.90 
  -4   2   1   20.67    1.36 
   4   2  -1   20.08    1.90 
  -3  -2   1    6.11    0.86 
  -3  -2   1    7.79    0.68 
   3  -2  -1    8.51    0.96 
  -3   2   1    7.65    0.64 
   3   2  -1    7.11    0.81 
  -3   2   1    6.66    0.90 
  -2  -2   1    8.21    0.60 
   2  -2  -1    8.09    0.62 
   2  -2  -1    6.58    0.81 
   2   2  -1    6.76    0.79 
  -2   2   1    7.98    0.60 
   1  -2  -1   10.94    1.11 
   1  -2  -1   12.91    0.77 
   1   2  -1   14.18    1.22 
  -1   2   1   12.34    0.80 
   0  -2   1  135.04    6.83 
   0  -2  -1  131.73    6.84 
   0  -2   1  134.35    8.52 
   0   2  -1  125.77    8.51 
  -1  -2  -1   60.97    3.26 
   1  -2   1   60.90    4.10 
  -1  -2  -1   67.94    5.34 
   1   2   1   62.52    4.09 
  -1   2  -1   58.85    5.32 
   2  -2   1    0.21    0.24 
  -2  -2  -1    0.14    0.19 
  -2  -2  -1    0.01    0.31 
   2   2   1    0.38    0.24 
  -2   2  -1   -0.07    0.36 
  -2   2  -1    0.18    0.15 
   3  -2   1    2.82    0.51 
  -3  -2  -1    2.32    0.35 
  -3  -2  -1    1.98    0.50 
  -3   2  -1    1.87    0.51 
   3   2   1    2.81    0.51 
  -4  -2  -1    1.45    0.64 
   4  -2   1    1.24    0.50 
  -4   2  -1    0.83    0.60 
   4   2   1    1.20    0.52 
   5  -2   1    2.37    0.72 
   5   2   1    1.99    0.71 
   6  -2   1   -0.38    0.68 
   6   2   1   -0.80    0.71 
   6  -3  -1    0.70    0.96 
   6   3  -1    1.24    0.97 
  -5  -3   1   14.05    1.09 
   5  -3  -1   16.08    1.71 
  -5   3   1   14.14    1.12 
   5   3  -1   13.09    1.69 
   4  -3  -1   -0.10    0.58 
  -4  -3   1   -0.56    0.34 
   4   3  -1    0.28    0.56 
  -4   3   1   -0.47    0.39 
  -3  -3   1    3.74    0.45 
  -3  -3   1    2.14    0.33 
   3  -3  -1    3.80    0.62 
   3  -3  -1    2.73    0.40 
   3   3  -1    1.21    0.42 
   3   3  -1    3.71    0.55 
  -3   3   1    1.63    0.32 
  -3   3   1    3.34    0.42 
   2  -3  -1    3.54    0.48 
  -2  -3   1    3.52    0.40 
   2  -3  -1    3.09    0.38 
   2   3  -1    2.94    0.45 
  -2   3   1    3.04    0.38 
   1  -3  -1  102.01    6.92 
   1  -3  -1  110.59    5.57 
   0  -3   1    0.65    0.21 
   0  -3  -1    0.50    0.17 
   0  -3   1    0.65    0.16 
   0   3  -1    0.44    0.21 
  -1  -3  -1    0.29    0.16 
   1  -3   1    0.20    0.12 
   1  -3   1    0.11    0.19 
  -1  -3  -1    0.36    0.32 
  -1   3  -1    0.28    0.40 
   1   3   1    0.39    0.18 
   2  -3   1    4.71    0.64 
  -2  -3  -1    6.42    0.51 
  -2  -3  -1    4.46    0.69 
   2   3   1    5.18    0.65 
  -2   3  -1    5.23    0.40 
  -3  -3  -1    0.06    0.28 
   3  -3   1    0.16    0.35 
  -3  -3  -1    0.27    0.47 
  -3   3  -1   -0.04    0.49 
   3   3   1    0.18    0.34 
   4  -3   1   -0.21    0.40 
  -4  -3  -1   -0.11    0.48 
  -4   3  -1    0.00    0.51 
   4   3   1   -0.35    0.42 
   5  -3   1    1.99    0.68 
   5   3   1    0.19    0.61 
   6  -3   1   -0.16    0.73 
   6   3   1   -0.83    0.74 
   6  -4  -1   -0.60    0.91 
   6   4  -1    0.00    0.87 
  -5  -4   1    3.36    0.55 
   5  -4  -1    2.80    0.92 
  -5   4   1    2.56    0.55 
   5   4  -1    2.88    0.85 
  -4  -4   1    0.01    0.37 
   4  -4  -1    0.48    0.63 
   4   4  -1   -0.21    0.30 
  -4   4   1   -0.27    0.41 
   4   4  -1    0.03    0.56 
   3  -4  -1    0.65    0.48 
  -3  -4   1    0.51    0.26 
   3  -4  -1    0.72    0.33 
  -3  -4   1    0.57    0.32 
   3   4  -1    0.57    0.40 
   3   4  -1    0.56    0.25 
  -3   4   1    1.26    0.41 
  -3   4   1    0.64    0.33 
   2  -4  -1    6.85    0.58 
  -2  -4   1    6.04    0.58 
   2  -4  -1    6.63    0.74 
  -2   4   1    6.04    0.57 
   1  -4  -1    0.20    0.25 
  -1  -4   1    0.12    0.24 
   1  -4  -1    0.75    0.36 
   1   4  -1    0.35    0.52 
   0  -4  -1  135.98    7.62 
   0  -4  -1  141.88   12.18 
   0  -4   1  156.68    7.61 
   0   4  -1  150.03    9.47 
   0   4   1  147.91   12.21 
   1  -4   1   12.19    0.73 
  -1  -4  -1   13.67    1.41 
  -1  -4  -1   11.92    0.77 
   1  -4   1   12.44    0.97 
  -1   4  -1   11.51    1.50 
   1   4   1   14.16    0.96 
   2  -4   1   14.70    1.22 
   2  -4   1   15.32    0.91 
  -2  -4  -1   14.94    0.96 
  -2  -4  -1   16.53    1.73 
  -2   4  -1   14.10    1.73 
  -2   4  -1   16.53    0.91 
   2   4   1   15.63    1.23 
  -3  -4  -1    0.39    0.30 
  -3  -4  -1    0.30    0.48 
   3  -4   1   -0.22    0.33 
  -3   4  -1   -0.38    0.47 
   3   4   1   -0.12    0.34 
  -4  -4  -1    8.72    1.21 
   4  -4   1    8.04    0.99 
  -4   4  -1    8.35    1.23 
   4   4   1    8.27    1.09 
   5  -4   1    1.18    0.61 
   5   4   1    1.07    0.66 
   6  -4   1    0.36    0.77 
   6   4   1   -1.06    0.74 
   6  -5  -1    3.32    1.03 
   6   5  -1    3.20    1.11 
   5  -5  -1    2.43    0.87 
  -5  -5   1    1.89    0.49 
  -5   5   1    1.36    0.48 
   5   5  -1    2.22    0.78 
   4  -5  -1    0.48    0.63 
  -4  -5   1    0.24    0.38 
  -4   5   1   -0.24    0.41 
   4   5  -1    0.58    0.57 
   4   5  -1    0.05    0.34 
  -3  -5   1    0.16    0.25 
   3  -5  -1    0.35    0.31 
   3  -5  -1    0.31    0.45 
  -3  -5   1    0.52    0.32 
   3   5  -1    0.78    0.39 
  -3   5   1    0.23    0.32 
   3   5  -1    0.31    0.24 
  -3   5   1    0.53    0.44 
  -2  -5   1    5.44    0.68 
  -2  -5   1    4.04    0.44 
   2  -5  -1    4.79    0.55 
   2  -5  -1    4.56    0.46 
   2   5  -1    5.63    0.71 
  -2   5   1    3.21    0.53 
  -2   5   1    4.40    0.47 
  -1  -5   1  277.20   14.40 
   0  -5   1   86.25    4.36 
   0  -5  -1   81.18    7.00 
   0  -5  -1   82.46    4.37 
   0   5   1   80.94    7.04 
   0   5  -1   84.26    7.06 
   1  -5   1   30.98    1.62 
   1  -5   1   27.32    2.04 
  -1  -5  -1   30.95    2.74 
  -1  -5  -1   27.80    1.65 
   1   5   1   29.03    2.82 
  -1   5  -1   28.46    2.83 
   1   5   1   33.91    2.03 
   2  -5   1    2.93    0.43 
   2  -5   1    2.91    0.31 
  -2  -5  -1    2.64    0.35 
  -2  -5  -1    2.34    0.49 
   2   5   1    2.43    0.41 
  -2   5  -1    2.66    0.69 
  -2   5  -1    2.80    0.31 
  -3  -5  -1   10.70    0.85 
   3  -5   1    9.90    1.05 
  -3  -5  -1   11.34    1.60 
  -3   5  -1    9.99    1.59 
   3   5   1   11.30    1.12 
   4  -5   1    8.54    1.02 
  -4  -5  -1    7.99    1.19 
  -4   5  -1    9.75    1.59 
   4   5   1    9.05    1.06 
   5  -5   1   -0.25    0.51 
   5   5   1   -0.84    0.56 
   6  -6  -1   -0.23    0.95 
   6   6  -1    0.31    0.87 
  -5  -6   1    0.28    0.42 
   5  -6  -1    1.71    0.79 
   5   6  -1   -0.07    0.64 
   4  -6  -1   17.69    1.26 
   4  -6  -1   19.86    1.73 
  -4  -6   1   13.85    1.17 
  -4   6   1   17.90    1.20 
   4   6  -1   12.20    1.79 
   4   6  -1   17.53    1.66 
  -3  -6   1    0.16    0.33 
   3  -6  -1   -0.11    0.46 
   3  -6  -1    0.20    0.33 
  -3  -6   1    0.46    0.29 
   3   6  -1    0.88    0.39 
  -3   6   1    0.44    0.34 
   3   6  -1    0.10    0.31 
  -3   6   1    0.27    0.51 
   2  -6  -1    4.54    0.47 
   2  -6  -1    4.45    0.55 
   2   6  -1    3.22    0.49 
  -2   6   1    3.98    0.45 
  -2   6   1    3.74    0.59 
   2   6  -1    6.51    0.76 
   1  -6  -1  200.23   13.10 
   1  -6  -1  195.69   10.59 
  -1   6   1  187.74   16.97 
   1   6  -1  228.37   16.87 
   0  -6  -1   81.54    7.30 
   0  -6   1   90.54    4.55 
   0  -6  -1   91.94    4.57 
   0   6   1   81.88    7.33 
  -1  -6  -1   22.59    1.32 
   1  -6   1   21.71    1.60 
   1  -6   1   24.97    1.29 
  -1  -6  -1   22.09    2.20 
   1   6   1   24.16    1.57 
  -1   6  -1   20.68    2.31 
   1   6   1   21.28    2.25 
  -2  -6  -1   52.42    4.73 
  -2  -6  -1   53.01    2.92 
   2  -6   1   56.45    2.87 
   2  -6   1   51.79    3.62 
  -2   6  -1   53.97    4.83 
   2   6   1   49.68    4.84 
  -2   6  -1   55.90    2.87 
   2   6   1   53.62    3.61 
  -3  -6  -1    1.54    0.40 
  -3  -6  -1    1.79    0.64 
   3  -6   1    1.73    0.49 
  -3   6  -1    1.85    0.75 
   3   6   1    1.65    0.47 
  -4  -6  -1    1.06    0.58 
   4  -6   1    0.84    0.49 
  -4   6  -1    1.06    0.65 
   4   6   1    0.50    0.49 
   5  -6   1    0.90    0.59 
   5   6   1   -0.27    0.63 
   6  -7  -1   -0.85    0.92 
   6   7  -1   -0.07    0.86 
  -5  -7   1    0.93    0.46 
   5  -7  -1    0.30    0.81 
   5   7  -1    0.79    0.70 
   4  -7  -1   -0.11    0.69 
   4  -7  -1   -0.20    0.42 
  -4  -7   1   -0.37    0.43 
  -4   7   1    0.33    0.41 
   4   7  -1   -0.08    0.35 
   4   7  -1    0.35    0.57 
  -3  -7   1   75.38    6.15 
   3  -7  -1   70.97    4.94 
   3  -7  -1   67.29    3.96 
  -3  -7   1   71.17    4.00 
  -3   7   1   69.87    3.97 
   3   7  -1   83.11    4.90 
  -3   7   1   70.94    6.34 
  -3   7   1   71.04    6.34 
   2  -7  -1   40.72    2.34 
   2  -7  -1   39.56    2.85 
  -2   7   1   40.37    3.92 
   2   7  -1   44.68    3.63 
   1  -7  -1   12.06    0.90 
   1  -7  -1   13.31    1.08 
  -1  -7   1   14.44    0.92 
   1   7  -1   14.25    1.57 
  -1   7   1   12.33    1.92 
   0  -7   1   11.05    0.72 
   0  -7  -1   11.58    0.75 
   0  -7  -1   10.19    1.28 
   0   7   1   10.72    1.39 
   0   7  -1   11.33    1.63 
   1  -7   1   25.39    1.79 
   1  -7   1   28.45    1.45 
  -1  -7  -1   24.30    1.48 
  -1  -7  -1   25.39    2.45 
   1   7   1   25.10    2.51 
   1   7   1   25.26    1.75 
  -1   7  -1   25.38    2.59 
  -2  -7  -1    4.28    0.45 
   2  -7   1    4.28    0.40 
  -2  -7  -1    2.70    0.60 
   2  -7   1    4.21    0.52 
  -2   7  -1    3.92    0.91 
   2   7   1    4.11    0.50 
   2   7   1    3.07    0.70 
   3  -7   1    2.71    0.53 
  -3  -7  -1    1.73    0.55 
  -3  -7  -1    2.30    0.44 
  -3   7  -1    2.04    0.82 
   3   7   1    2.39    0.52 
   3   7   1    1.50    0.72 
  -4  -7  -1    5.88    1.01 
   4  -7   1    5.78    0.82 
   4   7   1    6.56    0.89 
  -4   7  -1    6.22    1.09 
   4   7   1    3.80    1.17 
   5  -7   1    0.09    0.54 
   5   7   1   -1.16    0.54 
   6  -8  -1   -0.03    1.04 
   6   8  -1   -0.27    0.86 
  -5  -8   1   10.99    0.98 
   5  -8  -1   11.02    1.40 
   5   8  -1    9.64    1.27 
   4  -8  -1    0.30    0.45 
   4  -8  -1   -0.08    0.65 
  -4  -8   1    0.37    0.45 
   4   8  -1    0.45    0.56 
   4   8  -1    0.29    0.50 
  -4   8   1   -0.02    0.43 
   3  -8  -1    0.80    0.40 
  -3  -8   1    1.05    0.45 
  -3  -8   1    0.86    0.38 
   3  -8  -1    1.62    0.58 
   3   8  -1    0.71    0.42 
  -3   8   1    1.09    0.69 
   3   8  -1    0.93    0.47 
  -3   8   1    0.86    0.41 
  -2  -8   1    0.27    0.30 
   2  -8  -1   -0.26    0.29 
   2  -8  -1    0.10    0.33 
   2   8  -1    0.05    0.43 
  -2   8   1   -0.74    0.75 
   2   8  -1    0.28    0.31 
   1  -8  -1   37.34    2.23 
  -1   8   1   37.42    3.85 
   1   8  -1   44.98    3.62 
   0  -8  -1    4.51    0.71 
   0  -8  -1    5.96    0.54 
   0  -8   1    6.87    0.52 
   0   8  -1    7.08    0.89 
   0   8  -1    7.93    0.57 
   0   8   1    4.78    0.76 
   1  -8   1   36.14    1.87 
  -1  -8  -1   33.70    3.10 
  -1  -8  -1   33.35    1.89 
   1  -8   1   34.44    2.30 
   1   8   1   29.89    3.15 
   1   8   1   33.28    2.24 
  -1   8  -1   32.48    3.25 
  -2  -8  -1   21.72    2.34 
   2  -8   1   22.16    1.66 
   2  -8   1   23.01    1.32 
  -2  -8  -1   22.74    1.40 
   2   8   1   21.66    1.63 
  -2   8  -1   21.87    2.53 
   2   8   1   22.05    2.42 
  -3  -8  -1    9.09    0.82 
   3  -8   1    7.28    0.92 
  -3  -8  -1    7.35    1.10 
   3   8   1    7.62    1.25 
  -3   8  -1    8.11    1.22 
   3   8   1    7.86    0.87 
  -4  -8  -1    0.40    0.61 
   4  -8   1    0.70    0.46 
   4   8   1   -0.29    0.65 
  -4   8  -1    1.00    0.69 
   4   8   1    0.41    0.50 
   5  -8   1    0.17    0.54 
   5   8   1   -1.09    0.57 
   6  -9  -1   -1.56    0.97 
   6   9  -1    0.12    0.83 
  -5  -9   1    0.84    0.45 
   5  -9  -1   -0.02    0.82 
   5   9  -1   -0.52    0.62 
   4  -9  -1    4.91    0.67 
  -4  -9   1    5.20    0.73 
   4  -9  -1    5.90    0.99 
  -4   9   1    5.18    0.65 
   4   9  -1    4.12    0.79 
  -3  -9   1    0.59    0.46 
   3  -9  -1   -0.17    0.39 
  -3  -9   1    0.02    0.37 
   3  -9  -1   -0.37    0.52 
   3   9  -1    0.43    0.45 
   3   9  -1    0.14    0.47 
  -3   9   1   -0.42    0.41 
  -3   9   1    0.21    0.74 
   2  -9  -1   27.72    2.18 
   2  -9  -1   30.50    1.82 
  -2   9   1   31.78    3.41 
   2   9  -1   31.72    2.85 
  -1  -9   1   11.12    0.84 
   1  -9  -1   11.28    0.89 
  -1   9   1   13.53    2.12 
   1   9  -1   13.91    1.60 
   0  -9  -1   13.67    1.86 
   0  -9  -1   17.06    1.06 
   0  -9   1   18.34    1.07 
   0   9   1   14.12    1.95 
   0   9  -1   19.36    1.22 
  -1  -9  -1   56.93    3.05 
  -1  -9  -1   52.52    4.88 
   1  -9   1   61.76    3.02 
   1  -9   1   59.76    3.72 
   1   9   1   50.81    3.64 
  -1   9  -1   57.42    5.01 
   1   9   1   50.98    4.92 
   2  -9   1    0.10    0.28 
  -2  -9  -1    0.08    0.32 
  -2  -9  -1   -0.30    0.45 
   2  -9   1    0.16    0.29 
  -2   9  -1    0.18    0.72 
   2   9   1    0.18    0.44 
   2   9   1    0.00    0.25 
  -3  -9  -1    6.79    1.06 
  -3  -9  -1    7.06    0.74 
   3  -9   1    6.92    0.89 
   3   9   1    6.96    1.24 
  -3   9  -1    6.94    1.18 
   3   9   1    7.00    0.82 
  -4  -9  -1    6.96    1.16 
   4  -9   1    5.56    0.83 
   4   9   1    5.88    0.89 
   4   9   1    7.09    1.29 
  -4   9  -1    6.18    1.16 
   5  -9   1    0.36    0.59 
   5   9   1   -0.64    0.61 
   6 -10  -1   -1.18    1.06 
   6  10  -1   -0.39    0.80 
  -5 -10   1    1.73    0.55 
   5 -10  -1    0.12    0.86 
   5  10  -1    0.50    0.67 
   4 -10  -1   19.67    1.49 
   4 -10  -1   24.04    2.02 
  -4 -10   1   21.34    1.51 
   4  10  -1   20.27    1.88 
  -4  10   1   20.26    1.46 
  -3 -10   1    3.52    0.65 
   3 -10  -1    3.61    0.73 
   3 -10  -1    3.35    0.57 
  -3  10   1    3.49    0.59 
   3  10  -1    2.31    0.66 
   3  10  -1    4.17    0.68 
  -3  10   1    3.86    1.02 
   2 -10  -1   58.63    4.09 
   2 -10  -1   58.99    3.39 
  -2  10   1   62.26    5.74 
   2  10  -1   63.84    5.33 
   1 -10  -1    6.67    0.65 
  -1 -10   1    7.31    0.63 
  -1  10   1    3.84    0.85 
   1  10  -1    4.58    0.74 
   0 -10  -1    2.21    0.37 
   0 -10   1    2.21    0.34 
   0  10   1    1.89    0.53 
   0  10  -1    1.72    0.62 
   0  10  -1    3.00    0.33 
  -1 -10  -1    0.23    0.27 
  -1 -10  -1    0.27    0.31 
   1 -10   1    0.22    0.21 
   1 -10   1   -0.10    0.23 
   1  10   1   -0.13    0.17 
   1  10   1    0.21    0.35 
  -1  10  -1   -0.36    0.65 
  -2 -10  -1    0.18    0.35 
  -2 -10  -1    0.60    0.53 
   2 -10   1   -0.22    0.31 
   2 -10   1   -0.23    0.27 
  -2  10  -1    0.09    0.82 
   2  10   1    0.20    0.28 
   2  10   1    0.11    0.47 
   3 -10   1   -0.07    0.38 
  -3 -10  -1    0.28    0.61 
  -3 -10  -1   -0.52    0.36 
   3  10   1   -0.30    0.41 
   3  10   1    0.03    0.63 
  -3  10  -1   -0.64    0.71 
  -4 -10  -1    2.88    0.90 
   4 -10   1    2.82    0.64 
  -4 -10  -1    3.74    0.59 
  -4  10  -1    3.34    0.93 
   4  10   1    3.36    0.73 
   4  10   1    4.70    1.12 
   5 -10   1    0.55    0.61 
   5  10   1   -0.37    0.67 
   5  10   1    2.41    0.83 
  -6 -11   1    0.60    0.55 
   6 -11  -1   -1.14    1.16 
   6  11  -1    0.22    0.88 
  -5 -11   1    0.06    0.46 
   5 -11  -1   -0.71    0.85 
   5  11  -1   -0.52    0.64 
   4 -11  -1    1.95    0.81 
   4 -11  -1    2.82    0.56 
  -4 -11   1    2.49    0.58 
  -4  11   1    1.82    0.52 
   4  11  -1    1.41    0.65 
   4  11  -1    2.25    0.67 
   3 -11  -1    6.28    0.89 
  -3 -11   1    6.63    0.80 
   3 -11  -1    6.18    0.73 
  -3  11   1    5.92    0.75 
   3  11  -1    9.91    1.16 
  -3  11   1    5.79    1.21 
   3  11  -1    4.13    0.79 
   2 -11  -1   17.85    1.59 
   2 -11  -1   20.25    1.37 
   2  11  -1   22.31    2.22 
  -2  11   1   17.29    3.04 
   1 -11  -1   20.79    1.35 
  -1 -11   1   20.68    1.33 
  -1  11   1   18.99    2.83 
   1  11  -1   23.97    2.32 
   0 -11  -1   12.69    0.93 
   0 -11   1   12.43    0.90 
   0  11   1   11.18    1.90 
   0  11  -1   13.89    0.97 
   1 -11   1    3.07    0.39 
  -1 -11  -1    2.37    0.54 
   1 -11   1    2.75    0.38 
  -1 -11  -1    2.06    0.39 
  -1  11  -1    2.93    0.76 
   1  11   1    1.47    0.55 
  -2 -11  -1    8.63    0.85 
   2 -11   1    9.26    0.78 
   2 -11   1    8.33    0.87 
  -2 -11  -1    6.56    1.04 
  -2  11  -1    7.99    1.32 
   2  11   1    7.66    1.14 
  -3 -11  -1   23.53    1.61 
   3 -11   1   23.02    1.86 
  -3 -11  -1   23.41    2.75 
  -3  11  -1   27.38    3.03 
   3  11   1   22.09    2.87 
   4 -11   1   -0.27    0.43 
  -4 -11  -1    0.39    0.43 
  -4 -11  -1   -0.49    0.59 
   4  11   1   -0.91    0.71 
  -4  11  -1   -0.14    0.65 
   5 -11   1    1.28    0.70 
   5  11   1    3.09    1.05 
   6 -12  -1   -2.22    1.19 
  -6 -12   1    0.21    0.57 
  -5 -12   1    2.20    0.59 
   5 -12  -1    1.68    1.00 
  -4 -12   1    3.95    0.69 
   4 -12  -1    6.30    0.74 
   4 -12  -1    6.75    1.09 
  -4  12   1    5.53    0.75 
   4  12  -1    2.76    0.82 
   4  12  -1    4.67    0.83 
   3 -12  -1    0.73    0.67 
  -3 -12   1    1.27    0.60 
   3 -12  -1    1.06    0.51 
   3  12  -1    0.92    0.67 
  -3  12   1    1.31    1.03 
   3  12  -1    1.23    0.63 
   2 -12  -1    2.87    0.58 
  -2 -12   1    6.60    0.71 
   2 -12  -1    3.58    0.60 
  -2  12   1    4.59    1.47 
   2  12  -1    4.59    0.78 
  -1 -12   1    0.66    0.32 
   1 -12  -1    0.78    0.38 
   1  12  -1    0.75    0.23 
   1  12  -1    0.68    0.48 
  -1  12   1    0.20    0.62 
   0 -12  -1   11.14    0.89 
   0 -12   1   13.30    0.91 
   0 -12   1   10.55    0.85 
   0  12  -1   11.38    0.90 
   1 -12   1   10.76    0.79 
   1 -12   1   10.32    0.86 
  -1 -12  -1    9.63    1.62 
  -1 -12  -1    9.35    0.81 
  -1  12  -1   10.09    1.40 
   1  12   1    7.33    1.20 
  -2 -12  -1    6.13    0.71 
   2 -12   1    5.98    0.77 
   2 -12   1    7.60    0.76 
  -2 -12  -1    4.96    0.90 
   2  12   1    5.13    1.01 
  -2  12  -1    5.30    1.36 
   3 -12   1    0.74    0.44 
  -3 -12  -1    1.04    0.45 
  -3 -12  -1    0.87    0.69 
   3  12   1    0.59    0.67 
  -3  12  -1    1.13    0.94 
   4 -12   1    0.28    0.51 
  -4 -12  -1   -0.10    0.65 
  -4 -12  -1    0.69    0.46 
  -4  12  -1    0.83    0.70 
   4  12   1   -0.05    0.78 
   5 -12   1    0.31    0.67 
   5  12   1    0.53    0.99 
  -5 -13   1    0.48    0.52 
   5 -13  -1   -1.23    0.92 
   4 -13  -1    0.75    0.49 
  -4 -13   1    0.86    0.47 
   4 -13  -1    0.16    0.80 
  -4  13   1    0.72    0.52 
   4  13  -1   -0.50    0.61 
  -3 -13   1    0.16    0.50 
   3 -13  -1   -0.02    0.47 
   3 -13  -1    0.01    0.62 
  -3  13   1    0.58    1.06 
   3  13  -1    0.79    0.69 
   2 -13  -1    0.50    0.45 
  -2 -13   1   -0.01    0.44 
  -2  13   1   -1.44    1.28 
   2  13  -1    0.56    0.55 
  -1 -13   1    1.32    0.43 
   1 -13  -1    2.44    0.46 
  -1  13   1    1.25    0.80 
   1  13  -1    1.60    0.61 
   0 -13   1    3.84    0.47 
   0 -13   1    3.02    0.45 
   0 -13  -1    2.96    0.48 
   0  13   1    2.11    0.76 
   0  13  -1    2.75    0.85 
   1 -13   1    5.81    0.67 
  -1 -13  -1    6.30    0.64 
   1 -13   1    6.31    0.61 
  -1 -13  -1    5.03    0.88 
   1  13   1    5.19    0.97 
  -1  13  -1    6.34    1.21 
  -2 -13  -1    4.07    0.83 
  -2 -13  -1    5.05    0.68 
   2 -13   1    5.03    0.63 
   2 -13   1    5.59    0.65 
  -2  13  -1    3.76    1.33 
   2  13   1    3.70    0.93 
  -3 -13  -1    0.10    0.45 
   3 -13   1    0.19    0.39 
  -3 -13  -1   -0.30    0.58 
  -3  13  -1    1.01    0.86 
   3  13   1   -0.64    0.61 
  -4 -13  -1    2.86    0.98 
   4 -13   1    1.75    0.60 
  -4 -13  -1    3.38    0.61 
  -4  13  -1    4.36    1.14 
   4  13   1    3.70    1.17 
   5 -13   1    1.57    0.80 
   5  13   1    0.05    1.14 
  -5 -14   1   -0.29    0.49 
   4 -14  -1    2.40    0.60 
  -4 -14   1    2.63    0.64 
  -4  14   1    2.92    0.66 
   3 -14  -1   -0.21    0.47 
  -3 -14   1   -0.24    0.46 
  -3  14   1    0.96    1.11 
   3  14  -1   -0.37    0.66 
  -2 -14   1    4.28    0.67 
   2 -14  -1    3.03    0.61 
   2  14  -1    2.94    0.77 
  -2  14   1    3.07    1.68 
  -1 -14   1    0.92    0.45 
   1 -14  -1    1.11    0.45 
   1  14  -1    0.10    0.57 
  -1  14   1    0.37    0.82 
   0 -14   1   13.82    1.01 
   0 -14  -1   13.47    1.05 
   0  14   1   12.91    1.77 
   0  14  -1   19.22    2.61 
   1 -14   1    0.45    0.34 
  -1 -14  -1   -0.43    0.29 
  -1  14  -1   -0.55    1.07 
   1  14   1    0.85    0.63 
   2 -14   1    6.37    0.82 
  -2 -14  -1    6.55    0.76 
  -2 -14  -1    5.19    0.97 
   2  14   1    4.61    1.04 
  -2  14  -1    6.08    1.51 
  -3 -14  -1    0.12    0.45 
  -3 -14  -1   -0.17    0.65 
   3 -14   1    0.19    0.41 
   3  14   1    0.01    0.69 
  -3  14  -1    1.09    0.92 
  -4 -14  -1   -0.40    0.72 
  -4 -14  -1    0.40    0.50 
   4 -14   1    0.50    0.54 
  -4  14  -1    0.30    0.73 
   4  14   1    0.20    0.94 
   5 -14   1   -0.37    0.82 
   5  14   1   -1.43    1.14 
  -5 -15   1    0.52    0.52 
  -4 -15   1    5.80    0.83 
  -4  15   1    5.63    0.86 
   3 -15  -1   11.81    1.25 
  -3 -15   1   16.49    1.28 
  -3  15   1   21.21    2.97 
   3  15  -1   13.40    2.07 
   2 -15  -1    6.03    0.81 
  -2 -15   1    6.67    0.80 
   2  15  -1    4.87    0.98 
  -2  15   1    6.63    1.89 
  -1 -15   1    2.49    0.55 
   1 -15  -1    2.11    0.54 
  -1  15   1    1.53    1.02 
   1  15  -1    1.03    0.67 
   0 -15  -1   -0.12    0.35 
   0 -15   1    0.11    0.32 
   0  15   1    0.28    0.77 
   0  15  -1    0.45    0.80 
  -1 -15  -1   14.82    1.14 
   1 -15   1   15.31    1.11 
  -1  15  -1   14.42    2.10 
   1  15   1   15.84    2.39 
  -2 -15  -1    0.51    0.43 
  -2 -15  -1    0.93    0.72 
  -2  15  -1    1.17    1.17 
   2  15   1    1.12    0.74 
  -3 -15  -1    1.51    0.83 
  -3 -15  -1    1.96    0.58 
  -3  15  -1    3.39    1.20 
   3  15   1    1.55    0.96 
  -4 -15  -1    0.29    0.53 
  -4 -15  -1    0.04    0.76 
  -4  15  -1    2.87    1.14 
   4  15   1   -1.35    0.97 
  -5 -16   1   -0.38    0.46 
  -4 -16   1    0.16    0.48 
  -4  16   1   -0.25    0.54 
   4  16  -1   -1.34    0.74 
   3 -16  -1    1.78    0.62 
  -3 -16   1    2.62    0.59 
   3  16  -1    1.08    0.80 
  -3  16   1    2.48    1.31 
   2 -16  -1   26.52    1.88 
  -2 -16   1   30.45    1.90 
   2  16  -1   26.49    3.03 
  -2  16   1   27.33    4.49 
  -1 -16   1    3.52    0.64 
   1 -16  -1    4.22    0.66 
  -1  16   1    3.59    1.26 
   1  16  -1    2.87    0.83 
   0 -16   1    1.45    0.42 
   0 -16  -1    0.99    0.41 
   0  16  -1    2.13    1.01 
   0  16   1    0.93    0.94 
   1 -16   1    8.39    0.81 
  -1 -16  -1    8.49    0.84 
   1  16   1    5.87    1.27 
  -1  16  -1    9.06    1.69 
  -2 -16  -1    4.34    0.62 
  -2  16  -1    3.61    1.36 
   2  16   1    2.61    0.97 
  -3 -16  -1    4.23    0.69 
  -3 -16  -1    1.93    0.95 
   3  16   1    2.86    1.21 
  -3  16  -1    6.88    1.66 
  -4 -16  -1    0.46    0.52 
  -4 -16  -1    0.58    0.88 
   4  16   1   -0.36    1.17 
  -4  16  -1    2.20    0.97 
  -5 -17   1    0.57    0.55 
  -4 -17   1    0.21    0.45 
  -4  17   1    0.52    0.62 
   4  17  -1   -0.72    0.81 
   3 -17  -1    0.45    0.58 
  -3 -17   1   -0.01    0.49 
   3  17  -1   -0.06    0.75 
  -3  17   1    2.06    1.31 
  -2 -17   1    3.40    0.67 
   2 -17  -1    2.62    0.64 
  -2  17   1    3.75    1.76 
   2  17  -1    2.40    0.77 
   1 -17  -1    0.53    0.43 
  -1 -17   1    0.38    0.41 
   1  17  -1   -0.03    0.68 
  -1  17   1    0.22    1.05 
   0 -17   1   12.24    0.97 
   0 -17  -1   11.31    0.99 
   0  17   1    9.62    1.76 
  -1 -17  -1    2.24    0.52 
   1 -17   1    2.33    0.50 
  -1  17  -1    3.00    1.42 
   1  17   1    1.14    0.89 
  -2 -17  -1    5.43    0.69 
   2  17   1    3.06    1.09 
  -2  17  -1    8.10    1.72 
  -3 -17  -1   -0.29    0.74 
  -3 -17  -1    0.09    0.44 
  -3  17  -1    0.56    1.03 
   3  17   1   -0.55    0.93 
  -4 -17  -1   -0.06    0.52 
  -4 -17  -1   -0.98    0.82 
  -4  17  -1    1.66    0.94 
   4  17   1   -1.07    0.88 
  -5 -18   1    0.24    0.54 
  -4 -18   1   -0.04    0.50 
   4  18  -1   -0.63    0.85 
  -4  18   1   -0.49    0.57 
   3 -18  -1    1.00    0.63 
  -3 -18   1    0.90    0.58 
   3  18  -1    0.56    0.82 
  -3  18   1    5.68    1.74 
  -2 -18   1    8.26    0.94 
   2 -18  -1    7.35    0.89 
   2  18  -1    5.51    1.05 
  -2  18   1    6.74    1.96 
   1 -18  -1    9.50    1.04 
  -1 -18   1   11.96    1.03 
   1  18  -1   14.16    2.05 
  -1  18   1   11.26    1.99 
   0 -18   1    1.50    0.44 
   0 -18  -1    1.39    0.42 
   0  18  -1    2.12    1.17 
   0  18   1    0.70    0.99 
  -1 -18  -1    0.86    0.46 
   1 -18   1    1.39    0.45 
  -1  18  -1    1.40    1.40 
   1  18   1    1.07    0.96 
  -2 -18  -1    1.37    0.50 
   2  18   1    1.44    0.99 
  -2  18  -1    3.12    1.36 
  -3 -18  -1    0.09    0.44 
  -3  18  -1    2.42    1.24 
   3  18   1   -1.17    1.13 
  -4 -18  -1    1.06    0.59 
  -4 -18  -1   -0.83    0.90 
   4  18   1   -1.17    0.97 
  -4  18  -1    3.32    1.07 
  -4 -19   1    0.17    0.53 
   4  19  -1   -0.06    0.93 
  -3 -19   1    0.71    0.55 
   3 -19  -1   -1.14    0.49 
   3  19  -1   -0.59    0.77 
  -3  19   1    3.63    1.58 
  -2 -19   1    0.27    0.51 
   2 -19  -1    0.09    0.51 
   2  19  -1   -0.29    0.69 
  -2  19   1   -0.03    1.61 
   1 -19  -1    0.40    0.47 
  -1 -19   1   -0.25    0.38 
   1  19  -1   -0.39    0.70 
  -1  19   1    0.26    1.14 
   0 -19  -1    0.07    0.38 
   0 -19   1    0.13    0.37 
   0  19  -1    1.64    1.14 
   0  19   1   -0.20    0.96 
   1 -19   1    9.04    0.88 
  -1 -19  -1    7.94    0.82 
   1  19   1    4.71    1.44 
  -1  19  -1    9.68    1.91 
  -2 -19  -1    0.23    0.44 
  -2  19  -1    1.38    1.25 
   2  19   1   -1.48    0.95 
  -3 -19  -1    0.31    0.47 
   3  19   1   -1.54    1.22 
  -3  19  -1    6.40    1.72 
  -4 -19  -1    0.28    0.55 
   4  19   1   -0.37    1.23 
  -4 -20   1   -0.59    0.53 
   4  20  -1   -0.78    0.92 
  -3 -20   1    1.04    0.60 
   3 -20  -1    0.04    0.59 
  -3  20   1    3.07    1.55 
   3  20  -1   -0.28    0.81 
  -2 -20   1    1.01    0.59 
   2 -20  -1    1.40    0.60 
   2  20  -1    1.23    0.85 
  -2  20   1    0.65    1.73 
   1 -20  -1    1.52    0.55 
  -1 -20   1    1.22    0.48 
  -1  20   1    1.01    1.34 
   1  20  -1    0.40    0.83 
   0 -20   1    0.35    0.40 
   0 -20  -1   -0.18    0.38 
   0  20  -1    1.23    1.14 
   0  20   1   -0.21    1.05 
  -1 -20  -1    0.22    0.46 
   1 -20   1    0.30    0.42 
   1  20   1   -0.68    1.08 
  -1  20  -1    1.51    1.32 
  -2 -20  -1    0.08    0.46 
   2  20   1   -0.30    1.21 
  -2  20  -1    1.52    1.24 
  -3 -20  -1   -0.06    0.46 
   3  20   1   -0.85    1.02 
  -3  20  -1    4.51    1.48 
  -4 -21   1    0.15    0.62 
   4  21  -1   -0.62    0.99 
   3 -21  -1    0.81    0.68 
  -3 -21   1    0.81    0.62 
   3  21  -1   -0.06    0.79 
  -3  21   1    3.81    1.65 
  -2 -21   1    0.34    0.53 
   2 -21  -1    0.11    0.52 
   2  21  -1    0.31    0.91 
  -2  21   1    0.90    1.75 
   1 -21  -1    0.85    0.52 
  -1 -21   1    0.33    0.42 
  -1  21   1    0.38    1.44 
   1  21  -1    0.36    0.92 
   0 -21  -1    0.95    0.45 
   0 -21   1    1.37    0.49 
   0  21  -1    1.74    1.29 
   0  21   1   -0.92    1.11 
   1 -21   1    0.21    0.46 
  -1 -21  -1    0.65    0.50 
   1  21   1    0.37    1.25 
  -1  21  -1    1.27    1.53 
  -2 -21  -1   -0.51    0.45 
  -2  21  -1    0.81    1.20 
   2  21   1   -1.82    1.29 
  -3 -21  -1   -0.09    0.49 
  -3  21  -1    2.48    1.48 
   3  21   1   -1.06    1.11 
  -3 -22   1    0.48    0.64 
   3 -22  -1   -0.66    0.57 
  -3  22   1    1.33    1.65 
   3  22  -1    0.78    0.83 
  -2 -22   1   -0.39    0.47 
   2 -22  -1   -0.40    0.47 
   2  22  -1   -0.45    0.76 
  -2  22   1    0.53    1.90 
   1 -22  -1    0.52    0.50 
  -1 -22   1   -0.14    0.43 
  -1  22   1   -0.68    1.55 
   1  22  -1    0.37    1.04 
   0 -22  -1    0.59    0.46 
   0 -22   1    0.11    0.43 
   0  22  -1    1.17    1.37 
   0  22   1   -0.81    1.23 
   1 -22   1    0.50    0.47 
  -1 -22  -1    1.90    0.56 
  -1  22  -1    2.05    1.72 
   1  22   1    0.04    1.38 
  -2 -22  -1   -0.07    0.46 
   2  22   1   -3.19    1.47 
  -2  22  -1    1.19    1.30 
  -3 -22  -1    0.33    0.56 
   3  22   1   -2.80    1.14 
  -3 -23   1    0.69    0.67 
   3 -23  -1    0.58    0.65 
  -3  23   1    2.60    1.80 
   3  23  -1    0.02    0.89 
  -2 -23   1    0.82    0.54 
   2 -23  -1    0.31    0.53 
   2  23  -1    0.33    0.81 
  -2  23   1    0.69    1.85 
  -1 -23   1    0.22    0.46 
   1 -23  -1   -0.23    0.50 
   1  23  -1    1.35    1.25 
  -1  23   1    0.09    1.30 
   0 -23   1   -0.09    0.41 
   0 -23  -1    0.59    0.51 
   0  23  -1    1.66    1.60 
   0  23   1   -0.88    1.40 
  -1 -23  -1   -0.51    0.39 
   1 -23   1   -0.76    0.38 
  -1  23  -1    0.17    1.32 
   1  23   1   -1.34    1.51 
  -2 -23  -1    1.50    0.66 
  -2  23  -1    7.19    2.30 
   2  23   1    0.45    1.29 
   2 -24  -1   -0.51    0.54 
  -2 -24   1   -0.05    0.45 
  -2  24   1    1.11    2.01 
   2  24  -1    0.80    0.90 
   1 -24  -1   -0.02    0.49 
  -1 -24   1   -0.59    0.44 
  -1  24   1    0.53    1.43 
   1  24  -1    1.24    1.05 
   0 -24  -1    0.63    0.53 
   0 -24   1    0.59    0.47 
   0  24   1    0.81    1.17 
   0  24  -1    1.18    1.26 
  -1 -24  -1   -0.03    0.49 
   1 -24   1   -0.05    0.48 
   1  24   1   -0.25    1.11 
  -1  24  -1    0.48    1.36 
   2  24   1    0.05    1.33 
   1 -25  -1   -0.60    0.51 
  -1 -25   1   -0.44    0.47 
   1  25  -1    1.91    1.12 
  -1  25   1    0.35    1.53 
   0 -25   1    0.26    0.46 
   0 -25  -1    0.26    0.53 
   0  25  -1    2.53    1.42 
   0  25   1    0.07    1.15 
  -1 -25  -1   -0.25    0.51 
   1  25   1   -1.11    1.12 
  -1  25  -1   -0.05    1.34 
   7   0  -2   -1.93    0.98 
   6   0  -2   28.55    2.70 
  -6   0   2   31.33    2.01 
  -5   0   2   -0.23    0.41 
   5   0  -2    0.64    0.73 
  -4   0   2   37.29    2.15 
   4   0  -2   34.09    2.77 
   3   0  -2   -0.19    0.41 
  -3   0   2   -0.18    0.25 
  -2   0   2   -0.01    0.24 
   2   0  -2    0.56    0.44 
   1   0  -2   -0.33    0.23 
   1   0  -2   -0.30    0.39 
  -1   0   2   -0.98    0.23 
   0   0  -2  284.92   24.12 
   0   0  -2  284.06   18.79 
   0   0   2  302.52   15.07 
   0   0   2  286.89   18.79 
   0   0  -2  298.17   15.07 
  -1   0  -2   -0.16    0.20 
   1   0   2   -0.15    0.19 
  -1   0  -2   -0.53    0.27 
  -2   0  -2   29.86    2.99 
   2   0   2   31.63    2.24 
   3   0   2   -0.04    0.39 
  -3   0  -2   -0.41    0.47 
  -4   0  -2   49.19    4.58 
   4   0   2   46.98    3.48 
  -5   0  -2   -0.45    0.57 
   5   0   2   -0.33    0.50 
   7  -1  -2   -0.53    1.10 
   7   1  -2   -1.77    1.01 
  -6  -1   2    4.40    0.74 
   6  -1  -2    4.27    1.28 
  -6   1   2    5.04    0.75 
   6   1  -2    4.98    1.18 
   5  -1  -2   23.44    2.26 
  -5  -1   2   25.88    1.66 
   5   1  -2   22.73    2.22 
  -5   1   2   24.40    1.64 
  -4  -1   2    0.12    0.40 
   4  -1  -2   -0.53    0.56 
   4   1  -2    0.04    0.55 
  -4   1   2    0.03    0.39 
  -3  -1   2    0.26    0.30 
   3  -1  -2    0.59    0.44 
   3   1  -2    0.05    0.42 
  -3   1   2   -0.01    0.29 
  -2  -1   2  200.56   10.44 
   2  -1  -2  198.68   10.44 
   2  -1  -2  202.16   13.00 
  -2   1   2  197.87   10.44 
   2   1  -2  199.84   13.00 
   1  -1  -2  975.82   48.18 
   1  -1  -2  881.80   60.07 
  -1  -1   2  915.28   48.22 
   1   1  -2  893.18   60.07 
  -1   1   2 1000.00   48.19 
   0  -1  -2  355.03   17.87 
   0  -1  -2  335.03   22.26 
   0  -1   2  358.43   17.86 
   0  -1  -2  335.14   28.57 
   0  -1   2  345.94   22.26 
   0   1   2  349.72   22.26 
   0   1   2  367.94   17.88 
   0   1  -2  329.69   28.58 
   0   1  -2  333.09   22.26 
  -1  -1  -2    0.40    0.34 
  -1  -1  -2    0.38    0.14 
   1  -1   2    0.92    0.27 
  -1  -1  -2    0.50    0.24 
  -1   1  -2    0.72    0.40 
  -1   1  -2    0.57    0.26 
   1   1   2    0.63    0.25 
   2  -1   2   13.84    1.20 
  -2  -1  -2   14.00    1.66 
  -2  -1  -2   14.28    0.81 
  -2   1  -2   13.43    1.68 
   2   1   2   13.68    1.19 
  -3  -1  -2   20.08    2.27 
   3  -1   2   19.80    1.66 
   3   1   2   20.15    1.67 
  -3   1  -2   19.87    2.31 
   4  -1   2    0.38    0.49 
  -4  -1  -2    1.43    0.68 
   4   1   2    1.50    0.54 
  -4   1  -2    1.81    0.69 
   5  -1   2   -0.05    0.53 
  -5  -1  -2    0.24    0.67 
  -5   1  -2   -0.06    0.61 
   5   1   2   -0.27    0.54 
   7  -2  -2   -1.17    1.16 
   7   2  -2    0.58    1.11 
   6  -2  -2   -0.61    0.98 
  -6  -2   2   -0.22    0.42 
  -6   2   2   -0.41    0.44 
   6   2  -2   -0.58    0.82 
   5  -2  -2    0.42    0.80 
  -5  -2   2    0.45    0.46 
  -5   2   2    0.80    0.46 
   5   2  -2    0.87    0.70 
  -4  -2   2    0.52    0.44 
   4  -2  -2    0.46    0.64 
   4   2  -2    0.97    0.58 
  -4   2   2    0.42    0.42 
   3  -2  -2    9.17    0.73 
   3  -2  -2    8.51    1.08 
  -3  -2   2    9.42    0.75 
   3   2  -2    8.12    0.92 
  -3   2   2    8.67    0.75 
  -2  -2   2   74.29    3.82 
   2  -2  -2   71.55    4.77 
   2  -2  -2   67.70    3.81 
  -2   2   2   71.87    3.82 
   2   2  -2   68.86    4.78 
   1  -2  -2   77.95    4.18 
  -1  -2   2   71.31    4.15 
   1  -2  -2   82.71    5.20 
  -1   2   2   79.13    4.18 
   1   2  -2   81.42    5.22 
   0  -2  -2    0.18    0.32 
   0  -2   2    0.38    0.16 
   0  -2  -2    0.35    0.23 
   0  -2   2    0.67    0.28 
   0  -2  -2    0.52    0.19 
   0   2  -2    0.26    0.34 
   0   2   2    0.49    0.24 
   0   2  -2    0.36    0.25 
  -1  -2  -2    9.36    1.29 
  -1  -2  -2   11.46    0.67 
   1  -2   2   11.30    0.94 
  -1   2  -2    9.78    1.34 
  -1   2  -2   10.51    0.96 
   1   2   2   11.06    0.92 
  -2  -2  -2   -0.10    0.37 
  -2  -2  -2   -0.16    0.17 
   2  -2   2   -0.07    0.27 
   2   2   2   -0.15    0.23 
  -2   2  -2   -0.41    0.39 
   3  -2   2    7.14    0.86 
  -3  -2  -2    6.19    1.00 
  -3   2  -2    6.03    1.02 
   3   2   2    6.96    0.86 
  -4  -2  -2    0.03    0.55 
   4  -2   2   -0.57    0.39 
  -4   2  -2    0.25    0.59 
   4   2   2   -0.39    0.40 
  -5  -2  -2    3.68    1.08 
   5  -2   2    2.70    0.72 
   5   2   2    2.73    0.79 
  -5   2  -2    3.45    1.03 
  -6  -3   2    4.19    0.68 
   6  -3  -2    2.21    1.18 
  -6   3   2    3.99    0.70 
   6   3  -2    1.72    0.95 
  -5  -3   2    7.22    0.80 
   5  -3  -2    7.75    1.22 
   5   3  -2    6.02    1.05 
  -5   3   2    6.85    0.78 
  -4  -3   2    0.55    0.42 
   4  -3  -2    0.37    0.65 
   4   3  -2    0.16    0.54 
  -4   3   2    0.17    0.37 
   3  -3  -2   11.38    0.89 
  -3  -3   2   11.48    0.90 
   3  -3  -2   10.52    1.23 
   3   3  -2    9.88    1.19 
  -3   3   2   11.43    0.83 
  -2  -3   2   10.93    0.70 
   2  -3  -2    7.87    1.06 
   2  -3  -2    7.80    0.66 
  -2   3   2    8.12    0.67 
   2   3  -2    8.74    0.93 
   1  -3  -2  435.76   22.63 
   1  -3  -2  440.15   28.12 
  -1  -3   2  444.73   22.62 
   1   3  -2  422.61   28.14 
  -1   3   2  442.23   22.64 
   0  -3   2    2.57    0.25 
   0  -3  -2    2.31    0.45 
   0  -3  -2    3.15    0.38 
   0  -3   2    3.31    0.43 
   0  -3  -2    2.50    0.30 
   0   3   2    3.55    0.39 
   0   3  -2    2.02    0.46 
  -1  -3  -2    2.28    0.25 
   1  -3   2    2.31    0.39 
  -1  -3  -2    2.06    0.45 
   1   3   2    2.37    0.36 
  -1   3  -2    1.80    0.47 
  -1   3  -2    2.77    0.41 
  -2  -3  -2    1.04    0.24 
   2  -3   2    0.62    0.33 
  -2  -3  -2    1.35    0.52 
   2   3   2    1.28    0.33 
  -2   3  -2    0.33    0.51 
  -3  -3  -2    3.00    0.73 
   3  -3   2    4.43    0.68 
  -3   3  -2    4.03    0.84 
   3   3   2    5.06    0.71 
   4  -3   2    0.20    0.43 
  -4  -3  -2    0.68    0.62 
  -4   3  -2    0.19    0.60 
   4   3   2   -0.49    0.41 
   5  -3   2   -0.66    0.48 
  -5  -3  -2   -0.16    0.62 
   5   3   2   -0.45    0.51 
  -5   3  -2   -0.16    0.60 
  -6  -4   2   11.61    1.02 
   6  -4  -2    8.58    1.63 
  -6   4   2   11.51    1.06 
   6   4  -2    9.84    1.46 
   5  -4  -2    6.85    1.19 
  -5  -4   2    7.24    0.80 
   5   4  -2    6.53    1.06 
  -5   4   2    6.52    0.79 
  -4  -4   2   10.50    0.92 
   4  -4  -2   10.65    0.99 
   4  -4  -2   13.31    1.51 
  -4   4   2   10.01    0.93 
   4   4  -2    9.82    1.14 
  -3  -4   2    5.25    0.58 
   3  -4  -2    6.89    0.81 
   3  -4  -2    5.04    0.58 
   3   4  -2    4.64    0.71 
  -3   4   2    5.07    0.56 
   2  -4  -2   59.22    3.99 
   2  -4  -2   58.85    3.19 
  -2   4   2   59.19    3.20 
   2   4  -2   55.81    3.99 
   1  -4  -2   54.01    3.55 
   1  -4  -2   52.93    2.88 
  -1  -4   2   52.20    2.86 
   1  -4  -2   51.56    4.55 
  -1   4   2   54.63    4.60 
   1   4  -2   52.61    3.58 
   0  -4  -2   49.06    4.12 
   0  -4  -2   47.16    3.13 
   0  -4   2   47.46    3.16 
   0  -4  -2   46.26    2.53 
   0  -4   2   47.01    2.49 
   0   4  -2   44.26    4.12 
   0   4  -2   44.56    3.15 
   0   4   2   47.91    3.12 
  -1  -4  -2    0.76    0.43 
  -1  -4  -2    0.61    0.20 
   1  -4   2    0.55    0.28 
  -1   4  -2    0.96    0.30 
   1   4   2    0.73    0.25 
  -1   4  -2    1.02    0.52 
   2  -4   2   18.20    1.49 
  -2  -4  -2   19.10    1.13 
  -2  -4  -2   19.56    2.09 
  -2   4  -2   18.32    2.13 
   2   4   2   17.62    1.45 
   3  -4   2   19.39    1.67 
  -3  -4  -2   20.76    2.36 
  -3   4  -2   22.86    2.46 
   3   4   2   19.10    1.69 
   4  -4   2   26.20    2.19 
  -4  -4  -2   27.65    3.03 
   4   4   2   28.34    2.25 
  -4   4  -2   30.59    3.13 
   5  -4   2    1.30    0.63 
  -5  -4  -2    2.45    0.87 
   5   4   2    1.18    0.69 
  -5   4  -2    0.97    0.77 
   6  -5  -2    3.61    1.30 
  -6  -5   2    4.15    0.67 
   6   5  -2    4.17    1.06 
  -6   5   2    4.27    0.73 
   5  -5  -2    0.04    0.96 
  -5  -5   2    1.20    0.46 
   5   5  -2    0.80    0.67 
  -5   5   2    1.02    0.46 
   4  -5  -2    2.19    0.79 
   4  -5  -2    1.72    0.48 
  -4  -5   2    2.28    0.54 
  -4   5   2    1.37    0.47 
   4   5  -2    1.15    0.61 
   3  -5  -2   31.20    2.00 
   3  -5  -2   32.09    2.56 
  -3  -5   2   38.10    2.06 
  -3   5   2   35.60    3.08 
   3   5  -2   40.17    2.57 
  -3   5   2   30.21    2.01 
   2  -5  -2   44.89    3.15 
   2  -5  -2   41.91    2.51 
  -2   5   2   42.11    2.51 
   2   5  -2   50.75    3.19 
   1  -5  -2    0.57    0.29 
  -1  -5   2    0.41    0.23 
   1  -5  -2    0.32    0.24 
   1  -5  -2    0.04    0.24 
  -1   5   2    0.18    0.25 
   1   5  -2    0.51    0.30 
   1   5  -2    0.42    0.37 
   0  -5   2    5.82    0.55 
   0  -5  -2    4.29    0.40 
   0  -5  -2    4.15    0.44 
   0  -5  -2    3.48    0.57 
   0  -5   2    3.71    0.37 
   0   5  -2    4.41    0.66 
   0   5  -2    3.90    0.49 
   0   5   2    4.18    0.42 
   0   5   2    3.10    0.59 
   1  -5   2   81.06    5.39 
   1  -5   2   84.65    4.22 
  -1  -5  -2   77.30    4.30 
  -1  -5  -2   84.10    7.02 
  -1   5  -2   78.31    5.38 
  -1   5  -2   81.50    7.04 
   1   5   2   81.04    5.34 
  -2  -5  -2    0.78    0.54 
  -2  -5  -2    1.30    0.30 
   2  -5   2    1.13    0.38 
   2   5   2    1.20    0.35 
  -2   5  -2    2.15    0.71 
  -3  -5  -2    2.26    0.63 
   3  -5   2    2.66    0.57 
   3   5   2    2.12    0.54 
  -3   5  -2    2.31    0.71 
  -4  -5  -2    0.37    0.60 
   4  -5   2    0.92    0.53 
   4   5   2    0.91    0.53 
  -4   5  -2    2.25    0.82 
   5  -5   2    1.49    0.63 
  -5  -5  -2    1.05    0.88 
   5   5   2    0.54    0.66 
  -5   5  -2    1.23    0.84 
  -6  -6   2    1.98    0.62 
   6  -6  -2    0.75    1.19 
   6   6  -2    2.42    0.96 
   5  -6  -2   -0.72    0.94 
  -5  -6   2    1.14    0.46 
  -5   6   2    0.48    0.45 
   5   6  -2    0.74    0.69 
  -4  -6   2   14.50    1.12 
   4  -6  -2   13.26    1.12 
   4  -6  -2   16.38    1.73 
   4   6  -2   11.66    1.48 
  -4   6   2   13.19    1.08 
  -3  -6   2   11.65    0.89 
   3  -6  -2   10.06    0.94 
   3  -6  -2   11.87    1.33 
  -3   6   2   12.05    0.94 
  -3   6   2   12.81    1.42 
   3   6  -2    8.97    1.18 
  -2  -6   2    0.02    0.25 
   2  -6  -2   -0.32    0.45 
   2  -6  -2   -0.32    0.28 
   2   6  -2   -0.29    0.47 
   2   6  -2    0.40    0.46 
  -2   6   2    0.12    0.31 
  -2   6   2    0.71    0.86 
   1  -6  -2    0.22    0.27 
  -1  -6   2    0.26    0.23 
   1  -6  -2    0.53    0.26 
   1  -6  -2    0.60    0.27 
   1   6  -2    0.38    0.26 
   1   6  -2    0.70    0.42 
  -1   6   2    0.23    0.47 
   0  -6  -2    4.25    0.43 
   0  -6  -2    4.03    0.48 
   0  -6   2    3.85    0.36 
   0  -6  -2    3.29    0.58 
   0  -6   2    4.49    0.50 
   0   6   2    3.89    0.64 
   0   6  -2    3.63    0.66 
   0   6   2    3.76    0.46 
   0   6  -2    4.82    0.52 
   1  -6   2    2.94    0.44 
  -1  -6  -2    2.35    0.33 
  -1  -6  -2    1.77    0.47 
   1  -6   2    2.56    0.25 
  -1   6  -2    2.60    0.42 
  -1   6  -2    1.95    0.55 
   1   6   2    2.29    0.34 
   2  -6   2   33.70    2.53 
  -2  -6  -2   36.28    2.00 
  -2  -6  -2   35.70    3.41 
  -2   6  -2   35.84    3.49 
   2   6   2   34.48    2.49 
   3  -6   2    5.59    0.77 
  -3  -6  -2    4.74    0.93 
  -3   6  -2    6.21    1.10 
   3   6   2    6.78    0.81 
   4  -6   2   11.95    1.28 
  -4  -6  -2   12.92    1.96 
  -4   6  -2   16.17    2.14 
   4   6   2   13.40    1.38 
   5  -6   2    1.14    0.62 
  -5  -6  -2    1.65    0.93 
   5   6   2    0.73    0.71 
  -5   6  -2    2.26    0.92 
  -6  -7   2    6.07    0.79 
   6  -7  -2    3.90    1.37 
   6   7  -2    3.82    1.04 
   5  -7  -2    2.99    0.59 
   5  -7  -2    1.83    1.03 
  -5  -7   2    2.00    0.51 
   5   7  -2    2.00    0.74 
  -5   7   2    2.43    0.58 
   4  -7  -2   13.17    1.50 
   4  -7  -2   11.67    1.09 
  -4  -7   2   11.50    1.06 
  -4   7   2   12.42    1.04 
   4   7  -2   14.79    1.53 
  -3  -7   2    0.26    0.37 
   3  -7  -2    0.80    0.56 
   3  -7  -2    0.61    0.39 
  -3   7   2    0.44    0.40 
   3   7  -2    0.38    0.51 
   3   7  -2    0.14    0.48 
  -3   7   2    1.35    0.60 
   2  -7  -2    5.74    0.62 
   2  -7  -2    7.60    0.80 
  -2   7   2    5.06    0.60 
  -2   7   2    7.06    1.24 
  -1  -7   2    9.09    0.66 
   1  -7  -2    7.34    0.69 
   1  -7  -2    8.37    0.65 
   1  -7  -2    6.78    0.89 
  -1   7   2    6.84    0.93 
   0  -7   2    4.77    0.59 
   0  -7  -2    3.37    0.46 
   0  -7  -2    3.75    0.42 
   0  -7   2    3.78    0.36 
   0  -7  -2    2.98    0.57 
   0   7  -2    4.46    0.51 
   0   7  -2    3.80    0.69 
   0   7   2    3.53    0.43 
   0   7   2    3.48    0.63 
   1  -7   2   14.62    0.86 
  -1  -7  -2   13.88    0.94 
  -1  -7  -2   17.00    1.77 
   1  -7   2   14.91    1.18 
   1   7   2   12.17    1.90 
   1   7   2   14.13    1.11 
  -1   7  -2   13.89    1.85 
  -1   7  -2   14.52    1.18 
  -2  -7  -2    0.84    0.33 
  -2  -7  -2    1.00    0.58 
   2  -7   2    0.79    0.38 
   2   7   2    1.11    0.35 
  -2   7  -2    1.05    0.74 
   3  -7   2   -0.46    0.35 
  -3  -7  -2   -0.04    0.51 
  -3   7  -2    0.04    0.63 
   3   7   2   -0.02    0.37 
   4  -7   2    2.15    0.62 
  -4  -7  -2    2.56    0.84 
   4   7   2    2.53    0.64 
  -4   7  -2    4.16    1.07 
   6  -8  -2   -2.01    1.05 
  -6  -8   2   -0.41    0.47 
   6   8  -2    0.22    0.79 
  -5  -8   2    0.65    0.45 
   5  -8  -2   -1.38    0.91 
   5  -8  -2    0.38    0.44 
   5   8  -2   -0.07    0.61 
  -5   8   2    0.50    0.44 
  -4  -8   2    5.13    0.72 
   4  -8  -2    4.52    0.66 
   4  -8  -2    4.71    1.02 
   4   8  -2    4.17    0.82 
  -4   8   2    4.94    0.68 
  -3  -8   2    8.70    0.81 
   3  -8  -2    6.52    0.87 
   3  -8  -2    4.88    0.65 
   3   8  -2    6.09    0.83 
  -3   8   2    5.58    0.72 
  -3   8   2    5.86    1.07 
   2  -8  -2    3.50    0.50 
  -2  -8   2    4.16    0.53 
   2  -8  -2    4.79    0.67 
  -2   8   2    2.68    0.75 
   2   8  -2    4.40    0.75 
   2   8  -2    6.81    0.79 
  -1  -8   2    0.63    0.30 
   1  -8  -2    0.38    0.21 
   1  -8  -2    0.45    0.36 
   1  -8  -2    0.68    0.31 
  -1   8   2    1.19    0.68 
   1   8  -2    0.25    0.60 
   1   8  -2    0.57    0.29 
   0  -8  -2    6.00    0.60 
   0  -8   2    5.72    0.50 
   0  -8  -2    5.92    0.55 
   0  -8  -2    6.01    0.84 
   0  -8   2    6.40    0.67 
   0   8  -2    8.64    1.35 
   0   8  -2    5.97    0.65 
   0   8   2    5.89    0.89 
   1  -8   2    4.96    0.59 
  -1  -8  -2    4.28    0.48 
  -1  -8  -2    3.82    0.72 
   1  -8   2    4.65    0.44 
   1   8   2    4.38    0.83 
  -1   8  -2    3.92    0.81 
  -1   8  -2    4.99    0.59 
   1   8   2    4.70    0.54 
  -2  -8  -2    5.41    0.94 
  -2  -8  -2    7.14    0.68 
   2  -8   2    7.39    0.82 
   2   8   2    6.14    0.80 
  -2   8  -2    7.22    1.28 
   2   8   2    5.75    1.14 
  -3  -8  -2   11.11    1.76 
   3  -8   2   10.21    1.04 
  -3   8  -2   10.52    1.56 
   3   8   2    9.49    1.48 
   3   8   2    9.12    1.10 
   4  -8   2   -0.32    0.44 
  -4  -8  -2   -0.06    0.57 
   4   8   2    2.29    0.70 
   4   8   2   -0.26    0.47 
  -4   8  -2    0.70    0.69 
  -5  -8  -2    0.19    0.87 
  -5   8  -2    1.10    0.84 
  -6  -9   2    0.54    0.53 
   6  -9  -2   -1.51    1.10 
   6   9  -2   -0.44    0.75 
   5  -9  -2   25.48    1.72 
  -5  -9   2   24.76    1.72 
   5  -9  -2   26.13    2.41 
   5   9  -2   22.72    2.20 
  -5   9   2   25.36    1.69 
   4  -9  -2   -0.61    0.80 
  -4  -9   2   -0.12    0.42 
   4  -9  -2    0.36    0.46 
   4   9  -2    0.41    0.60 
  -4   9   2    0.34    0.47 
   3  -9  -2   50.75    3.76 
   3  -9  -2   53.66    3.05 
  -3   9   2   54.43    4.97 
   3   9  -2   55.41    4.68 
  -3   9   2   49.36    3.02 
   2  -9  -2   -0.11    0.34 
  -2  -9   2    0.02    0.32 
   2  -9  -2    0.41    0.51 
  -2   9   2    0.23    0.91 
   2   9  -2    0.23    0.53 
   2   9  -2    0.17    0.50 
  -1  -9   2   56.31    2.80 
   1  -9  -2   43.09    3.26 
   1  -9  -2   51.36    2.81 
  -1   9   2   51.26    4.68 
   0  -9  -2    4.46    0.75 
   0  -9  -2    4.68    0.52 
   0  -9  -2    5.91    0.48 
   0  -9   2    4.37    0.47 
   0  -9   2    5.41    0.62 
   0   9   2    4.15    0.75 
   0   9  -2    4.19    0.82 
   0   9  -2    4.54    0.60 
   0   9   2    4.95    0.46 
  -1  -9  -2   20.67    1.32 
   1  -9   2   21.37    1.60 
  -1  -9  -2   22.82    2.42 
   1  -9   2   22.16    1.26 
  -1   9  -2   20.71    1.59 
   1   9   2   21.08    1.52 
  -1   9  -2   18.79    2.47 
   1   9   2   20.58    2.46 
   2  -9   2    4.63    0.66 
  -2  -9  -2    5.78    0.59 
  -2  -9  -2    5.23    0.92 
   2   9   2    5.91    1.12 
   2   9   2    5.99    0.77 
  -2   9  -2    5.12    1.17 
  -3  -9  -2    8.74    1.35 
   3  -9   2    8.80    0.99 
   3   9   2    8.21    1.07 
  -3   9  -2   10.42    1.56 
   3   9   2   11.08    1.58 
   4  -9   2   -0.06    0.45 
  -4  -9  -2    0.48    0.68 
   4   9   2    3.51    0.87 
   4   9   2   -0.04    0.49 
  -4   9  -2    1.49    0.79 
   5  -9   2    0.99    0.64 
  -5  -9  -2    0.55    1.04 
   5   9   2   -0.49    0.69 
  -5   9  -2    1.63    0.90 
   6 -10  -2   -1.99    1.08 
  -6 -10   2    0.98    0.58 
   6  10  -2    0.01    0.79 
   5 -10  -2    2.84    0.61 
  -5 -10   2    3.09    0.62 
   5 -10  -2    0.80    1.04 
   5  10  -2    2.12    0.76 
  -5  10   2    1.88    0.57 
   4 -10  -2    0.31    0.82 
   4 -10  -2    0.93    0.52 
  -4 -10   2    1.16    0.55 
  -4  10   2    1.56    0.55 
   4  10  -2    1.69    0.65 
   3 -10  -2    2.21    0.57 
  -3 -10   2    4.33    0.67 
   3 -10  -2    3.51    0.76 
   3  10  -2    2.43    0.62 
  -3  10   2    2.36    0.59 
   3  10  -2    4.60    0.76 
  -3  10   2    2.69    1.17 
   2 -10  -2    9.29    0.91 
   2 -10  -2   10.64    1.21 
   2  10  -2   10.39    1.53 
  -2  10   2    6.85    1.23 
  -1 -10   2    0.23    0.31 
   1 -10  -2   -0.19    0.32 
   1  10  -2    0.21    0.26 
  -1  10   2    0.10    0.45 
   1  10  -2   -0.75    0.69 
   0 -10  -2   42.56    2.55 
   0 -10  -2   46.93    4.23 
   0 -10   2   44.87    3.07 
   0 -10   2   44.83    2.50 
   0  10  -2   42.38    3.06 
   0  10  -2   54.44    4.28 
   0  10   2   43.70    4.27 
  -1 -10  -2   12.62    1.05 
   1 -10   2   14.37    1.21 
   1 -10   2   14.83    0.95 
  -1 -10  -2   16.19    2.02 
  -1  10  -2   14.08    1.19 
   1  10   2   14.04    2.10 
  -1  10  -2   15.23    2.18 
  -2 -10  -2    1.43    0.41 
  -2 -10  -2    1.30    0.60 
   2 -10   2    1.15    0.42 
   2  10   2    0.95    0.74 
  -2  10  -2    0.52    0.84 
   2  10   2    1.50    0.39 
  -3 -10  -2    9.98    1.49 
   3 -10   2    8.62    1.01 
  -3 -10  -2    9.87    0.91 
  -3  10  -2   10.24    1.62 
   3  10   2   12.21    1.76 
  -4 -10  -2    0.50    0.78 
   4 -10   2    0.30    0.49 
  -4  10  -2    1.03    0.77 
   4  10   2    2.93    0.98 
  -5 -10  -2    2.08    1.27 
   5 -10   2    2.22    0.77 
   5  10   2    6.07    1.43 
  -6 -11   2    1.42    0.62 
   6 -11  -2   -0.37    1.20 
   6  11  -2    1.98    0.91 
   5 -11  -2    0.32    0.46 
   5 -11  -2   -2.54    0.88 
  -5 -11   2    0.02    0.48 
  -5  11   2   -0.20    0.43 
   5  11  -2    0.43    0.65 
  -4 -11   2   32.91    2.11 
   4 -11  -2   30.35    2.73 
   4 -11  -2   33.25    2.14 
  -4  11   2   35.90    2.17 
   3 -11  -2    0.91    0.68 
   3 -11  -2   -0.07    0.47 
  -3 -11   2    0.32    0.47 
   3  11  -2   -0.19    0.63 
   3  11  -2   -0.28    0.58 
  -3  11   2    0.41    0.50 
  -3  11   2    0.06    1.18 
   2 -11  -2   68.44    4.28 
   2 -11  -2   58.24    3.51 
   2  11  -2   64.12    5.50 
  -2  11   2   54.81    6.04 
   1 -11  -2    9.46    0.85 
  -1 -11   2    8.67    0.83 
   1  11  -2   11.81    0.92 
   1  11  -2   14.79    2.06 
  -1  11   2    8.05    1.34 
   0 -11  -2   34.39    2.15 
   0 -11  -2   37.89    3.65 
   0 -11   2   35.27    2.10 
   0 -11   2   42.93    2.58 
   0  11  -2   40.58    3.70 
   0  11   2   35.42    3.70 
   0  11  -2   33.64    2.54 
  -1 -11  -2    0.91    0.39 
   1 -11   2    0.88    0.32 
  -1 -11  -2    1.31    0.55 
   1 -11   2    1.00    0.37 
  -1  11  -2    1.07    0.92 
   1  11   2    1.28    0.61 
  -2 -11  -2   31.90    1.99 
   2 -11   2   32.38    2.43 
  -2 -11  -2   36.23    3.59 
  -2  11  -2   34.94    3.69 
   2  11   2   32.18    3.64 
  -3 -11  -2    6.89    1.25 
   3 -11   2    6.21    0.83 
  -3  11  -2    6.42    1.31 
   3  11   2    7.32    1.43 
  -4 -11  -2    2.48    1.13 
  -4  11  -2    4.61    1.31 
   4  11   2    4.50    1.25 
  -6 -12   2   -0.26    0.53 
   6  12  -2   -0.40    0.81 
  -5 -12   2    1.93    0.55 
   5 -12  -2    0.50    1.02 
   5 -12  -2    1.25    0.55 
   5  12  -2    1.35    0.71 
  -5  12   2    2.26    0.59 
   4 -12  -2   -0.40    0.45 
  -4 -12   2    0.25    0.48 
  -4  12   2    0.23    0.50 
   4  12  -2    0.18    0.58 
   3 -12  -2    0.75    0.71 
  -3 -12   2    2.43    0.66 
   3 -12  -2    2.25    0.60 
  -3  12   2    0.82    1.40 
  -3  12   2    1.31    0.55 
   3  12  -2    2.39    0.64 
   3  12  -2    2.22    0.72 
   2 -12  -2   -0.06    0.45 
  -2 -12   2    0.91    0.51 
   2  12  -2    0.25    0.66 
  -2  12   2    1.36    1.29 
   2  12  -2   -0.06    0.52 
   1 -12  -2    4.42    0.62 
  -1 -12   2    4.87    0.58 
   1  12  -2    5.75    1.18 
  -1  12   2    3.06    1.00 
   1  12  -2    5.64    0.67 
   0 -12  -2   12.66    1.97 
   0 -12   2   12.71    0.98 
   0 -12   2   11.02    0.88 
   0 -12  -2    9.94    0.91 
   0  12  -2   10.16    0.95 
   0  12   2    9.04    1.41 
   0  12  -2   13.75    2.12 
  -1 -12  -2    7.35    0.78 
   1 -12   2    8.03    0.85 
  -1 -12  -2    6.67    1.08 
   1 -12   2    7.11    0.68 
   1  12   2    6.95    1.19 
  -1  12  -2    7.39    1.29 
  -2 -12  -2    4.31    0.61 
  -2 -12  -2    3.83    0.92 
   2 -12   2    4.88    0.68 
  -2  12  -2    4.23    1.26 
   2  12   2    4.00    1.08 
   3 -12   2    0.59    0.43 
  -3 -12  -2   -0.03    0.39 
  -3 -12  -2    0.36    0.68 
   3  12   2    0.07    0.78 
  -3  12  -2    0.27    0.73 
  -4 -12  -2   -0.66    0.89 
   4 -12   2   -0.37    0.44 
  -4  12  -2    0.39    0.67 
   4  12   2    0.65    1.05 
  -6 -13   2    0.17    0.56 
   5 -13  -2    7.02    0.89 
  -5 -13   2    6.08    0.85 
  -5  13   2    6.84    0.89 
   4 -13  -2    0.52    0.52 
  -4 -13   2   -0.03    0.48 
  -4  13   2    0.54    0.55 
   4  13  -2    0.11    0.59 
   3 -13  -2   -0.22    0.52 
  -3 -13   2    0.81    0.53 
   3  13  -2    0.85    0.70 
   3  13  -2    0.66    0.65 
  -3  13   2    0.58    1.45 
   2 -13  -2   -0.24    0.41 
  -2 -13   2   -0.25    0.47 
   2  13  -2    0.48    0.51 
  -2  13   2   -1.05    0.93 
   2  13  -2    0.80    0.72 
   1 -13  -2   16.00    1.14 
  -1 -13   2   13.45    1.08 
   1  13  -2   16.07    1.19 
  -1  13   2   13.70    1.95 
   0 -13  -2    3.04    0.53 
   0 -13   2    2.78    0.47 
   0 -13  -2    2.28    0.75 
   0 -13   2    3.76    0.49 
   0  13   2    3.27    0.88 
   0  13  -2    3.36    0.47 
   0  13  -2    3.35    1.13 
  -1 -13  -2    1.31    0.45 
   1 -13   2    1.44    0.41 
  -1 -13  -2    1.31    0.63 
   1 -13   2    1.05    0.37 
  -1  13  -2    0.14    1.04 
   1  13   2    1.83    0.77 
   2 -13   2   -0.09    0.33 
  -2 -13  -2    0.29    0.38 
  -2 -13  -2    0.40    0.59 
  -2  13  -2   -0.29    0.83 
   2  13   2   -0.40    0.62 
  -3 -13  -2   19.25    1.37 
  -3 -13  -2   18.38    2.66 
   3 -13   2   17.10    1.58 
  -3  13  -2   24.13    2.82 
   3  13   2   17.50    2.81 
   4 -13   2   -0.51    0.43 
  -4 -13  -2    1.59    1.12 
  -4  13  -2    1.30    0.78 
   4  13   2    0.12    1.15 
  -5 -14   2    0.26    0.54 
   5 -14  -2    0.90    0.55 
  -5  14   2    0.72    0.55 
   4 -14  -2   10.96    1.15 
  -4 -14   2   13.69    1.18 
  -4  14   2    9.42    1.13 
   3 -14  -2    0.85    0.57 
  -3 -14   2    1.07    0.59 
   3  14  -2    0.18    0.67 
  -3  14   2    0.35    1.52 
   2 -14  -2   33.20    2.23 
  -2 -14   2   38.48    2.26 
   2  14  -2   38.16    3.65 
  -2  14   2   35.19    4.63 
   1 -14  -2    3.17    0.57 
  -1 -14   2    3.45    0.55 
   1  14  -2    3.15    0.96 
  -1  14   2    3.59    1.21 
   0 -14   2   15.78    1.20 
   0 -14   2   14.50    1.08 
   0 -14  -2   14.93    1.15 
   0  14   2   13.34    1.92 
   0  14  -2   15.00    1.93 
   1 -14   2    8.18    0.88 
  -1 -14  -2    8.19    1.27 
  -1 -14  -2    7.85    0.82 
   1  14   2    7.41    1.36 
  -1  14  -2    8.05    1.47 
   2 -14   2   11.08    1.07 
  -2 -14  -2    9.93    1.57 
  -2 -14  -2   10.81    0.97 
   2  14   2   11.08    1.77 
  -2  14  -2   12.43    1.88 
  -3 -14  -2    0.05    0.79 
   3 -14   2    0.07    0.43 
  -3 -14  -2    0.21    0.44 
  -3  14  -2    0.49    0.80 
   3  14   2   -0.63    0.87 
   4 -14   2   -0.31    0.47 
  -4 -14  -2   -1.84    0.96 
   4  14   2   -1.00    1.17 
  -4  14  -2    0.69    0.80 
  -5 -15   2   -0.02    0.53 
  -5  15   2   -0.83    0.50 
   4 -15  -2    2.79    0.70 
  -4 -15   2    2.97    0.72 
  -4  15   2    2.24    0.71 
   3 -15  -2   21.48    1.71 
  -3  15   2   30.70    3.40 
   3  15  -2   21.80    2.61 
  -2 -15   2   -0.32    0.45 
   2 -15  -2    0.00    0.49 
   2  15  -2    0.45    0.78 
  -2  15   2   -0.66    1.17 
   1 -15  -2    1.63    0.53 
  -1 -15   2    1.17    0.48 
  -1  15   2    1.76    1.24 
   1  15  -2    2.84    1.03 
   0 -15  -2    4.31    0.63 
   0 -15   2    3.59    0.51 
   0  15   2    3.24    1.07 
   0  15  -2    4.24    1.33 
  -1 -15  -2   28.98    3.29 
  -1 -15  -2   26.23    1.81 
   1 -15   2   30.77    2.11 
   1  15   2   26.98    3.49 
  -1  15  -2   28.86    3.54 
  -2 -15  -2    2.84    0.54 
   2 -15   2    1.00    0.43 
  -2 -15  -2    1.61    0.84 
   2  15   2    1.90    1.02 
  -2  15  -2    2.69    1.20 
  -3 -15  -2    0.19    0.44 
  -3 -15  -2   -0.29    0.85 
   3 -15   2   -0.17    0.42 
  -3  15  -2   -0.03    0.82 
   3  15   2   -0.56    0.99 
   4 -15   2   -0.13    0.53 
  -4 -15  -2   -1.77    1.06 
   4  15   2   -0.61    0.86 
  -4  15  -2    1.17    0.88 
  -5 -16   2    0.00    0.48 
  -5  16   2   -0.48    0.57 
  -4 -16   2    0.81    0.56 
   4 -16  -2    0.06    0.58 
  -4  16   2    0.97    0.65 
   3 -16  -2    8.04    1.00 
  -3  16   2    6.73    2.07 
   3  16  -2    7.84    1.13 
  -2 -16   2    2.53    0.58 
   2 -16  -2    1.25    0.58 
  -2  16   2    0.83    1.39 
   2  16  -2    1.20    0.79 
  -1 -16   2    1.81    0.53 
   1 -16  -2    1.61    0.52 
  -1  16   2    2.96    1.43 
   1  16  -2    2.36    1.01 
   0 -16  -2    5.67    0.75 
   0 -16   2    5.55    0.64 
   0  16   2    5.94    1.42 
   0  16  -2    6.93    1.38 
  -1 -16  -2   -0.24    0.37 
  -1 -16  -2   -0.41    0.59 
  -1  16  -2   -0.74    0.91 
   1  16   2   -0.10    0.73 
  -2 -16  -2    6.20    0.76 
  -2 -16  -2    5.29    1.27 
   2  16   2    5.47    1.44 
  -2  16  -2    7.79    1.71 
  -3 -16  -2    0.08    0.47 
  -3 -16  -2   -0.37    0.96 
  -3  16  -2    1.13    0.97 
   3  16   2   -1.09    1.08 
  -4 -16  -2   -0.30    0.89 
   4  16   2   -0.73    0.98 
  -4  16  -2    1.97    1.03 
  -5 -17   2    1.92    0.67 
  -5  17   2    0.79    0.68 
  -4 -17   2    4.14    0.77 
   4 -17  -2    4.51    0.87 
  -4  17   2    4.34    0.87 
  -3 -17   2    5.84    0.80 
   3 -17  -2    3.80    0.78 
   3  17  -2    3.52    0.87 
  -3  17   2    4.33    1.92 
  -2 -17   2    2.33    0.54 
   2 -17  -2    2.04    0.59 
  -2  17   2    0.94    1.56 
   2  17  -2    1.80    0.88 
   1 -17  -2    1.66    0.52 
  -1 -17   2    2.46    0.55 
   1  17  -2    2.63    1.14 
  -1  17   2    1.16    1.42 
   0 -17   2    2.18    0.44 
   0 -17  -2    2.44    0.52 
   0  17   2    1.95    1.16 
   0  17  -2    2.53    1.19 
  -1 -17  -2   14.57    1.13 
   1  17   2   11.76    2.02 
  -1  17  -2   14.94    2.15 
  -2 -17  -2    2.17    1.05 
  -2 -17  -2    1.66    0.57 
   2  17   2    0.76    1.12 
  -2  17  -2    4.84    1.48 
  -3 -17  -2   -0.92    1.12 
  -3 -17  -2   -0.01    0.46 
   3  17   2   -1.21    1.23 
  -3  17  -2    2.05    1.14 
  -5 -18   2    0.65    0.60 
   4 -18  -2    1.56    0.70 
  -4 -18   2    1.98    0.64 
  -4  18   2    1.61    0.72 
  -3 -18   2    3.65    0.72 
   3 -18  -2    3.17    0.77 
  -3  18   2    2.45    1.96 
   3  18  -2    2.75    0.90 
   2 -18  -2   13.31    1.30 
  -2 -18   2   16.73    1.33 
  -2  18   2   19.91    2.97 
   2  18  -2   17.88    2.39 
   1 -18  -2    0.99    0.46 
  -1 -18   2    0.68    0.46 
  -1  18   2    1.76    1.55 
   1  18  -2    2.82    1.14 
   0 -18   2    4.58    0.58 
   0 -18  -2    4.67    0.67 
   0  18   2    4.69    1.53 
   0  18  -2    3.81    1.39 
  -1 -18  -2    0.85    0.44 
  -1  18  -2    1.22    1.11 
   1  18   2    0.38    0.97 
  -2 -18  -2    4.62    0.72 
  -2 -18  -2    3.68    1.34 
   2  18   2    3.93    1.49 
  -2  18  -2    7.57    1.87 
  -3 -18  -2    0.80    0.53 
  -3 -18  -2    0.20    1.41 
   3  18   2   -1.12    1.44 
  -3  18  -2    5.39    1.69 
   4 -19  -2    0.78    0.69 
  -4 -19   2    0.88    0.58 
  -4  19   2    2.81    0.79 
  -3 -19   2   13.90    1.23 
   3 -19  -2   12.75    1.35 
  -3  19   2   10.24    2.63 
   3  19  -2   13.34    2.05 
  -2 -19   2    8.75    1.00 
   2 -19  -2    8.62    0.99 
   2  19  -2    7.11    1.32 
  -2  19   2   10.89    2.42 
  -1 -19   2    1.61    0.51 
   1 -19  -2    1.46    0.55 
  -1  19   2    1.15    1.62 
   1  19  -2    2.43    1.12 
   0 -19  -2   11.34    1.02 
   0 -19   2   11.91    0.97 
   0  19   2   10.20    2.16 
   0  19  -2   13.26    2.01 
  -1 -19  -2    3.20    0.63 
  -1  19  -2    5.65    1.52 
   1  19   2    3.73    1.43 
  -2 -19  -2    1.11    0.52 
  -2  19  -2    3.48    1.40 
   2  19   2    0.86    1.41 
  -3 -19  -2   -0.34    0.97 
  -3 -19  -2    0.65    0.55 
   3  19   2    0.30    1.18 
  -3  19  -2    3.05    1.25 
   4 -20  -2   -0.01    0.67 
  -4 -20   2    0.48    0.53 
  -4  20   2    0.77    0.70 
  -3 -20   2    0.10    0.47 
   3 -20  -2    0.16    0.60 
   3  20  -2    0.33    0.76 
  -3  20   2   -1.81    1.79 
   2 -20  -2    0.69    0.54 
  -2 -20   2    0.00    0.51 
   2  20  -2    1.36    0.91 
  -2  20   2   -0.86    1.41 
  -1 -20   2   -0.39    0.37 
   1 -20  -2    0.46    0.44 
  -1  20   2   -2.37    1.51 
   1  20  -2    0.51    1.16 
   0 -20   2    0.47    0.38 
   0 -20  -2    0.50    0.44 
   0  20   2    0.49    1.50 
   0  20  -2    1.43    1.15 
  -1 -20  -2    0.97    0.50 
   1  20   2    1.16    1.45 
  -1  20  -2    1.30    1.13 
  -2 -20  -2   -0.35    0.44 
  -2  20  -2    2.19    1.25 
   2  20   2   -1.39    1.39 
  -3 -20  -2    1.61    0.62 
  -3 -20  -2    0.76    1.24 
  -3  20  -2    4.22    1.59 
   3  20   2    1.22    1.40 
   4 -21  -2    3.02    0.90 
  -4 -21   2    4.51    0.81 
  -4  21   2    3.92    0.96 
   3 -21  -2    4.17    0.87 
  -3 -21   2    3.50    0.75 
   3  21  -2    2.75    0.94 
  -3  21   2    2.23    2.10 
   2 -21  -2    3.54    0.72 
  -2 -21   2    3.59    0.75 
  -2  21   2    1.87    1.74 
   2  21  -2    3.65    1.19 
   1 -21  -2   -0.32    0.46 
  -1 -21   2    1.23    0.48 
  -1  21   2    0.71    1.84 
   1  21  -2    2.28    1.36 
   0 -21   2    1.76    0.48 
   0 -21  -2    1.92    0.57 
   0  21   2    0.18    1.72 
   0  21  -2    2.55    1.40 
  -1 -21  -2    0.47    0.49 
   1  21   2   -0.04    1.58 
  -1  21  -2    1.28    1.15 
  -2 -21  -2    1.06    0.57 
   2  21   2   -2.59    1.61 
  -2  21  -2    5.86    1.86 
  -3 -22   2   -0.20    0.57 
   3 -22  -2    0.86    0.71 
   3  22  -2    0.71    0.87 
  -3  22   2    0.33    2.00 
   2 -22  -2    0.40    0.53 
  -2 -22   2    0.91    0.59 
   2  22  -2    1.69    1.01 
  -2  22   2   -0.13    1.52 
   1 -22  -2   -0.07    0.48 
  -1 -22   2    0.32    0.41 
   1  22  -2    2.12    1.43 
  -1  22   2   -0.10    1.33 
   0 -22   2    1.00    0.48 
   0 -22  -2    0.49    0.54 
   0  22  -2    0.19    1.34 
   0  22   2    0.37    1.82 
  -1 -22  -2   -0.47    0.44 
   1  22   2   -1.84    1.71 
  -1  22  -2    1.85    1.13 
  -2 -22  -2    2.48    0.65 
   2  22   2    0.14    1.45 
  -2  22  -2    8.22    2.29 
  -3 -23   2    0.74    0.68 
   3 -23  -2    0.87    0.69 
  -3  23   2    0.39    2.12 
   3  23  -2    1.60    1.01 
  -2 -23   2    0.29    0.56 
   2 -23  -2   -0.67    0.50 
   2  23  -2    0.25    0.99 
  -2  23   2    0.19    1.71 
  -1 -23   2    0.08    0.43 
   1 -23  -2   -0.82    0.46 
   1  23  -2    1.65    1.16 
  -1  23   2   -0.22    1.36 
   0 -23  -2   -0.20    0.44 
   0 -23   2   -0.05    0.44 
   0  23  -2    1.01    1.14 
   0  23   2   -1.30    1.29 
  -1 -23  -2    1.00    0.57 
   1  23   2   -1.85    1.29 
  -1  23  -2    4.26    1.76 
  -2 -24   2    0.40    0.54 
   2 -24  -2   -0.14    0.55 
  -2  24   2    0.27    1.83 
   2  24  -2    2.16    1.16 
  -1 -24   2    0.12    0.46 
   1 -24  -2    0.67    0.56 
   1  24  -2    1.27    1.18 
  -1  24   2   -0.88    1.35 
   0 -24   2    0.60    0.46 
   0 -24  -2    0.09    0.56 
   0  24   2   -0.73    1.36 
   0  24  -2    0.75    1.18 
  -1 -24  -2    0.57    0.56 
   1  24   2   -1.16    1.45 
  -1  24  -2   -0.80    1.04 
  -1 -25   2    0.01    0.48 
   1 -25  -2    0.86    0.63 
  -1  25   2    0.00    1.59 
   1  25  -2    1.57    1.30 
   0  25   2   -0.49    1.38 
   7   0  -3   -0.52    1.13 
  -7   0   3   -0.32    0.61 
  -6   0   3    0.13    0.48 
   6   0  -3   -0.36    0.88 
   5   0  -3    4.90    1.01 
  -5   0   3    6.48    0.78 
   4   0  -3    0.49    0.62 
  -4   0   3   -0.28    0.40 
   3   0  -3    2.87    0.65 
  -3   0   3    3.40    0.50 
   2   0  -3    0.53    0.52 
  -2   0   3   -0.27    0.27 
   2   0  -3   -0.08    0.25 
   1   0  -3    2.23    0.43 
  -1   0   3    2.57    0.36 
   1   0  -3    2.64    0.36 
   1   0  -3    2.96    0.48 
   0   0   3    0.00    0.24 
   0   0  -3   -0.13    0.25 
   0   0   3   -0.16    0.21 
   0   0  -3    0.07    0.20 
   0   0  -3   -0.16    0.32 
   1   0   3   31.30    2.19 
  -1   0  -3   27.24    2.87 
  -1   0  -3   29.97    2.19 
  -2   0  -3   -0.23    0.45 
   2   0   3    0.10    0.35 
  -3   0  -3   10.55    1.76 
   3   0   3   12.56    1.23 
   4   0   3   -0.59    0.45 
  -4   0  -3    0.10    0.73 
   7  -1  -3    1.50    1.38 
  -7  -1   3    0.04    0.56 
   7   1  -3   -0.95    1.02 
  -7   1   3    0.97    0.58 
   6  -1  -3    0.03    0.93 
  -6  -1   3    0.06    0.46 
  -6   1   3    0.67    0.52 
   6   1  -3    0.19    0.89 
  -5  -1   3    4.85    0.72 
   5  -1  -3    4.08    0.97 
   5   1  -3    4.00    0.92 
  -5   1   3    4.80    0.67 
  -4  -1   3    4.03    0.59 
   4  -1  -3    3.97    0.84 
  -4   1   3    4.21    0.63 
   4   1  -3    3.30    0.79 
   3  -1  -3    2.31    0.63 
  -3  -1   3    2.91    0.46 
  -3   1   3    2.43    0.45 
   3   1  -3    1.66    0.58 
   2  -1  -3    3.10    0.67 
  -2  -1   3    2.11    0.40 
   2  -1  -3    2.13    0.37 
  -2   1   3    2.72    0.41 
   2   1  -3    3.69    0.68 
   1  -1  -3   35.23    2.57 
   1  -1  -3   37.10    2.07 
   1  -1  -3   35.32    3.25 
  -1  -1   3   38.09    2.05 
   1   1  -3   36.03    3.26 
  -1   1   3   38.11    2.07 
   1   1  -3   36.71    2.59 
   0  -1  -3   -0.16    0.32 
   0  -1   3    0.47    0.21 
   0  -1   3    0.16    0.26 
   0  -1  -3    0.05    0.26 
   0  -1  -3    0.23    0.22 
   0   1   3    0.35    0.24 
   0   1  -3    0.28    0.38 
   0   1   3    0.27    0.26 
   0   1  -3    0.16    0.28 
  -1  -1  -3   11.03    1.55 
  -1  -1  -3   12.49    1.15 
  -1  -1  -3   14.17    0.78 
   1  -1   3   12.05    1.13 
   1   1   3   12.07    1.13 
  -1   1  -3   11.59    1.61 
  -1   1  -3   11.94    1.15 
  -2  -1  -3   -0.28    0.43 
   2  -1   3   -0.06    0.35 
  -2   1  -3    0.21    0.51 
   2   1   3   -0.26    0.36 
  -3  -1  -3    0.27    0.56 
   3  -1   3    0.72    0.49 
  -3   1  -3    0.50    0.59 
   3   1   3    0.71    0.46 
   4  -1   3   -0.02    0.50 
  -4  -1  -3   -0.17    0.75 
   4   1   3    0.27    0.50 
  -4   1  -3   -0.69    0.69 
   7  -2  -3   -0.48    1.31 
  -7  -2   3    0.88    0.62 
   7   2  -3   -0.30    1.09 
  -7   2   3    1.27    0.65 
  -6  -2   3    0.86    0.52 
   6  -2  -3   -0.94    0.88 
  -6   2   3    1.17    0.54 
   6   2  -3    0.44    0.84 
   5  -2  -3   -0.11    0.75 
  -5  -2   3    0.72    0.46 
   5   2  -3    0.47    0.65 
  -5   2   3    0.44    0.44 
   4  -2  -3    3.18    0.85 
  -4  -2   3    5.56    0.67 
   4   2  -3    3.08    0.76 
  -4   2   3    4.50    0.62 
  -3  -2   3   -0.07    0.28 
   3  -2  -3   -0.31    0.49 
   3  -2  -3    0.24    0.33 
   3   2  -3    0.04    0.47 
  -3   2   3    0.39    0.35 
   2  -2  -3   25.28    1.94 
   2  -2  -3   21.39    1.38 
  -2  -2   3   21.61    1.38 
   2   2  -3   24.30    1.92 
  -2   2   3   22.05    1.40 
   1  -2  -3   10.33    1.01 
   1  -2  -3   11.59    1.32 
  -1  -2   3   10.28    0.77 
   1  -2  -3   11.59    0.82 
  -1   2   3   11.81    0.81 
   1   2  -3   12.16    1.29 
   1   2  -3   10.41    1.05 
   0  -2   3   -0.15    0.18 
   0  -2   3    0.27    0.28 
   0  -2  -3    0.12    0.23 
   0  -2  -3   -0.12    0.25 
   0  -2  -3   -0.03    0.24 
   0   2   3    0.08    0.23 
   0   2   3    0.22    0.26 
   0   2  -3   -0.25    0.34 
   0   2  -3    0.01    0.26 
  -1  -2  -3    0.08    0.41 
  -1  -2  -3    0.16    0.31 
   1  -2   3    0.00    0.28 
  -1  -2  -3    0.25    0.21 
  -1   2  -3   -0.10    0.44 
  -1   2  -3   -0.06    0.28 
   1   2   3    0.24    0.30 
  -2  -2  -3   11.09    1.67 
   2  -2   3   12.00    1.19 
   2   2   3   11.71    1.17 
  -2   2  -3   13.08    1.81 
   3  -2   3    0.75    0.46 
  -3  -2  -3    1.65    0.71 
   3   2   3    0.34    0.44 
  -3   2  -3    1.19    0.68 
  -4  -2  -3   -0.01    0.75 
   4  -2   3   -0.39    0.48 
  -4   2  -3    0.05    0.61 
   4   2   3    0.06    0.48 
   7  -3  -3   -1.43    1.26 
  -7  -3   3    0.61    0.62 
  -7   3   3    0.64    0.60 
   7   3  -3   -1.51    0.98 
  -6  -3   3    0.49    0.54 
   6  -3  -3   -1.16    0.99 
  -6   3   3    0.67    0.51 
   6   3  -3   -0.49    0.80 
   5  -3  -3    0.86    0.80 
  -5  -3   3    1.43    0.52 
  -5   3   3    0.95    0.49 
   5   3  -3    1.10    0.70 
   4  -3  -3    2.88    0.83 
  -4  -3   3    3.29    0.59 
  -4   3   3    3.28    0.56 
   4   3  -3    2.36    0.70 
   3  -3  -3   -0.19    0.32 
   3  -3  -3   -0.37    0.52 
  -3  -3   3    0.42    0.31 
   3   3  -3    0.34    0.49 
  -3   3   3    0.46    0.35 
   2  -3  -3    0.22    0.27 
   2  -3  -3    0.55    0.50 
  -2  -3   3    0.18    0.27 
  -2   3   3    0.51    0.32 
   2   3  -3    0.11    0.53 
   1  -3  -3   22.94    1.41 
  -1  -3   3   22.96    1.34 
   1  -3  -3   23.51    2.20 
   1  -3  -3   20.82    1.67 
   1   3  -3   22.54    1.73 
  -1   3   3   23.40    1.40 
   0  -3  -3    2.11    0.33 
   0  -3  -3    2.21    0.40 
   0  -3   3    2.31    0.26 
   0  -3   3    2.14    0.42 
   0  -3  -3    1.44    0.43 
   0   3   3    2.22    0.38 
   0   3  -3    1.67    0.39 
   0   3  -3    2.08    0.50 
   1  -3   3   23.55    1.74 
  -1  -3  -3   22.65    1.30 
  -1  -3  -3   22.26    1.72 
  -1  -3  -3   21.63    2.30 
   1   3   3   22.19    1.70 
  -1   3  -3   22.99    1.75 
  -1   3  -3   19.95    2.37 
   2  -3   3    3.00    0.59 
  -2  -3  -3    2.78    0.68 
   2   3   3    3.03    0.58 
  -2   3  -3    3.16    0.75 
   3  -3   3    1.18    0.51 
  -3  -3  -3    1.95    0.77 
  -3   3  -3    1.96    0.79 
   3   3   3    2.29    0.59 
  -4  -3  -3    0.86    0.85 
   4  -3   3    0.70    0.52 
  -4   3  -3    0.77    0.74 
   4   3   3    0.16    0.50 
   7  -4  -3   -1.91    1.23 
  -7  -4   3    0.46    0.59 
   7   4  -3   -0.32    1.07 
  -6  -4   3    7.20    0.86 
   6  -4  -3    8.11    1.55 
   6   4  -3    5.86    1.17 
   5  -4  -3   -0.97    0.73 
  -5  -4   3    0.86    0.49 
   5   4  -3   -0.48    0.59 
  -5   4   3    0.42    0.45 
  -4  -4   3   -0.08    0.42 
   4  -4  -3   -0.11    0.70 
   4  -4  -3    0.39    0.46 
   4   4  -3    0.16    0.56 
  -4   4   3    0.04    0.43 
  -3  -4   3    0.26    0.35 
   3  -4  -3   -0.06    0.35 
   3  -4  -3    0.31    0.57 
  -3   4   3    0.49    0.37 
   3   4  -3    0.12    0.50 
   2  -4  -3   26.27    1.72 
  -2  -4   3   25.98    1.68 
   2  -4  -3   31.42    2.24 
   2  -4  -3   28.60    2.63 
   2   4  -3   28.57    2.57 
  -2   4   3   28.34    2.69 
  -2   4   3   26.95    1.72 
   2   4  -3   31.63    2.27 
   1  -4  -3    5.15    0.71 
  -1  -4   3    6.43    0.59 
   1  -4  -3    6.29    0.62 
   1  -4  -3    5.83    0.62 
   1   4  -3    5.23    0.76 
  -1   4   3    6.61    0.61 
   1   4  -3    6.18    0.71 
   0  -4  -3    6.60    0.61 
   0  -4  -3    5.92    0.85 
   0  -4  -3    6.39    0.75 
   0  -4   3    6.83    0.80 
   0  -4   3    7.09    0.48 
   0   4  -3    6.53    0.78 
   0   4  -3    6.32    0.91 
   0   4   3    6.74    0.71 
  -1  -4  -3    0.28    0.25 
  -1  -4  -3   -0.03    0.31 
   1  -4   3   -0.03    0.31 
  -1   4  -3   -0.16    0.30 
   1   4   3    0.40    0.30 
  -1   4  -3    0.75    0.57 
  -2  -4  -3    0.07    0.49 
   2  -4   3   -0.08    0.36 
  -2   4  -3   -0.23    0.55 
   2   4   3   -0.10    0.34 
   3  -4   3    6.30    0.89 
  -3  -4  -3    6.85    1.20 
   3   4   3    6.87    0.93 
  -3   4  -3    7.02    1.29 
   4  -4   3    0.67    0.55 
  -4  -4  -3    2.62    1.03 
  -4   4  -3    1.92    0.90 
   4   4   3    1.76    0.63 
  -7  -5   3    0.25    0.56 
   6  -5  -3   -0.22    1.10 
  -6  -5   3    0.52    0.51 
  -6   5   3    1.50    0.53 
   6   5  -3    0.18    0.80 
  -5  -5   3    1.31    0.48 
   5  -5  -3   -0.13    0.81 
   5   5  -3   -0.12    0.58 
  -5   5   3    0.78    0.48 
  -4  -5   3    2.68    0.56 
   4  -5  -3    1.01    0.79 
   4  -5  -3    2.30    0.52 
   4   5  -3    1.65    0.65 
  -4   5   3    3.13    0.58 
   3  -5  -3    5.38    0.61 
   3  -5  -3    6.24    0.87 
  -3  -5   3    4.42    0.59 
   3   5  -3    4.30    0.75 
  -3   5   3    5.52    0.62 
   2  -5  -3   16.08    1.19 
   2  -5  -3   17.69    1.59 
  -2  -5   3   15.61    1.15 
   2  -5  -3   15.90    1.91 
  -2   5   3   17.97    2.02 
  -2   5   3   16.93    1.16 
   2   5  -3   18.55    1.75 
   2   5  -3   18.54    1.64 
   1  -5  -3   79.11    4.38 
   1  -5  -3   72.88    5.35 
   1  -5  -3   83.60    6.98 
  -1  -5   3   79.53    4.35 
  -1   5   3   85.73    7.02 
  -1   5   3   82.93    4.40 
   1   5  -3   79.24    5.43 
   1   5  -3   88.60    6.98 
   0  -5   3    2.85    0.48 
   0  -5  -3    2.31    0.51 
   0  -5   3    2.69    0.29 
   0  -5  -3    3.26    0.41 
   0  -5  -3    2.60    0.42 
   0   5  -3    2.19    0.66 
   0   5   3    2.24    0.37 
   0   5  -3    3.02    0.48 
  -1  -5  -3    4.45    0.48 
  -1  -5  -3    3.65    0.71 
   1  -5   3    3.97    0.60 
  -1   5  -3    4.27    0.83 
  -1   5  -3    4.90    0.66 
   1   5   3    5.39    0.61 
   2  -5   3    7.64    0.91 
  -2  -5  -3    5.10    0.94 
  -2   5  -3    5.58    1.06 
   2   5   3    6.52    0.79 
  -3  -5  -3    1.27    0.65 
   3  -5   3    1.52    0.56 
  -3   5  -3    1.67    0.75 
   3   5   3    2.19    0.58 
   4  -5   3    0.37    0.54 
  -4  -5  -3    1.11    0.90 
  -4   5  -3    1.51    0.83 
   4   5   3    1.96    0.63 
  -6  -6   3    0.69    0.51 
   6  -6  -3   -0.94    1.09 
   6   6  -3   -0.15    0.72 
  -6   6   3    0.13    0.50 
  -5  -6   3    0.17    0.43 
   5  -6  -3    0.34    0.46 
   5  -6  -3   -0.94    0.77 
   5   6  -3   -0.02    0.57 
  -5   6   3    0.00    0.43 
  -4  -6   3    9.91    0.89 
   4  -6  -3    9.19    0.90 
   4  -6  -3    7.86    1.17 
   4   6  -3    6.53    0.96 
  -4   6   3    8.65    0.90 
   3  -6  -3    0.11    0.41 
  -3  -6   3    0.41    0.39 
   3  -6  -3    0.72    0.62 
  -3   6   3    0.25    0.41 
   3   6  -3    0.09    0.54 
   2  -6  -3   13.96    1.38 
  -2  -6   3   12.67    1.00 
   2  -6  -3   14.20    1.82 
   2  -6  -3   13.98    1.02 
   2   6  -3   15.23    1.56 
  -2   6   3   13.09    1.04 
  -2   6   3   14.19    1.95 
   2   6  -3   14.30    1.51 
   1  -6  -3   20.93    2.08 
   1  -6  -3   17.41    1.39 
  -1  -6   3   18.16    1.17 
   1  -6  -3   18.95    1.24 
   1   6  -3   18.36    1.51 
   1   6  -3   19.48    2.02 
  -1   6   3   18.88    2.08 
   0  -6   3    6.76    0.53 
   0  -6  -3    8.14    0.76 
   0  -6   3    5.94    0.79 
   0  -6  -3    7.63    0.68 
   0  -6  -3    8.05    1.31 
   0   6  -3    6.11    0.96 
   0   6  -3    5.99    0.79 
   0   6   3    6.68    0.71 
   1  -6   3    1.42    0.43 
  -1  -6  -3    2.12    0.54 
  -1  -6  -3    2.13    0.41 
   1   6   3    2.24    0.42 
  -1   6  -3    1.78    0.76 
  -1   6  -3    2.18    0.48 
   2  -6   3    6.94    0.90 
  -2  -6  -3    5.61    0.98 
   2   6   3    7.03    0.89 
  -2   6  -3    6.84    1.15 
  -3  -6  -3    0.13    0.50 
   3  -6   3   -0.13    0.40 
  -3   6  -3    0.24    0.66 
   3   6   3   -0.16    0.37 
  -4  -6  -3    0.46    0.84 
   4  -6   3    0.52    0.56 
  -4   6  -3    1.24    0.82 
   4   6   3   -0.02    0.50 
   6  -7  -3   -1.08    1.12 
  -6  -7   3    0.86    0.54 
  -6   7   3    1.12    0.55 
   6   7  -3    0.63    0.76 
   5  -7  -3    7.47    0.85 
  -5  -7   3    6.43    0.79 
   5  -7  -3    7.04    1.22 
  -5   7   3    6.91    0.79 
   5   7  -3    4.26    0.86 
  -4  -7   3    0.43    0.44 
   4  -7  -3    0.86    0.80 
   4  -7  -3    0.77    0.51 
  -4   7   3    1.29    0.49 
   4   7  -3    0.68    0.59 
   3  -7  -3    0.22    0.62 
  -3  -7   3   -0.22    0.40 
   3  -7  -3    0.67    0.41 
  -3   7   3    0.61    0.44 
   3   7  -3   -0.17    0.53 
  -2  -7   3    6.09    0.66 
   2  -7  -3    8.76    1.11 
   2  -7  -3    7.87    0.80 
  -2   7   3    6.63    1.01 
  -2   7   3    6.57    0.71 
   2   7  -3    9.16    1.19 
   2   7  -3    8.58    1.01 
   1  -7  -3    4.19    0.46 
  -1  -7   3    3.82    0.45 
   1  -7  -3    3.13    0.62 
   1  -7  -3    4.46    0.53 
  -1   7   3    2.86    0.63 
   1   7  -3    4.21    0.59 
   1   7  -3    3.32    0.66 
   0  -7   3   24.69    1.45 
   0  -7  -3   25.78    1.84 
   0  -7  -3   26.98    2.63 
   0  -7  -3   27.23    1.56 
   0  -7   3   24.84    1.90 
   0   7   3   26.07    1.82 
   0   7   3   25.20    2.73 
   0   7  -3   25.10    2.67 
   0   7  -3   23.72    1.88 
  -1  -7  -3   19.81    2.18 
  -1  -7  -3   19.71    1.23 
   1  -7   3   17.22    1.49 
   1   7   3   17.88    1.42 
  -1   7  -3   16.42    2.21 
  -1   7  -3   17.61    1.49 
  -2  -7  -3    1.47    0.56 
   2  -7   3    1.05    0.44 
   2   7   3    1.43    0.42 
  -2   7  -3    0.88    0.76 
  -3  -7  -3    1.21    0.65 
   3  -7   3    0.64    0.48 
  -3   7  -3    1.16    0.79 
   3   7   3    2.13    0.55 
  -4  -7  -3   -0.42    0.79 
   4  -7   3   -0.17    0.47 
  -4   7  -3    0.36    0.73 
   4   7   3   -0.48    0.43 
  -6  -8   3    0.16    0.49 
   6  -8  -3   -0.84    1.13 
   6   8  -3   -0.38    0.67 
  -6   8   3   -1.17    0.45 
   5  -8  -3    0.23    0.94 
  -5  -8   3    1.42    0.50 
   5  -8  -3    0.93    0.49 
  -5   8   3    0.29    0.47 
   5   8  -3    0.88    0.61 
   4  -8  -3    7.32    1.14 
  -4  -8   3    8.16    0.83 
   4  -8  -3    7.90    0.88 
  -4   8   3    9.15    0.93 
   4   8  -3    5.67    0.91 
   3  -8  -3   38.55    2.43 
   3  -8  -3   37.20    3.03 
  -3  -8   3   45.54    2.41 
  -3   8   3   38.35    2.44 
   2  -8  -3    0.05    0.47 
   2  -8  -3    0.25    0.35 
  -2  -8   3    0.14    0.34 
   2   8  -3   -0.04    0.54 
   2   8  -3    0.32    0.50 
  -2   8   3   -0.25    0.39 
  -2   8   3   -0.26    0.86 
   1  -8  -3    2.79    0.61 
  -1  -8   3    3.34    0.44 
   1  -8  -3    3.08    0.40 
   1  -8  -3    3.06    0.50 
  -1   8   3    2.71    0.64 
   1   8  -3    2.53    0.62 
   1   8  -3    3.04    0.53 
   0  -8   3    0.02    0.21 
   0  -8  -3    0.14    0.38 
   0  -8  -3    0.15    0.26 
   0  -8   3    0.01    0.29 
   0  -8  -3   -0.10    0.33 
   0   8  -3   -0.16    0.60 
   0   8  -3    0.17    0.32 
   0   8   3    0.26    0.21 
   0   8   3   -0.21    0.38 
  -1  -8  -3    1.74    0.55 
  -1  -8  -3    1.81    0.43 
   1  -8   3    1.47    0.43 
  -1   8  -3    1.84    0.48 
  -1   8  -3    1.49    0.80 
   1   8   3    0.92    0.82 
   1   8   3    1.42    0.36 
   2  -8   3    1.07    0.46 
  -2  -8  -3    2.05    0.62 
  -2   8  -3    2.70    0.79 
   2   8   3    2.90    0.51 
   3  -8   3    5.54    0.83 
  -3  -8  -3    4.22    1.03 
  -3   8  -3    8.43    1.49 
   3   8   3    5.08    0.77 
   4  -8   3   -0.10    0.48 
  -4  -8  -3   -0.60    0.83 
   4   8   3   -0.55    0.46 
  -4   8  -3    0.24    0.74 
  -6  -9   3    5.69    0.77 
   6  -9  -3    2.08    1.32 
   6   9  -3    2.82    0.88 
  -6   9   3    4.83    0.77 
   5  -9  -3    5.71    1.24 
   5  -9  -3    6.25    0.80 
  -5  -9   3    5.93    0.77 
   5   9  -3    3.30    0.77 
  -5   9   3    4.15    0.71 
   4  -9  -3    1.24    0.85 
   4  -9  -3    1.63    0.57 
  -4  -9   3    1.18    0.53 
  -4   9   3    2.20    0.61 
   4   9  -3    1.78    0.63 
   3  -9  -3    7.34    0.89 
  -3  -9   3   10.64    0.96 
   3  -9  -3    8.12    1.07 
   3   9  -3   10.89    1.36 
  -3   9   3    8.98    0.96 
   2  -9  -3    8.20    0.83 
  -2  -9   3    7.83    0.85 
   2  -9  -3    9.58    1.08 
   2   9  -3   13.08    1.29 
  -2   9   3    8.28    1.29 
   2   9  -3    7.12    1.12 
  -1  -9   3    0.15    0.30 
   1  -9  -3    0.23    0.25 
   1  -9  -3    0.07    0.40 
   1  -9  -3   -0.08    0.32 
   1   9  -3    0.32    0.37 
   1   9  -3   -0.49    0.56 
  -1   9   3   -0.16    0.42 
   0  -9  -3   -0.10    0.35 
   0  -9  -3    0.02    0.25 
   0  -9   3    0.07    0.31 
   0  -9   3    0.07    0.21 
   0  -9  -3   -0.03    0.41 
   0   9   3   -0.53    0.40 
   0   9   3    0.10    0.20 
   0   9  -3   -0.75    0.60 
   0   9  -3   -0.38    0.29 
   1  -9   3    1.15    0.42 
  -1  -9  -3    1.23    0.56 
  -1  -9  -3    1.68    0.45 
  -1   9  -3    0.76    0.79 
   1   9   3    1.42    0.73 
  -1   9  -3    1.38    0.44 
   1   9   3    1.22    0.35 
  -2  -9  -3    2.76    0.72 
   2  -9   3    1.66    0.50 
   2   9   3    2.42    0.99 
   2   9   3    2.77    0.51 
  -2   9  -3    3.24    0.86 
   3  -9   3    0.67    0.48 
  -3  -9  -3    0.32    0.63 
  -3   9  -3    0.92    0.76 
   3   9   3    2.98    0.82 
   3   9   3    0.53    0.43 
   6 -10  -3    0.35    0.54 
   6 -10  -3   -1.03    1.14 
  -6 -10   3    0.89    0.49 
   6  10  -3   -0.61    0.65 
  -6  10   3    0.00    0.52 
   5 -10  -3   -0.45    0.91 
  -5 -10   3    0.39    0.43 
   5 -10  -3    0.79    0.52 
   5  10  -3    0.07    0.59 
  -5  10   3   -0.08    0.48 
  -4 -10   3    0.56    0.49 
   4 -10  -3   -0.49    0.77 
   4 -10  -3    0.74    0.52 
   4  10  -3   -0.39    0.51 
  -4  10   3    0.19    0.52 
  -3 -10   3    1.39    0.54 
   3 -10  -3    0.97    0.72 
   3 -10  -3    1.12    0.49 
   3  10  -3    1.48    0.66 
  -3  10   3    1.73    0.56 
   3  10  -3    1.08    0.88 
  -2 -10   3   23.82    1.67 
   2 -10  -3   24.02    1.96 
   2 -10  -3   25.28    1.73 
  -2  10   3   29.12    3.60 
   2  10  -3   30.39    2.79 
   1 -10  -3    0.32    0.39 
   1 -10  -3   -0.01    0.46 
   1 -10  -3    0.35    0.26 
  -1 -10   3    0.27    0.33 
   1  10  -3    0.51    0.38 
  -1  10   3    0.72    0.55 
   1  10  -3    0.27    0.68 
   0 -10   3   23.53    1.88 
   0 -10  -3   29.30    2.99 
   0 -10  -3   25.73    1.80 
   0 -10  -3   27.86    1.65 
   0 -10   3   23.76    1.47 
   0  10  -3   24.09    2.87 
   0  10   3   29.02    3.01 
   0  10  -3   24.02    1.89 
  -1 -10  -3    4.04    0.88 
  -1 -10  -3    4.44    0.62 
   1 -10   3    4.22    0.65 
  -1  10  -3    4.93    1.20 
   1  10   3    4.31    1.09 
  -1  10  -3    5.73    0.71 
  -2 -10  -3    5.94    1.07 
   2 -10   3    3.98    0.67 
  -2  10  -3    6.33    1.19 
   2  10   3    7.12    1.28 
  -3 -10  -3    1.71    0.90 
   3 -10   3    1.86    0.54 
  -3  10  -3    2.82    1.08 
   3  10   3    3.93    1.06 
  -4 -10  -3   -0.10    1.01 
   4 -10   3    0.26    0.53 
  -4  10  -3    0.36    0.81 
  -6 -11   3    0.32    0.57 
   6 -11  -3   -0.63    1.12 
   6 -11  -3    1.56    0.61 
  -6  11   3    1.12    0.58 
   6  11  -3    0.61    0.69 
  -5 -11   3    8.81    0.98 
   5 -11  -3    7.48    1.27 
   5 -11  -3    9.67    1.02 
  -5  11   3    7.28    0.92 
   5  11  -3    5.85    0.93 
   4 -11  -3   -1.16    0.73 
   4 -11  -3   -0.22    0.47 
  -4 -11   3    0.21    0.49 
   4  11  -3    0.59    0.54 
  -4  11   3    0.14    0.54 
   3 -11  -3    2.59    0.79 
   3 -11  -3    3.41    0.63 
  -3 -11   3    4.34    0.65 
   3  11  -3    2.25    1.02 
  -3  11   3    3.22    0.66 
   3  11  -3    2.54    0.74 
  -2 -11   3    4.24    0.65 
   2 -11  -3    4.58    0.67 
   2  11  -3    4.57    0.74 
  -2  11   3    5.11    1.23 
   2  11  -3    3.60    1.00 
   1 -11  -3   10.10    0.96 
   1 -11  -3    9.69    1.35 
  -1 -11   3   10.03    0.85 
   1  11  -3    9.69    1.33 
  -1  11   3    9.22    1.42 
   1  11  -3    9.55    1.02 
   0 -11   3   -0.06    0.26 
   0 -11  -3   -0.38    0.38 
   0 -11  -3    0.34    0.55 
   0 -11   3   -0.08    0.32 
   0  11  -3    0.44    0.34 
   0  11  -3   -0.23    0.80 
   0  11   3    0.16    0.58 
   1 -11   3    0.33    0.36 
  -1 -11  -3    0.35    0.55 
  -1 -11  -3    0.10    0.42 
  -1  11  -3   -0.22    0.78 
  -1  11  -3    0.18    0.36 
   1  11   3    0.08    0.68 
  -2 -11  -3    0.85    0.38 
  -2 -11  -3   -0.04    0.53 
   2 -11   3    0.19    0.35 
  -2  11  -3    0.50    0.71 
   2  11   3    0.05    0.79 
  -3 -11  -3    2.48    1.06 
   3 -11   3    2.01    0.60 
  -3  11  -3    5.81    1.36 
   3  11   3    3.88    1.17 
   4 -11   3    0.22    0.53 
  -4 -11  -3   -0.27    0.70 
   4  11   3    1.32    0.79 
  -4  11  -3    1.02    0.89 
   6 -12  -3    0.03    0.53 
  -6 -12   3    0.07    0.58 
  -6  12   3   -0.52    0.47 
   6  12  -3   -0.31    0.65 
  -5 -12   3   -0.36    0.46 
   5 -12  -3    0.74    0.54 
  -5  12   3   -0.02    0.50 
   5  12  -3    0.50    0.58 
   4 -12  -3    6.69    0.93 
   4  12  -3   10.36    1.23 
  -4  12   3    6.21    0.92 
   3 -12  -3    2.51    0.65 
  -3 -12   3    3.40    0.67 
   3  12  -3    2.65    1.02 
  -3  12   3    2.06    0.68 
   3  12  -3    2.75    0.76 
   2 -12  -3    0.07    0.49 
  -2 -12   3    0.08    0.46 
  -2  12   3    0.08    1.05 
   2  12  -3   -1.32    0.85 
   2  12  -3   -0.13    0.50 
   1 -12  -3    1.48    0.47 
  -1 -12   3    1.71    0.43 
   1 -12  -3    1.67    0.73 
  -1 -12   3    1.69    0.44 
   1  12  -3    1.55    0.88 
   1  12  -3    1.97    0.48 
  -1  12   3    0.97    0.83 
   0 -12   3    1.63    0.38 
   0 -12  -3    2.21    0.53 
   0 -12  -3    1.97    0.75 
   0 -12   3    2.46    0.48 
   0  12  -3    1.99    1.04 
   0  12   3    2.90    0.91 
   0  12  -3    2.83    0.51 
  -1 -12  -3   -0.14    0.40 
   1 -12   3    0.03    0.34 
  -1 -12  -3    0.01    0.53 
  -1  12  -3    0.45    0.37 
   1  12   3    0.18    0.69 
  -1  12  -3   -0.49    0.78 
  -2 -12  -3    9.66    1.58 
  -2 -12  -3   11.11    0.96 
   2  12   3   11.35    1.79 
  -2  12  -3   10.57    1.72 
  -3 -12  -3    1.93    1.11 
   3 -12   3    1.89    0.55 
  -3  12  -3    3.50    1.25 
   3  12   3    2.43    1.14 
  -4 -12  -3    2.12    1.00 
   4 -12   3    0.92    0.60 
   4  12   3    2.95    1.14 
  -4  12  -3    4.18    1.49 
   6 -13  -3    1.29    0.64 
  -6 -13   3    0.97    0.63 
   6  13  -3   -0.04    0.68 
  -6  13   3   -0.05    0.53 
   5 -13  -3    0.33    0.55 
  -5 -13   3    0.32    0.52 
  -5  13   3   -0.46    0.52 
   5  13  -3   -0.43    0.54 
   4 -13  -3    1.13    0.54 
  -4 -13   3   -0.21    0.49 
  -4  13   3   -0.26    0.53 
   4  13  -3    0.22    0.52 
  -3 -13   3    0.76    0.54 
   3 -13  -3    0.02    0.52 
   3  13  -3    0.61    0.64 
  -3  13   3    0.30    0.57 
   3  13  -3    0.55    0.94 
   2 -13  -3    3.82    0.71 
  -2 -13   3    3.66    0.67 
   2  13  -3    3.91    0.70 
  -2  13   3    3.73    1.49 
   2  13  -3    3.76    1.17 
   1 -13  -3    0.23    0.46 
  -1 -13   3    0.95    0.40 
  -1 -13   3    0.84    0.39 
   1  13  -3    0.85    0.40 
   1  13  -3   -1.17    0.89 
  -1  13   3    1.36    0.94 
   0 -13  -3    4.73    1.03 
   0 -13   3    3.87    0.59 
   0 -13  -3    4.80    0.68 
   0  13  -3    4.07    0.61 
   0  13  -3    4.71    1.30 
   0  13   3    4.21    1.15 
   1 -13   3   -0.01    0.32 
  -1 -13  -3    0.30    0.60 
  -1 -13  -3    0.10    0.42 
  -1  13  -3    0.11    0.80 
   1  13   3    0.24    0.70 
  -1  13  -3    0.49    0.36 
   2 -13   3    0.59    0.40 
  -2 -13  -3    0.10    0.44 
  -2 -13  -3    0.69    0.73 
  -2  13  -3    0.75    0.78 
   2  13   3   -0.43    0.74 
   3 -13   3    0.34    0.47 
  -3 -13  -3   -0.58    0.91 
  -3  13  -3    1.25    0.84 
   3  13   3    0.81    1.07 
   4 -13   3   -0.44    0.51 
   4  13   3   -0.46    0.84 
  -6 -14   3   -0.64    0.56 
  -6  14   3   -0.19    0.55 
  -5 -14   3   -0.14    0.51 
   5 -14  -3    0.96    0.62 
  -5  14   3    0.64    0.61 
  -4 -14   3   14.06    1.21 
   4 -14  -3    9.06    1.14 
   4  14  -3   13.58    1.42 
  -4  14   3    9.22    1.19 
  -3 -14   3    0.94    0.55 
   3 -14  -3    0.53    0.49 
   3  14  -3    0.06    0.94 
   3  14  -3    1.45    0.63 
   2 -14  -3    0.17    0.47 
  -2 -14   3    0.09    0.49 
   2  14  -3   -0.38    0.46 
   2  14  -3   -0.07    0.97 
  -2  14   3   -0.26    1.41 
  -1 -14   3   -0.36    0.34 
   1 -14  -3   -0.21    0.47 
  -1 -14   3    0.18    0.35 
  -1  14   3    1.22    1.05 
   1  14  -3    0.07    0.37 
   1  14  -3   -0.45    0.84 
   0 -14  -3    5.64    1.15 
   0 -14   3    5.77    0.69 
   0 -14  -3    7.04    0.80 
   0  14  -3    4.73    1.20 
   0  14   3    5.52    1.36 
   0  14  -3    5.42    0.69 
  -1 -14  -3   -0.05    0.43 
  -1 -14  -3    0.28    0.64 
   1 -14   3    0.26    0.34 
  -1  14  -3   -0.23    0.81 
   1  14   3    0.52    0.78 
   2 -14   3    2.18    0.54 
  -2 -14  -3    3.14    1.10 
  -2 -14  -3    3.48    0.62 
  -2  14  -3    3.88    1.18 
   2  14   3    4.05    1.32 
   3 -14   3    0.04    0.45 
  -3 -14  -3   -1.40    0.99 
  -3  14  -3    0.41    0.78 
   3  14   3    0.76    1.17 
  -5 -15   3    0.31    0.55 
   5 -15  -3    1.02    0.63 
  -5  15   3    1.00    0.63 
  -4 -15   3    0.51    0.48 
   4 -15  -3    1.32    0.64 
  -4  15   3   -0.11    0.62 
  -3 -15   3   23.99    1.77 
   3  15  -3   24.45    3.19 
  -2 -15   3    0.24    0.46 
   2 -15  -3    1.11    0.54 
  -2  15   3   -0.23    1.45 
   2  15  -3    0.41    0.98 
  -1 -15   3    0.96    0.39 
   1 -15  -3    0.01    0.48 
  -1 -15   3    0.42    0.35 
   1  15  -3    0.46    0.90 
  -1  15   3    0.38    1.12 
   0 -15   3    0.25    0.29 
   0 -15  -3    0.14    0.70 
   0 -15  -3    0.39    0.40 
   0  15  -3   -0.18    0.84 
   0  15   3    0.18    0.90 
  -1 -15  -3    8.56    0.95 
  -1 -15  -3   10.35    1.67 
   1 -15   3    9.51    1.00 
   1  15   3   10.44    1.89 
  -1  15  -3   11.04    1.76 
   2 -15   3    0.00    0.40 
  -2 -15  -3    0.58    0.48 
  -2 -15  -3    0.12    0.88 
   2  15   3   -0.14    0.92 
  -2  15  -3    0.49    0.87 
   3 -15   3   -0.07    0.44 
  -3 -15  -3   -0.20    1.17 
   3  15   3    0.31    1.31 
  -3  15  -3    1.85    0.98 
  -5 -16   3    1.52    0.67 
   5 -16  -3    2.44    0.80 
  -5  16   3    2.45    0.78 
  -4 -16   3    0.43    0.54 
   4 -16  -3    0.37    0.61 
  -4  16   3    0.42    0.65 
   3 -16  -3    3.69    0.79 
  -3 -16   3    6.94    0.89 
   3  16  -3    4.88    1.24 
  -2 -16   3    2.83    0.59 
   2 -16  -3    1.79    0.56 
   2  16  -3    2.11    1.27 
  -2  16   3    2.03    1.77 
   1 -16  -3    1.79    0.55 
  -1 -16   3    1.49    0.43 
  -1  16   3    2.76    1.52 
   1  16  -3    1.35    1.01 
   0 -16  -3    8.33    1.57 
   0 -16  -3    8.52    0.92 
   0  16  -3    7.95    1.66 
   0  16   3   10.40    1.85 
   1 -16   3    0.15    0.34 
  -1 -16  -3    0.29    0.87 
  -1 -16  -3   -0.40    0.43 
  -1  16  -3    0.97    0.95 
   1  16   3   -0.24    0.90 
  -2 -16  -3   -0.13    0.43 
   2 -16   3   -0.44    0.38 
  -2 -16  -3    0.06    0.98 
   2  16   3   -0.59    1.08 
  -2  16  -3    0.66    0.89 
   3 -16   3    0.26    0.50 
  -3 -16  -3   -1.75    1.18 
  -3  16  -3    0.80    0.92 
   3  16   3   -1.15    0.83 
  -5 -17   3    1.04    0.64 
   5 -17  -3    0.24    0.66 
  -5  17   3   -0.34    0.67 
  -4 -17   3    4.13    0.79 
   4 -17  -3    3.69    0.85 
  -4  17   3    3.21    0.85 
  -3 -17   3    0.56    0.53 
   3 -17  -3    0.68    0.61 
   3  17  -3    0.54    1.03 
   2 -17  -3   12.59    1.16 
  -2 -17   3   13.42    1.14 
  -2  17   3   14.48    2.80 
   2  17  -3   17.73    2.68 
   1 -17  -3    0.34    0.48 
  -1 -17   3    0.20    0.37 
  -1  17   3   -0.26    1.46 
   1  17  -3    0.17    0.87 
   0 -17  -3    9.54    1.03 
   0  17   3   13.36    2.28 
   0  17  -3   11.61    1.90 
  -1 -17  -3    0.31    0.48 
  -1 -17  -3   -0.26    0.90 
   1  17   3   -0.33    1.08 
  -1  17  -3    1.46    1.03 
  -2 -17  -3    0.09    1.19 
  -2 -17  -3    1.41    0.52 
  -2  17  -3    2.19    1.09 
   2  17   3    0.66    1.39 
  -3 -17  -3   -0.41    0.93 
  -3  17  -3    1.61    0.98 
   3  17   3   -0.90    0.95 
  -5 -18   3   -0.13    0.62 
   5 -18  -3    0.49    0.75 
  -5  18   3    0.22    0.75 
   4 -18  -3    0.81    0.66 
  -4 -18   3    0.12    0.47 
  -4  18   3   -0.18    0.63 
   3 -18  -3    0.42    0.53 
  -3 -18   3    0.41    0.53 
   3  18  -3    0.09    1.03 
  -2 -18   3   -0.02    0.44 
   2 -18  -3    0.19    0.45 
  -2  18   3   -2.06    1.70 
   2  18  -3    1.08    1.06 
  -1 -18   3    2.60    0.55 
   1 -18  -3    2.20    0.56 
  -1  18   3    3.01    1.93 
   1  18  -3    1.52    1.05 
   0 -18  -3    1.01    0.53 
   0  18  -3    1.74    1.06 
   0  18   3    1.14    1.37 
  -1 -18  -3    1.10    0.54 
  -1 -18  -3    2.11    1.23 
  -1  18  -3    3.21    1.27 
   1  18   3    0.67    1.36 
  -2 -18  -3   -0.04    0.46 
  -2 -18  -3   -1.61    1.24 
  -2  18  -3    1.36    1.01 
   2  18   3   -1.59    1.36 
  -4 -19   3   -0.08    0.53 
   4 -19  -3   -0.52    0.64 
  -4  19   3    0.08    0.67 
   3 -19  -3    5.18    0.90 
   3  19  -3    4.45    1.28 
   2 -19  -3   -0.07    0.50 
  -2 -19   3    0.18    0.45 
  -2  19   3    1.01    1.94 
   2  19  -3   -0.07    1.03 
  -1 -19   3    1.42    0.48 
   1 -19  -3    0.42    0.48 
   1  19  -3   -0.35    0.91 
  -1  19   3   -0.43    1.95 
   0 -19  -3    0.91    0.54 
   0  19  -3    2.34    1.15 
   0  19   3    0.60    1.70 
  -1 -19  -3    0.94    1.42 
  -1 -19  -3    0.47    0.51 
   1  19   3   -0.60    1.45 
  -1  19  -3    0.75    1.11 
  -2 -19  -3   -0.68    1.46 
  -2 -19  -3    0.32    0.55 
   2  19   3   -1.30    1.57 
  -2  19  -3    3.91    1.56 
  -4 -20   3    0.22    0.49 
   4 -20  -3    0.69    0.71 
  -4  20   3   -0.34    0.67 
  -3 -20   3    0.56    0.53 
   3 -20  -3    0.28    0.62 
   3  20  -3    0.46    1.11 
   2 -20  -3   -0.04    0.52 
  -2 -20   3    0.57    0.49 
   2  20  -3    0.40    1.05 
  -2  20   3   -0.36    1.44 
   1 -20  -3   -0.27    0.46 
  -1 -20   3    0.82    0.45 
  -1  20   3   -2.82    2.00 
   1  20  -3   -0.30    0.91 
   0 -20  -3    2.72    0.66 
   0  20   3    1.54    2.03 
   0  20  -3    4.42    1.45 
  -1 -20  -3   -0.29    0.47 
   1  20   3   -1.17    1.55 
  -1  20  -3    3.58    1.44 
  -2 -20  -3    0.45    1.19 
  -2 -20  -3    0.44    0.56 
  -2  20  -3    2.37    1.25 
   2  20   3   -0.42    1.21 
  -4 -21   3   -0.09    0.58 
   4 -21  -3    0.12    0.72 
  -4  21   3    0.43    0.73 
  -3 -21   3    0.01    0.53 
   3 -21  -3    0.84    0.67 
   3  21  -3    0.82    1.12 
   2 -21  -3    0.49    0.52 
  -2 -21   3    0.01    0.51 
   2  21  -3    0.93    1.09 
  -2  21   3   -1.20    1.45 
   1 -21  -3    1.19    0.58 
  -1 -21   3    0.50    0.41 
  -1  21   3   -0.59    1.53 
   1  21  -3    0.50    1.01 
   0 -21  -3   -0.64    0.40 
   0  21  -3    0.67    0.98 
   0  21   3   -1.85    1.96 
  -1 -21  -3    1.01    0.60 
   1  21   3   -0.23    1.85 
  -1  21  -3    2.74    1.25 
   3 -22  -3    0.34    0.65 
  -3 -22   3    0.32    0.59 
   3  22  -3   -0.43    1.19 
   2 -22  -3    0.22    0.54 
  -2 -22   3    0.12    0.53 
  -2  22   3   -1.62    1.40 
   2  22  -3   -0.16    1.08 
   1 -22  -3    0.98    0.50 
  -1 -22   3    0.29    0.44 
  -1  22   3   -1.62    1.49 
   1  22  -3    0.51    0.94 
   0 -22  -3   -0.15    0.51 
   0  22   3   -0.25    1.56 
   0  22  -3    0.49    0.96 
  -1 -22  -3    0.44    0.60 
   1  22   3   -1.28    1.35 
  -1  22  -3    1.39    1.12 
   2 -23  -3   -0.70    0.53 
  -2 -23   3    0.01    0.56 
   2  23  -3   -0.53    1.15 
  -2  23   3   -1.57    1.46 
  -1 -23   3    0.09    0.40 
   1 -23  -3    0.00    0.54 
   1  23  -3   -1.04    0.93 
  -1  23   3   -1.26    1.57 
   0 -23  -3    0.26    0.57 
   0  23  -3   -0.17    1.00 
   0  23   3   -1.89    1.59 
   1 -24  -3   -0.59    0.58 
   1  24  -3   -0.57    0.96 
  -1  24   3   -1.78    1.45 
   7   0  -4   -0.65    1.01 
  -7   0   4    1.02    0.62 
   6   0  -4   17.20    1.92 
  -6   0   4   18.69    1.46 
   5   0  -4    0.02    0.61 
  -5   0   4    0.05    0.45 
  -4   0   4    2.88    0.57 
   4   0  -4    0.92    0.64 
   3   0  -4   -0.16    0.57 
  -3   0   4   -0.19    0.39 
   2   0  -4  408.86   25.74 
  -2   0   4  383.36   20.69 
   2   0  -4  400.15   32.85 
   1   0  -4    0.14    0.31 
   1   0  -4    0.25    0.39 
   1   0  -4   -0.16    0.38 
  -1   0   4   -0.08    0.32 
   0   0  -4    4.91    0.69 
   0   0  -4    3.54    0.72 
   0   0   4    4.36    0.62 
   0   0  -4    3.97    0.44 
  -1   0  -4    0.36    0.40 
  -1   0  -4   -0.21    0.50 
   1   0   4   -0.12    0.37 
   2   0   4   16.59    1.49 
  -2   0  -4   15.84    2.15 
  -3   0  -4   -0.04    0.68 
   3   0   4   -0.14    0.48 
   4   0   4    0.26    0.60 
  -4   0  -4   -0.28    0.71 
   7  -1  -4    3.90    1.43 
  -7  -1   4    4.43    0.81 
  -7   1   4    4.68    0.83 
   7   1  -4    2.83    1.19 
  -6  -1   4    0.28    0.48 
   6  -1  -4   -0.25    0.78 
   6   1  -4    0.18    0.76 
  -6   1   4    0.03    0.48 
   5  -1  -4    3.08    0.81 
  -5  -1   4    4.93    0.72 
   5   1  -4    3.34    0.79 
  -5   1   4    3.95    0.67 
   4  -1  -4    4.12    0.83 
  -4  -1   4    6.71    0.75 
   4   1  -4    3.76    0.78 
  -4   1   4    5.71    0.73 
  -3  -1   4    0.66    0.38 
   3  -1  -4    0.34    0.59 
   3   1  -4    0.23    0.57 
  -3   1   4    0.02    0.40 
   2  -1  -4   84.94    7.07 
  -2  -1   4   76.83    4.50 
   2  -1  -4   76.44    4.51 
   2  -1  -4   86.94    5.65 
  -2   1   4   77.93    4.51 
   2   1  -4   88.80    7.07 
   2   1  -4   89.36    5.69 
   1  -1  -4   51.79    2.86 
  -1  -1   4   53.34    2.85 
   1  -1  -4   51.38    3.57 
   1  -1  -4   48.27    4.54 
   1   1  -4   52.00    4.56 
   1   1  -4   50.58    3.59 
  -1   1   4   51.05    2.85 
   0  -1   4   -0.01    0.31 
   0  -1  -4    0.03    0.36 
   0  -1  -4   -0.10    0.32 
   0  -1  -4   -0.15    0.29 
   0   1  -4   -0.02    0.35 
   0   1  -4   -0.12    0.47 
   0   1   4   -0.03    0.31 
  -1  -1  -4    3.82    0.81 
  -1  -1  -4    5.08    0.75 
   1  -1   4    4.16    0.68 
   1   1   4    5.11    0.71 
  -1   1  -4    5.08    0.74 
  -1   1  -4    4.07    0.87 
   2  -1   4    6.49    0.91 
  -2  -1  -4    7.36    1.21 
   2   1   4    7.61    0.93 
  -2   1  -4    6.77    1.21 
  -3  -1  -4   14.52    2.23 
   3  -1   4   15.85    1.53 
   3   1   4   16.62    1.56 
  -3   1  -4   16.21    2.28 
  -4  -1  -4    0.74    0.84 
   4  -1   4    1.43    0.72 
   4   1   4    1.89    0.74 
  -4   1  -4    1.02    0.86 
   7  -2  -4    4.89    1.54 
  -7  -2   4    7.61    0.97 
  -7   2   4    7.28    0.99 
   7   2  -4    6.81    1.36 
   6  -2  -4   -0.08    0.91 
  -6  -2   4    0.47    0.48 
  -6   2   4    0.16    0.49 
   6   2  -4    0.82    0.77 
   5  -2  -4    0.20    0.63 
  -5  -2   4   -0.46    0.43 
   5   2  -4    0.00    0.54 
  -5   2   4   -0.48    0.38 
   4  -2  -4    0.45    0.65 
  -4  -2   4    1.53    0.53 
   4   2  -4    1.32    0.60 
  -4   2   4    1.60    0.52 
  -3  -2   4   38.47    2.31 
   3  -2  -4   39.68    2.34 
   3  -2  -4   40.41    2.96 
  -3   2   4   38.96    2.33 
   3   2  -4   37.12    2.96 
   2  -2  -4   -0.11    0.46 
   2  -2  -4    0.32    0.38 
  -2  -2   4   -0.11    0.34 
   2  -2  -4   -0.75    0.37 
  -2   2   4    0.37    0.37 
   2   2  -4    0.56    0.49 
   2   2  -4    0.70    0.31 
  -1  -2   4   40.37    2.25 
   1  -2  -4   40.16    2.30 
   1  -2  -4   39.17    2.84 
   1  -2  -4   39.07    3.66 
   1   2  -4   41.37    3.67 
  -1   2   4   38.80    2.27 
   1   2  -4   39.90    2.90 
   0  -2   4    6.11    0.75 
   0  -2  -4    6.58    0.66 
   0  -2  -4    4.82    0.82 
   0  -2  -4    6.11    0.76 
   0   2   4    4.91    0.67 
   0   2  -4    5.33    0.92 
   0   2  -4    6.07    0.77 
   1  -2   4    2.83    0.59 
  -1  -2  -4    4.00    0.67 
  -1  -2  -4    3.10    0.85 
  -1   2  -4    3.74    0.83 
   1   2   4    3.63    0.63 
  -1   2  -4    4.17    0.70 
   2  -2   4   -0.28    0.39 
  -2  -2  -4    0.01    0.50 
  -2   2  -4   -0.13    0.56 
   2   2   4    0.26    0.43 
   3  -2   4    0.60    0.52 
  -3  -2  -4    0.81    0.75 
  -3   2  -4    0.05    0.73 
   3   2   4   -0.30    0.47 
   4  -2   4   -0.08    0.56 
  -4  -2  -4    0.13    0.70 
   4   2   4    0.43    0.61 
  -4   2  -4    0.23    0.74 
   7  -3  -4    1.86    1.37 
  -7  -3   4    2.48    0.68 
  -7   3   4    1.98    0.67 
   7   3  -4    1.94    1.05 
  -6  -3   4    0.71    0.53 
   6  -3  -4    0.28    0.97 
  -6   3   4    1.26    0.55 
   6   3  -4   -0.78    0.66 
   5  -3  -4    1.85    0.79 
  -5  -3   4    3.84    0.65 
  -5   3   4    3.62    0.66 
   5   3  -4    1.73    0.65 
  -4  -3   4    1.04    0.50 
   4  -3  -4    2.27    0.53 
   4  -3  -4    1.44    0.72 
  -4   3   4    1.36    0.53 
   4   3  -4    0.70    0.56 
   3  -3  -4    7.79    1.03 
  -3  -3   4    8.62    0.83 
   3  -3  -4    8.81    0.85 
   3   3  -4    7.62    1.01 
  -3   3   4    8.57    0.86 
   2  -3  -4    1.40    0.44 
   2  -3  -4    0.78    0.33 
  -2  -3   4    0.83    0.39 
   2  -3  -4    1.05    0.52 
   2   3  -4    1.02    0.37 
  -2   3   4    1.06    0.42 
   2   3  -4    1.35    0.56 
   1  -3  -4   38.06    3.54 
   1  -3  -4   36.83    2.71 
   1  -3  -4   39.77    2.24 
  -1  -3   4   37.78    2.16 
   1   3  -4   37.90    2.78 
  -1   3   4   37.94    2.20 
   1   3  -4   37.89    3.54 
   0  -3  -4    6.60    0.86 
   0  -3   4    6.53    0.79 
   0  -3  -4    6.82    0.63 
   0  -3  -4    5.58    0.93 
   0   3  -4    6.32    1.00 
   0   3   4    6.01    0.81 
   0   3   4    6.13    0.66 
   0   3  -4    7.11    0.83 
  -1  -3  -4    0.62    0.47 
  -1  -3  -4    0.82    0.45 
   1  -3   4    0.54    0.41 
  -1   3  -4    0.59    0.42 
  -1   3  -4    0.20    0.62 
   1   3   4    1.07    0.44 
   2  -3   4    0.29    0.39 
  -2  -3  -4   -0.02    0.45 
  -2   3  -4    0.28    0.60 
   2   3   4   -0.19    0.40 
   3  -3   4   18.27    1.70 
  -3  -3  -4   16.59    2.41 
  -3   3  -4   20.46    2.56 
   3   3   4   18.99    1.72 
   4  -3   4    0.34    0.60 
  -4  -3  -4    0.19    0.74 
  -4   3  -4    0.77    0.83 
   4   3   4    0.48    0.60 
  -7  -4   4    1.73    0.62 
  -7   4   4    1.83    0.68 
   7   4  -4    0.48    0.96 
  -6  -4   4    6.25    0.80 
   6  -4  -4    3.93    1.21 
  -6   4   4    5.80    0.80 
   6   4  -4    4.79    0.98 
   5  -4  -4   -0.09    0.65 
  -5  -4   4    0.64    0.48 
   5   4  -4   -0.52    0.49 
  -5   4   4    0.08    0.46 
   4  -4  -4    2.72    0.79 
   4  -4  -4    3.83    0.65 
  -4  -4   4    3.79    0.64 
  -4   4   4    3.96    0.66 
   4   4  -4    2.63    0.67 
   3  -4  -4    4.11    0.81 
  -3  -4   4    5.05    0.66 
   3  -4  -4    4.92    0.64 
  -3   4   4    4.40    0.65 
   3   4  -4    3.50    0.76 
  -2  -4   4   52.26    3.06 
   2  -4  -4   53.65    4.75 
   2  -4  -4   52.45    3.77 
   2  -4  -4   52.50    3.08 
  -2   4   4   52.28    3.06 
   2   4  -4   55.03    4.76 
   2   4  -4   58.80    3.89 
  -2   4   4   56.80    4.77 
   1  -4  -4    8.36    0.97 
  -1  -4   4    9.40    0.80 
   1  -4  -4    9.92    0.85 
   1  -4  -4    7.95    1.33 
   1   4  -4    9.70    1.36 
  -1   4   4    8.82    0.83 
   1   4  -4    8.09    1.09 
   0  -4  -4   22.53    1.35 
   0  -4  -4   21.05    1.68 
   0  -4  -4   21.87    2.32 
   0  -4   4   19.73    1.70 
   0   4   4   22.06    1.33 
   0   4   4   21.11    1.65 
   0   4  -4   19.92    1.71 
   0   4  -4   19.77    2.38 
   1  -4   4    0.70    0.42 
  -1  -4  -4    0.45    0.45 
  -1  -4  -4    0.45    0.42 
  -1   4  -4    0.79    0.42 
  -1   4  -4    0.11    0.61 
   1   4   4   -0.03    0.35 
   2  -4   4    0.01    0.37 
  -2  -4  -4    0.44    0.49 
  -2   4  -4   -0.03    0.58 
   2   4   4    0.51    0.44 
  -3  -4  -4    0.62    0.81 
  -3   4  -4    1.30    0.83 
   3   4   4    1.36    0.58 
   4  -4   4    1.38    0.72 
  -4  -4  -4    1.28    0.84 
  -4   4  -4    4.13    1.47 
   4   4   4    1.83    0.69 
  -7  -5   4    0.76    0.64 
  -7   5   4    1.05    0.63 
  -6  -5   4    0.63    0.53 
   6  -5  -4   -0.27    1.01 
  -6   5   4    0.00    0.48 
   6   5  -4    0.43    0.69 
   5  -5  -4    2.77    0.82 
  -5  -5   4    4.67    0.71 
  -5   5   4    4.17    0.66 
   5   5  -4    1.80    0.63 
  -4  -5   4    0.48    0.48 
   4  -5  -4    0.98    0.69 
   4  -5  -4    0.28    0.44 
   4   5  -4    0.38    0.54 
  -4   5   4    0.30    0.43 
   3  -5  -4   22.84    1.57 
   3  -5  -4   23.16    2.00 
  -3  -5   4   22.56    1.54 
   3   5  -4   21.32    2.02 
  -3   5   4   22.26    1.54 
   2  -5  -4   19.94    1.41 
   2  -5  -4   20.08    2.11 
  -2  -5   4   18.83    1.33 
   2  -5  -4   18.74    1.64 
   2   5  -4   21.78    1.89 
  -2   5   4   18.00    2.16 
   2   5  -4   19.99    2.04 
  -2   5   4   20.28    1.38 
   1  -5  -4    0.32    0.36 
   1  -5  -4    0.04    0.32 
  -1  -5   4   -0.19    0.29 
   1  -5  -4   -0.27    0.32 
  -1   5   4    0.29    0.39 
   1   5  -4   -0.03    0.46 
   1   5  -4    0.14    0.42 
   0  -5  -4    0.55    0.40 
   0  -5   4    0.46    0.37 
   0  -5  -4   -0.06    0.34 
   0  -5  -4    0.14    0.37 
   0   5   4   -0.25    0.37 
   0   5  -4    0.18    0.56 
   0   5   4    0.39    0.31 
   0   5  -4   -0.26    0.35 
   1  -5   4   16.52    1.51 
  -1  -5  -4   17.37    2.19 
   1   5   4   18.14    1.49 
  -1   5  -4   18.58    2.29 
  -1   5  -4   16.60    1.52 
  -2  -5  -4   20.27    2.52 
  -2   5  -4   22.86    2.66 
   2   5   4   22.24    1.81 
   3  -5   4    0.29    0.48 
  -3  -5  -4    0.80    0.79 
   3   5   4   -0.05    0.45 
  -3   5  -4    0.10    0.70 
   4  -5   4    3.66    0.88 
  -4  -5  -4    5.29    1.48 
   4   5   4    3.21    0.81 
  -4   5  -4    5.74    1.69 
   6  -6  -4    3.27    1.22 
  -6  -6   4    4.29    0.71 
   6   6  -4    2.25    0.79 
  -6   6   4    3.81    0.72 
  -5  -6   4    0.67    0.49 
   5  -6  -4    0.60    0.52 
   5  -6  -4    0.08    0.77 
  -5   6   4    0.45    0.44 
   5   6  -4    0.41    0.52 
  -4  -6   4    6.50    0.80 
   4  -6  -4    6.86    0.81 
   4  -6  -4    4.97    0.92 
  -4   6   4    6.70    0.81 
   4   6  -4    3.66    0.75 
  -3  -6   4    4.84    0.68 
   3  -6  -4    5.70    0.73 
   3  -6  -4    5.03    0.87 
   3   6  -4    4.87    0.88 
  -3   6   4    4.63    0.70 
   2  -6  -4    5.08    0.75 
   2  -6  -4    4.40    0.63 
  -2  -6   4    5.05    0.62 
   2  -6  -4    5.58    0.71 
  -2   6   4    4.25    0.78 
   2   6  -4    4.36    0.74 
   2   6  -4    6.01    0.89 
  -2   6   4    6.01    0.72 
  -1  -6   4    5.25    0.52 
   1  -6  -4    5.34    0.64 
   1  -6  -4    4.72    0.60 
   1  -6  -4    4.07    0.71 
  -1   6   4    5.70    0.66 
   1   6  -4    4.18    0.78 
  -1   6   4    4.19    0.78 
  -1   6   4    2.73    0.52 
   1   6  -4    7.18    0.83 
   0  -6   4    0.58    0.40 
   0  -6  -4    0.19    0.36 
   0  -6  -4    0.47    0.42 
   0  -6  -4    0.80    0.45 
   0   6  -4   -0.13    0.57 
   0   6  -4    0.49    0.42 
   0   6   4    0.65    0.32 
   1  -6   4    0.48    0.41 
  -1  -6  -4    0.12    0.44 
   1   6   4    0.58    0.37 
  -1   6  -4    0.65    0.42 
  -1   6  -4    0.07    0.65 
  -2  -6  -4    2.82    0.78 
   2  -6   4    1.96    0.55 
   2   6   4    3.21    0.63 
  -2   6  -4    2.58    0.86 
  -3  -6  -4    3.78    1.16 
   3  -6   4    4.02    0.80 
   3   6   4    4.68    0.82 
  -3   6  -4    5.86    1.45 
   4  -6   4    0.05    0.59 
   4   6   4   -0.89    0.50 
  -6  -7   4    0.76    0.53 
   6  -7  -4   -1.89    0.94 
  -6   7   4   -0.71    0.47 
   6   7  -4    0.83    0.65 
   5  -7  -4   -0.33    0.45 
   5  -7  -4   -0.61    0.76 
  -5  -7   4   -0.05    0.43 
   5   7  -4   -0.15    0.48 
  -5   7   4    0.35    0.49 
  -4  -7   4   -0.12    0.44 
   4  -7  -4    0.06    0.48 
   4  -7  -4    0.47    0.69 
  -4   7   4    0.59    0.49 
   4   7  -4   -0.08    0.50 
  -3  -7   4    2.39    0.54 
   3  -7  -4    2.08    0.59 
   3  -7  -4    1.34    0.70 
   3   7  -4    2.78    0.77 
  -3   7   4    1.55    0.53 
  -2  -7   4    0.83    0.41 
   2  -7  -4    0.58    0.45 
   2  -7  -4    0.64    0.42 
   2  -7  -4    0.79    0.45 
   2   7  -4    1.02    0.57 
  -2   7   4    0.46    0.45 
   2   7  -4    1.26    0.62 
  -2   7   4    1.33    0.52 
   1  -7  -4    5.44    0.67 
   1  -7  -4    6.04    0.68 
   1  -7  -4    5.03    0.86 
  -1  -7   4    5.23    0.56 
  -1   7   4    6.23    0.70 
  -1   7   4    5.83    0.76 
   1   7  -4    5.55    0.80 
   1   7  -4    4.69    0.97 
  -1   7   4    4.57    0.87 
   0  -7  -4    1.01    0.44 
   0  -7   4    0.85    0.41 
   0  -7  -4    0.52    0.46 
   0  -7  -4    0.95    0.39 
   0   7   4    0.83    0.34 
   0   7  -4    0.97    0.46 
   0   7  -4    0.08    0.60 
  -1  -7  -4    1.60    0.60 
   1  -7   4    1.00    0.46 
  -1   7  -4    1.77    0.79 
  -1   7  -4    1.49    0.50 
   1   7   4    2.09    0.46 
  -2  -7  -4    3.51    0.88 
   2  -7   4    2.02    0.57 
   2   7   4    4.05    0.67 
  -2   7  -4    4.48    1.06 
  -3  -7  -4    5.95    1.42 
   3  -7   4    4.86    0.90 
   3   7   4    5.88    0.93 
  -3   7  -4   10.73    1.83 
   6  -8  -4    1.18    1.09 
  -6  -8   4    2.75    0.61 
   6   8  -4    1.70    0.69 
  -6   8   4    3.23    0.71 
   5  -8  -4    3.89    0.95 
  -5  -8   4    5.18    0.71 
   5  -8  -4    5.70    0.82 
   5   8  -4    2.55    0.66 
  -5   8   4    4.54    0.71 
   4  -8  -4    5.77    0.94 
  -4  -8   4    8.15    0.81 
   4  -8  -4    8.12    0.87 
  -4   8   4    6.75    0.85 
   4   8  -4    4.28    0.78 
   3  -8  -4    9.75    0.99 
  -3  -8   4    8.72    0.89 
   3  -8  -4    8.25    1.04 
  -3   8   4    7.72    0.95 
   3   8  -4    9.75    1.17 
   2  -8  -4    2.40    0.62 
  -2  -8   4    2.13    0.47 
   2  -8  -4    2.30    0.56 
   2  -8  -4    2.06    0.52 
   2   8  -4    2.08    0.71 
  -2   8   4    2.25    0.67 
  -2   8   4    2.10    0.57 
   2   8  -4    1.90    0.69 
  -1  -8   4    0.29    0.33 
   1  -8  -4    0.10    0.44 
   1  -8  -4    0.71    0.37 
   1  -8  -4    0.45    0.46 
  -1  -8   4    0.28    0.45 
  -1   8   4    0.31    0.31 
  -1   8   4    0.50    0.53 
   1   8  -4    0.19    0.59 
   1   8  -4    0.68    0.48 
   0  -8   4    6.49    0.81 
   0  -8  -4    6.02    1.01 
   0  -8  -4    7.53    0.75 
   0  -8  -4    6.52    0.81 
   0   8  -4    7.38    0.87 
   0   8   4    6.14    1.14 
   0   8   4    5.58    0.76 
   0   8  -4    5.69    1.06 
  -1  -8  -4    1.51    0.59 
   1  -8   4    1.05    0.44 
  -1   8  -4    2.10    0.82 
  -1   8  -4    1.64    0.50 
   1   8   4    1.35    0.40 
   2  -8   4    0.40    0.42 
  -2  -8  -4   -0.08    0.50 
  -2   8  -4    0.40    0.67 
   2   8   4    0.05    0.36 
   3  -8   4    0.35    0.52 
  -3  -8  -4    0.22    0.80 
   3   8   4    0.26    0.48 
  -3   8  -4    1.21    0.80 
   6  -9  -4    0.61    0.56 
   6  -9  -4   -0.02    1.05 
  -6  -9   4    1.00    0.55 
  -6   9   4    1.09    0.59 
   6   9  -4    0.22    0.58 
  -5  -9   4   -0.13    0.43 
   5  -9  -4    0.68    0.83 
   5  -9  -4    0.21    0.51 
   5   9  -4   -0.22    0.47 
  -5   9   4   -0.04    0.50 
   4  -9  -4    0.30    0.67 
   4  -9  -4    0.47    0.50 
  -4  -9   4    0.17    0.44 
  -4   9   4   -0.06    0.44 
   4   9  -4    0.07    0.50 
   3  -9  -4   -0.07    0.62 
   3  -9  -4    0.10    0.48 
  -3  -9   4   -0.15    0.43 
   3   9  -4    0.24    0.67 
  -3   9   4   -0.52    0.49 
   2  -9  -4    2.12    0.49 
  -2  -9   4    2.43    0.52 
   2  -9  -4    2.71    0.59 
   2  -9  -4    2.39    0.71 
   2   9  -4    2.43    0.76 
  -2   9   4    2.53    0.81 
   2   9  -4    2.82    0.74 
  -2   9   4    2.64    0.63 
  -1  -9   4    7.83    0.98 
   1  -9  -4    7.07    1.09 
   1  -9  -4    7.18    0.84 
  -1  -9   4    6.98    0.72 
   1  -9  -4    7.61    0.82 
  -1   9   4    6.49    0.80 
  -1   9   4    7.33    1.20 
   1   9  -4    8.05    0.94 
   1   9  -4    6.02    1.06 
   0  -9   4    0.30    0.37 
   0  -9  -4   -0.21    0.48 
   0  -9  -4    0.01    0.32 
   0  -9  -4   -0.09    0.43 
   0   9   4   -0.29    0.60 
   0   9  -4   -0.92    0.57 
   0   9  -4    0.01    0.38 
   1  -9   4    7.88    0.95 
  -1  -9  -4    7.45    1.24 
  -1   9  -4    8.17    0.96 
  -1   9  -4   11.83    1.77 
   1   9   4   11.24    1.79 
  -2  -9  -4    0.22    0.57 
   2  -9   4    0.69    0.42 
  -2   9  -4    0.42    0.66 
   2   9   4    2.47    0.71 
  -3  -9  -4    3.99    1.28 
  -3   9  -4    6.56    1.67 
   6 -10  -4    6.68    0.89 
  -6 -10   4    4.65    0.75 
   6 -10  -4    2.90    1.20 
  -6  10   4    4.85    0.84 
   6  10  -4    2.62    0.71 
   5 -10  -4   13.28    1.21 
  -5 -10   4   11.75    1.12 
   5 -10  -4   12.25    1.58 
  -5  10   4   12.90    1.17 
   4 -10  -4    5.29    0.89 
   4 -10  -4    6.80    0.85 
  -4 -10   4    7.64    0.84 
   4  10  -4    4.48    0.77 
  -4  10   4    7.47    0.89 
   3 -10  -4    9.57    1.24 
   3 -10  -4    8.02    0.97 
  -3 -10   4    7.90    0.89 
  -3  10   4    7.84    0.95 
   3  10  -4    9.13    1.15 
   2 -10  -4   13.16    1.25 
   2 -10  -4   15.65    2.38 
  -2 -10   4   14.49    1.17 
   2 -10  -4   14.20    1.26 
   2  10  -4   13.01    2.00 
  -2  10   4   15.61    1.26 
   2  10  -4   17.75    1.62 
  -2  10   4   15.55    1.96 
   1 -10  -4    8.43    1.28 
   1 -10  -4   10.91    1.09 
  -1 -10   4    8.71    1.07 
  -1 -10   4    8.51    0.81 
  -1  10   4   10.01    1.48 
   1  10  -4    7.98    1.27 
   1  10  -4    9.32    1.11 
   0 -10  -4    2.49    0.78 
   0 -10   4    2.58    0.55 
   0 -10  -4    2.65    0.57 
   0  10   4    3.13    0.94 
   0  10  -4    2.36    0.55 
   0  10  -4    2.90    0.83 
  -1 -10  -4    0.00    0.51 
   1 -10   4   -0.07    0.33 
   1  10   4    0.52    0.69 
  -1  10  -4    0.45    0.69 
  -1  10  -4    0.25    0.36 
  -2 -10  -4   10.76    1.78 
   2  10   4   16.94    2.04 
  -2  10  -4   13.02    2.12 
  -3 -10  -4   -0.22    0.92 
  -3  10  -4    0.24    0.72 
  -6 -11   4    0.44    0.57 
   6 -11  -4    1.07    0.62 
  -6  11   4    1.14    0.61 
   6  11  -4    0.26    0.57 
   5 -11  -4    1.07    0.59 
  -5 -11   4    0.55    0.48 
  -5  11   4    0.77    0.59 
   5  11  -4    0.57    0.51 
  -4 -11   4   -0.31    0.44 
   4 -11  -4   -0.13    0.51 
  -4  11   4   -0.64    0.50 
   4  11  -4    0.02    0.49 
   3 -11  -4    0.89    0.52 
  -3 -11   4    0.83    0.51 
  -3  11   4    0.98    0.60 
   3  11  -4    1.04    0.67 
  -2 -11   4    5.03    0.71 
   2 -11  -4    7.38    1.20 
   2 -11  -4    6.11    0.79 
   2  11  -4    7.36    1.01 
  -2  11   4    5.46    1.33 
   2  11  -4    4.94    1.10 
  -1 -11   4    2.93    0.63 
  -1 -11   4    3.92    0.55 
   1 -11  -4    4.49    0.70 
   1 -11  -4    4.47    0.95 
   1  11  -4    4.15    1.05 
   1  11  -4    4.81    0.77 
  -1  11   4    5.07    1.16 
   0 -11  -4   18.30    2.45 
   0 -11  -4   18.89    1.33 
   0 -11   4   16.43    1.45 
   0  11  -4   17.01    1.47 
   0  11   4   19.78    2.64 
   0  11  -4   17.16    2.31 
   1 -11   4    0.50    0.39 
  -1 -11  -4    1.05    0.68 
  -1 -11  -4    1.30    0.48 
  -1  11  -4    0.82    0.75 
   1  11   4    0.90    0.79 
  -1  11  -4    0.64    0.40 
  -2 -11  -4    5.94    1.37 
   2  11   4    7.28    1.41 
  -2  11  -4    6.61    1.46 
  -3 -11  -4   -0.15    1.05 
  -3  11  -4    1.30    0.87 
   6 -12  -4    2.25    0.73 
  -6 -12   4    2.37    0.71 
  -6  12   4    1.25    0.66 
   6  12  -4    1.01    0.59 
   5 -12  -4    2.47    0.68 
  -5 -12   4    0.54    0.53 
  -5  12   4    1.25    0.62 
   5  12  -4   -0.05    0.49 
  -4 -12   4    2.23    0.62 
   4 -12  -4    2.20    0.64 
  -4  12   4    2.60    0.73 
   4  12  -4    1.30    0.58 
  -3 -12   4   10.56    1.04 
   3 -12  -4    9.71    1.06 
  -3  12   4    8.52    1.05 
   3  12  -4   13.90    1.41 
  -2 -12   4    2.01    0.56 
   2 -12  -4    2.70    0.63 
   2  12  -4    1.89    0.73 
   2  12  -4    2.90    0.72 
  -2  12   4    2.24    1.12 
  -1 -12   4    0.40    0.42 
   1 -12  -4   -0.21    0.47 
  -1 -12   4   -0.11    0.33 
   1 -12  -4    0.17    0.66 
   1  12  -4    0.47    0.44 
   1  12  -4    0.02    0.73 
  -1  12   4   -0.43    0.82 
   0 -12  -4    0.85    0.71 
   0 -12   4    0.95    0.40 
   0 -12  -4    0.61    0.44 
   0  12   4    0.71    0.83 
   0  12  -4    1.68    0.46 
   0  12  -4    1.62    0.84 
  -1 -12  -4   15.86    1.20 
   1 -12   4   12.20    1.23 
  -1 -12  -4   15.74    2.27 
  -1  12  -4   16.66    2.22 
   1  12   4   14.30    2.28 
  -1  12  -4   11.73    1.23 
  -2 -12  -4    1.01    0.89 
   2 -12   4    0.61    0.45 
   2  12   4    2.49    0.94 
  -2  12  -4    1.21    0.87 
   3 -12   4   -0.16    0.45 
  -3 -12  -4   -0.70    0.66 
   3  12   4    1.31    0.81 
  -3  12  -4    1.46    0.91 
  -6 -13   4    0.30    0.59 
   6 -13  -4    0.94    0.68 
  -6  13   4   -0.36    0.56 
   6  13  -4    0.26    0.55 
  -5 -13   4    4.90    0.80 
   5 -13  -4    4.92    0.86 
  -5  13   4    4.39    0.82 
   5  13  -4    2.47    0.64 
  -4 -13   4    4.17    0.73 
   4 -13  -4    3.34    0.73 
  -4  13   4    3.23    0.80 
   4  13  -4    3.43    0.73 
   3 -13  -4    3.12    0.70 
  -3 -13   4    4.46    0.71 
   3  13  -4    3.85    0.76 
  -3  13   4    3.27    0.71 
   2 -13  -4    0.57    0.53 
  -2 -13   4    0.34    0.43 
   2  13  -4    1.32    0.55 
   2  13  -4    0.43    0.72 
  -2  13   4    1.30    1.17 
   1 -13  -4   23.71    1.63 
  -1 -13   4   21.08    1.79 
   1 -13  -4   28.27    2.99 
   1  13  -4   21.71    2.66 
   1  13  -4   22.04    1.78 
  -1  13   4   19.62    3.01 
   0 -13  -4    4.70    1.11 
   0 -13   4    3.13    0.56 
   0 -13  -4    3.08    0.64 
   0  13  -4    3.39    1.06 
   0  13  -4    3.18    0.59 
   0  13   4    2.90    1.17 
   1 -13   4    0.72    0.40 
  -1 -13  -4    0.12    0.77 
  -1 -13  -4    0.36    0.52 
   1  13   4    0.29    0.91 
  -1  13  -4    0.53    0.38 
  -1  13  -4    0.78    0.78 
   2 -13   4    0.51    0.44 
  -2 -13  -4    0.69    0.93 
   2  13   4    1.80    1.07 
  -2  13  -4    1.45    0.85 
  -3 -13  -4   -1.06    0.64 
   3 -13   4    0.21    0.50 
   3  13   4    1.14    0.88 
  -3  13  -4    1.50    0.91 
  -5 -14   4    1.15    0.59 
   5 -14  -4    1.10    0.66 
   5  14  -4    1.01    0.55 
  -5  14   4    1.84    0.72 
  -4 -14   4    3.37    0.67 
   4 -14  -4    3.53    0.77 
   4  14  -4    2.94    0.72 
  -4  14   4    2.58    0.73 
  -3 -14   4   -0.17    0.49 
   3 -14  -4    0.24    0.52 
  -3  14   4    0.99    0.58 
   3  14  -4    1.20    0.59 
  -2 -14   4    0.35    0.47 
   2 -14  -4    0.68    0.52 
   2  14  -4    1.31    0.55 
  -2  14   4   -1.40    1.25 
   2  14  -4    0.48    0.79 
   1 -14  -4   -0.13    0.47 
   1 -14  -4   -0.05    0.79 
  -1 -14   4    0.20    0.36 
   1  14  -4    0.53    0.86 
   1  14  -4    0.87    0.42 
  -1  14   4    0.23    1.07 
   0 -14  -4    6.91    1.41 
   0 -14  -4    7.63    0.86 
   0 -14   4    5.63    0.76 
   0  14   4    8.43    1.78 
   0  14  -4    5.94    0.79 
   0  14  -4    9.10    1.49 
  -1 -14  -4    4.55    0.74 
   1 -14   4    2.28    0.53 
  -1 -14  -4    3.86    1.22 
  -1  14  -4    3.20    1.10 
   1  14   4    4.41    1.36 
  -2 -14  -4    8.12    1.80 
   2  14   4    8.97    1.86 
  -2  14  -4    8.61    1.84 
   3  14   4    0.69    0.93 
   5 -15  -4    0.40    0.63 
  -5 -15   4    0.54    0.54 
  -5  15   4   -0.13    0.65 
   4 -15  -4    1.41    0.67 
  -4 -15   4    1.09    0.61 
  -4  15   4    1.45    0.72 
  -3 -15   4   12.84    1.25 
   3 -15  -4   12.10    1.18 
   3  15  -4   17.72    1.54 
  -3  15   4   11.57    1.23 
   2 -15  -4   -0.22    0.48 
  -2 -15   4    0.60    0.46 
   2  15  -4   -0.30    0.76 
  -2  15   4   -0.86    1.46 
   2  15  -4    0.51    0.48 
   1 -15  -4    2.24    1.07 
  -1 -15   4    1.78    0.48 
   1 -15  -4    1.57    0.54 
   1  15  -4    1.51    0.90 
  -1  15   4    2.38    1.40 
   1  15  -4    2.66    0.54 
   0 -15   4    2.41    0.50 
   0 -15  -4    3.37    0.66 
   0 -15  -4    2.96    1.21 
   0  15  -4    3.14    1.05 
   0  15  -4    2.97    0.55 
   0  15   4    1.92    1.35 
  -1 -15  -4   17.57    2.39 
  -1 -15  -4   15.03    1.34 
   1 -15   4   11.33    1.26 
   1  15   4   15.77    2.54 
  -1  15  -4   18.98    2.51 
  -2 -15  -4   -0.38    1.11 
   2 -15   4   -0.16    0.42 
  -2  15  -4    0.18    0.79 
   2  15   4    1.09    1.22 
   5 -16  -4    0.45    0.61 
  -5 -16   4   -0.06    0.54 
  -5  16   4    0.55    0.73 
   4 -16  -4    1.40    0.70 
  -4 -16   4    3.05    0.71 
  -4  16   4    2.02    0.80 
  -3 -16   4   -0.07    0.50 
   3 -16  -4   -0.19    0.47 
  -3  16   4    0.17    0.51 
   2 -16  -4   -0.30    0.44 
  -2 -16   4    0.56    0.44 
   2  16  -4    1.04    0.84 
  -2  16   4   -1.78    1.61 
   1 -16  -4    8.45    0.97 
  -1 -16   4    6.73    0.90 
   1  16  -4   10.28    1.64 
  -1  16   4   11.43    2.31 
   0 -16   4    0.17    0.30 
   0 -16  -4   -0.46    0.99 
   0 -16  -4    0.60    0.53 
   0  16  -4    0.06    0.80 
   0  16   4    0.20    1.25 
  -1 -16  -4    0.26    0.53 
   1 -16   4    0.23    0.38 
  -1 -16  -4   -0.44    1.06 
   1  16   4    0.80    1.28 
  -1  16  -4    1.74    0.95 
  -2 -16  -4   -1.14    1.23 
   2 -16   4    0.06    0.46 
   2  16   4    1.20    1.27 
  -2  16  -4    0.79    0.83 
  -5 -17   4    0.13    0.59 
   5 -17  -4    0.19    0.68 
  -5  17   4    0.67    0.78 
  -4 -17   4    1.86    0.67 
   4 -17  -4    2.34    0.75 
  -4  17   4    1.40    0.77 
   3 -17  -4   11.93    1.21 
  -3 -17   4   11.79    1.14 
  -3  17   4   12.10    1.29 
   2 -17  -4   -0.07    0.52 
  -2 -17   4    0.19    0.46 
   2  17  -4    1.01    0.85 
  -2  17   4   -2.68    1.77 
   1 -17  -4    1.79    0.59 
   1  17  -4    2.09    1.02 
  -1  17   4    1.43    1.66 
   0 -17  -4    5.24    1.66 
   0 -17  -4    4.57    0.80 
   0  17  -4    6.57    1.56 
   0  17   4    3.68    1.83 
  -1 -17  -4    0.55    0.57 
  -1 -17  -4   -0.90    1.23 
  -1  17  -4    0.87    0.91 
   1  17   4    0.33    1.44 
  -2 -17  -4    0.10    0.99 
   2  17   4    0.75    1.09 
  -2  17  -4    2.18    1.03 
   4 -18  -4    7.27    1.09 
  -4  18   4    7.95    1.17 
  -3 -18   4   -0.26    0.47 
   3 -18  -4    0.06    0.50 
   2 -18  -4   -0.31    0.52 
  -2 -18   4    0.08    0.38 
   2  18  -4    0.74    0.87 
  -2  18   4   -0.96    1.49 
   1 -18  -4    3.10    0.70 
   1  18  -4    3.54    1.14 
  -1  18   4    1.81    1.90 
   0 -18  -4   10.03    1.18 
   0 -18  -4   15.97    2.67 
   0  18  -4   15.79    2.39 
   0  18   4   14.61    2.78 
  -1 -18  -4   -1.00    1.45 
  -1 -18  -4   -0.10    0.54 
  -1  18  -4    1.23    0.90 
   1  18   4   -2.72    1.37 
   2  18   4   -0.64    1.00 
   4 -19  -4    2.39    0.81 
  -4 -19   4    4.07    0.80 
  -4  19   4    1.49    0.82 
   3 -19  -4    0.14    0.57 
  -3 -19   4    1.20    0.56 
  -2 -19   4    0.68    0.50 
   2 -19  -4    1.03    0.56 
  -2  19   4   -0.33    1.59 
   2  19  -4    1.64    0.97 
   1 -19  -4    1.58    0.58 
  -1  19   4   -0.11    1.47 
   1  19  -4    3.75    1.30 
   0 -19  -4    0.42    0.57 
   0  19  -4    2.76    1.16 
   0  19   4    1.55    1.39 
  -1 -19  -4    3.80    0.82 
  -1 -19  -4    1.88    1.33 
   1  19   4    1.48    1.37 
  -1  19  -4    5.56    1.66 
  -4 -20   4   -0.55    0.55 
   4 -20  -4    0.49    0.71 
  -4  20   4    1.60    0.83 
  -3 -20   4    3.76    0.70 
   3 -20  -4    2.58    0.70 
  -2 -20   4   -0.13    0.45 
   2 -20  -4    1.38    0.64 
  -2  20   4   -1.16    1.52 
   2  20  -4    1.61    0.93 
   1 -20  -4    4.11    0.77 
  -1  20   4    2.57    1.77 
   1  20  -4    6.22    1.55 
   0 -20  -4   -0.94    0.49 
   0  20   4   -1.46    1.25 
   0  20  -4    4.70    1.46 
  -1 -20  -4   -1.47    1.11 
  -1 -20  -4   -0.39    0.58 
  -1  20  -4    1.02    0.98 
   1  20   4   -1.48    1.14 
  -3 -21   4    0.56    0.55 
   3 -21  -4    0.26    0.63 
  -2 -21   4    0.17    0.49 
   2 -21  -4   -0.17    0.52 
   2  21  -4   -0.04    0.89 
  -2  21   4   -2.46    1.47 
   1 -21  -4    0.52    0.57 
  -1  21   4   -1.19    1.50 
   1  21  -4    0.87    0.87 
   0 -21  -4   -0.23    0.56 
   0  21  -4    1.18    1.05 
   0  21   4   -1.25    1.35 
   2 -22  -4    0.64    0.68 
  -2 -22   4    0.55    0.56 
   2  22  -4   -0.23    0.91 
  -2  22   4   -0.61    1.57 
   1 -22  -4   -0.18    0.57 
  -1  22   4   -1.46    1.61 
   1  22  -4    1.37    1.01 
  -6   0   5    0.66    0.52 
   6   0  -5    0.08    0.62 
   5   0  -5   -0.09    0.51 
  -5   0   5    0.78    0.46 
  -4   0   5    0.01    0.39 
   4   0  -5   -0.16    0.51 
   3   0  -5    1.25    0.71 
  -3   0   5    0.70    0.51 
  -2   0   5   -0.14    0.42 
   2   0  -5   -0.34    0.29 
   2   0  -5    0.06    0.56 
  -1   0   5    1.49    0.53 
   1   0  -5    1.71    0.56 
   1   0  -5    1.66    0.59 
   0   0  -5   -0.16    0.41 
   0   0  -5   -0.02    0.39 
   0   0   5   -0.21    0.36 
   1   0   5    4.13    0.72 
  -1   0  -5    3.73    0.70 
  -1   0  -5    3.53    0.92 
  -2   0  -5    0.25    0.69 
   2   0   5   -0.20    0.42 
  -3   0  -5    0.13    0.66 
   3   0   5   -0.20    0.52 
   6  -1  -5    0.88    0.66 
  -6  -1   5    1.34    0.56 
   6   1  -5    0.02    0.60 
  -6   1   5    0.51    0.54 
  -5  -1   5    3.71    0.66 
   5  -1  -5    1.88    0.65 
   5   1  -5    1.68    0.60 
  -5   1   5    3.08    0.63 
   4  -1  -5   -0.32    0.50 
  -4  -1   5    0.67    0.47 
   4   1  -5    0.11    0.51 
  -4   1   5    0.46    0.48 
  -3  -1   5    0.05    0.40 
   3  -1  -5   -0.09    0.64 
   3   1  -5    0.64    0.65 
  -3   1   5   -0.08    0.46 
   2  -1  -5    0.89    0.63 
   2  -1  -5    1.63    0.49 
  -2  -1   5    1.50    0.48 
   2  -1  -5    0.73    0.41 
   2   1  -5    1.92    0.71 
  -2   1   5    1.11    0.49 
   2   1  -5    0.63    0.42 
  -1  -1   5    1.24    0.52 
   1  -1  -5    1.82    0.59 
   1  -1  -5    0.64    0.44 
   1  -1  -5    1.74    0.55 
   1   1  -5    2.12    0.61 
   1   1  -5    2.03    0.59 
  -1   1   5    1.10    0.50 
   0  -1  -5    2.44    0.70 
   0  -1   5    2.61    0.58 
   0  -1  -5    2.46    0.58 
   0   1  -5    2.69    0.60 
   0   1   5    2.52    0.56 
   0   1  -5    3.18    0.77 
  -1  -1  -5    3.41    0.91 
  -1  -1  -5    4.37    0.73 
   1  -1   5    3.46    0.69 
  -1   1  -5    3.87    0.97 
  -1   1  -5    3.16    0.68 
   1   1   5    4.89    0.75 
  -2  -1  -5    1.14    0.80 
   2  -1   5    0.09    0.43 
   2   1   5    0.14    0.46 
  -2   1  -5    0.97    0.79 
  -3  -1  -5    0.86    0.75 
   3  -1   5    0.58    0.58 
   3   1   5    0.55    0.58 
  -3   1  -5    0.88    0.78 
   6  -2  -5    1.77    0.84 
  -6  -2   5    1.72    0.54 
  -6   2   5    1.93    0.62 
   6   2  -5    1.08    0.66 
  -5  -2   5    0.81    0.50 
   5  -2  -5   -0.76    0.48 
   5   2  -5    0.53    0.51 
  -5   2   5    0.06    0.46 
  -4  -2   5    0.42    0.45 
   4  -2  -5   -0.19    0.51 
  -4   2   5   -0.17    0.45 
   4   2  -5    0.23    0.51 
   3  -2  -5   -0.01    0.46 
  -3  -2   5    0.56    0.47 
   3  -2  -5    0.12    0.64 
  -3   2   5    0.81    0.46 
   3   2  -5    0.03    0.62 
   2  -2  -5    9.55    1.11 
  -2  -2   5    8.68    0.87 
   2  -2  -5    6.93    0.83 
   2  -2  -5    7.86    1.36 
   2   2  -5   10.25    1.19 
   2   2  -5    8.28    1.39 
  -2   2   5    7.04    0.82 
   1  -2  -5    3.27    0.67 
  -1  -2   5    2.37    0.61 
   1  -2  -5    3.32    0.55 
   1  -2  -5    2.61    0.65 
  -1   2   5    1.80    0.55 
   1   2  -5    2.61    0.68 
   1   2  -5    3.00    0.69 
   0  -2  -5    0.06    0.38 
   0  -2   5   -0.03    0.36 
   0  -2  -5    0.00    0.45 
   0   2  -5   -0.29    0.38 
   0   2  -5    0.57    0.59 
   0   2   5    0.41    0.37 
  -1  -2  -5    4.97    1.10 
   1  -2   5    5.44    0.84 
  -1  -2  -5    6.06    0.88 
  -1   2  -5    6.38    0.89 
   1   2   5    6.42    0.86 
  -1   2  -5    6.47    1.22 
  -2  -2  -5    1.26    0.87 
   2  -2   5    0.64    0.51 
  -2   2  -5    1.60    0.94 
   2   2   5    1.26    0.55 
  -3  -2  -5    0.15    0.67 
  -3   2  -5    0.49    0.70 
   3   2   5    0.34    0.55 
  -6  -3   5    0.47    0.44 
   6  -3  -5    0.55    0.78 
  -6   3   5    0.42    0.52 
   6   3  -5   -0.31    0.56 
   5  -3  -5   -0.17    0.61 
  -5  -3   5    0.12    0.43 
  -5   3   5    0.08    0.42 
   5   3  -5    0.51    0.50 
  -4  -3   5    0.42    0.47 
   4  -3  -5    0.30    0.53 
  -4   3   5   -0.04    0.45 
   4   3  -5    0.23    0.48 
  -3  -3   5    8.29    0.87 
   3  -3  -5    7.87    0.89 
   3  -3  -5    8.89    1.13 
  -3   3   5    7.71    0.88 
   3   3  -5    8.90    1.13 
   2  -3  -5    1.92    0.64 
  -2  -3   5    2.05    0.50 
   2  -3  -5    1.41    0.50 
   2  -3  -5    0.88    0.40 
   2   3  -5    1.34    0.50 
   2   3  -5    1.63    0.73 
  -2   3   5    1.70    0.53 
   1  -3  -5    1.52    0.57 
   1  -3  -5    2.37    0.60 
   1  -3  -5    2.12    0.52 
  -1  -3   5    1.11    0.55 
   1   3  -5    1.98    0.73 
  -1   3   5    1.76    0.51 
   1   3  -5    2.23    0.64 
  -1   3   5    1.09    0.47 
   0  -3  -5    0.20    0.47 
   0  -3  -5    0.22    0.39 
   0  -3   5   -0.07    0.36 
   0   3   5    0.26    0.35 
   0   3  -5    0.42    0.41 
   0   3  -5   -0.44    0.50 
  -1  -3  -5    0.68    0.59 
  -1  -3  -5    1.00    0.47 
   1  -3   5    0.24    0.43 
  -1   3  -5    0.61    0.66 
  -1   3  -5    0.68    0.44 
   1   3   5    0.04    0.36 
  -2  -3  -5    0.26    0.74 
   2  -3   5   -0.24    0.40 
   2   3   5    0.14    0.43 
  -2   3  -5    0.29    0.68 
   3  -3   5    1.65    0.69 
  -3  -3  -5    2.94    1.28 
  -3   3  -5    5.30    1.48 
   3   3   5    1.65    0.66 
  -6  -4   5    0.38    0.44 
   6  -4  -5    0.29    0.77 
   6   4  -5    0.10    0.53 
  -6   4   5    0.32    0.52 
   5  -4  -5   -0.43    0.60 
  -5  -4   5    0.74    0.49 
   5   4  -5    0.41    0.46 
  -5   4   5    0.23    0.47 
  -4  -4   5   -0.04    0.43 
   4  -4  -5    0.04    0.54 
   4  -4  -5    0.25    0.42 
  -4   4   5    0.15    0.42 
   4   4  -5    0.47    0.49 
  -3  -4   5    0.47    0.47 
   3  -4  -5   -0.07    0.48 
   3  -4  -5    0.36    0.63 
  -3   4   5    0.14    0.47 
   3   4  -5   -0.06    0.59 
  -2  -4   5   12.67    1.14 
   2  -4  -5   11.12    1.62 
   2  -4  -5   13.53    1.13 
   2  -4  -5   13.85    1.38 
   2   4  -5   13.68    1.74 
   2   4  -5   13.74    1.55 
  -2   4   5   11.27    1.04 
   1  -4  -5    2.45    0.60 
   1  -4  -5    2.77    0.66 
  -1  -4   5    1.67    0.57 
   1  -4  -5    2.72    0.55 
  -1   4   5    2.57    0.54 
   1   4  -5    2.58    0.71 
   1   4  -5    3.47    0.71 
  -1   4   5    1.29    0.49 
   0  -4  -5    4.69    0.95 
   0  -4   5    4.27    0.71 
   0  -4  -5    5.13    0.72 
   0   4  -5    4.83    0.75 
   0   4  -5    4.56    0.98 
   0   4   5    4.70    0.68 
  -1  -4  -5    1.43    0.71 
   1  -4   5    1.18    0.49 
   1   4   5    1.96    0.52 
  -1   4  -5    0.98    0.48 
  -1   4  -5    1.41    0.75 
  -2  -4  -5   -0.04    0.74 
   2  -4   5    0.15    0.46 
   2   4   5   -0.27    0.42 
  -2   4  -5    0.21    0.69 
   3  -4   5   -0.08    0.51 
  -3  -4  -5    0.08    0.69 
  -3   4  -5    0.19    0.74 
   3   4   5   -0.30    0.48 
  -6  -5   5    0.15    0.43 
   6  -5  -5    0.71    0.82 
   6   5  -5    0.92    0.59 
  -6   5   5    0.93    0.59 
   5  -5  -5    0.20    0.65 
  -5  -5   5    0.37    0.46 
  -5   5   5    0.39    0.49 
   5   5  -5    0.06    0.44 
   4  -5  -5    0.22    0.49 
   4  -5  -5    0.28    0.53 
  -4  -5   5    0.27    0.44 
  -4   5   5    0.59    0.49 
   4   5  -5    0.37    0.50 
   3  -5  -5    0.53    0.51 
   3  -5  -5    0.92    0.63 
  -3  -5   5    0.84    0.51 
   3   5  -5    1.31    0.66 
  -3   5   5    0.30    0.49 
   2  -5  -5    6.61    0.89 
   2  -5  -5    5.10    0.85 
   2  -5  -5    5.77    0.74 
  -2  -5   5    6.41    0.75 
   2   5  -5    7.16    1.07 
   2   5  -5    7.02    1.00 
  -2   5   5    6.63    0.77 
   1  -5  -5    0.44    0.46 
   1  -5  -5    0.16    0.40 
  -1  -5   5    0.28    0.51 
   1  -5  -5   -0.03    0.42 
   1   5  -5    0.03    0.47 
  -1   5   5   -0.20    0.45 
  -1   5   5    0.04    0.38 
   1   5  -5    0.21    0.56 
   0  -5  -5    1.57    0.49 
   0  -5  -5    1.11    0.60 
   0  -5   5    2.00    0.51 
   0   5  -5    2.01    0.76 
   0   5  -5    1.62    0.50 
   0   5   5    1.38    0.44 
  -1  -5  -5    0.67    0.63 
   1  -5   5    0.61    0.44 
   1   5   5    0.18    0.38 
  -1   5  -5    1.09    0.74 
  -1   5  -5    0.95    0.47 
  -2  -5  -5    2.88    1.05 
   2  -5   5    1.65    0.55 
  -2   5  -5    3.87    1.23 
   2   5   5    3.32    0.70 
   3  -5   5    0.13    0.56 
  -3  -5  -5    0.16    0.71 
   3   5   5    0.01    0.53 
  -3   5  -5    0.46    0.79 
  -6  -6   5    1.62    0.58 
   6  -6  -5    1.00    0.86 
   6   6  -5    0.69    0.55 
  -6   6   5    1.14    0.62 
  -5  -6   5    0.63    0.45 
   5  -6  -5   -0.03    0.65 
   5  -6  -5    0.79    0.48 
   5   6  -5    0.07    0.45 
  -5   6   5    0.74    0.53 
  -4  -6   5    0.89    0.51 
   4  -6  -5    0.76    0.60 
   4  -6  -5    0.95    0.53 
  -4   6   5    1.00    0.51 
   4   6  -5    1.22    0.55 
   3  -6  -5    7.01    0.82 
  -3  -6   5    6.90    0.79 
   3  -6  -5    4.73    0.84 
   3   6  -5    5.99    0.92 
  -3   6   5    5.18    0.78 
   2  -6  -5    1.67    0.56 
  -2  -6   5    2.00    0.53 
   2  -6  -5    0.94    0.52 
   2  -6  -5    1.47    0.58 
   2   6  -5    1.97    0.76 
  -2   6   5    1.91    0.57 
   2   6  -5    1.77    0.57 
   1  -6  -5    5.21    0.69 
   1  -6  -5    6.38    0.79 
  -1  -6   5    4.58    0.80 
   1  -6  -5    5.12    0.88 
   1   6  -5    5.52    0.97 
  -1   6   5    3.75    0.63 
  -1   6   5    6.06    0.74 
   1   6  -5    6.12    0.90 
   0  -6   5    8.66    1.02 
   0  -6  -5    9.71    0.99 
   0  -6  -5    9.83    1.39 
   0   6   5    9.06    0.95 
   0   6  -5    8.16    1.04 
   0   6  -5   10.39    1.49 
   1  -6   5    0.27    0.41 
  -1  -6  -5    0.00    0.56 
  -1   6  -5    1.30    0.74 
  -1   6  -5    0.25    0.40 
   1   6   5    0.61    0.38 
  -2  -6  -5    2.33    1.01 
   2  -6   5    1.13    0.53 
   2   6   5    1.74    0.59 
  -2   6  -5    2.14    0.98 
   3  -6   5    0.38    0.59 
  -3  -6  -5    0.15    0.70 
   3   6   5   -0.14    0.53 
  -3   6  -5    0.72    0.83 
   6  -7  -5    0.19    0.82 
  -6  -7   5   -0.57    0.41 
  -6   7   5    0.09    0.54 
   6   7  -5    0.12    0.50 
   5  -7  -5    2.26    0.76 
  -5  -7   5    3.57    0.67 
   5  -7  -5    3.55    0.69 
  -5   7   5    4.79    0.78 
   5   7  -5    1.84    0.56 
   4  -7  -5    1.22    0.52 
  -4  -7   5    1.47    0.52 
   4  -7  -5    1.69    0.65 
   4   7  -5    0.79    0.53 
  -4   7   5    1.63    0.53 
   3  -7  -5    4.18    0.70 
   3  -7  -5    4.20    0.73 
  -3  -7   5    3.82    0.63 
   3   7  -5    4.71    0.84 
  -3   7   5    3.51    0.68 
   2  -7  -5   -0.06    0.44 
   2  -7  -5   -0.30    0.44 
   2  -7  -5    0.15    0.48 
  -2  -7   5   -0.45    0.40 
  -2   7   5    0.27    0.49 
   2   7  -5   -0.41    0.59 
   2   7  -5    0.53    0.51 
   1  -7  -5    3.69    0.62 
   1  -7  -5    3.31    0.61 
  -1  -7   5    2.71    0.68 
   1  -7  -5    3.77    0.78 
  -1   7   5    2.61    0.52 
   1   7  -5    3.97    0.76 
   1   7  -5    3.92    0.81 
  -1   7   5    3.00    0.60 
   0  -7  -5    0.40    0.51 
   0  -7  -5    0.44    0.38 
   0  -7   5    0.44    0.41 
   0   7  -5    0.62    0.65 
   0   7  -5    0.34    0.40 
   0   7   5    0.44    0.33 
  -1  -7  -5   -0.12    0.57 
   1  -7   5    0.06    0.37 
  -1   7  -5    0.33    0.62 
  -1   7  -5   -0.02    0.37 
   1   7   5    0.00    0.33 
  -2  -7  -5    2.41    1.02 
   2  -7   5    1.75    0.58 
  -2   7  -5    3.41    1.26 
   2   7   5    3.47    0.69 
  -6  -8   5    1.01    0.54 
   6  -8  -5    0.56    0.85 
  -6   8   5    0.38    0.59 
   6   8  -5    0.61    0.52 
   5  -8  -5    2.47    0.65 
   5  -8  -5    0.67    0.70 
  -5  -8   5    2.91    0.65 
  -5   8   5    3.14    0.69 
   5   8  -5    1.36    0.52 
  -4  -8   5    0.11    0.44 
   4  -8  -5    0.11    0.57 
   4  -8  -5    0.60    0.53 
   4   8  -5    0.58    0.52 
  -4   8   5    0.00    0.48 
   3  -8  -5    1.29    0.57 
   3  -8  -5    0.44    0.49 
  -3  -8   5    1.03    0.46 
   3   8  -5    1.33    0.61 
  -3   8   5    0.34    0.46 
   2  -8  -5    2.36    0.54 
   2  -8  -5    1.29    0.56 
  -2  -8   5    2.03    0.47 
   2  -8  -5    1.59    0.61 
   2   8  -5    1.56    0.72 
   2   8  -5    2.09    0.68 
  -2   8   5    2.15    0.61 
   1  -8  -5   -0.14    0.50 
  -1  -8   5    0.68    0.48 
   1  -8  -5    0.24    0.42 
   1  -8  -5    0.62    0.39 
   1   8  -5    0.17    0.53 
  -1   8   5    0.03    0.46 
  -1   8   5    1.60    0.59 
  -1   8   5    0.02    0.32 
   1   8  -5    0.72    0.50 
   0  -8   5    0.63    0.40 
   0  -8  -5    0.35    0.54 
   0  -8  -5    0.21    0.35 
   0   8  -5    0.58    0.42 
   0   8   5    2.06    0.62 
   0   8  -5    0.53    0.57 
   0   8   5    0.06    0.29 
  -1  -8  -5    0.97    0.74 
   1  -8   5    1.79    0.52 
  -1   8  -5    1.10    0.49 
  -1   8  -5    1.63    0.84 
  -2  -8  -5   -0.53    0.79 
   2  -8   5    0.57    0.46 
  -2   8  -5    0.12    0.68 
   6  -9  -5   -0.10    0.53 
   6  -9  -5    0.41    0.84 
  -6  -9   5    0.55    0.52 
  -6   9   5   -0.01    0.58 
   6   9  -5   -0.05    0.48 
  -5  -9   5    0.24    0.42 
   5  -9  -5    0.08    0.51 
   5  -9  -5    0.28    0.67 
   5   9  -5    0.21    0.44 
  -5   9   5   -0.32    0.50 
  -4  -9   5    5.00    0.74 
   4  -9  -5    5.94    0.83 
   4  -9  -5    3.90    0.74 
   4   9  -5    3.38    0.73 
  -4   9   5    5.17    0.80 
   3  -9  -5    5.75    0.82 
   3  -9  -5    4.63    0.70 
  -3  -9   5    5.24    0.69 
  -3   9   5    5.29    0.82 
   3   9  -5    4.52    0.88 
   2  -9  -5    0.21    0.45 
   2  -9  -5    0.20    0.37 
   2  -9  -5   -0.25    0.51 
  -2  -9   5    0.17    0.37 
   2   9  -5   -0.29    0.53 
  -2   9   5   -0.01    0.46 
   2   9  -5   -0.31    0.46 
   1  -9  -5    5.71    0.73 
  -1  -9   5    3.69    0.74 
   1  -9  -5    4.78    0.98 
   1  -9  -5    4.59    0.67 
   1   9  -5    5.59    0.86 
   1   9  -5    3.86    0.86 
  -1   9   5    4.46    0.70 
   0  -9  -5    0.23    0.33 
   0  -9  -5   -0.05    0.55 
   0   9  -5    0.47    0.41 
   0   9  -5    0.10    0.53 
  -1   9  -5    0.84    0.76 
  -6 -10   5    5.01    0.79 
   6 -10  -5    5.40    0.89 
  -6  10   5    4.50    0.88 
   5 -10  -5   -0.46    0.49 
  -5 -10   5   -0.17    0.45 
  -5  10   5    0.22    0.48 
   5  10  -5    0.65    0.46 
  -4 -10   5    1.16    0.51 
   4 -10  -5    1.22    0.60 
  -4  10   5    0.72    0.57 
   4  10  -5    0.85    0.56 
  -3 -10   5   -0.55    0.37 
   3 -10  -5    0.09    0.54 
  -3  10   5    0.14    0.53 
   3  10  -5    0.20    0.58 
   2 -10  -5   -0.38    0.52 
  -2 -10   5    0.17    0.39 
   2 -10  -5    0.93    0.51 
  -2  10   5    0.57    0.52 
   2  10  -5   -0.47    0.54 
   2  10  -5    0.32    0.52 
   1 -10  -5   -0.36    0.42 
   1 -10  -5    0.19    0.57 
  -1 -10   5    0.54    0.47 
   1  10  -5    0.75    0.59 
   1  10  -5    0.33    0.48 
  -1  10   5    0.11    0.63 
  -1  10   5   -0.32    0.41 
   0 -10  -5    0.22    0.70 
   0 -10   5    0.66    0.41 
   0  10  -5    0.81    0.42 
   0  10  -5    0.69    0.69 
   0  10   5    3.55    0.87 
  -1 -10  -5   -0.02    0.75 
   1 -10   5    0.69    0.43 
  -1  10  -5    2.03    0.93 
  -1  10  -5    0.50    0.41 
  -2 -10  -5    1.70    1.13 
  -6 -11   5    0.31    0.48 
   6 -11  -5   -0.33    0.58 
  -6  11   5    0.59    0.64 
   6  11  -5    0.11    0.46 
   5 -11  -5    0.96    0.62 
  -5 -11   5    2.07    0.57 
  -5  11   5    1.06    0.64 
   5  11  -5    0.23    0.43 
  -4 -11   5    3.16    0.66 
   4 -11  -5    3.66    0.71 
   4  11  -5    1.97    0.64 
  -4  11   5    2.64    0.68 
  -3 -11   5    1.23    0.51 
   3 -11  -5    1.54    0.61 
   3  11  -5    1.97    0.72 
  -3  11   5    1.42    0.59 
  -2 -11   5    0.29    0.40 
   2 -11  -5   -0.12    0.62 
   2 -11  -5    0.70    0.52 
  -2  11   5    0.02    0.47 
   2  11  -5    0.92    0.58 
   2  11  -5    1.60    0.63 
   1 -11  -5    1.98    0.57 
   1 -11  -5    2.33    0.83 
  -1 -11   5    1.46    0.54 
   1  11  -5    2.74    0.64 
   1  11  -5    2.34    0.71 
  -1  11   5    3.94    1.03 
   0 -11  -5    3.34    1.02 
   0 -11   5    3.10    0.62 
   0  11   5    5.67    1.14 
   0  11  -5    2.98    0.98 
   0  11  -5    3.38    0.65 
   1 -11   5    3.93    0.71 
  -1 -11  -5    6.61    1.44 
  -1  11  -5    4.56    0.73 
  -1  11  -5    9.22    1.59 
  -2  11  -5    0.72    0.87 
  -6  12   5   -0.12    0.64 
   5 -12  -5   -0.08    0.54 
  -5 -12   5    0.68    0.53 
  -5  12   5    0.91    0.64 
   5  12  -5    0.09    0.44 
   4 -12  -5    0.67    0.61 
  -4 -12   5    1.28    0.57 
  -4  12   5    1.20    0.65 
   4  12  -5    1.32    0.59 
   3 -12  -5    0.33    0.55 
  -3 -12   5   -0.47    0.38 
   3  12  -5    1.15    0.66 
  -3  12   5    0.66    0.58 
   2 -12  -5    1.94    0.61 
   2 -12  -5    2.13    0.88 
   2  12  -5    3.39    0.78 
  -2  12   5    2.32    0.66 
   2  12  -5    2.52    0.72 
  -1 -12   5    0.96    0.49 
   1 -12  -5    1.19    0.55 
   1 -12  -5    1.21    0.82 
  -1  12   5    2.52    1.00 
   1  12  -5    1.86    0.72 
   1  12  -5    1.51    0.54 
   0 -12  -5   -0.32    0.50 
   0 -12   5    0.72    0.39 
   0 -12  -5   -0.01    0.78 
   0  12   5    1.42    0.91 
   0  12  -5    0.52    0.40 
   0  12  -5    0.41    0.65 
  -1 -12  -5    0.52    1.00 
   1 -12   5    0.60    0.44 
  -1  12  -5    0.88    0.75 
  -1  12  -5    1.12    0.47 
  -2 -12  -5    0.06    0.77 
   2 -12   5    0.20    0.45 
   2  12   5    4.94    1.11 
  -2  12  -5    0.29    0.80 
   5 -13  -5    0.21    0.54 
  -5 -13   5    0.95    0.57 
  -5  13   5    0.17    0.63 
   5  13  -5    0.06    0.45 
  -4 -13   5    0.81    0.54 
   4 -13  -5    0.20    0.59 
   4  13  -5    0.69    0.53 
  -4  13   5   -0.31    0.60 
  -3 -13   5   -0.19    0.43 
   3 -13  -5    0.55    0.58 
  -3  13   5    0.27    0.57 
   3  13  -5    0.15    0.59 
   2 -13  -5    0.61    0.50 
   2 -13  -5    0.46    0.88 
   2  13  -5    2.06    0.67 
  -2  13   5    1.11    0.58 
   2  13  -5    1.46    0.72 
   1 -13  -5    3.04    1.07 
  -1 -13   5    2.18    0.57 
   1 -13  -5    2.66    0.68 
   1  13  -5    2.75    0.62 
  -1  13   5    3.47    1.25 
   1  13  -5    2.72    0.86 
   0 -13  -5    0.34    0.53 
   0 -13  -5   -0.30    0.88 
   0 -13   5   -0.07    0.32 
   0  13  -5    0.49    0.66 
   0  13  -5    0.26    0.37 
   0  13   5    1.57    1.09 
   1 -13   5   -0.03    0.38 
  -1 -13  -5   -0.15    1.03 
  -1  13  -5    0.01    0.35 
  -1  13  -5    1.03    0.76 
   1  13   5    3.91    1.10 
  -2 -13  -5    0.42    0.86 
   2 -13   5    0.12    0.49 
  -2  13  -5    1.26    0.90 
   2  13   5    4.59    1.29 
   5 -14  -5    0.58    0.63 
  -5 -14   5    0.67    0.56 
   5  14  -5    0.28    0.46 
  -5  14   5    0.45    0.61 
  -4 -14   5    2.86    0.65 
   4 -14  -5    2.66    0.74 
   4  14  -5    1.77    0.60 
  -4  14   5    1.77    0.75 
   3 -14  -5   -0.34    0.51 
  -3 -14   5    0.54    0.52 
   3  14  -5    0.40    0.60 
  -3  14   5   -0.10    0.57 
  -2 -14   5    1.38    0.66 
   2 -14  -5    2.52    0.69 
   2  14  -5    3.63    0.75 
   2  14  -5    3.27    0.87 
  -2  14   5    2.31    0.68 
   1 -14  -5   -0.25    0.77 
  -1 -14   5   -0.20    0.37 
   1 -14  -5    0.05    0.54 
   1  14  -5    1.19    0.73 
  -1  14   5   -0.18    1.07 
   1  14  -5    0.05    0.41 
   0 -14  -5   -1.40    0.94 
   0 -14   5    0.54    0.39 
   0 -14  -5   -0.35    0.51 
   0  14  -5   -0.05    0.36 
   0  14  -5    0.40    0.71 
   0  14   5    1.87    1.15 
  -1 -14  -5   -1.71    1.04 
   1 -14   5    0.47    0.44 
   1  14   5    1.77    0.85 
  -1  14  -5    0.49    0.70 
   5 -15  -5    1.29    0.65 
  -5 -15   5    2.38    0.71 
  -5  15   5    1.24    0.78 
   5  15  -5    1.01    0.54 
   4 -15  -5    2.31    0.74 
  -4 -15   5    1.76    0.64 
   4  15  -5    2.95    0.66 
  -4  15   5    2.71    0.82 
  -3 -15   5    0.53    0.51 
   3 -15  -5    1.13    0.62 
   3  15  -5    2.01    0.69 
  -3  15   5    0.66    0.61 
  -2 -15   5    0.34    0.62 
   2 -15  -5    1.07    0.62 
   2  15  -5    2.04    0.65 
  -2  15   5    1.72    0.61 
   2  15  -5    2.44    0.78 
   1 -15  -5    4.61    0.79 
  -1 -15   5    2.53    0.59 
   1 -15  -5    3.27    1.17 
   1  15  -5    5.05    1.20 
   1  15  -5    2.77    0.63 
  -1  15   5    3.05    1.18 
   0 -15  -5   -0.23    1.13 
   0 -15   5    0.34    0.39 
   0 -15  -5    0.32    0.56 
   0  15  -5    0.06    0.33 
   0  15   5    1.37    0.89 
   0  15  -5    0.19    0.71 
  -1 -15  -5    1.43    1.05 
  -1  15  -5    4.46    1.38 
   1  15   5    4.13    1.42 
   5 -16  -5    0.63    0.71 
  -5 -16   5    1.07    0.65 
  -5  16   5    0.55    0.80 
   4 -16  -5    3.25    0.82 
  -4 -16   5    4.61    0.81 
  -4  16   5    3.12    0.88 
  -3 -16   5    0.22    0.49 
   3 -16  -5    0.67    0.61 
  -3  16   5    1.37    0.68 
   2 -16  -5    0.14    0.56 
  -2 -16   5   -0.30    0.56 
   2  16  -5    1.51    0.84 
  -1 -16   5    1.16    0.46 
   1 -16  -5    1.23    1.06 
   1 -16  -5    1.65    0.64 
  -1  16   5    1.65    1.09 
   1  16  -5    1.41    0.49 
   1  16  -5    2.66    1.05 
   0 -16  -5    3.07    1.23 
   0 -16  -5    5.98    0.91 
   0 -16   5    3.64    0.65 
   0  16   5    6.69    1.81 
   0  16  -5    6.39    1.53 
   0  16  -5    3.02    0.60 
  -1 -16  -5   -0.02    0.92 
   1 -16   5    0.56    0.45 
   1  16   5   -0.02    0.87 
  -1  16  -5    1.16    0.87 
  -4 -17   5    0.11    0.55 
   4 -17  -5    0.30    0.65 
  -4  17   5    0.15    0.67 
  -3 -17   5    0.84    0.58 
   3 -17  -5    0.98    0.64 
  -3  17   5    1.08    0.66 
   2 -17  -5    0.75    0.60 
   2  17  -5    1.88    0.86 
   1 -17  -5   -0.32    0.58 
   1 -17  -5   -0.73    1.00 
  -1 -17   5   -0.01    0.37 
  -1  17   5    0.08    1.01 
   1  17  -5    2.46    1.09 
   0 -17  -5   -1.00    0.88 
   0 -17  -5   -0.59    0.58 
   0 -17   5    0.13    0.39 
   0  17   5    0.55    0.89 
   0  17  -5    0.71    0.79 
   1 -17   5    0.42    0.44 
  -1  17  -5    0.80    0.92 
   1  17   5    0.18    1.04 
  -4 -18   5    1.02    0.63 
   4 -18  -5    1.03    0.74 
  -4  18   5    0.63    0.76 
  -3 -18   5    1.84    0.61 
   3 -18  -5    2.39    0.73 
  -3  18   5    1.63    0.72 
   2 -18  -5   -0.67    0.54 
   2  18  -5    4.19    1.07 
   1 -18  -5    0.82    0.65 
  -1  18   5    0.35    1.19 
   0 -18  -5    2.39    1.27 
   0 -18  -5    2.82    0.77 
   0  18  -5    2.26    1.04 
   0  18   5    2.31    1.33 
  -3 -19   5    0.07    0.53 
   3 -19  -5    0.07    0.65 
  -3  19   5    1.89    0.74 
   2 -19  -5    0.68    0.65 
   2  19  -5    1.88    0.97 
   1 -19  -5    1.70    0.70 
  -1  19   5   -0.32    1.26 
   1  19  -5    2.60    1.00 
   0 -19  -5    0.92    0.71 
   0  19   5   -0.17    1.16 
   0  19  -5    1.91    0.96 
   2 -20  -5   -0.07    0.55 
   2  20  -5    1.85    0.98 
   1 -20  -5    0.16    0.67 
   1  20  -5    1.88    0.96 
  -1  20   5   -0.37    1.37 
  -6   0   6    3.15    0.70 
   6   0  -6    0.77    0.63 
   5   0  -6    0.19    0.48 
  -5   0   6    0.67    0.51 
   4   0  -6    2.64    0.69 
  -4   0   6    3.32    0.65 
   3   0  -6    0.58    0.62 
  -3   0   6    0.07    0.44 
   2   0  -6   60.81    4.40 
  -1   0   6   -0.05    0.44 
   1   0  -6   -0.30    0.50 
   1   0  -6    0.31    0.48 
   0   0  -6   -0.02    0.62 
   0   0  -6    0.09    0.41 
   0   0   6   -0.48    0.35 
  -1   0  -6    0.00    0.89 
  -1   0  -6   -0.05    0.42 
   1   0   6   -0.06    0.41 
  -2   0  -6   14.40    2.43 
  -6  -1   6    0.15    0.52 
   6  -1  -6    0.06    0.61 
   6   1  -6    0.49    0.55 
  -6   1   6   -0.04    0.51 
   5  -1  -6    0.16    0.47 
  -5  -1   6    0.17    0.51 
   5   1  -6   -0.02    0.46 
  -5   1   6    0.05    0.44 
  -4  -1   6    2.56    0.60 
   4  -1  -6    1.42    0.61 
  -4   1   6    2.17    0.60 
   4   1  -6    2.39    0.67 
   3  -1  -6   25.33    2.15 
  -3  -1   6   24.28    1.68 
  -3   1   6   23.37    1.69 
   3   1  -6   26.45    2.20 
   2  -1  -6    4.34    0.88 
   2   1  -6    5.42    0.96 
  -1  -1   6   -0.18    0.44 
   1  -1  -6    0.06    0.47 
   1  -1  -6    0.54    0.60 
  -1   1   6   -0.42    0.40 
   1   1  -6   -0.03    0.54 
   1   1  -6    0.04    0.47 
   0  -1  -6    2.27    0.60 
   0  -1  -6    1.99    0.87 
   0  -1   6    1.68    0.54 
   0   1  -6    3.00    0.95 
   0   1   6    1.93    0.56 
   0   1  -6    1.98    0.59 
  -1  -1  -6    1.74    1.09 
   1  -1   6    0.87    0.50 
  -1  -1  -6    1.09    0.54 
  -1   1  -6    1.21    0.52 
   1   1   6    0.48    0.48 
  -1   1  -6    1.76    1.05 
   2  -1   6    0.31    0.53 
  -2  -1  -6    0.37    0.80 
   2   1   6    0.11    0.52 
  -2   1  -6    0.78    0.85 
   6  -2  -6    0.10    0.60 
  -6  -2   6    0.75    0.50 
  -6   2   6   -0.49    0.49 
   6   2  -6   -0.18    0.48 
   5  -2  -6    0.45    0.56 
  -5  -2   6    0.18    0.49 
  -5   2   6   -0.08    0.44 
   5   2  -6    0.64    0.48 
   4  -2  -6    4.52    0.82 
  -4  -2   6    4.72    0.76 
  -4   2   6    6.47    0.84 
   4   2  -6    5.35    0.87 
  -3  -2   6   22.59    1.70 
   3  -2  -6   26.59    2.16 
   3   2  -6   28.02    2.24 
  -3   2   6   23.26    1.70 
   2  -2  -6    4.44    0.85 
   2   2  -6    5.58    0.97 
   1  -2  -6    0.04    0.56 
  -1  -2   6   -0.42    0.44 
   1  -2  -6   -0.26    0.46 
   1   2  -6    0.09    0.47 
  -1   2   6    0.31    0.45 
   1   2  -6    0.15    0.57 
   0  -2   6    1.87    0.57 
   0  -2  -6    2.24    0.93 
   0  -2  -6    2.36    0.59 
   0   2  -6    2.52    0.94 
   0   2   6    1.58    0.51 
   0   2  -6    1.69    0.58 
  -1  -2  -6    7.10    1.55 
   1  -2   6    3.35    0.74 
   1   2   6    5.07    0.80 
  -1   2  -6    3.10    0.76 
  -1   2  -6    8.48    1.61 
   2  -2   6    1.15    0.59 
  -2  -2  -6    0.20    0.75 
   2   2   6   -0.07    0.49 
  -2   2  -6    0.45    0.78 
   6  -3  -6   -0.26    0.60 
  -6  -3   6    0.45    0.51 
   6   3  -6    0.52    0.51 
  -6   3   6   -0.21    0.50 
  -5  -3   6    0.68    0.50 
   5  -3  -6    0.46    0.58 
  -5   3   6    1.59    0.58 
   5   3  -6    1.15    0.52 
  -4  -3   6    3.49    0.71 
   4  -3  -6    3.67    0.74 
  -4   3   6    4.06    0.69 
   4   3  -6    3.60    0.74 
   3  -3  -6   10.14    1.21 
  -3  -3   6    8.43    0.93 
   3  -3  -6    9.68    1.03 
   3   3  -6   10.85    1.32 
  -3   3   6    8.96    0.96 
   2  -3  -6    0.38    0.54 
   2  -3  -6    0.13    0.41 
   2   3  -6    0.29    0.63 
  -2   3   6   -0.21    0.44 
  -1  -3   6    0.06    0.48 
   1  -3  -6    0.25    0.44 
   1  -3  -6    0.27    0.56 
   1   3  -6    0.11    0.57 
  -1   3   6   -0.17    0.38 
   1   3  -6   -0.22    0.46 
   0  -3  -6    0.25    0.44 
   0  -3  -6   -0.26    0.63 
   0  -3   6   -0.03    0.41 
   0   3   6    0.78    0.43 
   0   3  -6    0.12    0.43 
   0   3  -6    0.37    0.61 
  -1  -3  -6    0.52    0.95 
   1  -3   6    0.15    0.44 
  -1   3  -6    0.89    0.95 
  -1   3  -6    0.22    0.46 
   1   3   6    0.14    0.42 
  -2  -3  -6    0.38    0.81 
   2  -3   6    0.54    0.53 
  -2   3  -6    0.62    0.84 
   2   3   6   -0.31    0.47 
   6  -4  -6    1.48    0.72 
  -6  -4   6    1.45    0.60 
   6   4  -6    0.67    0.51 
  -6   4   6    1.73    0.64 
   5  -4  -6    1.20    0.62 
  -5  -4   6    1.17    0.57 
   5   4  -6    0.42    0.47 
  -5   4   6    0.02    0.53 
   4  -4  -6    0.90    0.63 
  -4  -4   6    0.61    0.53 
   4  -4  -6    0.58    0.53 
  -4   4   6    0.49    0.53 
   4   4  -6    0.30    0.50 
   3  -4  -6   16.09    1.35 
   3  -4  -6   17.83    1.62 
  -3  -4   6   16.95    1.37 
   3   4  -6   18.01    1.72 
  -3   4   6   15.68    1.31 
   2  -4  -6    4.45    0.79 
   2  -4  -6    3.52    0.65 
  -2   4   6    3.42    0.64 
   2   4  -6    5.73    1.01 
  -1  -4   6    2.02    0.65 
   1  -4  -6    3.36    0.84 
   1  -4  -6    3.54    0.66 
   1   4  -6    4.01    0.94 
  -1   4   6    1.86    0.54 
   1   4  -6    4.06    0.80 
   0  -4   6    3.88    0.72 
   0  -4  -6    3.28    0.65 
   0  -4  -6    4.23    1.15 
   0   4  -6    2.74    0.71 
   0   4  -6    5.65    1.22 
   0   4   6    3.57    0.65 
   1  -4   6    4.33    0.85 
  -1  -4  -6    9.47    1.71 
  -1   4  -6    5.24    0.90 
   1   4   6    6.39    0.92 
  -1   4  -6   10.11    1.78 
  -2  -4  -6    6.12    1.68 
  -2   4  -6    8.64    1.84 
   2   4   6    3.64    0.80 
   6  -5  -6    0.44    0.68 
  -6  -5   6    0.88    0.57 
  -6   5   6    0.59    0.60 
   6   5  -6   -0.02    0.46 
  -5  -5   6    0.37    0.47 
   5  -5  -6    0.49    0.60 
   5   5  -6    0.72    0.48 
  -5   5   6    0.97    0.53 
  -4  -5   6    6.50    0.86 
   4  -5  -6    6.26    0.85 
   4  -5  -6    4.93    0.84 
  -4   5   6    5.97    0.85 
   4   5  -6    6.02    0.87 
  -3  -5   6    1.67    0.57 
   3  -5  -6    1.90    0.60 
   3  -5  -6    2.21    0.67 
  -3   5   6    1.67    0.54 
   3   5  -6    2.42    0.77 
   2  -5  -6   -0.10    0.47 
   2  -5  -6   -0.22    0.42 
  -2   5   6   -0.47    0.39 
   2   5  -6    0.51    0.62 
   1  -5  -6    3.79    0.87 
  -1  -5   6    2.65    0.72 
   1  -5  -6    4.59    0.73 
   1   5  -6    3.94    0.80 
  -1   5   6    2.77    0.59 
   1   5  -6    5.16    1.03 
   0  -5   6    0.20    0.40 
   0  -5  -6   -0.13    0.68 
   0  -5  -6    0.39    0.44 
   0   5  -6    0.06    0.59 
   0   5   6    0.37    0.37 
   0   5  -6    0.43    0.46 
  -1  -5  -6   -0.03    0.92 
   1  -5   6    0.94    0.50 
  -1   5  -6    0.95    0.79 
   1   5   6    0.80    0.47 
  -1   5  -6    0.64    0.50 
  -6  -6   6    0.27    0.52 
   6  -6  -6    0.43    0.68 
  -6   6   6    0.32    0.59 
   6   6  -6   -0.13    0.46 
  -5  -6   6    0.36    0.54 
   5  -6  -6    0.12    0.51 
   5  -6  -6    0.05    0.57 
   5   6  -6    0.64    0.48 
  -5   6   6    0.33    0.53 
   4  -6  -6    2.09    0.63 
   4  -6  -6    3.14    0.70 
  -4  -6   6    3.54    0.69 
   4   6  -6    2.47    0.65 
  -4   6   6    3.47    0.67 
  -3  -6   6    0.51    0.53 
   3  -6  -6    1.69    0.62 
   3  -6  -6    0.77    0.51 
   3   6  -6    0.42    0.64 
  -3   6   6    0.52    0.49 
   2  -6  -6    1.76    0.56 
   2  -6  -6    2.68    0.63 
   2   6  -6    2.60    0.81 
  -2   6   6    2.47    0.57 
   1  -6  -6    2.01    0.52 
   1  -6  -6    0.23    0.57 
  -1  -6   6    0.84    0.55 
   1   6  -6    1.61    0.74 
  -1   6   6    0.67    0.40 
   1   6  -6    1.32    0.59 
   0  -6  -6    3.26    1.05 
   0  -6   6    3.91    0.73 
   0  -6  -6    3.53    0.64 
   0   6  -6    4.77    1.19 
   0   6   6    3.16    0.61 
   0   6  -6    3.39    0.73 
  -1  -6  -6    0.37    1.00 
   1  -6   6    1.45    0.54 
  -1   6  -6    1.50    0.86 
   1   6   6    1.61    0.50 
  -1   6  -6    1.02    0.52 
   6  -7  -6    1.61    0.74 
  -6  -7   6    2.40    0.67 
   6   7  -6    0.92    0.50 
  -6   7   6    2.76    0.77 
   5  -7  -6    1.04    0.62 
  -5  -7   6    1.84    0.59 
   5  -7  -6    0.86    0.58 
  -5   7   6    0.93    0.59 
   5   7  -6    0.42    0.47 
  -4  -7   6    0.94    0.52 
   4  -7  -6    0.36    0.54 
   4  -7  -6    1.43    0.55 
   4   7  -6    0.15    0.46 
  -4   7   6   -0.25    0.50 
   3  -7  -6    1.59    0.60 
   3  -7  -6    1.31    0.55 
  -3  -7   6    1.88    0.57 
   3   7  -6    0.84    0.67 
  -3   7   6    0.88    0.54 
   2  -7  -6    1.52    0.53 
   2  -7  -6    1.30    0.57 
  -2   7   6    0.53    0.47 
   2   7  -6    1.88    0.74 
  -2   7   6   -0.76    0.41 
   0  -7  -6    0.22    0.37 
   0  -7  -6    0.05    0.74 
   0  -7   6    0.29    0.43 
   0   7  -6    0.25    0.44 
   0   7  -6    0.44    0.62 
   0   7   6    0.19    0.34 
  -1  -7  -6    0.65    1.02 
   1  -7   6    0.89    0.50 
  -1   7  -6    0.83    0.52 
  -1   7  -6    0.98    0.81 
  -6  -8   6   -0.06    0.50 
  -6   8   6   -0.21    0.59 
   5  -8  -6    0.07    0.54 
  -5  -8   6   -0.14    0.50 
   5  -8  -6    0.62    0.60 
  -5   8   6   -0.02    0.52 
   5   8  -6   -0.12    0.42 
  -4  -8   6    0.86    0.52 
   4  -8  -6    0.30    0.54 
   4  -8  -6    0.90    0.57 
  -4   8   6   -0.09    0.54 
   4   8  -6    1.09    0.50 
   3  -8  -6    1.96    0.62 
   3  -8  -6    2.48    0.65 
  -3  -8   6    1.47    0.56 
   3   8  -6    3.57    0.87 
  -3   8   6    1.93    0.60 
  -2  -8   6   -0.09    0.66 
   2  -8  -6    0.19    0.50 
   2  -8  -6    0.63    0.44 
  -2   8   6   -0.57    0.43 
   2   8  -6    0.78    0.64 
   1  -8   6    2.52    0.69 
  -1  -8  -6    4.42    1.33 
  -1   8  -6    4.86    1.44 
  -1   8  -6    3.11    0.71 
   5  -9  -6    5.13    0.84 
  -5  -9   6    5.06    0.80 
   5  -9  -6    3.79    0.73 
  -5   9   6    4.51    0.84 
   5   9  -6    2.94    0.64 
  -4  -9   6    0.32    0.48 
   4  -9  -6    0.85    0.53 
   4  -9  -6   -0.15    0.53 
  -4   9   6   -0.47    0.51 
   4   9  -6    0.45    0.50 
  -3  -9   6    3.43    0.66 
   3  -9  -6    3.25    0.72 
   3   9  -6    4.47    0.91 
  -3   9   6    3.42    0.71 
  -2  -9   6    1.61    0.76 
   2  -9  -6    4.04    0.74 
  -2   9   6    2.50    0.68 
   2   9  -6    5.82    1.02 
  -5 -10   6   -0.01    0.50 
   5 -10  -6    0.88    0.64 
  -5  10   6    0.79    0.61 
   5  10  -6    0.75    0.45 
  -4 -10   6   -0.14    0.45 
   4 -10  -6   -0.03    0.54 
  -4  10   6    1.10    0.61 
   4  10  -6    0.56    0.51 
  -3 -10   6    0.08    0.45 
   3 -10  -6    0.43    0.56 
   3  10  -6    0.34    0.63 
  -3  10   6    0.23    0.54 
   2 -10  -6    6.80    0.93 
  -2  10   6    6.02    0.91 
   2  10  -6    8.57    1.19 
  -1 -10   6    1.88    0.64 
   1 -10  -6    2.66    0.95 
   1  10  -6    4.06    0.98 
   1  10  -6    3.43    0.75 
   0 -10   6    2.09    0.59 
   0 -10  -6    3.91    1.28 
   0  10  -6    2.19    0.61 
   0  10  -6    3.81    1.18 
  -5 -11   6    0.73    0.56 
   5 -11  -6   -0.59    0.55 
  -5  11   6    0.91    0.63 
   5  11  -6    0.43    0.45 
   4 -11  -6    3.82    0.78 
  -4 -11   6    3.44    0.70 
   4  11  -6    3.38    0.72 
  -4  11   6    4.22    0.83 
   3 -11  -6    0.44    0.57 
  -3  11   6    0.27    0.57 
   3  11  -6    0.41    0.64 
   2 -11  -6    0.39    0.55 
  -2 -11   6   -1.03    0.60 
  -2  11   6    0.59    0.57 
   2  11  -6    0.45    0.59 
   1 -11  -6   -0.24    0.67 
  -1 -11   6    0.33    0.52 
   1  11  -6    0.15    0.47 
   1  11  -6    0.30    0.59 
  -1 -11  -6    4.48    1.53 
  -1  11  -6    3.92    1.44 
  -5 -12   6    1.18    0.60 
   5 -12  -6   -0.11    0.62 
   5  12  -6    0.09    0.43 
  -5  12   6    0.23    0.64 
   4 -12  -6    1.79    0.67 
  -4 -12   6    1.41    0.61 
  -4  12   6    0.31    0.61 
   4  12  -6    0.57    0.55 
   3 -12  -6    1.78    0.70 
  -3  12   6    1.37    0.66 
   3  12  -6    3.01    0.82 
  -2 -12   6    4.27    1.00 
   2 -12  -6    4.44    0.79 
   2  12  -6    5.46    0.97 
  -2  12   6    5.49    0.86 
   1 -12  -6    1.97    0.97 
  -1 -12   6    1.74    0.56 
   1  12  -6    3.11    0.97 
   1  12  -6    3.43    0.73 
   0 -12  -6    2.55    1.03 
   0 -12   6    2.73    0.63 
   0  12  -6    4.36    1.28 
   0  12  -6    2.61    0.62 
   1  12   6   15.52    2.01 
   5 -13  -6    0.31    0.68 
  -5 -13   6    0.17    0.57 
   5  13  -6   -0.02    0.41 
  -5  13   6   -0.09    0.58 
  -4 -13   6    0.73    0.53 
   4 -13  -6    1.32    0.66 
  -4  13   6    0.23    0.64 
   4  13  -6    1.21    0.60 
   3 -13  -6    0.52    0.64 
  -3  13   6   -0.62    0.57 
   3  13  -6    0.86    0.67 
  -2 -13   6    0.86    0.72 
   2 -13  -6    0.96    0.60 
  -2  13   6    1.49    0.64 
   2  13  -6    1.34    0.65 
  -4 -14   6    4.43    0.79 
   4 -14  -6    4.57    0.88 
   4  14  -6    2.98    0.73 
  -4  14   6    5.29    0.92 
   3 -14  -6    2.12    0.74 
  -3  14   6    2.44    0.79 
   3  14  -6    2.54    0.79 
   2 -14  -6    0.18    0.57 
  -2 -14   6    0.53    0.67 
   2  14  -6    1.42    0.62 
  -2  14   6   -0.67    0.54 
   1 -14  -6    8.15    1.03 
   1 -14  -6    8.44    1.82 
  -1 -14   6    5.84    0.93 
   1  14  -6    9.42    1.61 
   1  14  -6    8.28    1.07 
   0 -14  -6    0.20    0.92 
   0 -14   6    1.37    0.50 
   0  14  -6    0.99    0.47 
   0  14  -6    1.93    0.90 
  -4 -15   6    1.32    0.61 
   4 -15  -6    0.37    0.69 
  -4  15   6   -0.14    0.67 
   4  15  -6    0.83    0.60 
   3 -15  -6   -0.78    0.57 
   3  15  -6    1.18    0.67 
  -3  15   6    0.69    0.67 
   2 -15  -6    3.24    0.79 
  -2 -15   6    1.63    0.75 
  -2  15   6    2.62    0.72 
   2  15  -6    2.52    0.72 
   1 -15  -6   -0.03    0.91 
  -1 -15   6    1.16    0.50 
   1 -15  -6    0.38    0.66 
   1  15  -6    2.94    1.08 
   1  15  -6    1.60    0.57 
   0  15   6    6.36    1.49 
   3 -16  -6    1.29    0.70 
   3  16  -6    1.60    0.71 
  -3  16   6    0.93    0.63 
   2 -16  -6    1.54    0.74 
  -2 -16   6    1.80    0.75 
   2  16  -6    2.86    0.71 
  -2  16   6    2.11    0.74 
  -1 -16   6    1.88    0.58 
   1 -16  -6    4.35    0.88 
   1 -16  -6    1.75    1.13 
   1  16  -6    2.08    0.59 
   1  16  -6    3.09    1.01 
  -3 -17   6   -1.23    0.77 
   3 -17  -6   -1.09    0.58 
  -3  17   6    0.11    0.69 
  -2 -17   6    0.51    0.64 
   2 -17  -6   -0.51    0.63 
  -2  17   6   -0.01    0.67 
   5   0  -7    0.29    0.50 
  -5   0   7   -0.27    0.51 
   4   0  -7    0.10    0.52 
  -4   0   7    1.00    0.55 
   3   0  -7    0.88    0.71 
  -2   0   7   -0.45    0.57 
   2   0  -7    0.69    0.64 
   1   0  -7   -0.23    0.66 
  -1   0   7   -0.21    0.43 
   1   0  -7    0.14    0.53 
   0   0  -7   -0.14    0.69 
   0   0   7   -0.11    0.43 
   0   0  -7    0.09    0.46 
  -5  -1   7    0.04    0.52 
   5  -1  -7    0.81    0.54 
  -5   1   7   -0.03    0.53 
   5   1  -7    0.60    0.48 
  -4  -1   7    0.18    0.50 
   4  -1  -7   -0.20    0.56 
   4   1  -7    0.57    0.58 
  -4   1   7    0.10    0.48 
   3  -1  -7    0.45    0.70 
   3   1  -7    1.32    0.72 
  -2  -1   7   -0.30    0.61 
   2  -1  -7   -0.29    0.60 
  -2   1   7   -0.19    0.58 
   2   1  -7    0.00    0.58 
   1  -1  -7    0.44    0.73 
   1  -1  -7    0.73    0.59 
  -1  -1   7    0.46    0.51 
  -1   1   7    0.45    0.49 
   1   1  -7    0.14    0.67 
   1   1  -7    0.17    0.56 
   0  -1  -7   -0.65    0.65 
   0  -1   7    0.13    0.45 
   0  -1  -7    0.11    0.46 
   0   1  -7    0.19    0.50 
   0   1  -7   -0.08    0.67 
   0   1   7   -0.09    0.42 
   5  -2  -7    0.35    0.52 
  -5  -2   7    0.56    0.60 
  -5   2   7   -0.45    0.50 
   5   2  -7    0.09    0.46 
   4  -2  -7    1.47    0.68 
  -4  -2   7    0.38    0.53 
  -4   2   7    1.07    0.55 
   4   2  -7    1.22    0.63 
   3  -2  -7    2.70    0.79 
   3   2  -7    3.36    0.91 
  -2  -2   7    0.02    0.62 
   2  -2  -7    1.25    0.63 
  -2   2   7   -0.11    0.58 
   2   2  -7    0.63    0.66 
   1  -2  -7    1.98    0.62 
   1  -2  -7    1.23    0.81 
  -1  -2   7    0.77    0.56 
  -1   2   7    1.60    0.55 
   1   2  -7    1.69    0.66 
   1   2  -7    1.96    0.87 
   0  -2  -7    0.30    0.75 
   0  -2   7    0.60    0.51 
   0  -2  -7    0.71    0.50 
   0   2   7    0.53    0.47 
   0   2  -7    1.21    0.58 
   0   2  -7    0.04    0.69 
   5  -3  -7    0.29    0.53 
  -5  -3   7    0.00    0.56 
   5   3  -7    0.21    0.45 
  -5   3   7   -0.80    0.50 
   4  -3  -7    0.59    0.58 
  -4  -3   7    0.15    0.55 
   4   3  -7    0.87    0.58 
  -4   3   7   -0.12    0.49 
   3  -3  -7    3.90    0.86 
   3   3  -7    2.46    0.87 
   2  -3  -7    0.68    0.60 
  -2  -3   7    0.06    0.65 
  -2   3   7   -0.19    0.56 
   2   3  -7    1.13    0.69 
   1  -3  -7    3.22    0.71 
  -1  -3   7    2.77    0.72 
   1  -3  -7    1.87    0.89 
   1   3  -7    4.03    0.85 
   1   3  -7    3.35    1.05 
  -1   3   7    1.70    0.57 
   0  -3   7    1.11    0.58 
   0  -3  -7    1.08    0.84 
   0  -3  -7    1.64    0.55 
   0   3   7    1.32    0.54 
   0   3  -7    2.16    0.65 
   0   3  -7    0.77    0.81 
   5  -4  -7   -0.45    0.49 
  -5  -4   7    0.80    0.61 
   5   4  -7    0.05    0.43 
  -5   4   7    0.55    0.58 
   4  -4  -7    1.47    0.65 
  -4  -4   7    0.66    0.58 
   4   4  -7    0.92    0.59 
  -4   4   7    0.61    0.56 
   3  -4  -7    1.63    0.65 
   3   4  -7    2.03    0.83 
  -3   4   7    0.28    0.52 
   2  -4  -7    2.19    0.64 
  -2  -4   7    0.48    0.69 
  -2   4   7   -0.73    0.48 
   2   4  -7    1.30    0.76 
  -1  -4   7    1.08    0.57 
   1  -4  -7    0.43    0.72 
   1  -4  -7    1.26    0.54 
   1   4  -7    0.60    0.60 
  -1   4   7    0.50    0.44 
   1   4  -7    0.73    0.77 
   0  -4  -7    0.17    0.77 
   0  -4  -7    0.47    0.46 
   0  -4   7    0.08    0.47 
   0   4  -7    0.23    0.54 
   0   4  -7    0.07    0.72 
   0   4   7    0.29    0.44 
  -5  -5   7    0.35    0.58 
   5  -5  -7    0.47    0.54 
  -5   5   7    0.32    0.60 
   5   5  -7    0.16    0.43 
   4  -5  -7    1.46    0.58 
  -4  -5   7    0.23    0.56 
   4   5  -7    0.32    0.52 
  -4   5   7    1.14    0.60 
   3  -5  -7    0.91    0.57 
   3  -5  -7    2.22    0.69 
  -3   5   7    0.80    0.55 
   3   5  -7    2.04    0.79 
   2  -5  -7    0.52    0.53 
  -2  -5   7    0.22    0.68 
  -2   5   7   -0.18    0.48 
   2   5  -7    0.33    0.65 
   1  -5  -7    0.15    0.68 
  -1  -5   7    0.06    0.51 
   1  -5  -7    1.14    0.51 
   1   5  -7    0.34    0.57 
  -1   5   7    0.28    0.40 
   1   5  -7    0.63    0.75 
   0  -5  -7    1.59    0.55 
   0  -5  -7    1.80    0.91 
   0  -5   7    1.06    0.57 
   0   5  -7    2.72    0.70 
   0   5   7    1.55    0.55 
   0   5  -7    2.73    1.01 
  -5  -6   7    0.25    0.57 
   5  -6  -7    1.22    0.59 
  -5   6   7    0.87    0.62 
   5   6  -7    0.74    0.46 
  -4  -6   7    0.48    0.59 
   4  -6  -7    0.12    0.55 
   4  -6  -7    0.35    0.56 
  -4   6   7    0.30    0.55 
   4   6  -7    0.51    0.55 
   3  -6  -7    0.36    0.58 
   3  -6  -7   -0.26    0.51 
   3   6  -7    0.57    0.66 
  -3   6   7    0.55    0.52 
  -2  -6   7    0.39    0.68 
   2  -6  -7    3.45    0.70 
  -2   6   7    0.08    0.47 
   2   6  -7    3.31    0.93 
   1  -6  -7    0.16    0.40 
   1  -6  -7   -0.39    0.60 
  -1  -6   7    0.35    0.54 
   1   6  -7    0.19    0.55 
   1   6  -7   -0.03    0.67 
  -1   6   7    0.29    0.39 
   0  -6   7    0.21    0.49 
   0  -6  -7   -0.35    0.67 
   0  -6  -7    0.48    0.45 
   0   6  -7   -0.36    0.46 
   0   6   7    0.60    0.45 
   0   6  -7   -0.64    0.67 
   5  -7  -7    0.48    0.55 
  -5  -7   7    0.69    0.62 
   5   7  -7    0.83    0.46 
  -5   7   7    0.77    0.64 
   4  -7  -7    0.06    0.58 
   4  -7  -7    0.42    0.55 
  -4  -7   7    0.26    0.56 
   4   7  -7    0.52    0.57 
  -4   7   7    0.32    0.54 
   3  -7  -7    1.39    0.61 
   3  -7  -7    0.24    0.54 
   3   7  -7    0.70    0.70 
  -3   7   7    0.47    0.51 
   2  -7  -7    2.05    0.59 
   2   7  -7    2.07    0.84 
   1  -7  -7    0.59    0.45 
   1  -7  -7   -0.41    0.66 
  -1  -7   7    1.16    0.60 
   1   7  -7    0.65    0.61 
   1   7  -7    0.91    0.70 
   0  -7  -7    0.16    0.71 
   0  -7   7    0.43    0.54 
   0  -7  -7    0.87    0.49 
   0   7  -7    0.23    0.51 
   0   7  -7    0.26    0.72 
   5  -8  -7    1.71    0.62 
  -5  -8   7    2.71    0.73 
   5  -8  -7    1.91    0.69 
   5   8  -7    1.54    0.52 
  -5   8   7    2.46    0.77 
   4  -8  -7    0.77    0.63 
   4  -8  -7    1.58    0.60 
  -4  -8   7    0.79    0.59 
  -4   8   7   -0.16    0.51 
   4   8  -7    0.62    0.58 
   3  -8  -7    1.31    0.59 
  -3   8   7   -0.27    0.52 
   3   8  -7    0.70    0.72 
  -2  -8   7   -0.23    0.64 
   2   8  -7    0.55    0.71 
  -1  -8   7    0.43    0.55 
   1  -8  -7   -0.54    0.68 
   1   8  -7    0.06    0.58 
   1   8  -7    0.91    0.69 
   4  -9  -7    0.28    0.59 
   4   9  -7   -0.20    0.54 
  -4   9   7   -0.07    0.55 
   3  -9  -7    0.30    0.57 
   3   9  -7    0.84    0.72 
  -3   9   7   -0.59    0.50 
  -2  -9   7    0.04    0.72 
   2   9  -7    0.48    0.69 
   1  -9  -7   -0.65    0.69 
  -1  -9   7    0.00    0.56 
   1   9  -7    0.29    0.67 
   1   9  -7    0.79    0.63 
   4 -10  -7    3.18    0.79 
   4  10  -7    2.25    0.72 
  -4  10   7    2.18    0.73 
   3 -10  -7    0.09    0.56 
   3  10  -7    0.48    0.71 
  -3  10   7    0.81    0.58 
  -2 -10   7    0.37    0.73 
   2  10  -7    2.04    0.82 
   1 -10  -7   -0.49    0.75 
  -1 -10   7    0.73    0.62 
   1  10  -7    0.87    0.64 
   1  10  -7    0.75    0.75 
   4 -11  -7   -0.39    0.65 
  -4  11   7    0.02    0.60 
   4  11  -7    0.89    0.61 
   3 -11  -7    0.76    0.64 
  -3  11   7   -0.13    0.54 
   3  11  -7    1.28    0.78 
  -2 -11   7    0.03    0.72 
   2  11  -7    0.02    0.66 
  -1 -11   7    0.02    0.59 
   1  11  -7    0.15    0.70 
   1  11  -7    1.12    0.64 
   3 -12  -7   -0.03    0.62 
   3  12  -7    1.22    0.75 
  -3  12   7    1.08    0.66 
  -2 -12   7    0.73    0.82 
   2  12  -7    1.07    0.73 
   3   0  -8    0.17    0.73 
  -3   0   8   -0.62    0.76 
   3  -1  -8    5.93    1.10 
  -3  -1   8   -0.33    0.83 
  -3   1   8   -0.06    0.79 
   3   1  -8    6.87    1.19 
  -3  -2   8   -1.45    0.75 
   3  -2  -8    1.50    0.77 
  -3   2   8   -0.70    0.72 
   3   2  -8    0.28    0.80 
  -3  -3   8   -0.37    0.81 
   0   0   0    0.00    0.00 
;
_shelx_hkl_checksum              70239
#END Tags that were not found in dictionaries
loop_
_space_group_symop_operation_xyz
'x, y, z'
'-x+1/2, y+1/2, -z+1/2'
'-x, -y, -z'
'x-1/2, -y-1/2, z-1/2'
loop_
_atom_site_label
_atom_site_type_symbol
_atom_site_fract_x
_atom_site_fract_y
_atom_site_fract_z
_atom_site_U_iso_or_equiv
_atom_site_adp_type
_atom_site_occupancy
_atom_site_site_symmetry_order
_atom_site_calc_flag
_atom_site_refinement_flags_posn
_atom_site_refinement_flags_adp
N2 N 0.7390(4) 0.06073(12) 0.1197(4) 0.0480(7) Uani 1 1 d . .
C5 C 1.0060(5) 0.14381(13) 0.2711(4) 0.0343(6) Uani 1 1 d . .
H5A H 1.1589 0.1682 0.3517 0.041 Uiso 1 1 calc R U
N6 N 0.6837(4) 0.23293(10) 0.1437(3) 0.0400(6) Uani 1 1 d . .
H6B H 0.8275 0.2559 0.1538 0.060 Uiso 1 1 d . U
H6A H 0.6609 0.2414 0.2695 0.060 Uiso 1 1 d . U
N4 N 0.7673(4) 0.16718(10) 0.1627(3) 0.0324(5) Uani 1 1 d . .
C3 C 0.6087(5) 0.11550(14) 0.0708(4) 0.0419(7) Uani 1 1 d . .
H3A H 0.4274 0.1186 -0.0174 0.050 Uiso 1 1 calc R U
N1 N 0.9891(4) 0.08018(11) 0.2450(3) 0.0391(6) Uani 1 1 d . .
C7 C 1.2004(6) 0.03276(16) 0.3328(6) 0.0608(9) Uani 1 1 d . .
H7A H 1.3520 0.0529 0.4532 0.091 Uiso 1 1 calc R U
H7B H 1.2451 0.0183 0.2077 0.091 Uiso 1 1 calc R U
H7C H 1.1452 -0.0047 0.3961 0.091 Uiso 1 1 calc R U
N8 N 1.4878(5) 0.36664(13) 0.2624(4) 0.0511(7) Uani 1 1 d . .
N9 N 1.2873(4) 0.34054(11) 0.1679(3) 0.0353(6) Uani 1 1 d . .
N10 N 1.0852(5) 0.31391(14) 0.0705(4) 0.0543(7) Uani 1 1 d . .
loop_
_atom_site_aniso_label
_atom_site_aniso_U_11
_atom_site_aniso_U_22
_atom_site_aniso_U_33
_atom_site_aniso_U_23
_atom_site_aniso_U_13
_atom_site_aniso_U_12
N2 0.0398(14) 0.0421(15) 0.0612(15) -0.0010(11) 0.0199(11) -0.0039(12)
C5 0.0322(15) 0.0399(17) 0.0284(12) -0.0018(10) 0.0098(11) -0.0005(11)
N6 0.0432(13) 0.0365(14) 0.0351(11) 0.0014(9) 0.0109(10) 0.0053(10)
N4 0.0318(11) 0.0364(13) 0.0267(10) 0.0018(9) 0.0099(8) 0.0019(10)
C3 0.0343(14) 0.0454(18) 0.0422(14) 0.0023(13) 0.0120(12) -0.0040(14)
N1 0.0365(13) 0.0414(15) 0.0402(12) 0.0027(10) 0.0165(10) 0.0040(10)
C7 0.0488(19) 0.053(2) 0.079(2) 0.0065(16) 0.0247(16) 0.0174(15)
N8 0.0413(16) 0.0578(17) 0.0522(15) -0.0123(11) 0.0172(12) -0.0047(12)
N9 0.0362(13) 0.0415(14) 0.0308(11) 0.0013(9) 0.0163(10) 0.0090(11)
N10 0.0368(14) 0.080(2) 0.0437(13) -0.0038(13) 0.0142(11) -0.0078(13)
loop_
_atom_type_symbol
_atom_type_description
_atom_type_scat_dispersion_real
_atom_type_scat_dispersion_imag
_atom_type_scat_source
C C 0.0033 0.0016 'International Tables Vol C Tables 4.2.6.8 and 6.1.1.4'
H H 0.0000 0.0000 'International Tables Vol C Tables 4.2.6.8 and 6.1.1.4'
N N 0.0061 0.0033 'International Tables Vol C Tables 4.2.6.8 and 6.1.1.4'
loop_
_geom_angle_atom_site_label_1
_geom_angle_atom_site_label_2
_geom_angle_atom_site_label_3
_geom_angle
C3 N2 N1 103.5(2)
N1 C5 N4 106.7(2)
C5 N4 C3 107.0(2)
C5 N4 N6 128.3(2)
C3 N4 N6 124.7(2)
N2 C3 N4 111.2(3)
C5 N1 N2 111.6(2)
C5 N1 C7 127.4(2)
N2 N1 C7 121.0(3)
N8 N9 N10 179.3(3)
loop_
_geom_bond_atom_site_label_1
_geom_bond_atom_site_label_2
_geom_bond_distance
N2 C3 1.314(4)
N2 N1 1.371(4)
C5 N1 1.319(4)
C5 N4 1.331(4)
N6 N4 1.423(4)
N4 C3 1.361(4)
N1 C7 1.466(4)
N8 N9 1.175(3)
N9 N10 1.189(4)
