#------------------------------------------------------------------------------
#$Date: 2016-02-18 17:37:37 +0200 (Thu, 18 Feb 2016) $
#$Revision: 176729 $
#$URL: svn://www.crystallography.net/cod/cif/1/51/43/1514322.cif $
#------------------------------------------------------------------------------
#
# This file is available in the Crystallography Open Database (COD),
# http://www.crystallography.net/
#
# All data on this site have been placed in the public domain by the
# contributors.
#
data_1514322
loop_
_publ_author_name
'Saines, Paul J.'
'Barton, Phillip T.'
'Jura, Marek'
'Knight, Kevin S.'
'Cheetham, Anthony K.'
_publ_section_title
;
 Cobalt adipate, Co(C6H8O4): antiferromagnetic structure, unusual thermal
 expansion and magnetoelastic coupling
;
_journal_issue                   3
_journal_name_full               'Materials Horizons'
_journal_page_first              332
_journal_paper_doi               10.1039/c4mh00009a
_journal_volume                  1
_journal_year                    2014
_chemical_formula_moiety         'C6 H8 Co O4'
_chemical_formula_sum            'C6 H8 Co O4'
_chemical_formula_weight         203.05
_chemical_name_common            'Co adipate'
_chemical_name_systematic
;
 ?
;
_space_group_crystal_system      monoclinic
_space_group_IT_number           13
_space_group_name_Hall           '-P 2yc'
_space_group_name_H-M_alt        'P 1 2/c 1'
_symmetry_space_group_name_Hall  '-P 2yc'
_symmetry_space_group_name_H-M   'P 1 2/c 1'
_atom_sites_solution_hydrogens   geom
_audit_creation_date             2013-12-11
_audit_creation_method
;
Olex2 1.2
(compiled 2013.11.15 svn.r2834 for OlexSys, GUI svn.r4720)
;
_cell_angle_alpha                90
_cell_angle_beta                 90.212(5)
_cell_angle_gamma                90
_cell_formula_units_Z            4
_cell_length_a                   16.1473(8)
_cell_length_b                   4.7928(2)
_cell_length_c                   9.2488(5)
_cell_measurement_reflns_used    981
_cell_measurement_temperature    10(2)
_cell_measurement_theta_max      26.8920
_cell_measurement_theta_min      4.4250
_cell_volume                     715.77(6)
_computing_cell_refinement
;
CrysAlisPro, Agilent Technologies,
Version 1.171.36.28 (release 01-02-2013 CrysAlis171 .NET)
(compiled Feb  1 2013,16:14:44)
;
_computing_data_collection
;
CrysAlisPro, Agilent Technologies,
Version 1.171.36.28 (release 01-02-2013 CrysAlis171 .NET)
(compiled Feb  1 2013,16:14:44)
;
_computing_data_reduction
;
CrysAlisPro, Agilent Technologies,
Version 1.171.36.28 (release 01-02-2013 CrysAlis171 .NET)
(compiled Feb  1 2013,16:14:44)
;
_computing_molecular_graphics    'Olex2 (Dolomanov et al., 2009)'
_computing_publication_material  'Olex2 (Dolomanov et al., 2009)'
_computing_structure_refinement  'ShelXL (Sheldrick, 2008)'
_computing_structure_solution    'SIR2011 (Burla 2012)'
_diffrn_ambient_temperature      10(2)
_diffrn_detector_area_resol_mean 15.9745
_diffrn_measured_fraction_theta_full 0.988
_diffrn_measured_fraction_theta_max 0.852
_diffrn_measurement_device_type  'Xcalibur, Sapphire3, Gemini'
_diffrn_measurement_method       '\w scans'
_diffrn_orient_matrix_UB_11      -0.0189208000
_diffrn_orient_matrix_UB_12      -0.1054421000
_diffrn_orient_matrix_UB_13      0.0421931000
_diffrn_orient_matrix_UB_21      -0.0396312000
_diffrn_orient_matrix_UB_22      0.0473883000
_diffrn_orient_matrix_UB_23      -0.0223759000
_diffrn_orient_matrix_UB_31      0.0012710000
_diffrn_orient_matrix_UB_32      -0.0923083000
_diffrn_orient_matrix_UB_33      -0.0600283000
_diffrn_radiation_monochromator  graphite
_diffrn_radiation_type           MoK\a
_diffrn_radiation_wavelength     0.71073
_diffrn_reflns_av_R_equivalents  0.0311
_diffrn_reflns_av_unetI/netI     0.0601
_diffrn_reflns_Laue_measured_fraction_full 0.988
_diffrn_reflns_Laue_measured_fraction_max 0.852
_diffrn_reflns_limit_h_max       16
_diffrn_reflns_limit_h_min       -21
_diffrn_reflns_limit_k_max       6
_diffrn_reflns_limit_k_min       -6
_diffrn_reflns_limit_l_max       9
_diffrn_reflns_limit_l_min       -12
_diffrn_reflns_number            2444
_diffrn_reflns_point_group_measured_fraction_full 0.988
_diffrn_reflns_point_group_measured_fraction_max 0.852
_diffrn_reflns_theta_full        26.340
_diffrn_reflns_theta_max         28.876
_diffrn_reflns_theta_min         3.786
_diffrn_source                   'Enhance (Mo) X-ray Source'
_exptl_absorpt_coefficient_mu    2.355
_exptl_absorpt_correction_T_max  0.962
_exptl_absorpt_correction_T_min  0.678
_exptl_absorpt_correction_type   analytical
_exptl_absorpt_process_details
;
CrysAlisPro, Agilent Technologies,
Version 1.171.36.28 (release 01-02-2013 CrysAlis171 .NET)
(compiled Feb  1 2013,16:14:44)
Analytical numeric absorption correction using a multifaceted crystal
            model based on expressions derived by R.C. Clark & J.S. Reid.
(Clark, R. C. & Reid, J. S. (1995). Acta Cryst. A51, 887-897)
;
_exptl_crystal_colour            'dark purple'
_exptl_crystal_density_diffrn    1.884
_exptl_crystal_description       platelet
_exptl_crystal_F_000             412
_exptl_crystal_size_max          0.2177
_exptl_crystal_size_mid          0.1629
_exptl_crystal_size_min          0.0162
_refine_diff_density_max         1.152
_refine_diff_density_min         -0.715
_refine_diff_density_rms         0.158
_refine_ls_extinction_method     none
_refine_ls_goodness_of_fit_ref   1.178
_refine_ls_hydrogen_treatment    constr
_refine_ls_matrix_type           full
_refine_ls_number_parameters     100
_refine_ls_number_reflns         1605
_refine_ls_number_restraints     0
_refine_ls_restrained_S_all      1.178
_refine_ls_R_factor_all          0.0847
_refine_ls_R_factor_gt           0.0725
_refine_ls_shift/su_max          0.001
_refine_ls_shift/su_mean         0.000
_refine_ls_structure_factor_coef Fsqd
_refine_ls_weighting_details
'w=1/[\s^2^(Fo^2^)+(0.0657P)^2^+6.0970P] where P=(Fo^2^+2Fc^2^)/3'
_refine_ls_weighting_scheme      calc
_refine_ls_wR_factor_gt          0.1898
_refine_ls_wR_factor_ref         0.1986
_reflns_Friedel_coverage         0.000
_reflns_number_gt                1345
_reflns_number_total             1605
_reflns_threshold_expression     'I > 2\s(I)'
_cod_data_source_file            c4mh00009a.txt
_cod_data_source_block           coadipate_copiedfromrt
_cod_database_code               1514322
#BEGIN Tags that were not found in dictionaries:
_shelxl_version_number           2013-4
_chemical_oxdiff_formula         'Co C6 H8 O4'
_shelx_space_group_comment
;
The symmetry employed for this shelxl refinement is uniquely defined
by the following loop, which should always be used as a source of
symmetry information in preference to the above space-group names.
They are only intended as comments.
;
_reflns_odcompleteness_completeness 98.71
_reflns_odcompleteness_iscentric 1
_reflns_odcompleteness_theta     26.32
_olex2_refinement_description
;
1. Fixed Uiso
 At 1.2 times of:
  All C(H,H) groups
2.a Secondary CH2 refined with riding coordinates:
 C4(H4A,H4B), C3(H3A,H3B), C2(H2A,H2B), C5(H5A,H5B)
;
_shelx_res_file
;
TITL 20101022CosuccadiRT in P2/c #13
CELL 0.71073 16.1473 4.7928 9.2488 90 90.212 90
ZERR 4 0.0008 0.0002 0.0005 0 0.005 0
LATT 1
SYMM -X,+Y,0.5-Z

SFAC C H O Co
UNIT 24 32 16 4

L.S. 3
PLAN  5
REM reset to P2/c #13
BOND
fmap 2
acta 52.681
OMIT 3 0 2
OMIT -5 1 4
OMIT 7 2 2
OMIT 5 2 2
OMIT 5 0 2
OMIT -8 2 1
REM <HKL>C:/Paul/SC_XRD/ISIS_singlecrystal_XRD/Saines/Coadipate0502/struct/ole
REM x2_Coadipate0502_beta90/Coadipate0502.hkl</HKL>

WGHT    0.065700    6.097000
FVAR       3.86400
CO1   4    0.248668    0.036002    0.779143    11.00000    0.02033    0.02299 =
         0.02582   -0.00304   -0.00430    0.00134
O3    3    0.218818    0.428641    0.762594    11.00000    0.02989    0.03019 =
         0.05400   -0.00480   -0.01834    0.00222
O1    3    0.277284    0.011209    0.985844    11.00000    0.04632    0.04069 =
         0.02924    0.00125   -0.00790   -0.00714
C6    1    0.157875    0.556236    0.706458    11.00000    0.02894    0.03024 =
         0.03373    0.00246   -0.00780   -0.00080
C4    1    0.031522    0.583033    0.542222    11.00000    0.02493    0.02689 =
         0.03447   -0.00140   -0.01091   -0.00051
AFIX  23
H4A   2    0.059568    0.709759    0.476910    11.00000   -1.20000
H4B   2    0.002981    0.694684    0.613933    11.00000   -1.20000
AFIX   0
C3    1    0.468982    0.424893    1.046801    11.00000    0.03084    0.03478 =
         0.02584    0.00083   -0.00010   -0.00580
AFIX  23
H3A   2    0.497497    0.281631    1.101844    11.00000   -1.20000
H3B   2    0.445564    0.556544    1.115013    11.00000   -1.20000
AFIX   0
C1    1    0.339287    0.123028    1.046889    11.00000    0.03144    0.03029 =
         0.02656   -0.00049   -0.00641   -0.00001
C2    1    0.399664    0.291715    0.961886    11.00000    0.04080    0.03588 =
         0.02880    0.00295   -0.00518   -0.00858
AFIX  23
H2A   2    0.369425    0.437991    0.912028    11.00000   -1.20000
H2B   2    0.423876    0.172183    0.888722    11.00000   -1.20000
AFIX   0
C5    1    0.094776    0.405490    0.616811    11.00000    0.03673    0.02891 =
         0.04552   -0.00745   -0.01862    0.00394
AFIX  23
H5A   2    0.123728    0.297771    0.544001    11.00000   -1.20000
H5B   2    0.065971    0.274386    0.678712    11.00000   -1.20000
AFIX   0
O2    3    0.347801    0.110130    1.184392    11.00000    0.02944    0.04844 =
         0.03030    0.01194   -0.00353   -0.00724
O4    3    0.149922    0.819290    0.721793    11.00000    0.02686    0.03027 =
         0.05411   -0.01244   -0.01688    0.00247
HKLF 4

REM  20101022CosuccadiRT in P2/c #13
REM R1 =  0.0725 for    1345 Fo > 4sig(Fo)  and  0.0847 for all    1605 data
REM    100 parameters refined using      0 restraints

END

WGHT      0.0657      6.0969

REM Highest difference peak  1.152,  deepest hole -0.715,  1-sigma level  0.158
Q1    1   0.2220  0.0237  0.9878  11.00000  0.05    1.15
Q2    1   0.3391  0.4507  1.2026  11.00000  0.05    1.09
Q3    1   0.2889  0.4418  0.7729  11.00000  0.05    1.08
Q4    1   0.0981  0.7012  0.4493  11.00000  0.05    0.81
Q5    1   0.1638  0.8740  0.5535  11.00000  0.05    0.81
;
_shelx_res_checksum              10552
_shelx_hkl_file
;
   0   0  -2 89471.4 1942.70   2
   0   0  -3-54.8383 68.5437   2
   0   0  -4 194864. 4192.00   2
   0   0   4 195711. 4195.26   2
   0   0  -5-129.421 89.3075   2
   0   0  -6 7780.08 598.869   2
   0   0  -7 90.2569 106.667   2
   0   0  -8 34.1487 83.3819   2
   0   0  -9 168.609 167.195   2
   0   0 -10 165.197 99.8737   2
   0   0 -11-172.187 148.410   2
   0   0 -12 5266.23 755.325   2
   0   1   1 1050.17 112.840   1
   0  -1  -1 1057.81 105.639   1
   0  -1  -2 64692.0 1510.29   1
   0   1   2 67421.8 1515.87   2
   0   1  -2 64135.3 1622.21   2
   0   1   2 61818.3 1507.52   1
   0  -1  -2 63742.3 1509.67   2
   0   1   3 43.2048 61.6725   1
   0   1  -3-3.91383 52.4374   2
   0  -1  -3 68.2186 64.9792   2
   0   1   3 47.0326 37.1217   2
   0  -1  -3 62.5930 61.3753   1
   0  -1  -4 47396.3 1408.45   2
   0   1   4 46295.4 1424.08   1
   0   1   4 46125.7 1347.25   2
   0   1  -4 46557.5 1500.93   2
   0  -1  -5 135.404 87.9637   2
   0   1  -5 74.5266 123.167   2
   0  -1  -6 191.230 115.954   2
   0   1  -6 153.406 154.010   2
   0  -1  -7 2848.09 395.085   2
   0   1  -7 2230.89 376.814   2
   0   1  -8 558.321 229.469   2
   0  -1  -8-107.685 118.398   2
   0   1  -9 583.925 206.983   2
   0  -1  -9 796.597 250.161   2
   0   1 -10 1692.99 394.188   2
   0  -1 -10 2343.54 444.181   2
   0   1 -11 305.156 223.511   2
   0  -1 -11 234.040 215.890   2
   0  -1 -12 183.930 152.283   2
   0  -2   0 152018. 3269.64   1
   0  -2  -1 3042.89 274.192   1
   0   2   2 40643.3 1214.08   1
   0  -2  -2 42831.4 1187.11   1
   0   2  -3 1375.77 235.157   2
   0  -2  -3 1133.92 169.413   1
   0   2   3 1287.09 198.911   1
   0   2   3 1155.92 169.189   2
   0  -2  -4 38905.6 1302.11   1
   0   2   4 39353.6 1252.37   2
   0   2  -4 39405.8 1467.00   2
   0   2   4 38993.7 1314.52   1
   0   2  -5 2557.08 356.169   2
   0  -2  -6 2001.13 305.155   2
   0   2  -6 1993.94 351.413   2
   0  -2  -7 119.903 82.3649   2
   0   2  -7 273.268 142.328   2
   0  -2  -8 298.592 160.051   2
   0   2  -8 340.268 203.775   2
   0   2  -9 52.2554 117.761   2
   0  -2  -9-92.0497 118.805   2
   0   2 -10 1359.68 364.188   2
   0  -2 -10 1314.92 338.062   2
   0   2 -11 131.590 145.182   2
   0  -3   0 19042.8 864.548   1
   0  -3  -1 17732.6 874.016   1
   0  -3  -2 1447.68 202.534   1
   0   3  -3 28513.7 1236.90   2
   0   3   3 24304.7 1007.00   1
   0  -3  -3 28357.6 1024.42   1
   0  -3  -4 7967.09 535.817   1
   0   3  -4 8869.44 690.763   2
   0  -3  -5 1602.77 249.003   1
   0   3  -5 1461.67 293.149   2
   0   3  -6 78.6712 143.459   2
   0   3  -7 17885.4 1205.43   2
   0   3  -8 1417.04 363.581   2
   0   3  -9 135.266 116.134   2
   0   3 -10 726.682 306.970   2
   0  -4   0 3529.69 413.221   1
   0  -4  -1 20241.8 1030.33   1
   0  -4   1 20415.3 1067.94   1
   0  -4  -2 4500.75 410.355   1
   0   4  -3 9359.97 748.069   2
   0  -4  -3 7687.37 548.198   1
   0   4  -4 6359.82 661.258   2
   0  -4  -4 5788.92 493.708   1
   0   4  -5 14299.8 1051.68   2
   0  -4  -5 12954.3 778.442   1
   0   4  -6 148.173 121.311   2
   0   4  -7 112.157 101.216   2
   0   4  -8 719.096 332.570   2
   0  -5   0 9394.06 810.324   1
   0  -5   1 15797.3 1065.88   1
   0   5  -2 2508.42 421.694   2
   0  -5   2 2695.82 452.197   1
   0   5  -3 9252.24 824.476   2
   0   5  -4 2692.69 458.749   2
   0   5  -5 4593.05 625.745   2
   0   5  -6 498.682 276.379   2
   0   6  -3 3044.32 519.235   2
   0   6  -4-68.2260 157.296   2
   1   0 -12 2320.45 522.810   2
   1   0 -11 120.820 104.288   2
   1   0 -10 9363.76 950.729   2
   1   0  -9 65.4579 102.285   2
   1   0  -8 22885.3 1275.46   2
   1   0  -7 8.96454 107.532   2
   1   0  -6 32796.2 1349.94   2
   1   0  -5-47.6131 60.9647   2
   1   0  -4 8338.14 514.348   2
   1   0  -3-21.2963 47.1522   2
   1   0  -2 22950.8 726.462   2
  -1   0  -2 36431.0 937.299   2
   1   0   3-21.2424 35.8483   2
  -1   0  -3-87.1934 41.9292   2
  -1   0  -4 5892.99 418.287   2
   1   0   4 7041.01 442.171   2
  -1   0  -5-42.6974 97.2218   2
  -1   0  -6 14457.9 813.844   2
  -1   0  -7-154.466 105.987   2
  -1   0  -8 8453.47 727.141   2
  -1   0  -9 16.2273 94.3195   2
  -1   0 -10 17087.2 1220.92   2
  -1   0 -11 243.597 172.242   2
  -1   0 -12 1702.00 414.154   2
   1  -1 -12 1371.31 381.069   2
   1   1 -11 1304.80 405.628   2
   1  -1 -11 1337.90 372.231   2
   1   1 -10 13841.6 1130.70   2
   1  -1 -10 12400.4 1053.41   2
   1  -1  -9 116.865 94.1339   2
   1   1  -9 48.8296 133.150   2
   1   1  -8 16386.9 1090.69   2
   1  -1  -8 16676.5 1084.30   2
   1  -1  -7 5395.79 553.568   2
   1   1  -7 5882.28 594.172   2
   1  -1  -6 28774.8 1250.55   2
   1   1  -6 27442.9 1262.96   2
   1  -1  -5 11010.1 682.945   2
   1   1  -5 11370.9 713.327   2
  -1   1   4 15646.0 708.707   1
   1   1  -4 15295.1 769.932   2
  -1   1   4 15878.0 712.260   2
   1  -1  -4 15616.4 734.162   2
  -1   1   3 1929.76 195.836   1
  -1   1   3 1868.63 212.795   2
   1   1  -3 1300.23 223.749   2
   1  -1  -3 1639.98 210.842   2
  -1   1   2 8671.18 355.013   1
  -1   1   2 9094.02 431.994   2
   1  -1  -2 7875.75 361.573   1
   1   1  -2 8128.58 436.223   2
  -1   1   1 19162.1 520.776   1
   1   1  -1 20056.3 630.706   2
   1  -1  -1 20491.0 501.442   1
  -1  -1   0 21326.5 684.972   1
   1   1   1 22290.0 754.538   1
  -1  -1  -1 23585.1 729.377   1
  -1  -1  -2 14100.2 559.018   1
  -1  -1  -2 13654.3 463.565   2
   1   1   2 13930.9 562.277   1
   1   1   2 14216.6 456.339   2
  -1  -1  -3 6678.92 359.505   2
  -1   1  -3 6574.15 437.600   2
   1   1   3 7031.50 419.485   1
   1   1   3 6781.74 344.032   2
  -1  -1  -3 6760.59 414.330   1
   1   1   4 13213.2 591.524   2
  -1  -1  -4 14802.1 749.331   1
  -1   1  -4 13262.0 719.044   2
  -1  -1  -4 14806.8 652.932   2
  -1  -1  -5 27582.7 1051.07   2
  -1   1  -5 26298.4 1131.66   2
  -1   1  -6 17235.1 996.005   2
  -1  -1  -6 20687.7 971.212   2
  -1  -1  -7 6896.90 588.412   2
  -1   1  -7 6604.11 617.901   2
  -1  -1  -8 16375.4 1015.14   2
  -1   1  -8 16200.5 1059.26   2
  -1   1  -9 790.418 256.130   2
  -1  -1  -9 1241.65 305.009   2
  -1   1 -10 9307.55 916.516   2
  -1  -1 -10 10817.8 957.699   2
  -1   1 -11 514.436 252.849   2
  -1  -1 -11 513.701 225.414   2
  -1  -1 -12 1044.07 324.292   2
   1  -2 -11 102.423 125.682   2
   1   2 -10 7739.20 869.947   2
   1  -2 -10 5982.73 702.604   2
   1  -2  -9 713.021 240.858   2
   1   2  -9 901.336 295.465   2
   1  -2  -8 12208.3 910.909   2
   1   2  -8 11827.1 976.199   2
   1   2  -7 1316.94 386.099   2
   1  -2  -7 1246.88 303.119   2
   1   2  -6 26543.8 1292.45   2
   1  -2  -6 22816.6 1131.68   2
   1   2  -5 7288.99 616.103   2
   1   2  -4 18408.1 929.364   2
  -1   2   4 17959.7 775.958   1
   1  -2  -3 6187.93 375.609   1
   1   2  -3 6046.59 479.002   2
  -1   2   3 6446.09 442.343   2
  -1   2   3 7211.85 438.547   1
   1   2  -2 4290.95 362.249   2
   1  -2  -2 4097.22 258.670   1
  -1   2   2 4577.94 290.977   1
   1  -2  -1 6243.70 356.117   1
  -1  -2   0 70.2725 54.2611   1
  -1  -2  -1 7803.54 502.242   1
  -1  -2  -2 7904.67 454.997   1
   1   2   2 7108.77 467.571   1
  -1   2  -3 10076.1 630.411   2
  -1  -2  -3 9799.33 556.807   1
   1   2   3 10752.4 495.278   2
   1   2   3 11179.2 643.141   1
  -1  -2  -4 19276.1 880.919   1
   1   2   4 20305.1 779.451   2
  -1   2  -4 22143.4 1036.70   2
  -1  -2  -5 5631.60 497.592   1
  -1  -2  -5 5607.93 444.517   2
  -1   2  -5 5711.96 548.106   2
  -1   2  -6 21786.7 1185.70   2
  -1  -2  -6 22173.4 1017.20   2
  -1   2  -7 10341.2 824.314   2
  -1  -2  -7 10185.8 715.242   2
  -1  -2  -8 13775.8 917.868   2
  -1   2  -8 15312.1 1096.51   2
  -1  -2  -9 1450.12 322.723   2
  -1   2  -9 2361.41 446.017   2
  -1  -2 -10 6794.63 732.368   2
  -1   2 -10 7899.75 882.815   2
  -1   2 -11 744.521 312.031   2
   1   3  -9 2598.68 507.016   2
   1   3  -8 4200.72 617.586   2
   1   3  -7 9532.91 871.753   2
   1   3  -6 25931.4 1404.91   2
   1   3  -5 18713.4 1098.01   2
  -1   3   4 5121.60 433.340   1
   1  -3  -4 7113.03 474.162   1
   1   3  -4 7145.47 625.953   2
   1   3  -3 5296.14 502.686   2
  -1   3   3 4342.14 353.320   1
   1  -3  -3 5701.45 392.982   1
   1  -3  -2 8817.00 477.757   1
   1   3  -2 8997.59 608.827   2
   1  -3  -1 10591.0 587.420   1
  -1  -3   0 288.514 101.233   1
   1  -3   0 466.186 114.759   1
  -1  -3  -1 2478.94 332.766   1
  -1  -3  -2 15725.7 786.365   1
   1   3   3 8595.82 515.589   2
  -1  -3  -3 9655.85 591.204   1
  -1  -3  -4 15455.9 807.818   1
  -1   3  -4 15511.8 941.483   2
   1   3   4 14705.4 718.475   2
  -1  -3  -5 15791.6 882.619   1
  -1   3  -5 17153.3 1064.93   2
  -1  -3  -6 26409.0 1295.12   1
  -1   3  -6 29059.7 1476.87   2
  -1   3  -7 11750.0 961.482   2
  -1   3  -8 6160.65 746.826   2
  -1   3  -9 2062.88 443.388   2
  -1   3 -10 4983.31 742.743   2
   1   4  -8 689.584 315.031   2
   1   4  -7 1754.15 433.124   2
   1   4  -6 8097.04 807.522   2
   1   4  -5 1879.15 358.003   2
   1  -4  -4 1749.01 242.785   1
   1   4  -4 1772.68 342.898   2
   1   4  -3 4187.75 491.198   2
   1  -4  -3 3704.81 344.905   1
   1  -4  -2 6603.75 469.138   1
   1   4  -2 7069.01 608.803   2
  -1  -4   1 1877.02 350.335   1
   1  -4  -1 2736.81 324.754   1
  -1  -4   0 30.5479 64.4630   1
   1  -4   0-12.6931 101.469   1
   1  -4   1 621.806 191.408   1
  -1  -4  -1 704.662 210.599   1
  -1  -4  -2 4133.22 428.774   1
  -1  -4  -3 691.119 189.938   1
  -1   4  -3 751.416 229.094   2
  -1  -4  -4 1826.02 288.125   1
  -1   4  -4 1906.69 368.958   2
  -1  -4  -5 2198.50 339.210   1
  -1   4  -5 2857.03 466.094   2
  -1   4  -6 8855.17 856.831   2
  -1  -4  -6 7338.88 644.527   1
  -1   4  -7 1763.47 399.131   2
  -1   4  -8 1976.47 440.869   2
   1   5  -7 5115.84 721.998   2
   1   5  -6 1787.06 420.656   2
   1   5  -5 6370.77 729.605   2
   1   5  -4 1732.83 381.028   2
   1   5  -3 3346.72 497.996   2
  -1  -5   2 520.788 244.090   1
   1   5  -2 504.315 209.694   2
   1   5  -1 263.633 140.221   2
  -1  -5   1 461.916 182.888   1
  -1  -5   0 2725.59 460.780   1
   1  -5   1 584.981 196.181   1
  -1  -5  -1 412.310 179.861   1
   1  -5   2 362.692 204.182   1
  -1   5  -3 2083.17 404.483   2
  -1   5  -4 1105.40 315.188   2
  -1   5  -5 6943.21 778.960   2
  -1   5  -6 1539.63 424.324   2
   1   6  -4 10.2942 101.039   2
  -1   6  -2 304.861 194.395   2
  -1   6  -3 928.730 308.669   2
  -1   6  -4-169.738 165.412   2
   2   0 -12 198.950 216.578   2
   2   0 -11-53.6831 176.736   2
   2   0 -10 1381.42 410.451   2
   2   0  -9 90.8877 109.248   2
   2   0  -8 4479.06 551.617   2
   2   0  -7 37.9850 91.6529   2
   2   0  -6 5835.34 539.265   2
   2   0  -5-2.89179 81.5263   2
   2   0  -4 114369. 2805.57   2
   2   0  -3-42.3198 52.1329   2
   2   0  -2 326672. 6362.48   2
   2   0  -1-26.5914 47.7657   2
  -2   0  -1 66.8989 41.5113   1
  -2   0  -2 237820. 4683.01   2
  -2   0  -2 247706. 4852.10   1
  -2   0  -3-14.0766 42.3058   2
   2   0   4 148568. 3235.15   2
  -2   0  -4 141934. 3222.67   2
  -2   0  -5-60.8072 80.4943   2
  -2   0  -6 5184.69 458.454   2
  -2   0  -7-54.8659 84.2039   2
  -2   0  -8 969.513 255.805   2
  -2   0  -9 31.1882 106.477   2
  -2   0 -10 9823.30 897.599   2
  -2   0 -11-104.877 111.716   2
  -2   0 -12 503.803 274.676   2
   2  -1 -12 1158.17 376.892   2
   2  -1 -11 46.8009 103.970   2
   2   1 -11-7.76936 111.679   2
   2   1 -10 79.3739 191.107   2
   2  -1 -10 103.335 128.892   2
   2  -1  -9 740.762 260.765   2
   2   1  -9 616.665 246.030   2
   2  -1  -8-68.0601 74.2621   2
   2   1  -8-75.2612 162.873   2
   2  -1  -7 112.400 149.218   2
   2   1  -7 175.209 138.170   2
   2  -1  -6 461.511 170.784   2
   2   1  -6 457.801 190.192   2
   2   1  -5 2359.15 326.968   2
   2  -1  -5 2037.08 295.844   2
   2   1  -4 38449.5 1353.33   2
   2  -1  -4 38716.8 1338.07   2
  -2   1   4 41296.6 1243.57   1
  -2   1   3 1101.04 180.437   2
   2   1  -3 1179.73 186.464   2
  -2   1   3 1158.26 150.654   1
   2  -1  -3 1207.14 180.008   2
  -2   1   2 11519.3 540.145   2
   2   1  -2 10881.9 521.291   2
  -2   1   2 11903.9 400.333   1
   2   1  -1 36314.6 962.558   2
  -2  -1   0 306679. 6022.79   1
   2   1   0 309311. 5753.18   2
  -2  -1  -1 13920.7 598.275   1
   2   1   2 27042.8 910.285   1
  -2  -1  -2 25944.0 885.363   1
   2   1   2 26748.4 643.301   2
  -2  -1  -2 26781.7 659.086   2
  -2  -1  -3 5781.37 398.610   1
   2   1   3 5878.54 411.101   1
   2   1   3 5435.59 283.045   2
  -2  -1  -3 5938.50 312.341   2
  -2   1  -3 5529.43 397.409   2
  -2  -1  -4 59232.8 1545.54   2
  -2   1  -4 59594.6 1766.71   2
   2   1   4 58693.4 1508.03   2
  -2  -1  -4 58239.4 1771.86   1
  -2   1  -5 5772.39 487.528   2
   2   1   5 5627.15 398.789   2
  -2  -1  -5 6054.97 426.915   2
  -2  -1  -6 2545.87 305.286   2
  -2   1  -6 2115.37 305.007   2
  -2  -1  -7 2104.60 300.579   2
  -2   1  -7 2007.42 335.294   2
  -2  -1  -8 58.3069 78.8337   2
  -2   1  -8 99.9019 129.050   2
  -2   1  -9 2260.35 399.781   2
  -2  -1  -9 2235.45 381.970   2
  -2   1 -10 643.456 284.115   2
  -2  -1 -10 623.830 233.401   2
  -2  -1 -11 22.9376 116.576   2
  -2   1 -11-5.40757 125.454   2
   2  -2 -11 313.272 196.516   2
   2  -2 -10 1174.17 313.610   2
   2   2 -10 1859.67 416.309   2
   2   2  -9 1062.54 299.899   2
   2  -2  -9 1368.98 344.371   2
   2   2  -8 1319.54 303.085   2
   2  -2  -8 1238.24 300.745   2
   2  -2  -7 2801.72 426.180   2
   2   2  -7 3538.89 486.088   2
   2   2  -6 1177.81 311.947   2
   2  -2  -6 833.678 223.956   2
   2   2  -5 1727.73 299.627   2
  -2   2   4 41928.1 1265.80   1
   2   2  -4 43252.9 1532.75   2
  -2   2   3 11107.5 511.257   1
   2   2  -3 10216.8 620.738   2
  -2   2   2 44944.8 1095.56   1
   2   2  -2 41669.7 1345.51   2
   2  -2  -2 45148.0 1075.23   1
   2   2  -1 2078.88 214.956   2
   2  -2  -1 2074.54 155.897   1
  -2  -2   0 130475. 3042.74   1
  -2  -2  -1 684.537 153.873   1
   2   2   1 913.481 194.852   1
   2   2   2 60011.5 1394.27   2
   2   2   2 58126.8 1748.30   1
  -2  -2  -2 59167.6 1695.87   1
   2   2   3 5959.08 316.402   2
  -2  -2  -3 6021.58 451.496   1
  -2   2  -4 47576.6 1654.83   2
  -2  -2  -4 47403.8 1544.84   1
   2   2   4 44808.5 1237.31   2
  -2  -2  -5 3532.84 334.832   2
   2   2   5 3115.33 281.315   2
  -2  -2  -5 3173.95 389.921   1
  -2   2  -5 3457.12 427.162   2
  -2  -2  -6 5283.05 441.937   2
  -2   2  -6 5422.80 567.609   2
  -2  -2  -6 5923.58 559.187   1
  -2   2  -7 1118.29 292.306   2
  -2  -2  -7 1158.72 245.910   2
  -2  -2  -8 930.989 224.667   2
  -2   2  -8 1236.81 310.314   2
  -2   2  -9 379.151 248.785   2
  -2  -2  -9 305.941 149.234   2
  -2   2 -10 1315.45 361.533   2
  -2   2 -11 82.7214 147.400   2
   2   3  -9 770.704 319.613   2
   2   3  -8 817.724 262.398   2
   2   3  -7 233.147 172.970   2
   2   3  -6 541.003 213.337   2
   2   3  -5 14845.1 973.841   2
   2   3  -4 7593.25 636.306   2
  -2   3   4 5795.89 412.597   1
   2  -3  -4 6389.91 441.035   1
   2   3  -3 20333.5 1000.23   2
   2  -3  -3 16533.5 654.854   1
   2  -3  -2 10159.3 462.466   1
   2   3  -2 10914.9 663.672   2
   2  -3  -1 35791.5 1115.50   1
   2   3  -1 35668.5 1234.00   2
   2  -3   0 25994.6 937.699   1
  -2  -3   0 22515.6 1068.66   1
  -2  -3  -1 24131.8 1144.17   1
  -2  -3  -2 7561.91 569.991   1
   2   3   3 8183.53 465.150   2
  -2  -3  -3 9021.73 614.429   1
  -2  -3  -4 23017.0 1065.21   1
  -2   3  -4 22671.0 1175.12   2
   2   3   4 20575.2 796.941   2
  -2   3  -5 22126.2 1218.41   2
  -2  -3  -5 19079.0 1026.04   1
  -2   3  -6 311.300 148.341   2
  -2  -3  -6 422.801 138.936   1
  -2   3  -7 822.855 266.099   2
  -2   3  -8 2205.77 451.449   2
  -2   3  -9 1633.63 413.123   2
   2   4  -8 43.1676 141.324   2
   2   4  -7 3841.96 579.412   2
   2   4  -6 2288.01 430.187   2
   2   4  -5 5887.05 646.455   2
   2   4  -4 4356.33 524.079   2
   2   4  -3 9738.89 771.428   2
   2  -4  -3 12835.8 600.871   1
   2   4  -2 3707.26 431.818   2
   2  -4  -2 4468.66 338.706   1
   2  -4  -1 14880.5 743.910   1
   2   4  -1 14774.3 844.234   2
  -2  -4   1 14828.2 966.150   1
   2  -4   0 15015.8 835.353   1
  -2  -4   0 14992.0 958.667   1
  -2  -4  -1 8918.05 764.617   1
  -2  -4  -2 2305.89 345.014   1
  -2  -4  -3 9275.31 683.909   1
  -2  -4  -4 5567.55 534.993   1
  -2   4  -4 5618.54 622.883   2
  -2  -4  -5 1434.61 281.846   1
  -2   4  -5 1179.29 320.904   2
  -2  -4  -6 359.977 141.635   1
  -2   4  -6 741.774 270.845   2
  -2   4  -7 884.770 336.139   2
  -2   4  -8 918.320 327.375   2
   2   5  -7 674.838 269.835   2
   2   5  -6-43.4771 148.046   2
   2   5  -5 4470.43 611.859   2
   2   5  -4 2902.34 466.148   2
   2   5  -3 6387.42 666.202   2
  -2  -5   3 4240.93 701.075   1
  -2  -5   2 5646.93 708.527   1
   2   5  -2 6820.61 652.503   2
  -2  -5   1 13383.0 1029.12   1
   2   5  -1 13273.0 874.080   2
  -2  -5   0 2310.23 446.871   1
   2   5   0 2136.29 320.439   2
  -2  -5  -1 14557.6 1031.91   1
  -2  -5  -2 1817.63 332.455   1
   2  -5   2 1470.03 340.310   1
  -2   5  -3 7939.83 788.016   2
  -2   5  -4 1148.50 333.157   2
  -2   5  -5 7877.30 849.330   2
  -2   5  -6 24.8888 127.925   2
  -2   6  -2 249.550 145.181   2
  -2   6  -3 2391.66 465.346   2
  -2   6  -4 112.699 105.601   2
   3   0 -11-187.811 169.430   2
   3   0 -10 9209.33 949.926   2
   3   0  -9 227.629 154.208   2
   3   0  -8 29045.2 1504.20   2
   3   0  -7-57.1319 129.027   2
   3   0  -6 83198.6 2521.79   2
   3   0  -5 37.3238 90.1559   2
   3   0  -4 55917.1 1722.18   2
   3   0  -3 6.03400 51.0928   2
   3   0  -2 242873. 4941.14   2
   3   0  -1 64.1077 62.0434   2
  -3   0   0 68.7734 42.2696   1
  -3   0  -1-2.78494 55.6330   1
  -3   0  -2 45246.6 1299.02   1
  -3   0  -3 16.3821 56.0975   2
  -3   0  -3-68.5663 91.2655   1
  -3   0  -4 30034.5 1035.46   2
  -3   0  -5-14.1857 57.7697   2
  -3   0  -6 25828.8 1121.55   2
  -3   0  -7-4.90161 67.5319   2
  -3   0  -8 16101.8 1017.67   2
  -3   0  -9-49.1734 109.468   2
  -3   0 -10 15431.5 1120.60   2
  -3   0 -11-270.229 201.139   2
  -3   0 -12 2150.65 445.820   2
   3  -1 -12 1051.45 370.618   2
   3   1 -11-141.152 195.099   2
   3  -1 -11 147.140 146.308   2
   3  -1 -10 6360.14 776.348   2
   3   1 -10 7330.45 846.056   2
   3  -1  -9 1645.55 372.228   2
   3   1  -9 1671.90 395.815   2
   3   1  -8 16092.7 1113.27   2
   3  -1  -8 14506.5 1033.98   2
   3   1  -7 214.102 116.264   2
   3  -1  -7 183.509 140.447   2
   3  -1  -6 40069.0 1617.19   2
   3   1  -6 42581.1 1662.33   2
   3  -1  -5 320.881 139.200   2
   3   1  -5 216.623 109.383   2
   3   1  -4 25027.6 1044.97   2
   3  -1  -4 24037.4 1041.74   2
   3  -1  -3 3495.29 356.469   2
   3   1  -3 3247.41 340.763   2
  -3   1   3 3811.76 368.043   2
   3   1  -2 1751.34 204.286   2
  -3  -1   1 5508.96 301.227   2
   3   1  -1 4942.00 286.268   2
  -3  -1   0 56299.7 1203.98   2
  -3  -1   0 55696.4 1490.73   1
   3   1   0 55789.7 1205.41   2
   3  -1   0 55509.5 1163.68   1
   3  -1   1 2987.19 222.509   1
  -3  -1  -1 3066.74 287.685   1
   3  -1   2 5179.35 357.327   1
  -3  -1  -2 5103.20 364.992   1
   3   1   3 18845.1 569.309   2
  -3  -1  -3 19005.4 821.266   1
  -3  -1  -3 17873.7 571.000   2
  -3   1  -4 48139.7 1543.29   2
   3   1   4 47966.4 1274.29   2
  -3  -1  -4 48674.6 1297.53   2
  -3  -1  -4 47781.4 1580.25   1
  -3  -1  -5 856.110 151.165   2
   3   1   5 632.614 128.386   2
  -3   1  -5 794.113 210.074   2
  -3  -1  -5 691.267 193.083   1
  -3  -1  -6 26849.6 1088.29   2
  -3   1  -6 27709.3 1241.26   2
  -3   1  -7 1814.85 315.986   2
  -3  -1  -7 2068.14 293.218   2
  -3   1  -8 9154.38 803.792   2
  -3  -1  -8 9134.24 717.362   2
  -3   1  -9 2141.19 407.967   2
  -3  -1  -9 2741.36 419.658   2
  -3  -1 -10 5110.53 624.866   2
  -3   1 -10 5855.87 701.694   2
  -3  -1 -11-109.570 104.907   2
  -3   1 -11-13.9641 110.948   2
   3  -2 -11 327.701 208.301   2
   3  -2 -10 7578.34 854.253   2
   3   2 -10 9296.42 984.776   2
   3   2  -9-82.1332 158.202   2
   3  -2  -9 188.670 153.685   2
   3   2  -8 5511.79 678.794   2
   3  -2  -8 4458.38 586.523   2
   3   2  -7 1249.94 409.497   2
   3  -2  -7 2417.93 410.810   2
   3   2  -6 35678.5 1576.46   2
   3   2  -5 4424.23 495.044   2
  -3   2   5 4146.89 356.168   1
  -3   2   4 6490.37 393.182   1
   3   2  -4 6150.50 531.276   2
  -3   2   3 6010.85 317.940   1
   3   2  -3 6178.81 475.301   2
   3   2  -2 28418.4 1021.51   2
   3   2  -1 2315.01 223.416   2
   3   2   0 235.239 64.9143   2
  -3  -2   0 78.6308 64.0635   1
   3   2   1 1079.55 198.632   1
  -3  -2  -1 1215.68 219.707   1
   3   2   2 16536.2 474.703   2
  -3  -2  -2 17327.4 836.721   1
  -3  -2  -3 1208.00 222.334   1
   3   2   3 980.224 107.634   2
   3   2   4 9732.25 415.310   2
  -3  -2  -4 9596.88 642.171   1
   3   2   5 7955.77 430.990   2
  -3  -2  -5 7661.26 477.023   2
  -3  -2  -5 7893.38 615.901   1
  -3   2  -5 8703.20 673.582   2
  -3  -2  -6 26891.9 1345.38   1
  -3   2  -6 29664.6 1410.13   2
  -3  -2  -6 28697.7 1100.73   2
  -3   2  -7 12615.2 936.692   2
  -3  -2  -7 13102.1 761.406   2
  -3  -2  -8 8296.36 663.120   2
  -3   2  -8 9427.55 848.403   2
  -3   2  -9 1271.07 342.868   2
  -3   2 -10 8566.56 905.408   2
  -3   2 -11 1768.41 429.049   2
   3   3  -9 6420.88 798.834   2
   3   3  -8 4163.40 603.909   2
   3   3  -7 2936.53 481.788   2
   3   3  -6 6806.20 691.365   2
   3   3  -5 6086.00 595.715   2
  -3   3   4 3892.02 297.858   1
   3   3  -4 5649.46 537.188   2
   3   3  -3 4793.92 461.892   2
   3  -3  -2 1807.62 153.788   1
   3   3  -2 1859.37 255.347   2
   3  -3  -1 8876.29 412.070   1
   3   3  -1 8683.33 538.855   2
  -3  -3   1 8530.55 643.908   1
   3  -3   0 2722.26 258.467   1
  -3  -3   0 2658.99 344.794   1
   3   3   0 3046.22 276.562   2
  -3  -3  -1 2418.45 342.498   1
  -3  -3  -2 5977.99 538.218   1
   3   3   3 3777.42 265.849   2
  -3  -3  -3 4123.54 427.406   1
   3   3   4 14170.7 556.890   2
  -3  -3  -4 15429.9 881.254   1
  -3  -3  -5 2204.43 346.754   1
  -3   3  -5 2971.14 458.290   2
  -3  -3  -6 8384.82 712.736   1
  -3   3  -6 7520.26 746.502   2
  -3  -3  -7 4510.87 572.050   1
  -3   3  -7 5421.00 646.444   2
  -3   3  -8 8921.07 883.238   2
  -3   3  -9 5773.24 752.289   2
   3   4  -8 991.036 330.737   2
   3   4  -7 5065.96 677.833   2
   3   4  -6 3462.33 519.944   2
   3   4  -5 6739.67 711.023   2
   3   4  -4 3629.65 475.812   2
   3   4  -3 4290.91 483.419   2
   3   4  -2 205.222 86.9479   2
  -3  -4   2 262.932 136.016   1
  -3  -4   1 3324.25 456.675   1
   3   4  -1 3410.82 382.958   2
   3  -4  -1 3710.83 309.616   1
   3  -4   0 745.959 181.262   1
   3   4   0 667.532 165.823   2
  -3  -4   0 692.317 177.827   1
  -3  -4  -1 1137.07 285.770   1
  -3  -4  -2 278.031 161.831   1
  -3  -4  -3 781.500 212.380   1
  -3  -4  -4 3949.15 465.990   1
  -3  -4  -5 6776.54 637.055   1
  -3   4  -5 7322.76 759.812   2
  -3  -4  -6 3176.99 464.459   1
  -3   4  -6 3712.92 566.858   2
  -3  -4  -7 5873.67 668.709   1
  -3   4  -7 8261.38 871.134   2
  -3   4  -8 4538.29 665.428   2
   3   5  -7 3594.35 614.679   2
   3   5  -6 2630.94 486.457   2
   3   5  -5 3669.95 552.716   2
   3   5  -4 181.996 145.315   2
   3   5  -3 3983.41 513.527   2
  -3  -5   3 3165.27 531.485   1
  -3  -5   2 4479.47 609.208   1
   3   5  -2 5066.28 553.929   2
  -3  -5   1 447.224 199.941   1
   3   5  -1 97.3034 90.3833   2
  -3  -5   0 1991.62 411.040   1
  -3  -5  -1-119.375 209.561   1
  -3  -5  -2 814.586 241.160   1
  -3  -5  -3 1598.85 328.542   1
  -3   5  -4 94.5342 154.895   2
  -3   5  -5 4642.60 658.364   2
  -3   5  -6 1838.40 481.342   2
  -3  -6   4 411.268 201.130   1
  -3   6  -3 845.403 261.957   2
   4   0 -11-145.246 214.791   2
   4   0 -10-108.507 148.446   2
   4   0  -9-21.1501 120.287   2
   4   0  -8 4650.30 576.643   2
   4   0  -7-59.6518 104.307   2
   4   0  -6 7576.66 673.161   2
   4   0  -5 5.67351 87.7581   2
   4   0  -4 70600.2 2089.65   2
   4   0  -3-137.371 86.6793   2
   4   0  -2 16391.2 693.303   2
   4   0  -1 89.0587 75.4944   2
  -4   0   1-9.89152 55.8361   1
  -4   0   0 62613.1 1539.03   1
  -4   0  -1 16.3527 43.2772   1
  -4   0  -2 57870.4 1572.49   1
  -4   0  -3 39.4979 70.8745   1
  -4   0  -4 64397.8 1767.22   2
  -4   0  -4 69641.3 2074.14   1
  -4   0  -5 69.9694 74.3312   2
  -4   0  -6 11114.8 682.835   2
  -4   0  -7 240.548 127.569   2
  -4   0  -8 1598.73 310.665   2
  -4   0  -9-134.910 124.129   2
  -4   0 -10 34.0098 133.042   2
  -4   0 -11-0.97784 110.958   2
  -4   0 -12 292.027 221.766   2
   4  -1 -11 64.2630 155.179   2
   4   1 -11 363.768 236.262   2
   4  -1 -10 1991.60 469.580   2
   4   1 -10 1740.07 457.392   2
   4  -1  -9 1507.41 352.872   2
   4   1  -9 1756.25 395.848   2
   4  -1  -8 1823.22 380.166   2
   4   1  -8 1621.37 353.667   2
   4  -1  -7 435.884 168.113   2
   4   1  -7 175.714 210.871   2
   4  -1  -6 1416.47 281.481   2
   4   1  -6 1636.82 318.572   2
   4   1  -5 605.705 163.510   2
   4  -1  -5 1246.57 245.447   2
   4   1  -4 17174.4 883.457   2
   4  -1  -4 17653.3 905.131   2
   4   1  -3 31096.2 1150.05   2
   4  -1  -3 32766.0 1213.22   2
   4   1  -2 28468.8 966.704   2
  -4  -1   2 28361.9 956.356   2
  -4  -1   1 26426.1 811.169   2
   4   1  -1 26783.9 829.965   2
   4   1   0 54070.7 1270.70   2
   4  -1   0 58287.6 1245.37   1
  -4  -1   0 58307.8 1607.31   1
  -4   1   0 57575.4 1253.29   1
  -4  -1   0 57093.8 1263.52   2
  -4  -1  -1 30684.4 1114.74   1
   4  -1   1 32081.9 899.500   1
   4  -1   2 44037.0 1270.83   1
  -4  -1  -2 42608.3 1375.39   1
   4  -1   3 54957.2 1614.76   1
  -4  -1  -3 53730.5 1665.53   1
  -4  -1  -3 53502.4 1223.79   2
  -4  -1  -4 32672.1 1290.21   1
  -4  -1  -4 33878.3 979.558   2
  -4  -1  -5 1707.00 208.650   2
  -4  -1  -5 1901.74 328.971   1
  -4   1  -5 1868.90 277.011   2
  -4  -1  -6 5047.03 412.092   2
  -4   1  -6 6324.36 558.972   2
  -4  -1  -7 1485.60 243.787   2
  -4   1  -7 969.088 224.733   2
  -4  -1  -8 2728.69 373.472   2
  -4   1  -8 2550.44 399.106   2
  -4  -1  -9 145.072 123.166   2
  -4   1  -9 258.788 192.207   2
  -4  -1 -10 7774.67 749.285   2
  -4   1 -10 6580.86 751.669   2
  -4   1 -11 501.694 231.556   2
   4  -2 -11 92.4939 142.969   2
   4   2 -10-78.7197 123.133   2
   4  -2 -10-48.2097 110.126   2
   4   2  -9 172.026 176.300   2
   4  -2  -9-244.425 176.251   2
   4   2  -8 588.875 257.028   2
   4  -2  -8 285.082 193.819   2
   4   2  -7 448.840 211.045   2
   4  -2  -7 370.929 159.260   2
   4   2  -6 5902.72 591.330   2
   4   2  -5 9151.31 703.994   2
  -4   2   5 8663.71 515.996   1
  -4   2   4 48044.8 1289.32   1
   4   2  -4 50046.9 1696.62   2
   4   2  -3 992.574 190.103   2
  -4   2   3 990.403 104.176   1
  -4  -2   2 26969.3 995.843   2
   4   2  -2 27497.1 1005.07   2
   4   2  -1 62910.2 1614.93   2
  -4  -2   1 64239.9 1918.58   1
   4  -2   0 133248. 2735.66   1
  -4  -2   0 134817. 3325.26   1
   4   2   0 140097. 2821.36   2
   4   2   1 23989.8 611.411   2
  -4  -2  -1 28176.8 1163.68   1
  -4  -2  -2 27634.5 1172.22   1
  -4  -2  -3 153.250 104.921   1
  -4  -2  -4 76626.1 2250.24   1
   4   2   4 69246.8 1546.46   2
  -4  -2  -5 4780.38 498.168   1
  -4   2  -5 4519.14 495.161   2
   4   2   5 4222.99 284.038   2
  -4  -2  -5 4533.57 331.958   2
  -4  -2  -6 4245.51 494.749   1
  -4   2  -6 3663.04 477.154   2
  -4  -2  -6 3605.67 332.940   2
  -4   2  -7 1284.18 288.273   2
  -4  -2  -7 1214.42 293.878   1
  -4  -2  -7 1310.90 224.828   2
  -4  -2  -8 2275.78 324.140   2
  -4   2  -8 2616.00 441.662   2
  -4   2  -9 169.860 112.879   2
  -4   2 -10 168.670 113.871   2
   4   3  -9 1162.49 353.775   2
   4   3  -8 330.149 153.660   2
   4   3  -7 118.029 128.163   2
   4   3  -6 492.867 240.698   2
   4   3  -5 5597.04 587.004   2
   4   3  -4 14322.6 888.098   2
   4   3  -3 18274.2 942.064   2
   4   3  -2 24578.2 1033.03   2
   4  -3  -1 35127.6 860.660   1
   4   3  -1 36563.8 1208.60   2
  -4  -3   1 36023.4 1516.98   1
  -4  -3   0 57534.9 2006.28   1
   4   3   0 59539.3 1578.09   2
  -4  -3  -1 26858.4 1307.28   1
   4   3   1 27312.1 836.384   2
  -4  -3  -2 26877.7 1287.45   1
   4   3   2 24536.1 701.346   2
  -4  -3  -3 28940.6 1296.10   1
   4   3   3 27162.8 707.826   2
  -4  -3  -4 22333.4 1137.13   1
  -4   3  -5 4480.10 536.682   2
  -4  -3  -5 3706.48 464.380   1
  -4   3  -6 1221.37 296.941   2
  -4  -3  -6 1510.22 303.739   1
  -4   3  -7 367.778 230.146   2
  -4  -3  -7 290.794 150.641   1
  -4   3  -8 794.042 274.642   2
  -4   3  -9 469.752 233.244   2
   4   4  -8-58.7273 147.015   2
   4   4  -7 612.279 272.580   2
   4   4  -6 608.258 267.719   2
   4   4  -5 2746.27 457.679   2
   4   4  -4 2499.99 398.293   2
   4   4  -3 4288.18 478.870   2
  -4  -4   2 8425.55 815.476   1
   4   4  -2 10161.6 698.301   2
  -4  -4   1 7897.79 714.450   1
   4   4  -1 7994.91 575.080   2
  -4  -4   0 18259.7 1137.68   1
   4  -4   0 18179.1 766.525   1
  -4  -4  -1 5537.76 622.436   1
   4   4   1 5247.64 386.692   2
  -4  -4  -2 3745.12 494.336   1
  -4  -4  -3 939.855 255.459   1
  -4  -4  -4 3326.47 447.554   1
  -4  -4  -5 534.886 183.494   1
  -4   4  -5 605.450 246.239   2
  -4  -4  -6-71.0703 118.287   1
  -4   4  -6 118.866 129.573   2
  -4  -4  -7-87.5167 100.627   1
  -4   4  -7 231.211 264.069   2
  -4   4  -8 250.112 282.391   2
   4   5  -7 636.094 284.974   2
   4   5  -6 115.465 120.904   2
   4   5  -5 1413.78 367.040   2
   4   5  -4 2594.41 438.753   2
  -4  -5   3 9980.80 953.336   1
   4   5  -3 8841.61 765.782   2
  -4  -5   2 340.499 197.859   1
   4   5  -2 134.606 70.3763   2
  -4  -5   1 9303.08 911.175   1
  -4  -5   0 6169.09 747.923   1
  -4  -5  -1 13481.7 1112.74   1
  -4  -5  -2 26.7720 78.6920   1
  -4  -5  -3 10634.8 877.102   1
  -4   5  -4 1888.57 405.409   2
  -4  -5  -4 2592.56 423.114   1
  -4   5  -5 2935.35 538.567   2
  -4   5  -6 672.446 311.830   2
  -4  -6   4 0.43257 143.701   1
  -4  -6   3 2681.14 548.295   1
  -4  -6   2 327.479 243.554   1
  -4   6  -3 3205.04 565.048   2
   5   0 -11 44.9748 167.395   2
   5   0 -10 10335.2 1035.33   2
   5   0  -9 101.091 144.468   2
   5   0  -8 22602.2 1400.36   2
   5   0  -7-19.5532 92.8966   2
   5   0  -6 81175.4 2623.28   2
   5   0  -5 34.9877 103.186   2
   5   0  -4 123985. 3173.24   2
   5   0  -3-60.8196 88.9004   2
   5   0  -2 95694.0 2371.40   2
  -5   0   1 27.9287 51.6111   1
  -5   0   0 506.858 101.139   1
  -5   0  -1 162.713 97.0040   1
  -5   0  -2 24107.4 948.380   1
  -5   0  -3 57.4681 89.0188   1
  -5   0  -4 77735.3 2000.77   2
  -5   0  -4 77618.9 2292.92   1
  -5   0  -5 2.39221 62.6125   2
  -5   0  -6 55837.4 1784.38   2
  -5   0  -7 12.2392 71.4673   2
  -5   0  -8 34050.2 1494.65   2
  -5   0  -9 80.8813 117.264   2
  -5   0 -10 7165.95 748.531   2
  -5   0 -11-58.9356 111.283   2
  -5   0 -12 2560.52 500.028   2
   5  -1 -11 281.711 122.226   2
   5   1 -11 206.717 179.902   2
   5   1 -10 5447.25 755.311   2
   5  -1 -10 4903.81 712.045   2
   5   1  -9 643.983 250.946   2
   5  -1  -9 1276.60 351.430   2
   5   1  -8 4831.02 632.226   2
   5  -1  -8 4116.20 571.624   2
   5  -1  -7 478.046 158.849   2
   5   1  -7 484.746 203.553   2
   5   1  -6 47662.9 1864.23   2
   5  -1  -6 47801.8 1868.91   2
   5  -1  -5 1487.37 279.928   2
   5   1  -5 1799.09 309.410   2
   5   1  -4 7806.55 581.859   2
   5  -1  -4 7911.69 623.417   2
   5   1  -3 4532.29 398.252   2
   5   1  -2 53523.2 1516.97   2
  -5  -1   2 52857.1 1497.81   2
  -5  -1   1 503.030 120.835   1
  -5   1   1 455.603 66.4016   1
  -5  -1   1 516.954 94.8391   2
   5   1  -1 487.632 118.653   2
   5  -1   0 13285.5 468.514   1
  -5  -1   0 11547.2 642.456   1
  -5  -1   0 12349.8 448.367   2
   5   1   0 12482.0 463.738   2
  -5   1   0 11892.4 440.319   1
  -5  -1  -1 691.941 74.4498   2
  -5   1  -1 817.996 130.312   1
  -5  -1  -1 649.061 154.423   1
   5  -1   1 670.069 110.665   1
   5  -1   2 42431.2 1239.69   1
  -5  -1  -2 38258.7 849.593   2
  -5  -1  -2 41189.8 1402.24   1
  -5  -1  -3 5016.50 245.445   2
  -5  -1  -3 4993.43 455.478   1
  -5  -1  -4 38268.0 1054.64   2
  -5  -1  -4 37172.5 1437.13   1
  -5  -1  -5 3381.04 423.982   1
  -5  -1  -5 3919.99 316.523   2
  -5   1  -5 4245.41 430.409   2
  -5  -1  -6 45406.7 1872.47   1
  -5  -1  -6 43733.4 1424.77   2
  -5   1  -6 46136.2 1702.26   2
  -5  -1  -7 553.413 142.286   2
  -5   1  -7 659.530 187.201   2
  -5   1  -8 7416.94 695.822   2
  -5  -1  -8 7665.42 625.782   2
  -5  -1  -9-22.9526 81.8489   2
  -5   1  -9-179.862 146.196   2
  -5  -1 -10 8223.42 755.024   2
  -5   1 -10 8918.50 870.884   2
  -5   1 -11-6.65860 108.549   2
   5  -2 -11-175.598 147.431   2
   5   2 -10 4403.38 698.341   2
   5  -2 -10 3439.99 601.152   2
   5   2  -9 4977.06 701.509   2
   5  -2  -9 3036.62 560.519   2
   5   2  -8 9934.31 913.212   2
   5  -2  -8 7899.57 831.486   2
   5   2  -7 652.810 239.124   2
   5   2  -6 22209.5 1228.71   2
  -5   2   5 517.777 116.365   1
   5   2  -5 406.925 128.705   2
   5   2  -4 23945.8 1123.34   2
  -5   2   4 24991.8 780.138   1
   5   2  -3 1522.82 241.095   2
  -5   2   3 1218.12 96.6128   1
   5   2  -2 29797.8 1070.63   2
  -5  -2   2 29672.4 1066.98   2
  -5  -2   1 5653.26 504.519   1
   5   2  -1 6112.27 379.244   2
  -5  -2   1 5476.23 360.232   2
   5  -2   0 1062.05 103.693   1
   5   2   0 1103.54 124.417   2
  -5  -2   0 1098.21 225.408   1
  -5  -2  -1 5318.83 493.374   1
   5  -2   1 5259.09 321.719   1
   5   2   1 4804.11 196.820   2
   5  -2   2 6201.08 446.587   1
  -5  -2  -2 7008.18 596.134   1
  -5  -2  -3 6934.91 575.814   1
  -5  -2  -4 27196.3 1255.76   1
  -5  -2  -5 1613.71 179.962   2
  -5  -2  -5 1731.97 307.480   1
  -5  -2  -6 11112.8 869.818   1
  -5   2  -6 12217.7 883.254   2
  -5  -2  -6 12123.1 597.761   2
  -5  -2  -7 581.290 241.669   1
  -5  -2  -7 377.369 126.711   2
  -5   2  -7 441.344 174.773   2
  -5   2  -8 13444.8 1017.93   2
  -5   2  -9 6603.48 742.181   2
  -5   2 -10 4692.29 664.778   2
   5   3  -9 3098.52 582.870   2
   5   3  -8 1496.64 391.327   2
   5   3  -7 3533.77 522.678   2
   5   3  -6 4782.36 588.362   2
   5   3  -5 5144.23 570.576   2
   5   3  -4 2354.00 353.696   2
   5   3  -3 2632.05 347.031   2
   5   3  -2 753.250 161.440   2
  -5  -3   1 1734.72 309.404   1
   5   3  -1 1314.33 195.622   2
   5   3   0 120.848 54.7360   2
   5  -3   0 250.222 65.6133   1
  -5  -3   0 296.551 145.055   1
   5   3   1 346.707 70.1929   2
  -5  -3  -1 450.401 175.672   1
   5   3   2 247.669 37.8365   2
   5   3   2 140.120 34.7066   2
  -5  -3  -2 414.743 159.671   1
  -5  -3  -3 2298.00 362.381   1
  -5  -3  -4 3379.32 443.302   1
  -5  -3  -5 2291.80 388.853   1
  -5  -3  -6 2196.45 393.665   1
  -5   3  -6 2759.85 449.382   2
  -5  -3  -7 2801.19 469.794   1
  -5   3  -7 3919.93 565.217   2
  -5  -3  -8 6453.80 741.767   1
  -5   3  -8 6492.26 759.138   2
  -5   3  -9 3452.71 591.200   2
   5   4  -8 1579.23 410.874   2
   5   4  -7 4590.93 675.119   2
   5   4  -6 3192.51 521.223   2
   5   4  -5 6210.95 662.997   2
   5   4  -4 711.831 229.268   2
   5   4  -3 3716.05 447.722   2
  -5  -4   2 666.536 252.053   1
   5   4  -2 673.195 188.532   2
  -5  -4   1 286.043 166.528   1
   5   4  -1 49.8154 80.8953   2
  -5  -4   0 203.939 168.961   1
   5   4   0-10.4048 49.8349   2
  -5  -4  -1 153.667 171.935   1
  -5  -4  -2 629.053 238.435   1
  -5  -4  -3 9938.94 828.256   1
  -5  -4  -4 3023.29 442.631   1
  -5  -4  -5 8743.76 796.784   1
  -5   4  -5 8590.91 844.260   2
  -5  -4  -6 1502.32 336.358   1
  -5   4  -6 1971.70 417.962   2
  -5   4  -7 9271.40 952.542   2
  -5  -4  -7 8059.86 817.482   1
  -5  -4  -8 2185.07 471.784   1
  -5   4  -8 3063.33 566.399   2
   5   5  -7 3546.86 611.484   2
   5   5  -6 886.438 300.134   2
   5   5  -5 4627.42 618.059   2
   5   5  -4 2706.00 439.976   2
  -5  -5   4 2748.33 536.720   1
   5   5  -3 1060.70 258.285   2
  -5  -5   3 1216.52 335.748   1
  -5  -5   2 764.643 290.980   1
  -5  -5   1 2760.85 523.213   1
  -5  -5   0 158.537 138.418   1
  -5  -5  -1 1337.04 336.189   1
  -5  -5  -2 490.613 215.190   1
  -5  -5  -3-12.0711 131.411   1
  -5  -5  -4 1889.22 389.027   1
  -5   5  -5 3458.51 574.010   2
  -5  -6   3 988.198 333.052   1
  -5  -6   2-94.5597 155.926   1
  -5  -6   1-17.4954 163.424   1
   6   0 -11 376.065 237.927   2
   6   0 -10 2135.80 494.335   2
   6   0  -9-289.616 197.573   2
   6   0  -8 3688.91 622.574   2
   6   0  -7-64.8727 177.214   2
   6   0  -6 4378.37 570.280   2
   6   0  -5-4.55401 78.0567   2
   6   0  -4 19862.1 1007.75   2
   6   0  -3 74.4851 104.726   2
   6   0  -2 17324.9 807.411   2
  -6   0   1-80.2976 68.3965   1
   6   0   0 45366.2 1350.76   1
  -6   0   0 42291.0 1308.68   1
  -6   0  -1-78.2981 87.1563   1
  -6   0  -2 38327.6 1299.92   1
  -6   0  -3 26.4473 100.626   1
  -6   0  -4 27934.2 1229.68   1
  -6   0  -4 30687.5 1060.32   2
  -6   0  -5 51.6872 69.1137   1
  -6   0  -5 55.4540 86.6975   2
  -6   0  -6 11024.4 673.568   2
  -6   0  -7-103.171 94.3399   2
  -6   0  -8 16849.2 1001.90   2
  -6   0  -9-38.2397 96.1408   2
  -6   0 -10 50.8754 119.243   2
  -6   0 -11-333.565 159.881   2
   6  -1 -11-179.505 117.261   2
   6   1 -10 1219.77 376.752   2
   6  -1 -10 1118.07 352.688   2
   6   1  -9 139.852 132.867   2
   6  -1  -9 275.322 133.102   2
   6   1  -8 72.9553 128.754   2
   6  -1  -8-94.9451 155.003   2
   6   1  -7 305.168 179.151   2
   6  -1  -7 459.237 206.229   2
   6   1  -6 6039.92 613.709   2
   6  -1  -6 5320.50 586.610   2
   6  -1  -5 5932.18 579.405   2
   6   1  -5 6835.06 610.702   2
   6  -1  -4 35386.6 1447.88   2
   6   1  -4 34360.0 1388.01   2
   6   1  -3 1862.61 271.195   2
  -6   1   2 57299.1 1377.27   1
   6   1  -2 58760.0 1684.41   2
  -6  -1   2 56025.3 1618.67   2
  -6   1   1 43371.1 1094.43   1
  -6  -1   1 43768.9 1459.34   1
  -6  -1   1 43153.9 1242.46   2
   6   1  -1 44546.7 1272.24   2
   6  -1   0 55363.1 1371.19   1
  -6  -1   0 51062.7 1658.59   1
   6   1   0 52263.4 1337.75   2
  -6  -1   0 51860.7 1313.85   2
  -6   1   0 53273.9 1330.53   1
  -6  -1  -1 79777.7 2269.33   1
  -6  -1  -1 79349.2 1738.51   2
  -6   1  -1 82097.5 1971.45   1
   6  -1   1 83584.4 1959.33   1
  -6  -1  -2 22107.4 1034.32   1
   6  -1   2 22725.2 871.524   1
  -6   1  -2 21117.3 903.419   1
  -6  -1  -3 645.857 93.2019   2
  -6  -1  -3 829.450 194.155   1
  -6  -1  -4 41880.3 1617.99   1
  -6  -1  -4 43638.3 1153.30   2
  -6  -1  -5 8334.73 684.394   1
  -6  -1  -5 8025.83 455.820   2
  -6   1  -5 7809.40 595.476   2
  -6  -1  -6 2344.87 276.511   2
  -6  -1  -6 1798.59 360.523   1
  -6   1  -6 2594.60 362.396   2
  -6  -1  -7 571.800 138.773   2
  -6   1  -7 330.536 137.087   2
  -6   1  -8 640.103 226.923   2
  -6  -1  -8 836.108 195.259   2
  -6  -1  -9-5.49925 84.6535   2
  -6   1  -9 1.64381 118.335   2
  -6   1 -10 1924.64 387.130   2
  -6   1 -11 203.104 189.743   2
   6   2 -10 718.286 319.819   2
   6   2  -9 56.7589 111.364   2
   6   2  -8 1738.08 397.323   2
   6   2  -7 204.402 220.630   2
   6   2  -6 6784.92 660.894   2
   6   2  -5 1425.11 299.245   2
  -6   2   5 1725.62 204.157   1
   6   2  -4 15964.9 905.104   2
  -6   2   4 15865.3 564.931   1
   6   2  -3 9618.25 636.398   2
   6   2  -2 45592.5 1436.85   2
  -6  -2   1 18350.6 996.371   1
   6   2  -1 19642.0 763.735   2
  -6  -2   1 20339.0 765.238   2
  -6  -2   0 56646.2 1920.60   1
   6  -2   0 55579.1 1274.66   1
   6   2   0 58196.3 1395.39   2
  -6  -2  -1 10937.8 750.886   1
   6   2   1 9670.58 311.259   2
   6  -2   1 11639.9 507.126   1
   6  -2   2 45367.5 1387.66   1
  -6  -2  -2 43538.2 1696.27   1
  -6  -2  -3 15576.4 943.087   1
  -6  -2  -4 27710.3 1320.04   1
  -6  -2  -5 3413.95 458.194   1
  -6  -2  -6 4542.72 323.860   2
  -6  -2  -6 4521.02 539.878   1
  -6   2  -6 3941.64 506.541   2
  -6  -2  -7 206.551 156.177   1
  -6   2  -7 139.199 125.651   2
  -6   2  -8 5000.71 623.349   2
  -6   2  -9 1347.20 345.578   2
  -6   2 -10 1756.01 416.504   2
   6   3  -9-46.1835 124.356   2
   6   3  -8-6.38161 163.384   2
   6   3  -7 156.131 167.897   2
   6   3  -6 1513.76 348.964   2
   6   3  -5 3363.90 471.593   2
   6   3  -4 17562.3 1002.71   2
   6   3  -3 4845.20 467.246   2
  -6  -3   2 17245.1 1077.23   1
   6   3  -2 17676.9 857.673   2
  -6  -3   1 32866.6 1505.02   1
   6   3  -1 31817.0 1110.68   2
  -6  -3   0 63898.2 2218.78   1
   6   3   0 62575.1 1534.90   2
   6  -3   0 54827.1 1308.51   1
   6  -3   1 34395.4 1077.23   1
  -6  -3  -1 35924.4 1626.30   1
   6   3   1 36830.7 919.045   2
  -6  -3  -2 17077.5 1081.53   1
  -6  -3  -3 13762.5 959.517   1
  -6  -3  -4 15912.3 1039.74   1
  -6  -3  -5 5558.67 630.168   1
  -6  -3  -6 552.576 205.896   1
  -6   3  -6 823.622 268.840   2
  -6  -3  -7 597.251 233.431   1
  -6   3  -7 335.703 181.240   2
  -6  -3  -8-122.366 150.553   1
  -6   3  -8 447.555 226.181   2
  -6   3  -9 155.408 187.444   2
   6   4  -8 585.296 248.506   2
   6   4  -7 386.978 219.598   2
   6   4  -6 244.368 157.420   2
   6   4  -5 540.354 211.228   2
   6   4  -4 5482.86 588.022   2
   6   4  -3 3081.28 408.887   2
  -6  -4   3 2835.08 484.474   1
   6   4  -2 2816.91 354.221   2
  -6  -4   2 2666.13 435.818   1
   6   4  -1 3209.37 342.373   2
  -6  -4   1 3269.31 494.084   1
  -6  -4   0 16930.7 1186.29   1
   6   4   0 18281.1 783.785   2
  -6  -4  -1 4182.39 565.882   1
  -6  -4  -2 3203.33 497.804   1
  -6  -4  -3 4262.41 572.152   1
  -6  -4  -4 6425.43 686.518   1
  -6  -4  -5 2892.35 480.727   1
  -6  -4  -6 640.010 221.396   1
  -6   4  -6 680.088 229.743   2
  -6  -4  -7 471.060 163.198   1
  -6   4  -7 445.939 251.806   2
  -6  -4  -8 377.553 227.955   1
   6   5  -7 441.626 250.101   2
   6   5  -6 200.693 194.039   2
   6   5  -5 2120.22 434.859   2
   6   5  -4 483.054 193.111   2
  -6  -5   4 514.419 216.259   1
  -6  -5   3 4734.64 708.246   1
  -6  -5   2 959.259 321.777   1
  -6  -5   1 9165.40 944.774   1
  -6  -5   0 2692.74 495.311   1
  -6  -5  -1 9801.70 980.468   1
  -6  -5  -2 2018.41 422.647   1
  -6  -5  -3 6788.46 759.316   1
  -6  -5  -4 1054.54 298.805   1
  -6   5  -5 2666.61 531.392   2
  -6  -5  -5 1969.32 419.819   1
  -6  -6   3 3117.35 622.082   1
  -6  -6   2 265.217 258.687   1
  -6  -6   1 3264.78 617.496   1
  -6  -6   0-235.895 235.802   1
   7   0 -10 11436.3 1113.89   2
   7   0  -9-296.323 203.871   2
   7   0  -8 4102.21 615.683   2
   7   0  -7 85.3107 131.851   2
   7   0  -6 84336.3 2764.28   2
   7   0  -5 53.5244 76.6508   2
   7   0  -4 6161.96 562.017   2
   7   0  -3 68.1994 84.5622   2
   7   0  -2 65838.7 1946.26   2
  -7   0   2 67258.1 1839.70   1
  -7   0   1-105.517 77.8057   2
  -7   0   1 48.2886 79.8448   1
   7   0   0 1079.28 188.792   1
  -7   0   0 1043.56 173.936   2
  -7   0   0 886.300 168.859   1
  -7   0  -1 94.2461 88.0806   1
   7   0   1 76.5869 94.9391   1
  -7   0  -2 21906.0 986.239   1
  -7   0  -3 135.947 110.359   1
  -7   0  -4 21257.8 1076.86   1
  -7   0  -5-6.10760 80.0638   1
  -7   0  -5 69.8012 71.2283   2
  -7   0  -6 78722.0 2280.19   2
  -7   0  -7-86.4522 93.1130   2
  -7   0  -8 11154.7 805.196   2
  -7   0  -9 54.4403 68.6458   2
  -7   0 -10 8408.11 792.421   2
   7  -1 -11-80.8387 150.622   2
   7   1 -10 5088.57 771.447   2
   7  -1 -10 4793.13 717.127   2
   7   1  -9 838.067 288.401   2
   7  -1  -9 803.617 315.328   2
   7   1  -8 8942.36 924.626   2
   7  -1  -8 7613.38 875.236   2
   7  -1  -7 2564.51 466.359   2
   7   1  -7 2677.78 470.873   2
   7  -1  -6 9126.35 789.877   2
   7   1  -6 9120.26 807.772   2
   7   1  -5 1711.41 331.793   2
   7  -1  -5 1417.52 300.729   2
   7   1  -4 19901.8 1046.76   2
   7   1  -3 6047.96 508.239   2
  -7   1   2 14593.4 577.392   1
  -7  -1   2 14657.9 803.259   1
   7   1  -2 14751.9 738.862   2
  -7  -1   1 2805.17 333.318   1
  -7  -1   1 2393.95 249.914   2
  -7   1   1 3200.58 239.169   1
   7   1  -1 2488.88 256.433   2
   7  -1   0 2567.30 244.350   1
  -7  -1   0 2271.23 330.911   1
  -7  -1   0 2379.79 218.410   2
  -7   1   0 2532.61 236.510   1
  -7  -1  -1 8808.85 631.047   1
  -7  -1  -1 8755.92 404.322   2
  -7   1  -1 9306.96 515.690   1
   7  -1   1 9937.54 515.272   1
  -7  -1  -2 5633.77 509.915   1
  -7   1  -2 5959.76 451.288   1
   7  -1   2 5996.76 431.280   1
  -7   1  -3 7431.07 574.020   1
  -7  -1  -3 6693.01 587.245   1
  -7  -1  -3 7026.57 325.398   2
  -7  -1  -4 52937.0 1343.97   2
  -7  -1  -4 52157.8 1899.21   1
  -7  -1  -5 311.065 104.830   2
  -7  -1  -5 127.376 164.987   1
  -7  -1  -6 16822.4 1107.41   1
  -7  -1  -6 16475.6 761.225   2
  -7   1  -6 17719.3 991.202   2
  -7  -1  -7 1514.73 246.438   2
  -7  -1  -7 1542.89 370.039   1
  -7   1  -7 1503.17 296.758   2
  -7   1  -8 37426.7 1699.10   2
  -7  -1  -8 38457.0 1485.20   2
  -7   1  -9 220.269 157.449   2
  -7   1 -10 7425.74 800.979   2
  -7   1 -11 156.367 174.943   2
   7   2 -10 5826.69 815.772   2
   7   2  -9 2484.39 508.493   2
   7   2  -8 7862.65 847.127   2
   7   2  -7 3559.55 514.157   2
   7   2  -6 28168.5 1457.44   2
   7   2  -5 1607.39 299.800   2
  -7   2   4 11471.9 450.570   1
   7   2  -4 13475.8 837.356   2
   7   2  -3 1255.91 229.494   2
  -7  -2   2 25429.6 1223.48   1
   7   2  -2 25424.3 1024.43   2
  -7  -2   1 3867.66 310.913   2
  -7  -2   1 3256.17 411.866   1
   7   2  -1 3355.30 299.779   2
   7  -2   0 1474.91 147.927   1
   7   2   0 1758.54 180.581   2
  -7  -2   0 1558.32 308.760   1
  -7  -2   0 1555.49 162.210   2
  -7  -2  -1 12261.4 848.600   1
   7  -2   1 12224.2 544.576   1
   7  -2   2 4915.84 382.723   1
  -7  -2  -2 5587.77 572.309   1
  -7  -2  -3 1222.16 284.416   1
  -7  -2  -4 11545.0 851.165   1
  -7  -2  -5 1503.87 301.742   1
  -7  -2  -6 13237.8 989.729   1
  -7   2  -6 13381.4 959.643   2
  -7  -2  -7 1156.75 330.928   1
  -7   2  -7 1347.59 325.004   2
  -7  -2  -8 10464.8 999.255   1
  -7   2  -8 9942.75 897.013   2
  -7   2  -9 2786.21 505.113   2
  -7   2 -10 2701.16 524.175   2
   7   3  -9 4783.28 739.525   2
   7   3  -8 3273.70 565.346   2
   7   3  -7 3439.64 547.049   2
   7   3  -6 8965.81 831.615   2
   7   3  -5 5219.21 582.524   2
   7   3  -4 3574.76 448.098   2
   7   3  -3 5351.19 499.053   2
  -7  -3   2 9466.52 806.303   1
   7   3  -2 9858.45 631.614   2
  -7  -3   1 2158.24 386.105   1
   7   3  -1 2377.23 264.494   2
   7   3   0 103.578 67.6913   2
   7  -3   0 47.0730 23.5111   1
  -7  -3   0 280.845 174.617   1
  -7  -3  -1 5784.18 633.609   1
   7   3   1 5357.67 247.134   2
   7  -3   1 5524.04 354.639   1
  -7  -3  -2 3133.12 466.038   1
  -7  -3  -3 2238.75 388.655   1
  -7  -3  -4 4795.81 570.331   1
  -7  -3  -5 1929.05 385.246   1
  -7  -3  -6 3463.76 537.306   1
  -7   3  -6 4948.42 629.691   2
  -7  -3  -7 394.479 211.971   1
  -7   3  -7 620.937 300.246   2
  -7  -3  -8 4135.80 652.442   1
  -7   3  -8 4316.61 629.063   2
  -7   3  -9 4977.84 716.813   2
   7   4  -8 3239.04 606.013   2
   7   4  -7 4488.04 650.290   2
   7   4  -6 2060.69 408.437   2
   7   4  -5 4197.48 548.276   2
   7   4  -4 2065.37 365.065   2
   7   4  -3 1280.42 257.506   2
  -7  -4   3 730.506 246.597   1
   7   4  -2 2358.86 326.323   2
  -7  -4   2 2561.57 458.775   1
   7   4  -1 3295.33 343.099   2
  -7  -4   1 3008.30 507.399   1
  -7  -4   0 2637.53 467.252   1
  -7  -4  -1 16333.9 1174.72   1
  -7  -4  -2 423.332 213.347   1
  -7  -4  -3 4351.97 614.052   1
  -7  -4  -4 3663.25 543.885   1
  -7  -4  -5 9336.69 894.489   1
  -7   4  -6 583.459 306.982   2
  -7  -4  -6-89.7723 125.830   1
  -7  -4  -7 5024.25 703.819   1
  -7   4  -7 8319.12 930.929   2
  -7  -4  -8 2790.69 524.919   1
   7   5  -6 2288.14 466.516   2
  -7  -5   5 2843.11 575.635   1
  -7  -5   4 248.335 155.260   1
  -7  -5   3 1831.89 434.061   1
  -7  -5   2 255.427 208.896   1
  -7  -5   1 1179.04 348.373   1
  -7  -5   0 359.445 211.211   1
  -7  -5  -1 288.534 205.370   1
  -7  -5  -2 285.119 196.772   1
  -7  -5  -3 1010.52 321.276   1
  -7  -5  -4 1429.32 376.502   1
  -7  -5  -5 1343.34 369.216   1
  -7  -6   2 456.616 253.805   1
  -7  -6   1 1191.70 419.439   1
  -7  -6   0 1174.99 367.461   1
   8   0 -10 1169.19 377.060   2
   8   0  -9-145.521 194.920   2
   8   0  -8 5670.94 718.658   2
   8   0  -7-110.059 88.0310   2
   8   0  -6 4716.85 597.921   2
   8   0  -5 47.1812 116.141   2
   8   0  -4 18769.1 1031.65   2
   8   0  -3 28.9177 72.5109   2
  -8   0   2 87051.0 2312.55   1
  -8   0   1 9.51042 78.2287   1
  -8   0   0 105852. 2734.40   1
   8   0   0 111113. 2779.67   1
  -8   0   0 112166. 2769.94   2
  -8   0  -1 150.864 111.392   1
  -8   0  -2 38872.1 1465.23   1
  -8   0  -3 85.8672 67.5325   1
  -8   0  -4 71194.0 2304.84   1
  -8   0  -5 47.4114 88.0945   1
  -8   0  -5-16.7536 44.5304   2
  -8   0  -6 11616.9 727.562   2
  -8   0  -7 86.2494 73.3433   2
  -8   0  -8 11590.5 821.948   2
  -8   0  -9 59.0717 95.1644   2
  -8   0 -10 145.460 137.181   2
   8  -1 -10 455.495 245.557   2
   8   1 -10 1041.66 356.186   2
   8   1  -9 971.969 331.629   2
   8  -1  -9 926.959 325.597   2
   8   1  -8 169.379 119.884   2
   8  -1  -8-69.3797 122.714   2
   8   1  -7 111.197 174.217   2
   8  -1  -7-38.9007 89.3728   2
   8  -1  -6 10038.6 858.321   2
   8   1  -6 9574.77 837.142   2
   8   1  -5 1408.69 288.887   2
   8  -1  -5 1152.83 287.195   2
   8   1  -4 29116.7 1324.04   2
   8   1  -3 494.671 169.070   2
  -8   1   3 374.544 113.430   1
  -8   1   2 63800.2 1670.51   1
  -8  -1   2 63859.7 2034.71   1
   8   1  -2 65546.8 1918.01   2
  -8  -1   1 2648.24 279.341   2
  -8  -1   1 2226.71 307.362   1
   8   1  -1 2645.51 279.997   2
  -8   1   1 2378.08 232.787   1
  -8  -1   0 73115.2 2275.28   1
   8  -1   0 73759.4 1921.07   1
  -8   1   0 78938.8 1953.53   1
  -8  -1   0 72343.8 1866.97   2
  -8  -1  -1 425.033 94.5706   2
  -8  -1  -1 421.100 129.456   1
   8  -1   1 774.986 165.379   1
  -8   1  -1 525.820 130.717   1
  -8  -1  -2 49712.9 1289.00   2
  -8   1  -2 48602.7 1573.41   1
  -8  -1  -2 44645.5 1710.58   1
  -8   1  -3 1406.44 269.986   1
  -8  -1  -3 994.964 239.148   1
  -8  -1  -4 22664.0 1238.81   1
  -8  -1  -4 24355.8 808.618   2
  -8  -1  -5 1299.72 173.397   2
  -8  -1  -5 795.381 237.960   1
  -8  -1  -6 1459.27 220.678   2
  -8  -1  -6 743.233 300.565   1
  -8   1  -6 1452.67 291.546   2
  -8  -1  -7-52.2703 77.9128   2
  -8  -1  -7-78.2401 144.738   1
  -8   1  -7-1.80509 88.3913   2
  -8  -1  -8 1431.80 254.771   2
  -8   1  -8 1254.39 299.142   2
  -8   1  -9 305.244 154.461   2
  -8   1 -10 1108.63 324.220   2
  -8   1 -11 217.877 159.007   2
   8   2  -9 230.624 197.637   2
   8   2  -8-40.0327 188.842   2
   8   2  -7 204.017 203.262   2
   8   2  -6 889.674 303.084   2
   8   2  -5 1200.77 290.714   2
  -8   2   4 8622.74 395.429   1
  -8   2   4 9502.52 403.323   1
   8   2  -4 11350.7 782.031   2
   8   2  -3 2513.70 336.311   2
  -8  -2   2 29687.1 1406.23   1
   8   2  -2 28342.3 1135.89   2
  -8  -2   1 3392.28 444.824   1
  -8  -2   1 3525.39 305.764   2
   8   2  -1 3812.25 326.739   2
   8  -2   0 36911.7 1054.29   1
  -8  -2   0 36331.9 1610.15   1
   8   2   0 38041.0 1096.05   2
  -8  -2   0 37003.4 1055.20   2
  -8  -2  -1 17146.1 1037.61   1
  -8  -2  -1 16102.0 481.073   2
   8  -2   1 16834.7 683.506   1
  -8  -2  -2 25911.3 1314.28   1
  -8  -2  -3 6228.91 640.304   1
  -8  -2  -4 17091.3 1097.46   1
  -8  -2  -5 2592.51 430.520   1
  -8  -2  -6 3636.35 523.157   1
  -8  -2  -7 271.283 161.205   1
  -8   2  -7-117.751 173.898   2
  -8  -2  -8 247.126 102.332   1
  -8   2  -8 918.780 276.618   2
  -8   2  -9 367.048 164.539   2
  -8   2 -10 479.598 242.967   2
   8   3  -9 706.646 294.672   2
   8   3  -8-86.5491 100.974   2
   8   3  -7 305.415 190.494   2
   8   3  -6 1466.04 318.310   2
   8   3  -5 1712.21 377.339   2
   8   3  -4 6253.98 614.146   2
  -8  -3   3 6733.00 703.972   1
   8   3  -3 6328.85 554.260   2
  -8  -3   2 10222.5 856.933   1
   8   3  -2 9844.02 641.488   2
  -8  -3   1 9563.36 834.981   1
   8   3  -1 11080.1 609.545   2
   8  -3   0 20027.4 559.516   1
  -8  -3   0 21559.6 1295.53   1
   8   3   0 20396.5 754.264   2
  -8  -3  -1 14399.0 1046.86   1
  -8  -3  -2 9655.58 833.631   1
  -8  -3  -3 7482.96 754.549   1
  -8  -3  -4 6423.99 713.093   1
  -8  -3  -5 7021.13 765.324   1
  -8  -3  -6 650.086 233.325   1
  -8  -3  -7 2246.91 436.438   1
  -8   3  -7 3159.79 540.545   2
  -8  -3  -8-119.826 103.646   1
  -8   3  -8 86.8595 142.032   2
  -8   3  -9 502.133 262.881   2
  -8  -3  -9 805.392 342.618   1
   8   4  -8 333.929 219.112   2
   8   4  -7 121.583 115.695   2
   8   4  -6 649.786 268.875   2
   8   4  -5 2305.26 438.250   2
  -8  -4   4 2253.29 483.347   1
   8   4  -4 2128.02 396.999   2
  -8  -4   3 3442.37 583.898   1
   8   4  -3 3595.71 462.936   2
  -8  -4   2 2425.45 460.600   1
   8   4  -2 2713.32 354.172   2
  -8  -4   1 9903.35 934.269   1
  -8  -4   0 6453.13 761.573   1
  -8  -4  -1 11200.1 997.312   1
  -8  -4  -2 6672.72 768.220   1
  -8  -4  -3 14359.3 1170.81   1
  -8  -4  -4 3630.63 569.473   1
  -8  -4  -5 5111.32 677.192   1
  -8  -4  -6 502.778 225.568   1
  -8  -4  -7 961.145 328.948   1
  -8   4  -7 1455.50 383.406   2
  -8  -4  -8 259.781 177.559   1
  -8  -5   5 2149.64 525.330   1
  -8  -5   4 1044.33 387.816   1
  -8  -5   3 4203.75 688.201   1
  -8  -5   2 1179.25 363.094   1
  -8  -5   1 8583.30 974.607   1
  -8  -5   0 1899.95 467.573   1
  -8  -5  -1 5117.86 715.381   1
  -8  -5  -2 1990.03 457.283   1
  -8  -5  -3 5734.04 778.403   1
  -8  -5  -4 1277.81 360.009   1
  -8  -5  -5 2172.19 461.932   1
  -8  -5  -6 2600.89 523.757   1
  -8  -6   1 4303.76 727.427   1
  -8  -6   0 602.919 317.154   1
  -8  -6  -1 2076.83 486.047   1
   9   0 -10 5558.76 807.086   2
   9   0  -9-283.963 193.396   2
   9   0  -8 12032.7 1077.23   2
   9   0  -7 19.1239 143.294   2
   9   0  -6 3118.96 466.759   2
   9   0  -5-49.7271 123.385   2
   9   0  -4 11199.3 832.770   2
  -9   0   3-29.5206 83.8601   1
   9   0  -3-98.5708 87.8924   2
  -9   0   2 7545.01 543.349   1
  -9   0   1 196.362 104.429   1
  -9   0   0 976.867 222.084   1
  -9   0  -1 89.8292 84.9379   1
  -9   0  -2 6656.69 570.826   1
  -9   0  -3-118.011 122.149   1
  -9   0  -4 30400.7 1423.62   1
  -9   0  -5-14.8435 97.2440   1
  -9   0  -6 1093.54 341.460   1
  -9   0  -6 726.688 184.109   2
  -9   0  -7 23.8320 69.6953   2
  -9   0  -8 23583.1 1220.15   2
  -9   0  -9-84.2428 133.407   2
   9   1 -10 5551.04 818.700   2
   9  -1 -10 5061.69 767.102   2
   9   1  -9 104.298 114.762   2
   9  -1  -9 77.9202 167.380   2
   9   1  -8 5403.58 718.976   2
   9  -1  -8 4888.96 706.243   2
   9   1  -7 6511.25 722.148   2
   9  -1  -7 5201.97 658.558   2
   9  -1  -6 23966.5 1408.90   2
   9   1  -6 25187.8 1412.81   2
   9   1  -5 1686.28 335.547   2
   9   1  -4 4080.79 484.141   2
  -9   1   3 10009.4 557.236   1
  -9  -1   3 10821.6 758.941   1
   9   1  -3 10519.5 720.729   2
  -9   1   2 7599.26 472.530   1
  -9  -1   2 8452.47 651.066   1
   9   1  -2 7570.22 564.488   2
  -9  -1   1 6821.14 585.340   1
  -9   1   1 6124.04 407.029   1
  -9  -1   0 658.134 144.001   2
   9  -1   0 809.041 164.615   1
  -9   1   0 582.631 132.958   1
  -9  -1   0 676.809 210.857   1
  -9  -1  -1 1697.77 204.805   2
  -9  -1  -1 1642.37 294.396   1
  -9   1  -1 1398.81 234.673   1
   9  -1   1 1501.14 239.068   1
  -9  -1  -2 2332.78 364.791   1
  -9   1  -2 2458.88 311.136   1
  -9  -1  -2 2479.07 236.009   2
  -9   1  -3 1858.17 317.212   1
  -9  -1  -3 2027.82 384.522   1
  -9   1  -4 12512.8 875.616   1
  -9  -1  -4 13543.5 955.058   1
  -9  -1  -4 12505.3 549.464   2
  -9  -1  -5 3127.27 480.723   1
  -9  -1  -5 3220.83 280.188   2
  -9  -1  -6 35435.6 1756.77   1
  -9  -1  -6 34583.4 1183.46   2
  -9   1  -6 33731.1 1500.42   2
  -9  -1  -7 633.581 192.381   2
  -9  -1  -7 809.098 334.076   1
  -9   1  -7 743.188 234.098   2
  -9   1  -8 24040.3 1355.57   2
  -9   1  -9 886.788 256.120   2
  -9   1 -10 7521.36 803.290   2
  -9   1 -11 208.956 143.942   2
   9   2  -9 1888.25 473.026   2
   9   2  -8 7473.40 871.005   2
   9   2  -7 3744.12 558.920   2
   9   2  -6 14407.4 1050.15   2
   9   2  -5 7177.31 689.592   2
  -9   2   4 8763.37 396.947   1
   9   2  -4 10320.5 773.015   2
  -9  -2   3 5509.88 595.018   1
   9   2  -3 5185.51 498.195   2
  -9   2   3 3840.09 182.265   1
  -9  -2   2 10785.3 836.948   1
   9   2  -2 11611.5 700.437   2
   9   2  -1 4149.35 365.365   2
  -9  -2   1 4599.54 530.647   1
  -9  -2   1 4136.23 345.262   2
   9  -2   0 1810.69 200.033   1
  -9  -2   0 1306.11 308.315   1
  -9  -2   0 1293.28 162.919   2
  -9  -2  -1 2857.95 432.219   1
  -9  -2  -1 2847.61 190.417   2
   9  -2   1 3104.36 291.945   1
  -9  -2  -2 2452.57 392.503   1
  -9  -2  -3 4915.80 583.002   1
  -9  -2  -4 9008.21 828.767   1
  -9  -2  -5 10220.1 915.241   1
  -9  -2  -6 5530.62 690.268   1
  -9  -2  -7 2453.01 491.361   1
  -9   2  -7 2530.93 443.005   2
  -9  -2  -8 12164.1 1127.44   1
  -9   2  -8 10565.6 953.555   2
  -9   2  -9 1584.87 378.942   2
  -9   2 -10 2870.17 514.046   2
   9   3  -8 5342.70 756.004   2
   9   3  -7 5776.50 726.126   2
   9   3  -6 10805.6 936.467   2
   9   3  -5 6182.70 656.402   2
   9   3  -4 6735.97 641.864   2
   9   3  -3 3357.92 413.950   2
  -9  -3   3 3530.66 513.380   1
  -9  -3   2 13967.3 1058.28   1
   9   3  -2 14608.3 812.835   2
  -9  -3   1 13311.7 1019.56   1
   9   3  -1 12619.8 683.881   2
   9   3   0 914.692 139.321   2
  -9  -3   0 488.429 200.961   1
  -9  -3  -1 4678.16 616.107   1
  -9  -3  -2 3238.14 493.464   1
  -9  -3  -3 754.642 267.357   1
  -9  -3  -4 12048.8 1046.34   1
  -9  -3  -5 3143.91 534.592   1
  -9  -3  -6 6396.60 769.759   1
  -9  -3  -7 2093.50 468.057   1
  -9   3  -7 1997.48 442.022   2
  -9  -3  -8 6688.42 850.989   1
  -9   3  -8 7939.02 889.283   2
  -9  -3  -9 867.699 351.543   1
   9   4  -7 1664.29 426.514   2
   9   4  -6 4845.08 654.927   2
   9   4  -5 2043.32 391.439   2
  -9  -4   5 1490.79 392.863   1
   9   4  -4 2045.10 364.042   2
  -9  -4   4 1883.53 453.466   1
   9   4  -3 1712.23 322.723   2
  -9  -4   3 2076.07 444.174   1
  -9  -4   2 3761.33 578.356   1
  -9  -4   1 4580.33 660.278   1
  -9  -4   0 2509.28 491.222   1
  -9  -4  -1 2334.19 464.129   1
  -9  -4  -2 724.500 235.708   1
  -9  -4  -3 4357.65 638.066   1
  -9  -4  -4 3195.50 566.699   1
  -9  -4  -5 4637.04 694.330   1
  -9  -4  -6 4326.85 655.909   1
  -9  -4  -7 1764.19 457.277   1
  -9  -4  -8 1222.42 389.337   1
  -9  -5   4 661.986 273.820   1
  -9  -5   3 2565.65 562.162   1
  -9  -5   2 1127.11 396.621   1
  -9  -5   1 2076.57 522.734   1
  -9  -5   0 457.843 234.564   1
  -9  -5  -1 511.619 250.853   1
  -9  -5  -2-10.2840 124.138   1
  -9  -5  -3 417.702 236.987   1
  -9  -5  -4 1465.57 398.978   1
  -9  -5  -5 949.057 356.288   1
  -9  -5  -6 130.582 151.291   1
  10   0 -10 665.893 203.365   2
  10   0  -9-73.4447 181.922   2
  10   0  -8 4810.96 678.676   2
  10   0  -7-121.255 156.267   2
  10   0  -6 2098.66 434.377   2
  10   0  -5-77.1952 97.8378   2
  10   0  -4 21956.2 1220.16   2
 -10   0   3 55.5318 74.1932   1
 -10   0   2 69733.1 2129.09   1
 -10   0   1 148.176 110.112   1
 -10   0   0 100375. 2720.97   1
 -10   0  -1 66.1745 107.210   1
 -10   0  -2 79457.6 2457.07   1
 -10   0  -3 42.9925 94.5382   1
 -10   0  -4 60466.0 2229.55   1
 -10   0  -5-7.86424 99.5309   1
 -10   0  -6 3800.69 579.987   1
 -10   0  -6 3657.69 412.562   2
 -10   0  -7 63.4511 96.8089   2
 -10   0  -8 377.574 193.404   2
 -10   0  -9-180.069 156.697   2
  10  -1 -10-57.2329 165.177   2
  10   1  -9-109.908 140.776   2
  10  -1  -9 231.431 168.630   2
  10   1  -8 147.481 173.332   2
  10  -1  -8 148.218 134.508   2
  10   1  -7 1040.29 293.693   2
  10  -1  -7 954.488 307.380   2
  10   1  -6 5557.56 634.600   2
  10   1  -5 388.149 161.324   2
 -10   1   4 10743.8 641.824   1
  10   1  -4 11058.2 825.666   2
 -10   1   3 509.334 135.297   1
 -10  -1   3 480.911 190.392   1
  10   1  -3 541.128 155.522   2
 -10   1   2 52707.1 1590.24   1
 -10  -1   2 55315.3 1963.78   1
  10   1  -2 53096.6 1794.69   2
 -10  -1   1 3383.37 426.400   1
 -10   1   1 3439.02 321.479   1
 -10  -1   0 75990.1 2421.07   1
  10  -1   0 73267.0 2039.57   1
 -10  -1   0 72517.6 2011.13   2
 -10   1   0 71038.7 2006.89   1
 -10  -1  -1 2175.23 253.995   2
 -10  -1  -1 1983.65 326.658   1
 -10   1  -1 1889.00 282.870   1
 -10  -1  -2 46328.0 1372.42   2
 -10   1  -2 47761.2 1672.69   1
 -10  -1  -2 43873.0 1775.91   1
 -10   1  -3 1149.79 245.216   1
 -10  -1  -3 985.501 252.628   1
 -10   1  -4 18594.0 1123.25   1
 -10  -1  -4 18759.9 1221.90   1
 -10  -1  -5 344.299 93.8526   2
 -10  -1  -5 76.4022 107.932   1
 -10  -1  -6 3340.33 519.011   1
 -10  -1  -6 3355.72 325.181   2
 -10  -1  -7 1950.73 415.532   1
 -10   1  -7 1308.68 315.187   2
 -10   1  -8 751.740 213.661   2
 -10   1  -9 191.725 162.176   2
 -10   1 -10 737.961 246.277   2
  10   2  -9 307.049 236.005   2
  10   2  -8 1412.11 394.824   2
  10   2  -7 553.861 229.768   2
  10   2  -6 482.574 244.058   2
  10   2  -5 1653.08 341.997   2
  10   2  -4 6718.58 644.121   2
  10   2  -3 1439.92 270.196   2
 -10  -2   3 1170.65 306.181   1
 -10   2   3 1284.33 122.548   1
 -10  -2   2 13329.9 958.930   1
  10   2  -2 13505.4 778.058   2
 -10   2   2 12235.7 442.680   1
 -10  -2   1 3049.76 449.758   1
 -10   2   1 3015.00 231.110   1
  10   2  -1 2484.20 293.923   2
 -10  -2   0 34373.1 1636.29   1
  10  -2   0 31896.9 1034.27   1
 -10  -2   0 30764.3 1009.54   2
  10  -2   1 4489.89 383.796   1
 -10  -2  -1 5072.13 598.618   1
 -10  -2  -1 4537.11 269.169   2
 -10  -2  -2 17502.9 1116.14   1
 -10  -2  -3 1854.36 347.188   1
 -10  -2  -4 13877.5 1073.37   1
 -10  -2  -5 2370.13 454.372   1
 -10  -2  -6 2315.81 466.891   1
 -10  -2  -7 2468.84 507.338   1
 -10   2  -7 2673.82 462.307   2
 -10  -2  -8 207.314 130.001   1
 -10   2  -8 129.393 113.426   2
 -10   2  -9-47.8062 106.518   2
 -10   2 -10 372.778 167.222   2
  10   3  -8-52.3936 161.820   2
  10   3  -7 718.574 292.111   2
  10   3  -6 675.758 267.998   2
  10   3  -5 2106.97 386.443   2
  10   3  -4 1752.11 354.907   2
 -10  -3   4 1912.21 425.099   1
  10   3  -3 4830.61 515.065   2
 -10  -3   3 5974.49 725.714   1
 -10  -3   2 8440.14 834.513   1
  10   3  -2 11116.9 719.087   2
  10   3  -1 1405.60 218.672   2
 -10  -3   1 731.090 242.483   1
 -10  -3   0 2366.77 414.965   1
 -10  -3  -1 2642.83 471.312   1
 -10  -3  -2 8450.25 815.623   1
 -10  -3  -3 7062.21 780.309   1
 -10  -3  -4 3377.99 567.296   1
 -10  -3  -5 2728.08 517.551   1
 -10  -3  -6 1122.74 325.211   1
 -10  -3  -7 1608.01 421.909   1
 -10   3  -7 1263.51 383.045   2
 -10  -3  -8 357.548 142.309   1
 -10   3  -8 1039.00 346.183   2
  10   4  -7 755.941 280.486   2
  10   4  -6 479.803 220.579   2
 -10  -4   5 3593.17 630.976   1
  10   4  -5 3319.68 518.531   2
  10   4  -4 602.223 198.158   2
 -10  -4   4 939.814 323.698   1
 -10  -4   3 8513.53 942.502   1
 -10  -4   2 5226.88 713.291   1
 -10  -4   1 18228.5 1392.79   1
 -10  -4   0 2241.53 481.592   1
 -10  -4  -1 16274.2 1268.56   1
 -10  -4  -2 5910.87 738.735   1
 -10  -4  -3 10642.8 1023.80   1
 -10  -4  -4 284.157 217.322   1
 -10  -4  -5 4770.46 726.603   1
 -10  -4  -6 1907.41 461.461   1
 -10  -4  -7 2285.11 472.971   1
 -10  -5   3 3565.20 664.131   1
 -10  -5   2 1070.76 348.747   1
 -10  -5   1 5640.83 810.724   1
 -10  -5   0 941.209 310.654   1
 -10  -5  -1 3182.73 605.711   1
 -10  -5  -2 1366.09 337.010   1
 -10  -5  -3 3718.52 658.761   1
 -10  -5  -4 2377.55 544.449   1
 -10  -5  -5 1168.90 386.750   1
  11   0  -9-142.597 163.178   2
  11   0  -8 5446.72 763.391   2
  11   0  -7 435.493 258.286   2
  11   0  -6 8112.15 821.967   2
  11   0  -5-105.587 160.624   2
 -11   0   4 7339.12 633.826   1
  11   0  -4 7253.85 710.319   2
 -11   0   3 113.620 124.280   1
 -11   0   2 8208.42 642.306   1
 -11   0   1-43.1893 90.0849   1
 -11   0   0 2252.36 351.915   1
 -11   0  -1 5.61736 69.2132   1
 -11   0  -2 4203.83 484.427   1
 -11   0  -3-218.757 207.143   1
 -11   0  -4 2096.92 384.798   1
 -11   0  -5-65.0050 130.652   1
 -11   0  -6 1417.73 385.624   1
 -11   0  -6 1309.08 275.276   2
 -11   0  -7 77.8431 60.1703   2
 -11   0  -8 8752.46 732.630   2
  11   1  -9 751.747 336.329   2
  11  -1  -9 353.049 212.235   2
  11   1  -8 13948.0 1196.27   2
  11   1  -7 1213.96 364.177   2
  11   1  -6 11166.6 957.654   2
  11   1  -5 3330.50 493.915   2
 -11   1   5 1900.18 304.812   1
  11   1  -4 15098.4 998.221   2
 -11   1   4 14859.4 786.883   1
 -11  -1   4 13295.4 951.706   1
 -11   1   3 3553.75 363.429   1
 -11  -1   3 4241.32 509.393   1
  11   1  -3 3727.41 453.108   2
 -11   1   2 2092.76 265.464   1
 -11  -1   2 2377.49 390.505   1
 -11   1   1 79.4081 83.7403   1
 -11  -1   1 126.404 95.9799   1
 -11  -1   0 962.755 251.119   1
 -11   1   0 542.434 139.323   1
 -11  -1  -1 112.752 73.8466   2
 -11  -1  -1 181.398 110.575   1
 -11   1  -1 292.818 113.490   1
 -11  -1  -2 156.314 98.3028   1
 -11   1  -2 219.055 105.997   1
 -11  -1  -2 531.046 133.338   2
 -11   1  -3 3578.78 449.745   1
 -11  -1  -3 3402.90 480.117   1
 -11   1  -4 43808.9 1854.99   1
 -11  -1  -4 40322.2 1920.54   1
 -11  -1  -5 1889.18 233.435   2
 -11  -1  -5 1760.29 418.019   1
 -11  -1  -6 5548.07 723.228   1
 -11  -1  -7 4658.90 673.516   1
 -11   1  -7 3890.58 515.052   2
 -11  -1  -8 23643.9 1680.91   1
 -11   1  -8 25413.4 1449.33   2
 -11   1  -9 951.611 270.104   2
 -11   1 -10 5557.44 703.795   2
  11   2  -9-76.0953 110.204   2
  11   2  -8 3761.32 641.142   2
  11   2  -7 5014.87 683.002   2
  11   2  -6 12523.1 1037.89   2
  11   2  -5 2661.22 456.495   2
  11   2  -4 3287.63 461.268   2
 -11  -2   4 2766.49 451.544   1
  11   2  -3 633.086 195.773   2
 -11  -2   3 285.843 190.903   1
 -11  -2   2 11159.1 913.591   1
  11   2  -2 12050.1 757.846   2
 -11   2   2 10876.2 467.059   1
 -11  -2   1 5474.28 662.508   1
  11   2  -1 5342.16 459.079   2
 -11   2   1 5842.74 363.696   1
 -11   2   0 1636.26 220.137   1
  11  -2   0 1400.11 201.647   1
 -11  -2   0 1338.01 184.620   2
 -11  -2   0 1211.85 319.009   1
 -11  -2  -1 6521.14 688.712   1
 -11  -2  -2 2920.92 476.066   1
 -11  -2  -3 2186.13 399.315   1
 -11  -2  -4 4701.56 642.064   1
 -11  -2  -5 13048.8 1126.31   1
 -11  -2  -6 8094.80 910.625   1
 -11  -2  -7 5622.16 754.051   1
 -11   2  -7 5318.59 655.531   2
 -11  -2  -8 6955.18 878.676   1
 -11   2  -8 6017.52 735.447   2
 -11   2  -9 557.076 239.194   2
 -11  -2  -9 418.618 268.780   1
  11   3  -8 3912.68 674.653   2
  11   3  -7 3636.87 593.003   2
  11   3  -6 7482.16 816.737   2
  11   3  -5 5091.68 627.572   2
 -11  -3   5 4527.13 702.599   1
 -11  -3   4 5620.93 732.483   1
  11   3  -4 5810.88 623.105   2
 -11  -3   3 12306.4 1060.57   1
  11   3  -3 10140.0 768.820   2
  11   3  -2 3798.35 420.454   2
 -11  -3   2 4173.12 614.214   1
 -11  -3   1 1270.06 355.307   1
  11   3  -1 1650.49 248.136   2
 -11  -3   0 196.452 113.443   1
 -11  -3  -1 702.890 268.512   1
 -11  -3  -2 2873.25 492.923   1
 -11  -3  -3 1835.83 401.366   1
 -11  -3  -4 8285.67 891.948   1
 -11  -3  -5 3459.02 611.651   1
 -11  -3  -6 7412.84 881.047   1
 -11  -3  -7 2596.29 560.885   1
 -11   3  -7 2245.38 485.504   2
 -11  -3  -8 9369.92 1044.84   1
 -11   3  -8 9550.20 1002.81   2
  11   4  -7 1663.27 427.654   2
  11   4  -6 2515.71 483.167   2
  11   4  -5 1978.10 414.724   2
 -11  -4   5 1722.27 490.109   1
 -11  -4   4 1635.14 441.878   1
 -11  -4   3 572.035 266.250   1
 -11  -4   2 2541.27 525.482   1
 -11  -4   1 720.035 267.023   1
 -11  -4   0 56.7851 159.709   1
 -11  -4  -1 143.401 137.213   1
 -11  -4  -2 979.198 339.985   1
 -11  -4  -3 719.224 276.236   1
 -11  -4  -4 4443.52 704.009   1
 -11  -4  -5 2536.38 567.736   1
 -11  -4  -6 2402.26 542.286   1
 -11  -5   2 2063.31 523.824   1
 -11  -5   1 165.101 226.478   1
 -11  -5   0 228.766 214.434   1
 -11  -5  -1 420.684 248.493   1
 -11  -5  -2 73.1532 196.214   1
 -11  -5  -3 779.120 338.825   1
 -11  -5  -4 270.937 261.900   1
  12   0  -9 84.1325 143.314   2
  12   0  -8 105.217 135.264   2
  12   0  -7 257.438 191.589   2
  12   0  -6 2178.98 456.112   2
 -12   0   5 111.186 88.4962   1
  12   0  -5-167.606 117.034   2
 -12   0   4 5902.39 574.199   1
 -12   0   3 43.6239 85.4148   1
 -12   0   2 32136.5 1434.90   1
 -12   0   1-186.498 129.156   1
 -12   0   0 42331.0 1636.11   1
 -12   0  -1 93.6828 72.2689   1
 -12   0  -2 53766.9 2000.85   1
 -12   0  -3 214.795 131.619   1
 -12   0  -4 7925.64 791.422   1
 -12   0  -5-104.375 114.261   1
 -12   0  -6 4372.97 663.897   1
 -12   0  -6 3634.61 432.800   2
 -12   0  -7 31.1910 72.4156   2
  12   1  -9-193.452 120.502   2
  12   1  -8 712.379 286.548   2
  12   1  -7-209.673 225.795   2
 -12   1   6 2346.69 365.130   1
  12   1  -6 3268.27 530.178   2
 -12   1   5 100.121 95.1244   1
 -12  -1   5 354.883 237.270   1
  12   1  -5 144.488 181.153   2
 -12   1   4 10338.0 686.939   1
 -12  -1   4 10652.2 867.142   1
  12   1  -4 10415.1 852.746   2
 -12  -1   3 299.195 197.524   1
  12   1  -3-41.1658 108.351   2
 -12   1   3 153.076 95.0906   1
 -12   1   2 21284.8 962.092   1
 -12  -1   2 20654.7 1212.15   1
 -12  -1   1-53.6700 155.138   1
 -12   1   1 184.455 97.6922   1
 -12  -1   0 46576.4 1906.97   1
 -12   1   0 46222.3 1588.76   1
 -12  -1  -1 511.738 198.593   1
 -12   1  -1 640.835 199.679   1
 -12  -1  -2 26301.7 1051.89   2
 -12   1  -2 29363.4 1354.93   1
 -12  -1  -2 25898.0 1375.71   1
 -12   1  -3 26.6600 125.825   1
 -12  -1  -3-118.250 109.739   1
 -12   1  -4 34083.1 1645.21   1
 -12  -1  -4 28647.3 1621.30   1
 -12  -1  -5 217.139 233.590   1
 -12  -1  -6 9878.99 995.607   1
 -12  -1  -7 1082.55 346.676   1
 -12   1  -7 700.484 252.154   2
 -12  -1  -8 347.683 307.601   1
 -12   1  -8 116.279 104.411   2
 -12   1  -9 1673.64 372.987   2
  12   2  -8 500.378 204.659   2
  12   2  -7 1697.02 402.793   2
  12   2  -6 1500.17 367.537   2
  12   2  -5 536.031 206.584   2
 -12  -2   5 207.771 158.845   1
  12   2  -4 3135.51 472.733   2
 -12  -2   4 2640.02 482.805   1
 -12  -2   3 10552.8 939.193   1
  12   2  -3 10341.4 780.836   2
 -12  -2   2 21756.7 1357.74   1
  12   2  -2 19878.5 1050.17   2
 -12  -2   1 8712.67 854.178   1
 -12   2   1 9132.25 508.890   1
 -12  -2   0 11459.7 960.124   1
 -12   2   0 13033.4 691.103   1
 -12  -2  -1 1991.96 383.192   1
 -12   2  -1 2316.88 316.101   1
 -12  -2  -2 23008.2 1367.01   1
 -12  -2  -3 7390.70 787.963   1
 -12  -2  -4 10117.3 951.469   1
 -12  -2  -5 423.409 285.429   1
 -12  -2  -6 1540.75 419.763   1
 -12  -2  -7 2231.00 498.397   1
 -12   2  -7 2054.54 415.908   2
 -12  -2  -8 1621.27 477.604   1
 -12   2  -8 1139.92 312.342   2
 -12   2  -9 134.376 171.508   2
  12   3  -8 688.589 273.093   2
  12   3  -7 67.1235 116.989   2
  12   3  -6 1007.67 306.842   2
 -12  -3   6 964.432 340.579   1
  12   3  -5 1141.86 306.500   2
 -12  -3   5 1413.98 435.255   1
  12   3  -4 1714.79 345.367   2
 -12  -3   4 1745.16 431.774   1
  12   3  -3 729.271 218.621   2
 -12  -3   3 1092.45 358.661   1
 -12  -3   2 7375.51 844.685   1
  12   3  -2 7801.18 617.357   2
 -12  -3   1 3816.81 593.872   1
 -12  -3   0 5484.99 719.449   1
 -12  -3  -1 2052.97 428.998   1
 -12  -3  -2 10293.9 970.193   1
 -12  -3  -3 2482.89 481.778   1
 -12  -3  -4 3723.21 604.343   1
 -12  -3  -5-7.20143 206.902   1
 -12  -3  -6 3258.31 610.908   1
 -12  -3  -7 1066.25 343.629   1
  12   4  -7 659.428 297.096   2
 -12  -4   5 1647.11 443.893   1
 -12  -4   4 1687.93 486.260   1
 -12  -4   3 11941.2 1179.04   1
 -12  -4   2 4081.49 686.193   1
 -12  -4   1 10165.4 1076.31   1
 -12  -4   0 2430.11 533.056   1
 -12  -4  -1 10045.9 1038.15   1
 -12  -4  -2 2586.68 521.833   1
 -12  -4  -3 6710.18 844.808   1
 -12  -4  -4 3609.81 631.351   1
 -12  -4  -5 1053.75 342.770   1
 -12  -5   0 182.798 156.245   1
 -12  -5  -1 3953.95 687.658   1
  13   0  -8 6942.63 885.503   2
  13   0  -7-146.238 137.277   2
 -13   0   6 11958.0 972.760   1
  13   0  -6 14062.4 1160.91   2
 -13   0   5-147.618 175.122   1
 -13   0   4 17194.1 1047.34   1
 -13   0   3-38.9061 78.3134   1
 -13   0   2 12362.5 881.744   1
 -13   0   1 63.4169 67.2790   1
 -13   0   0 1597.69 311.973   1
 -13   0  -1-50.7301 111.386   1
 -13   0  -2 7556.94 690.516   1
 -13   0  -3 213.053 144.347   1
 -13   0  -4 9761.49 880.866   1
 -13   0  -5 8.24833 95.6975   1
 -13   0  -6 5004.54 753.140   1
 -13   0  -6 3683.23 459.037   2
 -13   0  -7-405.568 249.708   1
  13   1  -8 9585.12 1038.99   2
  13   1  -7 235.202 234.559   2
 -13  -1   6 12095.5 1017.43   1
  13   1  -6 12678.2 1060.37   2
 -13  -1   5 372.702 159.045   1
  13   1  -5 445.850 224.305   2
 -13   1   5 384.393 169.351   1
 -13   1   4 8598.34 656.554   1
 -13  -1   4 9262.46 825.973   1
  13   1  -4 8803.85 803.826   2
 -13   1   3 930.591 209.685   1
 -13  -1   3 1145.50 294.487   1
 -13  -1   2 8794.22 804.137   1
 -13   1   2 8006.17 587.296   1
 -13   1   1 1004.58 206.930   1
 -13  -1   1 1070.07 295.927   1
 -13  -1   0 3300.01 470.324   1
 -13   1   0 3487.51 400.715   1
 -13  -1  -1 1239.82 286.415   1
 -13   1  -1 1396.59 285.779   1
 -13  -1  -2 4528.83 560.719   1
 -13   1  -2 5445.55 556.587   1
 -13   1  -3 306.423 191.425   1
 -13  -1  -3 297.090 134.488   1
 -13   1  -4 16669.3 1153.14   1
 -13  -1  -4 14245.0 1124.49   1
 -13  -1  -5 827.656 273.757   1
 -13   1  -5 1152.84 344.149   1
 -13  -1  -6 9816.73 1040.47   1
 -13  -1  -7 2849.88 562.436   1
 -13   1  -7 2371.14 444.364   2
 -13  -1  -8 13259.3 1326.80   1
 -13   1  -8 11765.6 988.998   2
 -13   1  -9 655.181 249.995   2
  13   2  -8 3699.55 656.432   2
  13   2  -7 187.938 228.706   2
  13   2  -6 4096.00 612.596   2
 -13  -2   6 3694.96 601.318   1
  13   2  -5 401.618 185.071   2
 -13  -2   5 619.791 270.010   1
 -13  -2   4 6619.82 778.446   1
  13   2  -4 7833.16 751.900   2
 -13  -2   3 1417.07 347.585   1
  13   2  -3 1692.47 324.573   2
 -13  -2   2 2250.70 443.592   1
 -13  -2   1 560.142 230.772   1
 -13   2   0-72.0878 46.8824   1
 -13  -2   0-18.4102 130.720   1
 -13  -2  -1-120.914 119.233   1
 -13   2  -1 134.631 80.1608   1
 -13  -2  -2 748.320 264.572   1
 -13  -2  -3 2675.21 484.141   1
 -13  -2  -4 8115.92 869.973   1
 -13  -2  -5 1193.75 355.963   1
 -13  -2  -6 1672.35 458.547   1
 -13  -2  -7 4151.21 716.559   1
 -13   2  -8 7972.48 880.743   2
 -13   2  -9 5361.75 741.360   2
  13   3  -7 1677.60 437.820   2
  13   3  -6 4788.82 669.702   2
 -13  -3   6 4076.72 705.310   1
  13   3  -5 2498.75 459.294   2
 -13  -3   5 2098.36 490.808   1
  13   3  -4 1679.18 343.382   2
 -13  -3   4 1338.69 387.565   1
 -13  -3   3 617.497 335.438   1
  13   3  -3 795.525 237.382   2
 -13  -3   2 1044.11 356.892   1
 -13  -3   1 1631.85 386.784   1
 -13  -3   0-453.451 277.470   1
 -13  -3  -1 123.717 142.221   1
 -13  -3  -2 1482.54 386.684   1
 -13  -3  -3 414.707 228.990   1
 -13  -3  -4 3603.76 588.621   1
 -13  -3  -5 2421.03 515.386   1
 -13  -3  -6 6937.14 936.554   1
 -13  -4   4 358.176 248.617   1
 -13  -4   3 1793.75 456.415   1
 -13  -4   2 2956.21 619.310   1
 -13  -4   1 2074.24 455.771   1
 -13  -4   0 1200.02 354.091   1
 -13  -4  -1 706.173 271.328   1
 -13  -4  -2 1170.32 362.723   1
 -13  -4  -3 1510.82 417.913   1
 -13  -4  -4 197.587 175.235   1
  14   0  -8 52.0433 113.883   2
 -14   0   7-157.536 151.463   1
 -14   0   6 1946.06 388.660   1
 -14   0   5 42.8837 140.258   1
 -14   0   4 3335.25 464.887   1
 -14   0   3-28.0945 111.019   1
 -14   0   2 3462.02 475.657   1
 -14   0   1 93.8188 111.099   1
 -14   0   0 12675.3 888.659   1
 -14   0  -1-50.3747 85.8723   1
 -14   0  -2 2865.16 448.029   1
 -14   0  -3 87.4373 140.925   1
 -14   0  -4 5296.62 663.672   1
 -14   0  -5 287.460 234.388   1
 -14   0  -6 5864.71 793.766   1
 -14   0  -6 5231.20 550.962   2
 -14   0  -7-228.143 245.078   1
  14   1  -8 54.7458 121.093   2
 -14  -1   7-129.723 131.390   1
  14   1  -7-0.75663 139.945   2
 -14  -1   6 2446.08 493.893   1
  14   1  -6 3179.74 562.209   2
 -14  -1   5-12.9319 104.219   1
  14   1  -5 20.0809 111.674   2
 -14  -1   4 4839.20 616.488   1
 -14   1   4 5097.81 518.371   1
 -14  -1   3 457.100 175.953   1
 -14   1   3 619.164 175.841   1
 -14  -1   2 25742.5 1485.97   1
 -14   1   2 24442.0 1129.99   1
 -14  -1   1 6354.26 703.765   1
 -14   1   1 6236.19 539.010   1
 -14  -1   0 8145.73 777.287   1
 -14   1   0 7148.24 603.188   1
 -14  -1  -1 2102.86 404.480   1
 -14   1  -1 1477.00 279.634   1
 -14   1  -2 46027.9 1848.27   1
 -14  -1  -2 44075.9 1985.34   1
 -14   1  -3 1923.10 367.936   1
 -14  -1  -3 2070.91 401.678   1
 -14   1  -4 14031.3 1092.84   1
 -14  -1  -4 12601.5 1080.72   1
 -14  -1  -5 434.193 214.388   1
 -14   1  -5 697.713 302.805   1
 -14  -1  -6 10173.8 1062.89   1
 -14  -1  -7 717.350 326.916   1
 -14   1  -7 475.775 205.387   2
 -14  -1  -8 1925.42 512.364   1
 -14   1  -8 1839.99 395.985   2
  14   2  -8 179.368 127.995   2
 -14  -2   7 291.618 195.362   1
  14   2  -7-219.535 230.649   2
 -14  -2   6 2089.34 458.142   1
  14   2  -6 2121.12 446.307   2
 -14  -2   5 4136.53 639.739   1
  14   2  -5 3440.71 529.401   2
 -14  -2   4 3164.59 553.509   1
  14   2  -4 2314.53 400.920   2
  14   2  -3 3756.26 501.011   2
 -14  -2   3 3454.55 585.582   1
 -14  -2   2 11867.7 1072.04   1
 -14  -2   1 11725.7 1050.77   1
 -14  -2   0 12553.1 1063.18   1
 -14   2  -1 9241.50 700.481   1
 -14  -2  -1 9303.16 899.544   1
 -14  -2  -2 14559.5 1136.94   1
 -14  -2  -3 4901.55 672.241   1
 -14  -2  -4 4951.53 697.432   1
 -14  -2  -5 2109.77 465.047   1
 -14  -2  -6 4840.13 749.903   1
 -14  -2  -7-133.446 141.376   1
 -14   2  -8 11.9810 118.250   2
  14   3  -7 364.835 188.367   2
 -14  -3   6 496.508 221.884   1
  14   3  -6 1302.75 346.699   2
  14   3  -5 315.447 163.719   2
 -14  -3   5 361.516 245.571   1
 -14  -3   4 1929.63 453.554   1
  14   3  -4 2145.95 393.373   2
 -14  -3   3 3533.25 629.300   1
 -14  -3   2 10853.5 1101.84   1
 -14  -3   1 5543.57 777.322   1
 -14  -3   0 11252.2 1085.01   1
 -14  -3  -1 2803.71 531.486   1
 -14  -3  -2 11633.7 1082.09   1
 -14  -3  -3 3496.09 592.317   1
 -14  -3  -4 6690.08 830.694   1
 -14  -3  -5 279.695 178.966   1
 -14  -3  -6 2689.81 587.781   1
 -14  -4   3 2246.27 557.101   1
 -14  -4   2 5360.20 830.983   1
 -14  -4   1 6439.09 909.803   1
 -14  -4   0 2482.35 544.160   1
 -14  -4  -1 5622.66 815.411   1
 -14  -4  -2 5012.43 750.364   1
 -14  -4  -3 1800.54 452.848   1
 -15   0   6 10702.5 912.837   1
 -15   0   5 109.312 101.322   1
 -15   0   4 9221.34 841.916   1
 -15   0   3-14.9861 98.2585   1
 -15   0   2 19131.0 1166.70   1
 -15   0   1-64.8732 104.596   1
 -15   0   0 83.2219 85.5976   1
 -15   0  -1 55.4424 71.1166   1
 -15   0  -2 4016.01 552.644   1
 -15   0  -3 564.417 219.624   1
 -15   0  -4 16125.3 1191.50   1
 -15   0  -5 23.2925 95.7824   1
 -15   0  -6 10944.0 1104.00   1
 -15   0  -7-266.507 223.243   1
 -15  -1   9 34.4662 148.520   1
 -15  -1   8 2875.65 586.757   1
 -15  -1   7 671.435 293.193   1
  15   1  -7 102.833 202.383   2
 -15  -1   6 7245.14 852.249   1
  15   1  -6 8229.02 903.430   2
 -15  -1   5 22.3584 97.4058   1
 -15  -1   4 7885.70 832.552   1
 -15  -1   3-25.8544 107.475   1
 -15   1   3 111.929 117.308   1
 -15   1   2 4042.92 440.729   1
 -15  -1   2 4646.58 648.139   1
 -15  -1   1-24.2035 158.131   1
 -15   1   1-78.4315 105.115   1
 -15  -1   0 782.815 259.393   1
 -15   1   0 545.454 183.500   1
 -15  -1  -1 280.345 128.746   1
 -15   1  -1 401.913 169.262   1
 -15  -1  -2 1145.52 274.528   1
 -15   1  -2 1439.18 298.451   1
 -15   1  -3-51.5990 70.5411   1
 -15  -1  -3-33.2340 102.067   1
 -15   1  -4 10710.3 957.608   1
 -15  -1  -4 10316.5 994.777   1
 -15  -1  -5 385.576 223.667   1
 -15   1  -5-214.490 220.344   1
 -15  -1  -6 8476.24 993.692   1
 -15  -1  -7 289.451 208.442   1
 -15   1  -7 152.446 120.090   2
 -15  -2   7 703.979 331.213   1
  15   2  -7 245.327 112.831   2
 -15  -2   6 3901.82 647.724   1
  15   2  -6 3685.14 606.910   2
 -15  -2   5 898.001 323.621   1
  15   2  -5 1369.83 333.212   2
  15   2  -4 4491.13 596.327   2
 -15  -2   4 4765.44 689.078   1
 -15  -2   3 103.177 133.425   1
 -15  -2   2 3262.74 563.997   1
 -15  -2   1 299.656 235.124   1
 -15  -2   0 1660.32 390.843   1
 -15  -2  -1 33.1176 86.5733   1
 -15  -2  -2 1174.41 325.605   1
 -15  -2  -3-189.332 208.070   1
 -15  -2  -4 3550.66 611.021   1
 -15  -2  -5 120.113 179.165   1
 -15  -2  -6 4615.25 747.032   1
 -15   2  -8 4112.99 651.319   2
  15   3  -7 72.9690 165.721   2
  15   3  -6 1334.36 366.533   2
 -15  -3   5 815.057 337.100   1
 -15  -3   4 1041.30 313.941   1
 -15  -3   3 243.631 154.820   1
 -15  -3   2 1098.89 411.208   1
 -15  -3   1 178.430 205.100   1
 -15  -3   0-201.408 153.051   1
 -15  -3  -1 199.051 166.986   1
 -15  -3  -2-53.0386 133.202   1
 -15  -3  -3 2140.76 470.322   1
 -15  -3  -4 1290.93 404.018   1
 -15  -3  -5-141.936 252.794   1
 -15  -4   0 271.253 120.282   1
 -15  -4  -1 53.5523 161.840   1
 -16   0   5 96.0675 163.548   1
 -16   0   4 173.317 147.849   1
 -16   0   3 147.421 173.701   1
 -16   0   2 13356.3 990.793   1
 -16   0   1-44.0946 102.549   1
 -16   0   0 862.335 233.328   1
 -16   0  -1-5.23016 110.654   1
 -16   0  -2 15067.9 1095.02   1
 -16   0  -3-192.060 156.323   1
 -16   0  -4 1784.17 391.076   1
 -16   0  -5-108.194 124.860   1
 -16   0  -6 3228.02 611.069   1
 -16   0  -7-238.735 254.285   1
 -16  -1   8 645.017 284.502   1
  16   1  -7 232.124 130.341   2
 -16  -1   7 254.620 187.600   1
 -16  -1   6 2717.18 531.081   1
 -16  -1   5 246.309 146.924   1
 -16  -1   4 3932.02 612.417   1
 -16  -1   3 673.877 224.190   1
 -16  -1   2 14183.0 1136.89   1
 -16   1   2 12619.1 836.070   1
 -16  -1   1 2686.63 481.018   1
 -16   1   1 3009.28 395.998   1
 -16   1   0 19661.8 1114.77   1
 -16  -1   0 21390.7 1358.01   1
 -16  -1  -1 1558.25 362.729   1
 -16   1  -1 1199.53 273.899   1
 -16   1  -2 17704.1 1140.35   1
 -16  -1  -2 17812.6 1268.41   1
 -16   1  -3 1318.50 306.018   1
 -16  -1  -3 1795.53 416.430   1
 -16   1  -4 7457.99 809.482   1
 -16  -1  -4 9796.53 989.116   1
 -16   1  -5 1181.51 365.416   1
 -16  -1  -5 621.497 307.021   1
 -16  -1  -6 9807.02 1058.20   1
  16   2  -7 221.279 215.186   2
 -16  -2   6 1031.90 348.784   1
  16   2  -6 61.5787 173.178   2
  16   2  -5 17.0226 139.010   2
 -16  -2   5 327.549 198.103   1
 -16  -2   4 1904.18 449.633   1
 -16  -2   3 1257.93 389.842   1
 -16  -2   2 10542.5 1070.64   1
 -16  -2   1 7278.22 858.231   1
 -16  -2   0 3905.16 616.997   1
 -16  -2  -1 7097.00 822.908   1
 -16  -2  -2 10753.7 1020.82   1
 -16  -2  -3 3549.47 609.353   1
 -16  -2  -4 2202.99 484.847   1
 -16  -2  -5 827.347 338.167   1
 -16  -3   4 1384.29 427.693   1
 -16  -3   3 95.9705 155.889   1
 -16  -3   2 8977.94 1037.78   1
 -16  -3   1 4301.13 709.928   1
 -16  -3   0 8345.14 976.599   1
 -16  -3  -1 4165.00 689.129   1
 -16  -3  -2 8827.29 986.430   1
 -16  -3  -3 1240.47 350.743   1
 -17   0   4 5924.67 701.088   1
 -17   0   3-46.5854 151.451   1
 -17   0   2 4271.36 568.047   1
 -17   0   1-31.1757 132.232   1
 -17   0   0-36.6721 100.182   1
 -17   0  -1 28.9004 102.820   1
 -17   0  -2 3335.88 524.919   1
 -17   0  -3-22.8251 173.123   1
 -17   0  -4 8079.04 875.885   1
 -17   0  -5 140.982 245.779   1
 -17   0  -6 8092.98 978.398   1
 -17  -1   7-300.531 155.925   1
 -17  -1   6 4122.07 657.213   1
 -17  -1   5 303.957 220.829   1
 -17  -1   4 3757.13 611.099   1
 -17  -1   3 508.975 252.090   1
 -17  -1   2 3308.92 570.968   1
 -17  -1   1 669.948 228.214   1
 -17  -1   0 1253.04 329.342   1
 -17   1   0 1830.80 335.836   1
 -17  -1  -1 558.222 251.927   1
 -17   1  -1 690.063 224.714   1
 -17   1  -2 418.350 147.015   1
 -17  -1  -2 827.741 295.800   1
 -17   1  -3 200.264 173.231   1
 -17  -1  -3 301.989 164.091   1
 -17   1  -4 4512.64 647.343   1
 -17  -1  -4 4705.90 702.077   1
 -17   1  -5 793.926 314.164   1
 -17  -1  -5 1022.32 356.156   1
 -17  -1  -6 8294.21 999.407   1
 -17  -2   6 3709.49 682.275   1
 -17  -2   5 1598.10 460.102   1
 -17  -2   4 3359.11 614.501   1
 -17  -2   3 323.195 228.096   1
 -17  -2   2 3386.14 606.054   1
 -17  -2   1 113.320 138.258   1
 -17  -2   0 38.7482 107.527   1
 -17  -2  -1 19.0651 107.582   1
 -17  -2  -2 507.002 186.396   1
 -17  -2  -3 71.2516 121.962   1
 -17  -2  -4 1755.13 437.621   1
 -17  -3   2 1019.58 375.746   1
 -17  -3   1 625.191 341.678   1
 -17  -3   0 819.385 343.968   1
 -17  -3  -1 759.481 263.731   1
 -17  -3  -2 137.079 189.868   1
 -18   0   3 22.0994 92.9160   1
 -18   0   2 6318.01 703.766   1
 -18   0   1 164.449 118.054   1
 -18   0   0 7451.17 773.155   1
 -18   0  -1-57.2143 104.634   1
 -18   0  -2 11902.1 1025.62   1
 -18   0  -3 106.267 140.387   1
 -18   0  -4 3562.62 577.251   1
 -18   0  -5-139.495 191.046   1
 -18   0  -6 3425.03 635.413   1
 -18  -1   6 1695.27 460.334   1
 -18  -1   5 49.2024 186.624   1
 -18  -1   4 1609.33 430.028   1
 -18  -1   3 27.0221 107.718   1
 -18  -1   2 22151.0 1493.62   1
 -18  -1   1 156.370 191.435   1
 -18  -1   0 6039.25 737.732   1
 -18  -1  -1 1045.92 315.912   1
 -18   1  -1 808.467 250.121   1
 -18   1  -2 18918.1 1253.43   1
 -18  -1  -2 19332.3 1414.42   1
 -18   1  -3 82.3729 111.478   1
 -18  -1  -3 247.898 135.092   1
 -18   1  -4 4719.91 670.990   1
 -18  -1  -4 4728.90 721.292   1
 -18  -1  -5 85.9011 148.979   1
 -18   1  -5-251.902 259.000   1
 -18  -2   5 1935.73 533.130   1
 -18  -2   4 854.274 333.207   1
 -18  -2   3 236.251 259.574   1
 -18  -2   2 3310.44 620.349   1
 -18  -2   1 1757.00 433.771   1
 -18  -2   0 4300.38 666.490   1
 -18  -2  -1 2459.71 521.355   1
 -18  -2  -2 4328.37 700.711   1
 -18  -2  -3 783.246 299.074   1
 -19   0   2 352.727 198.843   1
 -19   0   1-319.684 159.576   1
 -19   0   0 304.727 195.821   1
 -19   0  -1 126.253 97.7933   1
 -19   0  -2 706.475 254.155   1
 -19   0  -3-183.868 185.811   1
 -19   0  -4 2236.32 493.784   1
 -19   0  -5-223.339 196.024   1
 -19  -1   5 274.946 263.133   1
 -19  -1   4 2075.76 484.500   1
 -19  -1   3 442.266 196.316   1
 -19  -1   2 2851.19 551.479   1
 -19  -1   1-23.6133 144.339   1
 -19  -1   0 2311.54 482.405   1
 -19  -1  -1-106.403 180.591   1
 -19  -1  -2 403.335 236.735   1
 -19   1  -3 137.610 158.015   1
 -19  -1  -3-37.1133 214.065   1
 -19   1  -4 938.949 305.753   1
 -19  -1  -4 130.650 115.179   1
 -19   1  -5 155.122 190.691   1
 -19  -2   3 2510.54 532.716   1
 -19  -2   2 229.904 171.833   1
 -19  -2   1-106.942 203.870   1
 -19  -2   0-371.766 256.635   1
 -19  -2  -1-269.708 187.700   1
 -19  -2  -2-162.347 160.743   1
 -20   0   1 147.007 165.290   1
 -20   0   0 8758.99 902.994   1
 -20   0  -1 543.317 239.886   1
 -20   0  -2 11614.6 1086.14   1
 -20   0  -3-209.506 172.670   1
 -20   0  -4 4365.95 685.257   1
 -20  -1   4 2010.06 463.827   1
 -20  -1   3 257.114 191.859   1
 -20  -1   2 6358.14 818.404   1
 -20  -1   1 6.77774 116.036   1
 -20  -1   0 7441.23 882.718   1
 -20  -1  -1 333.944 205.011   1
 -20  -1  -2 10686.4 1077.31   1
 -20  -1  -3 732.622 282.025   1
 -21   0  -1 84.1700 120.925   1
 -21   0  -2 499.651 263.795   1
 -21   0  -3 2.42456 125.289   1
 -21  -1   3 487.385 253.946   1
 -21  -1   2 367.259 227.406   1
 -21  -1   1-194.130 204.708   1
 -21  -1   0 980.528 337.177   1
 -21  -1  -1 240.963 241.863   1
   0   0   0    0.00    0.00   0
TITL Coadipate0502 in P2/c
REM P2/c (#13 in standard setting)
CELL 0.71073  16.147341   4.792793   9.248778  90.0000  90.2121  90.0000
ZERR    4.00   0.000779   0.000251   0.000469   0.0000   0.0048   0.0000
LATT  1
SYMM -x, y,-z+1/2
SFAC C H O Co
UNIT 24.00 32.00 16.00 4.00
TREF
HKLF 4
END
;
_shelx_hkl_checksum              48611
#END Tags that were not found in dictionaries
loop_
_space_group_symop_operation_xyz
'x, y, z'
'-x, y, -z+1/2'
'-x, -y, -z'
'x, -y, z-1/2'
loop_
_atom_site_label
_atom_site_type_symbol
_atom_site_fract_x
_atom_site_fract_y
_atom_site_fract_z
_atom_site_U_iso_or_equiv
_atom_site_adp_type
_atom_site_occupancy
_atom_site_site_symmetry_order
_atom_site_calc_flag
_atom_site_refinement_flags_posn
Co1 Co 0.24867(6) 0.0360(2) 0.77914(10) 0.0231(3) Uani 1 1 d .
O3 O 0.2188(3) 0.4286(12) 0.7626(7) 0.0381(14) Uani 1 1 d .
O1 O 0.2773(4) 0.0112(12) 0.9858(6) 0.0388(14) Uani 1 1 d .
C6 C 0.1579(5) 0.5562(16) 0.7065(8) 0.0310(16) Uani 1 1 d .
C4 C 0.0315(4) 0.5830(15) 0.5422(8) 0.0288(16) Uani 1 1 d .
H4A H 0.0596 0.7098 0.4769 0.035 Uiso 1 1 calc R
H4B H 0.0030 0.6947 0.6139 0.035 Uiso 1 1 calc R
C3 C 0.4690(5) 0.4249(17) 1.0468(8) 0.0305(16) Uani 1 1 d .
H3A H 0.4975 0.2816 1.1018 0.037 Uiso 1 1 calc R
H3B H 0.4456 0.5565 1.1150 0.037 Uiso 1 1 calc R
C1 C 0.3393(5) 0.1230(17) 1.0469(8) 0.0294(15) Uani 1 1 d .
C2 C 0.3997(5) 0.2917(18) 0.9619(8) 0.0352(17) Uani 1 1 d .
H2A H 0.3694 0.4380 0.9120 0.042 Uiso 1 1 calc R
H2B H 0.4239 0.1722 0.8887 0.042 Uiso 1 1 calc R
C5 C 0.0948(5) 0.4055(17) 0.6168(9) 0.0371(19) Uani 1 1 d .
H5A H 0.1237 0.2978 0.5440 0.045 Uiso 1 1 calc R
H5B H 0.0660 0.2744 0.6787 0.045 Uiso 1 1 calc R
O2 O 0.3478(3) 0.1101(13) 1.1844(6) 0.0361(13) Uani 1 1 d .
O4 O 0.1499(3) 0.8193(12) 0.7218(6) 0.0371(13) Uani 1 1 d .
loop_
_atom_site_aniso_label
_atom_site_aniso_U_11
_atom_site_aniso_U_22
_atom_site_aniso_U_33
_atom_site_aniso_U_23
_atom_site_aniso_U_13
_atom_site_aniso_U_12
Co1 0.0203(5) 0.0230(5) 0.0258(5) -0.0030(4) -0.0043(3) 0.0013(4)
O3 0.030(3) 0.030(3) 0.054(4) -0.005(3) -0.018(3) 0.002(2)
O1 0.046(3) 0.041(3) 0.029(3) 0.001(2) -0.008(2) -0.007(3)
C6 0.029(4) 0.030(4) 0.034(4) 0.002(3) -0.008(3) -0.001(3)
C4 0.025(3) 0.027(4) 0.034(4) -0.001(3) -0.011(3) -0.001(3)
C3 0.031(4) 0.035(4) 0.026(3) 0.001(3) 0.000(3) -0.006(3)
C1 0.031(4) 0.030(4) 0.027(3) 0.000(3) -0.006(3) 0.000(3)
C2 0.041(4) 0.036(4) 0.029(4) 0.003(3) -0.005(3) -0.009(4)
C5 0.037(4) 0.029(4) 0.046(5) -0.007(3) -0.019(4) 0.004(3)
O2 0.029(3) 0.048(3) 0.030(3) 0.012(3) -0.004(2) -0.007(3)
O4 0.027(3) 0.030(3) 0.054(3) -0.012(3) -0.017(2) 0.002(2)
loop_
_atom_type_symbol
_atom_type_description
_atom_type_scat_dispersion_real
_atom_type_scat_dispersion_imag
_atom_type_scat_source
C C 0.0033 0.0016 'International Tables Vol C Tables 4.2.6.8 and 6.1.1.4'
H H 0.0000 0.0000 'International Tables Vol C Tables 4.2.6.8 and 6.1.1.4'
O O 0.0106 0.0060 'International Tables Vol C Tables 4.2.6.8 and 6.1.1.4'
Co Co 0.3494 0.9721 'International Tables Vol C Tables 4.2.6.8 and 6.1.1.4'
loop_
_exptl_crystal_face_index_h
_exptl_crystal_face_index_k
_exptl_crystal_face_index_l
_exptl_crystal_face_perp_dist
_exptl_oxdiff_crystal_face_indexfrac_h
_exptl_oxdiff_crystal_face_indexfrac_k
_exptl_oxdiff_crystal_face_indexfrac_l
_exptl_oxdiff_crystal_face_x
_exptl_oxdiff_crystal_face_y
_exptl_oxdiff_crystal_face_z
-2 -7 2 0.0832 -2.0001 -7.0000 2.0000 0.8603 -0.2972 0.5236
-23 1 0 0.0061 -23.0001 1.0000 0.0001 0.3297 0.9589 -0.1215
22 -1 0 0.0095 22.0001 -1.0000 -0.0001 -0.3108 -0.9193 0.1203
2 1 -13 0.1055 2.0000 1.0000 -13.0000 -0.6918 0.2590 0.6906
0 -6 -7 0.1099 -0.0001 -6.0000 -7.0001 0.3373 -0.1277 0.9740
2 2 -12 0.1023 2.0000 2.0000 -12.0000 -0.7550 0.2840 0.5383
-2 0 13 0.0892 -2.0000 -0.0000 13.0000 0.5864 -0.2116 -0.7829
2 7 -1 0.0746 2.0001 7.0000 -1.0000 -0.8181 0.2748 -0.5836
loop_
_geom_angle_atom_site_label_1
_geom_angle_atom_site_label_2
_geom_angle_atom_site_label_3
_geom_angle
_geom_angle_site_symmetry_1
_geom_angle_site_symmetry_3
O3 Co1 O1 101.1(3) . .
O3 Co1 O2 120.9(3) . 4
O3 Co1 O4 106.7(2) . 1_545
O1 Co1 O4 114.6(3) . 1_545
O2 Co1 O1 102.9(2) 4 .
O2 Co1 O4 110.6(2) 4 1_545
C6 O3 Co1 133.6(5) . .
C1 O1 Co1 126.1(5) . .
O3 C6 C5 121.3(7) . .
O3 C6 O4 120.6(7) . .
O4 C6 C5 118.0(7) . .
C5 C4 C4 113.4(8) . 3_566
C2 C3 C3 113.4(8) . 3_667
O1 C1 C2 120.7(6) . .
O1 C1 O2 120.3(7) . .
O2 C1 C2 118.8(6) . .
C1 C2 C3 116.1(6) . .
C4 C5 C6 116.3(7) . .
C1 O2 Co1 112.2(5) . 4_556
C6 O4 Co1 117.9(5) . 1_565
loop_
_geom_bond_atom_site_label_1
_geom_bond_atom_site_label_2
_geom_bond_distance
_geom_bond_site_symmetry_2
Co1 O3 1.948(6) .
Co1 O1 1.969(6) .
Co1 O2 1.957(5) 4
Co1 O4 1.974(5) 1_545
O3 C6 1.268(9) .
O1 C1 1.267(9) .
C6 C5 1.497(10) .
C6 O4 1.275(9) .
C4 C4 1.508(13) 3_566
C4 C5 1.496(10) .
C3 C3 1.509(14) 3_667
C3 C2 1.507(10) .
C1 C2 1.493(11) .
C1 O2 1.280(9) .
O2 Co1 1.957(5) 4_556
O4 Co1 1.974(5) 1_565
