#------------------------------------------------------------------------------
#$Date: 2016-02-18 17:37:37 +0200 (Thu, 18 Feb 2016) $
#$Revision: 176729 $
#$URL: svn://www.crystallography.net/cod/cif/1/51/43/1514323.cif $
#------------------------------------------------------------------------------
#
# This file is available in the Crystallography Open Database (COD),
# http://www.crystallography.net/
#
# All data on this site have been placed in the public domain by the
# contributors.
#
data_1514323
loop_
_publ_author_name
'McCrary, Parker D.'
'Chatel, Gregory'
'Alaniz, Spencer A.'
'Cojocaru, O. Andreea'
'Beasley, Preston A.'
'Flores, Luis A.'
'Kelley, Steven P.'
'Barber, Patrick S.'
'Rogers, Robin D.'
_publ_section_title
;
 Evaluating Ionic Liquids as Hypergolic Fuels: Exploring Reactivity from
 Molecular Structure
;
_journal_issue                   5
_journal_name_full               'Energy &amp; Fuels'
_journal_page_first              3460
_journal_paper_doi               10.1021/ef500264z
_journal_volume                  28
_journal_year                    2014
_chemical_formula_sum            'C5 H9 N5'
_chemical_formula_weight         139.17
_chemical_name_systematic
;
 ?
;
_space_group_crystal_system      orthorhombic
_space_group_IT_number           62
_space_group_name_Hall           '-P 2ac 2n'
_space_group_name_H-M_alt        'P n m a'
_symmetry_space_group_name_Hall  '-P 2ac 2n'
_symmetry_space_group_name_H-M   'P n m a'
_atom_sites_solution_hydrogens   geom
_atom_sites_solution_primary     dual
_atom_sites_solution_secondary   difmap
_audit_creation_method           SHELXL-2013
_cell_angle_alpha                90
_cell_angle_beta                 90
_cell_angle_gamma                90
_cell_formula_units_Z            4
_cell_length_a                   14.356(4)
_cell_length_b                   6.3845(19)
_cell_length_c                   7.889(2)
_cell_measurement_reflns_used    3336
_cell_measurement_temperature    100.0(1)
_cell_measurement_theta_max      26.39
_cell_measurement_theta_min      2.84
_cell_volume                     723.1(3)
_computing_cell_refinement       'Bruker SAINT'
_computing_data_collection       'Bruker APEX2'
_computing_data_reduction        'Bruker SAINT'
_computing_molecular_graphics    'Bruker SHELXTL'
_computing_publication_material  'Bruker SHELXTL'
_computing_structure_refinement  'SHELXL-2013 (Sheldrick, 2013)'
_computing_structure_solution    'SHELXS-97 (Sheldrick, 2008)'
_diffrn_ambient_temperature      100.0(1)
_diffrn_measured_fraction_theta_full 0.999
_diffrn_measured_fraction_theta_max 0.993
_diffrn_measurement_device_type  'Bruker APEX-II CCD'
_diffrn_measurement_method       '\f and \w scans'
_diffrn_radiation_monochromator  graphite
_diffrn_radiation_source         'fine-focus sealed tube'
_diffrn_radiation_type           MoK\a
_diffrn_radiation_wavelength     0.71073
_diffrn_reflns_av_R_equivalents  0.0754
_diffrn_reflns_av_unetI/netI     0.0621
_diffrn_reflns_Laue_measured_fraction_full 0.999
_diffrn_reflns_Laue_measured_fraction_max 0.993
_diffrn_reflns_limit_h_max       17
_diffrn_reflns_limit_h_min       -17
_diffrn_reflns_limit_k_max       8
_diffrn_reflns_limit_k_min       -8
_diffrn_reflns_limit_l_max       9
_diffrn_reflns_limit_l_min       -9
_diffrn_reflns_number            7256
_diffrn_reflns_point_group_measured_fraction_full 0.999
_diffrn_reflns_point_group_measured_fraction_max 0.993
_diffrn_reflns_theta_full        25.242
_diffrn_reflns_theta_max         26.762
_diffrn_reflns_theta_min         2.838
_exptl_absorpt_coefficient_mu    0.089
_exptl_absorpt_correction_T_max  0.7454
_exptl_absorpt_correction_T_min  0.3440
_exptl_absorpt_correction_type   multi-scan
_exptl_absorpt_process_details   'Bruker AXScale'
_exptl_crystal_colour            yellow
_exptl_crystal_density_diffrn    1.278
_exptl_crystal_density_method    'not measured'
_exptl_crystal_description       needle
_exptl_crystal_F_000             296
_exptl_crystal_size_max          0.12
_exptl_crystal_size_mid          0.04
_exptl_crystal_size_min          0.04
_refine_diff_density_max         0.432
_refine_diff_density_min         -0.326
_refine_diff_density_rms         0.068
_refine_ls_extinction_method     none
_refine_ls_goodness_of_fit_ref   1.062
_refine_ls_hydrogen_treatment    mixed
_refine_ls_matrix_type           full
_refine_ls_number_parameters     69
_refine_ls_number_reflns         831
_refine_ls_number_restraints     0
_refine_ls_restrained_S_all      1.062
_refine_ls_R_factor_all          0.0644
_refine_ls_R_factor_gt           0.0584
_refine_ls_shift/su_max          0.000
_refine_ls_shift/su_mean         0.000
_refine_ls_structure_factor_coef Fsqd
_refine_ls_weighting_details
'w=1/[\s^2^(Fo^2^)+(0.1140P)^2^+0.1731P] where P=(Fo^2^+2Fc^2^)/3'
_refine_ls_weighting_scheme      calc
_refine_ls_wR_factor_gt          0.1629
_refine_ls_wR_factor_ref         0.1707
_reflns_Friedel_coverage         0.000
_reflns_number_gt                733
_reflns_number_total             831
_reflns_threshold_expression     'I > 2\s(I)'
_cod_data_source_file            ef500264z_si_002.cif
_cod_data_source_block           C1mimN3
_cod_depositor_comments
'Adding full bibliography for 1514323--1514327.cif.'
_cod_original_cell_volume        723.1(4)
_cod_database_code               1514323
#BEGIN Tags that were not found in dictionaries:
_shelx_space_group_comment
;
The symmetry employed for this shelxl refinement is uniquely defined
by the following loop, which should always be used as a source of
symmetry information in preference to the above space-group names.
They are only intended as comments.
;
_shelxl_version_number           2013-4
_shelx_res_file
;
REM Best SHELXD solution:   CC 87.19   CC(weak) 82.56   CFOM 169.76
REM
TITL s1 in Pnma
CELL 0.71073  14.3555   6.3845   7.8894  90.000  90.000  90.000
ZERR    4.00   0.0041   0.0019   0.0022   0.000   0.000   0.000
LATT  1
SYMM 0.5-X, -Y, 0.5+Z
SYMM -X, 0.5+Y, -Z
SYMM 0.5+X, 0.5-Y, 0.5-Z
SFAC C H N
UNIT 20 36 20
TEMP -173.00

L.S. 50
ACTA
FMAP 2
PLAN 20
WGHT    0.114000    0.173100
FVAR       0.16646
N5    3    0.132545    0.750000    0.672616    10.50000    0.02802    0.03101 =
         0.03015    0.00000    0.00245    0.00000
N1    3    0.354185    0.750000    0.273195    10.50000    0.03919    0.02868 =
         0.01826    0.00000    0.00055    0.00000
N3    3    0.401737    0.750000    0.532729    10.50000    0.03450    0.03390 =
         0.01975    0.00000    0.00152    0.00000
N6    3    0.106844    0.750000    0.530810    10.50000    0.03582    0.06020 =
         0.02519    0.00000   -0.00245    0.00000
N4    3    0.159762    0.750000    0.813867    10.50000    0.04116    0.04107 =
         0.02477    0.00000   -0.00391    0.00000
C2    1    0.326807    0.750000    0.433515    10.50000    0.03360    0.02911 =
         0.02163    0.00000    0.00253    0.00000

H2    2    0.262434    0.750000    0.467630    10.50000   -1.20000
C5    1    0.449983    0.750000    0.268316    10.50000    0.03880    0.03386 =
         0.02234    0.00000    0.00638    0.00000

H5    2    0.480155    0.750000    0.162990    10.50000   -1.20000
C7    1    0.400145    0.750000    0.718891    10.50000    0.04149    0.05231 =
         0.01579    0.00000    0.00124    0.00000
AFIX 137
H7A   2    0.445303    0.852317    0.761580    10.50000   -1.50000
H7B   2    0.416439    0.610208    0.760763    10.50000   -1.50000
H7C   2    0.337632    0.787475    0.758532    10.50000   -1.50000
AFIX   0
C4    1    0.479970    0.750000    0.431034    10.50000    0.03412    0.03834 =
         0.02639    0.00000    0.00394    0.00000

H4    2    0.543132    0.750000    0.475200    10.50000   -1.20000
C6    1    0.291091    0.750000    0.127263    10.50000    0.05344    0.03838 =
         0.02041    0.00000   -0.00778    0.00000
AFIX 137
H6A   2    0.226786    0.733014    0.166632    10.50000   -1.50000
H6B   2    0.307281    0.634030    0.051405    10.50000   -1.50000
H6C   2    0.296997    0.882957    0.066126    10.50000   -1.50000

AFIX   0
HKLF 4

REM  s1 in Pnma
REM R1 =  0.0584 for     733 Fo > 4sig(Fo)  and  0.0644 for all     831 data
REM     69 parameters refined using      0 restraints

END

WGHT      0.1207      0.0956

REM Highest difference peak  0.432,  deepest hole -0.326,  1-sigma level  0.068
Q1    1   0.3994  0.7500  0.2654  10.50000  0.05    0.43
Q2    1   0.3303  0.7500  0.7299  10.50000  0.05    0.36
Q3    1   0.0459  0.7500  0.5221  10.50000  0.05    0.32
Q4    1   0.2201  0.7500  0.8228  10.50000  0.05    0.32
Q5    1   0.1632  0.7500  0.5285  10.50000  0.05    0.31
Q6    1   0.4583  0.7500  0.7467  10.50000  0.05    0.31
Q7    1   0.4550  0.7500  0.5184  10.50000  0.05    0.26
Q8    1   0.3495  0.7500  0.5096  10.50000  0.05    0.26
Q9    1   0.0924  0.7500  0.8243  10.50000  0.05    0.25
Q10   1   0.5225  0.7500  0.4529  10.50000  0.05    0.22
Q11   1   0.1946  0.7500  0.6831  10.50000  0.05    0.22
Q12   1   0.1033  0.8959  0.5226  11.00000  0.05    0.21
Q13   1   0.3988  0.8873  0.5260  11.00000  0.05    0.21
Q14   1   0.1567  0.8900  0.8175  11.00000  0.05    0.20
Q15   1   0.0667  0.7500  0.6691  10.50000  0.05    0.19
Q16   1   0.2817  0.8927  0.1157  11.00000  0.05    0.19
Q17   1   0.2681  0.7500  0.7331  10.50000  0.05    0.18
Q18   1   0.6210  0.7500  0.4062  10.50000  0.05    0.18
Q19   1   0.3975  0.6048  0.7279  11.00000  0.05    0.18
Q20   1   0.3491  0.8908  0.2699  11.00000  0.05    0.17
;
_shelx_res_checksum              50993
_shelx_hkl_file
;
   0   1   0   -1.04    0.05
   0   1   0   -1.08    0.05
   0  -2   0 1000.00   84.50
   0  -3   0   -0.07    0.02
   0   3   0   -0.04    0.02
   0  -4   0  187.44   15.73
   0   4   0  184.52   15.72
   0   5   0   -0.02    0.03
   0  -5   0    0.00    0.03
   0   5   0    0.00    0.02
   0  -6   0   43.57    3.97
   0   6   0   51.87    3.97
   0   6   0   44.32    3.04
   0  -7   0    0.00    0.04
   0   7   0    0.00    0.05
   0   7   0   -0.05    0.03
   0   8   0   14.22    0.95
   0   0   1    0.01    0.01
   0   0   1    0.00    0.01
   0  -1   1    0.09    0.02
   0   1   1    0.13    0.02
   0   1  -1    0.10    0.02
   0   1   1    0.08    0.02
   0   2   1   -0.01    0.02
   0   2  -1   -0.02    0.02
   0   2   1    0.01    0.02
   0  -2   1   -0.01    0.02
   0  -3  -1    0.51    0.07
   0  -3   1    0.47    0.07
   0   3   1    0.43    0.07
   0   3   1    0.51    0.07
   0   3  -1    0.43    0.07
   0   4   1    0.00    0.02
   0   4   1    0.00    0.03
   0   4  -1   -0.02    0.03
   0  -4  -1   -0.01    0.04
   0  -4  -1   -0.04    0.02
   0  -4   1    0.01    0.04
   0  -5  -1    0.10    0.04
   0   5   1    0.17    0.05
   0   5  -1    0.25    0.06
   0  -5   1    0.24    0.06
   0   5   1    0.12    0.03
   0   5  -1    0.20    0.04
   0  -5  -1    0.22    0.06
   0   5   1    0.21    0.04
   0   6   1   -0.01    0.03
   0   6  -1    0.00    0.03
   0  -6  -1    0.01    0.04
   0   6   1    0.00    0.04
   0  -6   1    0.00    0.04
   0   6  -1    0.06    0.06
   0  -7   1    0.18    0.07
   0   7  -1    0.19    0.05
   0  -7  -1    0.19    0.06
   0   7   1    0.16    0.04
   0   7   1    0.19    0.07
   0   8   1    0.05    0.04
   0   8  -1    0.08    0.04
   0  -8   1    0.14    0.08
   0   1   2   -0.02    0.01
   0  -1   2   -0.01    0.02
   0   1   2   -0.03    0.02
   0   2   2    6.14    0.66
   0  -2   2    5.81    0.52
   0   3   2   -0.01    0.02
   0   3  -2   -0.02    0.02
   0   3   2    0.01    0.02
   0  -3   2   -0.02    0.02
   0   4   2    1.85    0.20
   0   4  -2    1.58    0.14
   0  -4  -2    1.64    0.20
   0  -4   2    1.62    0.18
   0   4   2    1.80    0.17
   0   4  -2    1.63    0.17
   0  -4  -2    2.18    0.19
   0  -5  -2    0.01    0.04
   0   5   2    0.00    0.02
   0   5   2    0.02    0.03
   0  -5   2   -0.02    0.04
   0   5  -2   -0.02    0.04
   0  -5  -2    0.01    0.03
   0   5   2    0.00    0.03
   0   5  -2    0.00    0.03
   0   5   2   -0.01    0.02
   0   6   2    0.60    0.06
   0   6  -2    0.61    0.08
   0   6   2    0.85    0.12
   0   6   2    0.42    0.09
   0  -6   2    0.70    0.11
   0   7   2   -0.03    0.03
   0   7  -2   -0.01    0.03
   0  -7   2   -0.01    0.05
   0   0   3    0.00    0.02
   0   0   3   -0.02    0.01
   0  -1   3    9.64    0.75
   0   1   3    9.05    0.74
   0   1   3    7.60    0.95
   0   2   3    0.02    0.01
   0  -2   3    0.03    0.02
   0   2   3   -0.01    0.02
   0   3   3    0.18    0.04
   0   3   3    0.22    0.04
   0  -3   3    0.19    0.05
   0   4   3   -0.02    0.02
   0   4  -3   -0.01    0.02
   0   4   3   -0.02    0.02
   0  -4   3    0.00    0.03
   0  -4  -3   -0.02    0.03
   0   4   3    0.00    0.02
   0   5   3    0.07    0.03
   0   5   3    0.10    0.04
   0   5   3    0.10    0.03
   0  -5  -3    0.10    0.04
   0   5   3    0.11    0.04
   0  -5   3    0.04    0.04
   0   5  -3    0.09    0.03
   0  -5  -3    0.10    0.02
   0   6   3   -0.03    0.02
   0   6   3   -0.03    0.03
   0   6   3    0.00    0.03
   0  -6  -3    0.08    0.03
   0  -6   3    0.00    0.04
   0   6  -3    0.03    0.04
   0  -7   3    0.11    0.07
   0   7  -3    0.10    0.04
   0   0   4   60.21    4.59
   0   0   4   48.38    5.88
   0  -1   4    0.01    0.02
   0   1   4    0.03    0.03
   0   1   4    0.00    0.02
   0  -2   4   19.94    1.80
   0   2   4   22.81    1.80
   0   2   4   20.78    2.31
   0   3   4   -0.01    0.02
   0   3  -4    0.01    0.03
   0   3   4    0.00    0.02
   0   3   4    0.01    0.02
   0  -3   4   -0.01    0.03
   0   4   4    4.01    0.40
   0   4   4    5.23    0.43
   0  -4   4    5.00    0.45
   0   4  -4    4.66    0.35
   0   4   4    5.62    0.55
   0  -4  -4    4.80    0.54
   0   5   4   -0.04    0.03
   0  -5  -4    0.00    0.03
   0   5   4   -0.02    0.02
   0  -5   4    0.01    0.04
   0   5  -4   -0.03    0.03
   0   6   4    1.38    0.15
   0  -6   4    1.51    0.18
   0   6   4    1.46    0.19
   0   6  -4    1.44    0.14
   0  -6  -4    1.60    0.19
   0  -7   4    0.00    0.06
   0   7  -4    0.00    0.04
   0   7   4   -0.06    0.04
   0   0   5   -0.01    0.02
   0   0   5   -0.01    0.03
   0   0  -5    0.00    0.03
   0   0   5    0.01    0.02
   0  -1  -5    3.22    0.42
   0  -1   5    3.67    0.32
   0   1   5    3.89    0.33
   0  -1   5    3.96    0.42
   0   1  -5    3.83    0.42
   0  -1   5    4.28    0.34
   0   1   5    3.67    0.43
   0   2  -5   -0.01    0.03
   0   2   5    0.00    0.02
   0   2   5   -0.01    0.03
   0  -2   5   -0.01    0.02
   0  -2  -5    0.00    0.03
   0  -2   5    0.04    0.03
   0   2   5   -0.02    0.02
   0  -3   5    2.29    0.22
   0   3  -5    2.02    0.18
   0  -3   5    2.59    0.21
   0   3   5    2.63    0.27
   0   3   5    1.98    0.20
   0  -3  -5    2.35    0.27
   0   4  -5    0.05    0.04
   0  -4   5   -0.01    0.03
   0   4   5   -0.02    0.02
   0  -4  -5    0.02    0.04
   0   4   5    0.04    0.04
   0  -5  -5    1.48    0.17
   0  -5   5    1.53    0.16
   0   5   5    1.16    0.13
   0   5   5    1.39    0.18
   0   5  -5    1.18    0.13
   0   6  -5    0.02    0.04
   0   6   5   -0.03    0.04
   0   6   5    0.01    0.04
   0  -6  -5    0.03    0.04
   0  -6   5    0.05    0.05
   0   0  -6    0.69    0.12
   0   0   6    0.82    0.09
   0   0   6    0.69    0.12
   0   0   6    0.79    0.08
   0   1   6   -0.03    0.02
   0  -1  -6   -0.03    0.04
   0   1   6    0.01    0.04
   0  -1   6    0.04    0.03
   0   1  -6   -0.05    0.04
   0  -1   6   -0.01    0.03
   0  -2   6    0.33    0.05
   0   2   6    0.24    0.06
   0  -2  -6    0.31    0.07
   0  -2   6    0.30    0.06
   0   2   6    0.26    0.05
   0   2  -6    0.27    0.06
   0   3   6    0.00    0.02
   0   3   6    0.00    0.04
   0  -3   6    0.05    0.04
   0   3  -6    0.01    0.04
   0  -3   6    0.02    0.03
   0  -3  -6   -0.02    0.04
   0   4  -6    0.20    0.06
   0  -4  -6    0.22    0.06
   0   4   6    0.09    0.05
   0   4   6    0.15    0.04
   0  -4   6    0.22    0.06
   0  -5   6   -0.03    0.04
   0   5   6    0.01    0.03
   0   5   6   -0.04    0.04
   0  -5  -6    0.01    0.04
   0   5  -6    0.05    0.05
   0  -6  -6    0.14    0.05
   0   6   6    0.09    0.06
   0   6  -6    0.23    0.06
   0  -6   6    0.17    0.07
   0   6   6    0.14    0.05
   0   0   7    0.06    0.05
   0   0   7   -0.08    0.03
   0   0   7    0.01    0.03
   0   0  -7    0.11    0.05
   0   1   7   28.19    2.06
   0  -1  -7   24.34    2.79
   0  -1   7   25.07    2.06
   0  -1   7   24.92    2.18
   0   1   7   26.25    2.80
   0   1  -7   24.98    1.69
   0   2   7    0.03    0.03
   0  -2   7    0.10    0.05
   0   2  -7    0.01    0.04
   0  -2   7    0.02    0.04
   0  -2  -7    0.06    0.04
   0   2   7    0.05    0.05
   0  -3  -7   15.51    1.51
   0   3   7   13.89    1.51
   0  -3   7   13.25    1.19
   0   3  -7   13.06    0.93
   0   3   7   12.59    1.11
   0   4   7    0.01    0.05
   0   4   7    0.05    0.03
   0  -4  -7    0.13    0.05
   0  -4   7    0.10    0.05
   0   4  -7    0.05    0.05
   0   5   7    5.56    0.55
   0   5   7    6.42    0.74
   0  -5  -7    6.86    0.74
   0  -5   7    7.70    0.61
   0   5  -7    6.51    0.48
   0   0   8    1.20    0.12
   0  -1  -8    0.03    0.05
   0   1   8    0.00    0.05
   0  -1   8    0.01    0.04
   0   1   8    0.03    0.03
   0   2   8    1.29    0.12
   0   2   8    0.97    0.17
   0  -2   8    0.98    0.12
   0   2  -8    0.96    0.11
   0  -2   8    1.12    0.15
   0  -2  -8    1.17    0.16
   0  -3  -8    0.05    0.05
   0  -3   8    0.19    0.06
   0   3   8   -0.02    0.03
   0   3   8   -0.03    0.05
   0   3  -8    0.05    0.04
   0  -4  -8    0.77    0.12
   0   4   8    0.51    0.08
   0   4  -8    0.65    0.10
   0  -4   8    0.71    0.11
   0   4   8    0.47    0.11
   0   0   9    0.00    0.03
   0  -1   9    0.03    0.04
   0  -1  -9    0.06    0.06
   0   1   9    0.05    0.03
   0   2   9   -0.01    0.03
   0  -2   9    0.06    0.05
   0  -2  -9    0.01    0.06
   0   2   9   -0.08    0.06
   0   3   9   -0.01    0.03
   0  -3  -9    0.03    0.06
   0   3   9   -0.06    0.06
   1   0   0    0.01    0.01
   1   1   0    0.01    0.01
   1  -1   0    0.03    0.01
  -1   1   0    0.00    0.01
  -1  -1   0    0.01    0.01
  -1   1   0    0.03    0.01
   1   1   0   -0.01    0.01
   1   2   0   -0.03    0.02
   1   2   0    0.05    0.01
   1  -2   0   -0.03    0.03
  -1  -2   0   -0.03    0.02
  -1   2   0    0.02    0.02
   1  -3   0    0.00    0.03
   1   3   0   -0.01    0.01
  -1  -3   0    0.02    0.02
   1   3   0   -0.02    0.02
  -1   3   0   -0.02    0.02
   1  -3   0   -0.01    0.02
  -1   4   0    0.06    0.02
  -1  -4   0   -0.08    0.03
   1  -4   0   -0.06    0.05
   1   4   0   -0.07    0.03
  -1   4   0    0.03    0.04
  -1   5   0    0.02    0.02
  -1  -5   0   -0.04    0.03
   1   5   0    0.01    0.02
   1   5   0   -0.02    0.03
   1  -5   0   -0.01    0.04
  -1   5   0    0.01    0.04
   1   6   0   -0.03    0.05
   1   6   0   -0.03    0.03
   1  -6   0    0.26    0.07
  -1  -6   0   -0.04    0.05
   1  -7   0    0.01    0.05
   1   7   0    0.04    0.03
  -1   7   0   -0.02    0.05
  -1   7   0    0.03    0.03
   1   8   0    0.19    0.05
   1   0   1   28.08    2.97
  -1   0   1   28.35    2.32
   1   0  -1   27.74    2.96
  -1   0   1   25.38    2.97
  -1   1   1   39.02    4.16
   1   1   1   35.82    4.16
   1  -1  -1   40.45    4.16
  -1   1  -1   38.34    3.25
  -1  -2  -1   14.98    1.25
  -1   2   1   15.09    1.59
   1  -2   1   15.17    1.26
   1  -2  -1   15.18    1.59
   1   2   1   14.70    1.59
  -1  -2   1   12.94    1.25
  -1   3   1   13.38    1.28
  -1  -3  -1   15.42    1.29
   1  -3   1   14.90    1.29
  -1   3   1   16.00    1.63
   1   3  -1   13.65    1.28
   1   3   1   15.80    1.63
   1   3   1   14.07    1.28
  -1  -3   1   15.06    1.29
   1  -3  -1   15.78    1.63
  -1   3  -1   16.25    1.29
   1   4  -1    3.98    0.37
  -1  -4  -1    4.28    0.38
   1  -4   1    3.99    0.38
  -1   4   1    4.34    0.46
  -1   4   1    3.86    0.37
   1   4   1    4.24    0.37
  -1  -4   1    4.14    0.38
   1  -4  -1    3.98    0.38
   1   4   1    4.56    0.46
  -1   4  -1    3.77    0.38
   1  -4  -1    4.13    0.46
  -1   5   1    3.17    0.36
  -1   5   1    3.08    0.23
   1   5  -1    3.54    0.31
   1   5  -1    2.96    0.23
  -1   5   1    3.16    0.31
  -1   5   1    3.14    0.28
   1  -5   1    3.19    0.31
  -1  -5  -1    3.65    0.31
  -1  -5   1    3.41    0.31
  -1   5  -1    3.11    0.23
   1  -5  -1    3.04    0.36
  -1   5  -1    3.13    0.31
   1   5   1    3.01    0.23
   1   5   1    3.54    0.36
   1   5   1    3.59    0.31
   1  -5  -1    2.97    0.31
   1   6  -1    1.19    0.11
  -1  -6  -1    1.23    0.15
  -1   6   1    1.26    0.10
   1  -6   1    1.28    0.16
  -1   6   1    1.09    0.15
   1   6   1    1.06    0.10
   1  -6  -1    1.10    0.15
  -1  -6   1    1.70    0.17
  -1   6  -1    1.16    0.11
  -1   6  -1    1.34    0.16
   1   6   1    1.30    0.15
   1  -7   1    0.74    0.13
   1   7  -1    0.76    0.09
  -1   7   1    1.03    0.15
  -1   7   1    0.87    0.09
  -1  -7   1    1.01    0.15
  -1   7  -1    0.71    0.09
  -1   7  -1    0.95    0.14
   1   7   1    0.75    0.08
   1   7   1    0.98    0.14
   1  -7  -1    0.91    0.13
  -1   8   1    0.58    0.12
  -1   8   1    0.49    0.07
   1   8   1    0.42    0.07
  -1   8  -1    0.41    0.07
  -1   0   2    8.43    0.93
   1   0   2    8.30    0.92
   1   0  -2    8.71    0.93
  -1   1   2    9.18    1.05
   1   1   2   11.50    0.82
   1  -1  -2    8.85    1.05
  -1  -1   2    9.61    0.82
   1   1   2    8.94    1.05
  -1   2   2    2.30    0.26
   1  -2   2    2.34    0.21
  -1  -2   2    2.19    0.21
   1   2   2    2.35    0.26
   1  -2  -2    2.21    0.26
  -1   2  -2    2.35    0.21
  -1   3   2    3.08    0.33
   1  -3   2    2.89    0.27
   1   3   2    3.12    0.33
  -1   3  -2    2.62    0.26
   1   3   2    2.71    0.26
  -1  -3   2    2.76    0.26
   1  -3  -2    3.03    0.33
  -1  -4  -2    0.33    0.06
   1   4  -2    0.24    0.04
  -1   4   2    0.29    0.05
  -1   4   2    0.39    0.06
   1  -4   2    0.28    0.06
   1   4   2    0.30    0.06
   1  -4  -2    0.21    0.05
  -1   4  -2    0.26    0.05
  -1   4  -2    0.28    0.06
  -1  -4   2    0.33    0.06
   1  -4  -2    0.37    0.07
   1   4   2    0.41    0.06
  -1   5   2    0.71    0.10
  -1  -5  -2    0.97    0.12
   1  -5   2    0.79    0.11
  -1   5   2    0.80    0.07
   1   5  -2    0.69    0.08
  -1   5   2    0.71    0.09
  -1   5   2    0.75    0.11
   1   5   2    0.80    0.09
  -1   5  -2    0.75    0.08
  -1  -5   2    0.87    0.11
   1  -5  -2    0.83    0.12
   1   5   2    0.72    0.07
   1   5   2    0.89    0.11
   1  -5  -2    0.78    0.11
  -1   5  -2    0.73    0.11
   1   5   2    0.90    0.11
  -1   6   2    0.10    0.04
   1  -6   2    0.16    0.07
   1   6  -2    0.13    0.04
  -1   6   2    0.16    0.03
  -1   6   2    0.10    0.05
  -1   6   2    0.04    0.03
   1   6   2    0.10    0.03
   1   6   2    0.05    0.04
  -1   6  -2    0.12    0.04
   1  -6  -2    0.10    0.06
  -1   6  -2    0.11    0.06
   1   6   2    0.12    0.05
  -1  -6   2    0.10    0.06
   1  -7   2    0.27    0.09
   1   7  -2    0.19    0.05
  -1   7   2    0.23    0.08
  -1   7   2    0.25    0.05
  -1  -7   2    0.35    0.09
   1   7   2    0.25    0.05
  -1   7  -2    0.18    0.05
  -1   0   3    0.01    0.02
   1   0  -3    0.02    0.03
   1   0   3    0.01    0.02
   1   0   3    0.03    0.01
  -1   0   3    0.04    0.02
  -1   1   3   16.87    1.99
  -1   1   3   20.02    1.55
   1  -1   3   20.32    1.56
   1   1   3   16.73    1.99
   1  -1  -3   15.75    1.99
   1   1   3   19.52    1.55
  -1  -1   3   19.03    1.56
  -1   2   3    0.00    0.01
   1  -2   3    0.03    0.02
  -1   2   3    0.01    0.02
   1  -2  -3    0.00    0.02
   1   2   3   -0.02    0.02
   1   2   3    0.00    0.01
  -1  -2   3    0.01    0.02
  -1   3   3    5.73    0.45
   1  -3   3    4.46    0.45
  -1   3   3    5.24    0.57
  -1  -3   3    5.00    0.45
   1   3   3    5.47    0.57
   1  -3  -3    4.75    0.57
  -1   4   3    0.03    0.02
  -1  -4  -3    0.01    0.03
  -1   4   3    0.03    0.03
   1   4  -3    0.01    0.03
   1  -4   3    0.04    0.03
  -1   4   3    0.02    0.02
  -1  -4   3    0.03    0.03
   1   4   3    0.04    0.03
   1   4   3    0.03    0.02
  -1   4  -3    0.00    0.02
   1   4   3    0.00    0.02
   1  -4  -3   -0.02    0.03
   1  -5   3    1.08    0.14
  -1  -5  -3    0.87    0.08
  -1   5   3    0.99    0.12
  -1   5   3    1.05    0.08
  -1   5   3    1.17    0.14
   1   5  -3    1.03    0.10
  -1   5   3    0.93    0.11
   1   5   3    1.02    0.08
  -1  -5   3    1.03    0.13
   1  -5  -3    1.08    0.14
  -1   5  -3    1.02    0.10
   1  -5  -3    1.36    0.14
   1   5   3    0.92    0.10
   1   5   3    1.20    0.14
  -1  -6  -3    0.03    0.02
  -1   6   3    0.01    0.03
   1   6  -3    0.01    0.03
   1  -6   3    0.02    0.05
  -1   6   3   -0.04    0.03
  -1  -6  -3    0.11    0.04
   1   6   3    0.02    0.02
  -1  -6   3    0.03    0.05
   1  -6  -3    0.05    0.03
   1   6   3    0.02    0.04
  -1   6  -3    0.06    0.04
   1  -7   3    0.17    0.08
   1   7  -3    0.23    0.06
  -1   7  -3    0.34    0.06
  -1  -7   3    0.34    0.09
   1   7   3    0.26    0.05
  -1   0   4    1.54    0.20
   1   0   4    1.57    0.20
   1   0  -4    1.51    0.20
  -1   0   4    1.88    0.15
   1   0   4    1.97    0.15
   1  -1   4    3.54    0.29
  -1   1   4    3.46    0.28
  -1   1   4    3.05    0.36
   1   1   4    3.34    0.28
   1  -1  -4    2.85    0.36
  -1  -1   4    3.63    0.29
   1   1   4    2.87    0.36
  -1   2   4    0.16    0.04
  -1   2   4    0.20    0.03
  -1   2   4    0.20    0.03
   1  -2   4    0.15    0.04
   1   2   4    0.16    0.04
   1   2   4    0.17    0.03
  -1  -2   4    0.16    0.04
   1  -2  -4    0.22    0.05
  -1   3   4    1.56    0.13
  -1   3   4    1.51    0.17
   1  -3   4    1.27    0.14
   1   3  -4    1.29    0.12
   1   3   4    1.54    0.17
   1   3   4    1.40    0.13
  -1   3  -4    1.29    0.12
   1  -3  -4    1.23    0.16
   1   3   4    1.07    0.12
  -1  -3   4    1.16    0.14
   1  -4   4    0.01    0.04
  -1   4   4    0.02    0.03
  -1  -4  -4   -0.01    0.02
  -1   4   4    0.01    0.02
  -1   4   4    0.01    0.02
   1   4  -4   -0.05    0.03
  -1  -4   4    0.01    0.03
  -1   4  -4    0.01    0.03
   1   4   4    0.01    0.02
   1  -4  -4   -0.02    0.03
   1   4   4    0.00    0.03
   1   4   4   -0.01    0.02
  -1  -5  -4    0.28    0.06
   1   5  -4    0.29    0.06
  -1   5   4    0.23    0.06
  -1   5   4    0.25    0.05
   1  -5   4    0.30    0.07
   1   5   4    0.32    0.05
   1  -5  -4    0.25    0.05
  -1   5  -4    0.32    0.06
  -1  -5   4    0.35    0.08
   1   5   4    0.24    0.06
   1   5   4    0.28    0.04
  -1   6   4    0.03    0.03
   1   6  -4    0.03    0.04
   1  -6   4    0.01    0.04
  -1   6   4   -0.02    0.04
  -1  -6  -4    0.09    0.04
   1   6   4    0.03    0.04
   1   6   4   -0.02    0.03
  -1  -6   4    0.06    0.05
   1  -6  -4    0.02    0.03
   1   6   4    0.02    0.03
  -1   6  -4    0.01    0.04
  -1   7   4    0.03    0.05
   1  -7   4    0.02    0.06
  -1   7  -4    0.14    0.06
  -1  -7   4    0.47    0.09
   1   7   4    0.04    0.05
   1   0  -5    3.59    0.46
  -1   0   5    4.60    0.34
  -1   0   5    4.46    0.36
  -1   0   5    3.70    0.46
   1   0   5    4.01    0.46
   1   0   5    4.51    0.36
   1   0   5    4.20    0.34
  -1   1   5    8.14    0.95
  -1   1   5    9.94    0.70
   1  -1   5    8.02    0.70
   1   1  -5    8.53    0.95
  -1   1   5    8.57    0.74
   1  -1   5    9.10    0.75
   1  -1  -5    7.60    0.95
   1   1   5    8.29    0.95
   1   1   5    8.41    0.74
  -1  -1   5   10.16    0.75
  -1   2   5    2.19    0.20
   1  -2   5    2.30    0.20
  -1   2   5    2.29    0.26
  -1   2   5    2.57    0.19
   1  -2   5    2.07    0.21
   1   2   5    2.17    0.19
   1   2   5    2.25    0.26
   1  -2  -5    2.13    0.26
  -1  -2   5    2.26    0.21
  -1   2  -5    2.06    0.18
   1  -3   5    2.87    0.28
   1  -3   5    3.23    0.26
   1   3  -5    2.86    0.23
  -1   3   5    3.36    0.35
  -1   3   5    3.27    0.27
   1  -3  -5    3.01    0.34
   1   3   5    2.38    0.25
   1   3   5    3.26    0.35
  -1   3  -5    2.98    0.23
  -1  -3   5    2.70    0.28
   1   4  -5    0.83    0.09
   1  -4   5    0.87    0.12
  -1   4   5    0.69    0.09
  -1   4   5    0.86    0.12
  -1  -4   5    0.87    0.11
   1   4   5    0.87    0.12
  -1   4  -5    0.76    0.10
   1  -4  -5    0.84    0.12
   1   4   5    0.74    0.09
   1   5  -5    1.10    0.11
   1  -5   5    1.04    0.14
  -1   5   5    1.13    0.15
  -1  -5  -5    1.21    0.15
  -1   5   5    0.96    0.11
   1   5   5    0.95    0.11
   1  -5  -5    1.14    0.15
  -1   5  -5    1.15    0.12
   1   5   5    1.20    0.15
  -1  -5   5    1.09    0.14
  -1   6   5    0.26    0.06
   1  -6   5    0.24    0.08
   1   6  -5    0.19    0.06
  -1   6   5    0.16    0.06
  -1  -6  -5    0.31    0.06
   1   6   5    0.29    0.06
   1  -6  -5    0.29    0.06
   1   6   5    0.19    0.06
  -1  -6   5    0.39    0.09
  -1   6  -5    0.32    0.07
  -1   0   6    2.04    0.16
   1   0   6    1.61    0.21
   1   0   6    1.80    0.16
   1   0  -6    1.63    0.21
  -1   0   6    1.74    0.16
  -1   0   6    1.61    0.21
   1   0   6    1.66    0.16
   1   1  -6    1.47    0.20
  -1   1   6    1.43    0.16
  -1   1   6    1.73    0.21
   1  -1   6    1.94    0.17
   1  -1   6    1.56    0.16
  -1   1   6    2.04    0.15
  -1  -1   6    1.59    0.15
  -1  -1   6    2.05    0.17
   1   1   6    1.73    0.21
   1  -1  -6    1.60    0.21
  -1   1  -6    1.51    0.15
   1   1   6    1.90    0.16
   1   2  -6    1.11    0.12
   1  -2   6    1.44    0.13
  -1   2   6    1.69    0.13
  -1   2   6    1.38    0.17
  -1   2   6    1.27    0.12
   1  -2   6    1.14    0.14
   1  -2  -6    1.30    0.18
  -1   2  -6    1.14    0.12
  -1  -2   6    1.36    0.13
   1   2   6    1.41    0.18
   1   2   6    1.46    0.13
  -1  -2   6    1.19    0.14
   1  -3   6    0.87    0.10
  -1   3   6    0.68    0.08
   1  -3   6    0.85    0.11
   1   3  -6    0.88    0.10
  -1   3   6    0.90    0.12
   1  -3  -6    0.88    0.12
  -1   3  -6    0.70    0.10
  -1  -3   6    1.07    0.11
   1   3   6    0.61    0.09
   1   3   6    0.83    0.12
  -1  -4  -6    0.95    0.12
   1  -4   6    0.99    0.12
  -1   4   6    0.79    0.09
   1   4  -6    0.87    0.11
  -1   4   6    0.79    0.13
   1   4   6    0.64    0.09
  -1   4  -6    0.84    0.10
   1  -4  -6    0.86    0.12
  -1  -4   6    0.89    0.11
   1   4   6    0.67    0.12
   1  -5   6    0.36    0.08
   1   5  -6    0.39    0.07
  -1  -5  -6    0.44    0.08
  -1   5   6    0.28    0.06
  -1   5   6    0.26    0.07
   1  -5  -6    0.30    0.07
  -1   5  -6    0.32    0.07
   1   5   6    0.28    0.07
  -1  -5   6    0.39    0.08
   1   5   6    0.29    0.06
  -1   6   6    0.21    0.07
   1   6  -6    0.34    0.07
  -1   6   6    0.34    0.07
   1  -6   6    0.58    0.10
  -1  -6  -6    0.35    0.07
  -1   6  -6    0.37    0.08
  -1  -6   6    0.53    0.10
   1   6   6    0.22    0.07
   1  -6  -6    0.29    0.07
   1   6   6    0.38    0.07
  -1   0  -7   15.51    1.69
  -1   0   7   15.24    1.69
   1   0  -7   15.11    1.69
   1   0   7   14.18    1.25
  -1   0   7   15.27    1.32
  -1   0   7   16.55    1.25
   1   0   7   16.40    1.70
   1  -1   7    5.59    0.48
  -1   1   7    5.53    0.62
   1  -1   7    4.64    0.46
  -1  -1  -7    5.22    0.62
  -1   1   7    6.08    0.46
   1   1   7    5.67    0.46
   1   1   7    5.59    0.62
   1  -1  -7    5.41    0.62
  -1  -1   7    5.29    0.48
  -1  -1   7    6.39    0.46
  -1   1  -7    4.86    0.39
   1  -2   7    9.65    0.94
   1   2  -7   10.34    0.74
   1  -2   7   11.01    0.89
  -1   2   7   11.42    1.20
  -1  -2  -7   11.03    1.20
  -1   2  -7   10.17    0.74
  -1  -2   7   12.20    0.89
   1   2   7   12.10    0.88
   1  -2  -7   11.24    1.20
  -1  -2   7    9.40    0.94
   1   2   7   10.72    1.20
  -1   3   7    3.68    0.40
   1   3  -7    3.31    0.26
   1  -3   7    3.41    0.32
  -1  -3  -7    3.85    0.40
   1  -3   7    3.87    0.30
  -1   3   7    3.26    0.29
   1   3   7    2.69    0.29
   1  -3  -7    3.67    0.40
  -1  -3   7    3.19    0.32
  -1   3  -7    3.36    0.26
   1   3   7    2.94    0.39
  -1   4   7    5.76    0.46
  -1   4   7    5.82    0.62
   1   4  -7    5.19    0.40
  -1  -4  -7    6.26    0.63
   1  -4   7    5.54    0.50
  -1  -4   7    5.40    0.50
  -1   4  -7    5.29    0.40
   1   4   7    4.94    0.62
   1  -4  -7    5.89    0.62
   1   4   7    4.68    0.46
   1   5  -7    1.97    0.17
   1  -5   7    1.93    0.20
  -1  -5  -7    2.02    0.23
  -1   5   7    1.60    0.17
  -1   5   7    1.69    0.23
   1   5   7    1.51    0.23
   1  -5  -7    1.76    0.22
   1   5   7    1.51    0.17
  -1  -5   7    1.82    0.20
  -1   5  -7    1.99    0.17
  -1   0   8    4.85    0.36
   1   0   8    3.68    0.36
  -1   1   8    0.28    0.05
  -1   1   8    0.15    0.07
   1  -1   8    0.21    0.05
   1   1   8    0.19    0.07
  -1  -1   8    0.16    0.05
   1   1   8    0.20    0.05
  -1  -1   8    0.15    0.06
   1  -1  -8    0.26    0.06
  -1   2   8    3.64    0.28
   1  -2   8    3.22    0.31
  -1  -2  -8    3.49    0.38
   1  -2   8    3.12    0.29
  -1   2   8    3.26    0.38
   1   2   8    2.79    0.38
   1   2   8    3.52    0.28
  -1  -2   8    3.42    0.29
  -1  -2   8    2.90    0.31
  -1   2  -8    2.60    0.24
   1  -2  -8    3.36    0.38
  -1   3   8    0.24    0.05
  -1   3   8    0.13    0.07
   1   3  -8    0.21    0.06
   1  -3   8    0.32    0.07
   1  -3   8    0.29    0.07
  -1  -3  -8    0.32    0.07
   1   3   8    0.09    0.07
  -1  -3   8    0.42    0.08
  -1   3  -8    0.17    0.06
   1   3   8    0.20    0.05
   1  -3  -8    0.24    0.06
   1   4  -8    1.56    0.16
  -1  -4  -8    1.97    0.22
  -1   4   8    1.40    0.22
  -1   4   8    1.88    0.16
   1  -4   8    1.86    0.20
   1  -4  -8    1.84    0.22
  -1  -4   8    1.85    0.20
   1   4   8    1.31    0.21
   1   4   8    1.24    0.15
  -1   4  -8    1.39    0.15
  -1   0   9    0.95    0.10
   1   0   9    0.71    0.10
   1  -1   9   -0.02    0.04
  -1  -1  -9    0.02    0.06
  -1   1   9    0.01    0.03
  -1  -1   9    0.00    0.03
   1  -1  -9    0.00    0.06
   1   1   9   -0.02    0.03
  -1   2   9    0.47    0.12
  -1   2   9    0.68    0.08
   1  -2   9    0.70    0.10
  -1  -2  -9    0.81    0.13
   1   2   9    0.57    0.13
   1   2   9    0.69    0.09
  -1  -2   9    0.67    0.09
  -1  -2   9    0.70    0.12
   1  -2  -9    0.70    0.12
  -1   3   9   -0.04    0.06
  -1  -3  -9    0.07    0.06
  -1   3   9    0.00    0.03
   1  -3  -9    0.00    0.06
   1   3   9   -0.04    0.06
  -1   3  -9    0.06    0.05
   1   3   9    0.00    0.03
  -2   0   0    0.59    0.08
   2   0   0    0.69    0.10
   2  -1   0   45.69    4.76
  -2  -1   0   40.22    3.72
  -2   1   0   38.89    3.72
   2   1   0   50.62    4.76
  -2   2   0    0.41    0.06
  -2  -2   0    0.40    0.05
   2  -2   0    0.50    0.06
   2   2   0    0.42    0.06
  -2  -3   0    8.74    0.79
  -2   3   0    9.04    1.00
   2   3   0    8.76    0.79
   2   3   0    9.92    1.00
   2  -3   0    8.81    0.80
   2  -3   0    9.50    1.00
  -2   3   0    9.16    0.79
   2  -4   0    0.16    0.05
  -2  -4   0    0.13    0.04
  -2   4   0    0.12    0.04
   2   4   0    0.11    0.03
   2   4   0    0.14    0.04
   2  -5   0    2.95    0.31
  -2  -5   0    3.68    0.30
  -2   5   0    3.08    0.30
  -2   5   0    3.26    0.27
   2  -5   0    3.00    0.27
  -2   5   0    2.90    0.23
   2   5   0    2.88    0.22
   2   5   0    3.60    0.30
  -2   6   0    0.04    0.03
  -2  -6   0    0.01    0.04
   2   6   0   -0.02    0.02
  -2   6   0    0.00    0.04
   2  -6   0    0.03    0.05
  -2   6   0    0.03    0.05
   2   7   0    1.50    0.13
   2  -7   0    1.34    0.18
  -2  -7   0    1.60    0.19
  -2   7   0    1.56    0.19
  -2   7   0    1.64    0.13
  -2   8   0   -0.12    0.05
   2   8   0   -0.03    0.03
  -2   8   0   -0.01    0.04
  -2   0   1  113.03   10.40
   2   0   1  141.16   13.32
   2   0  -1  114.62   13.31
   2  -1   1    0.03    0.03
  -2  -1  -1    0.04    0.01
  -2   1   1    0.01    0.02
  -2   1   1    0.05    0.02
  -2   1  -1    0.00    0.02
   2  -1  -1    0.10    0.02
   2   1   1    0.00    0.02
  -2  -1   1    0.02    0.01
   2  -2   1   70.20    5.79
  -2   2   1   74.50    7.40
  -2  -2  -1   67.81    5.78
  -2  -2   1   61.45    5.78
   2   2   1   61.12    5.78
   2   2   1   75.15    7.40
  -2   3   1    0.34    0.06
  -2  -3  -1    0.42    0.06
   2  -3   1    0.53    0.08
  -2   3   1    0.41    0.06
   2  -3  -1    0.44    0.06
  -2  -3   1    0.43    0.06
   2   3   1    0.48    0.06
  -2   3  -1    0.36    0.06
   2   3   1    0.34    0.05
  -2  -4  -1   21.94    1.76
  -2   4   1   21.02    1.76
   2   4  -1   18.10    1.35
  -2   4   1   20.12    2.23
   2  -4   1   19.05    1.77
   2   4   1   23.00    2.23
   2   4   1   21.21    1.75
  -2  -4   1   21.85    1.76
  -2   4  -1   19.67    1.76
   2  -4  -1   20.79    2.23
   2  -4  -1   19.07    1.76
   2   5  -1    0.07    0.03
  -2   5   1    0.07    0.04
   2  -5   1    0.11    0.05
  -2   5   1    0.15    0.03
  -2   5   1    0.06    0.04
  -2  -5  -1    0.07    0.04
   2  -5   1    0.04    0.03
  -2   5   1    0.07    0.03
  -2  -5   1    0.08    0.04
   2   5   1    0.04    0.03
  -2   5  -1    0.06    0.05
  -2   5  -1    0.07    0.03
   2  -5  -1    0.08    0.05
   2   5   1    0.10    0.04
  -2   5  -1    0.06    0.03
   2   5   1    0.07    0.03
  -2   6   1    5.81    0.39
   2  -6   1    5.23    0.52
  -2   6   1    5.79    0.48
  -2   6   1    5.77    0.52
   2   6  -1    5.43    0.39
  -2  -6  -1    5.83    0.51
   2  -6  -1    4.76    0.52
  -2   6  -1    5.35    0.39
  -2  -6   1    5.93    0.52
   2   6   1    6.67    0.52
  -2   6  -1    5.87    0.52
   2   6   1    5.25    0.39
   2   7  -1    0.01    0.03
  -2   7   1    0.13    0.06
  -2   7   1    0.09    0.04
   2  -7   1    0.02    0.05
  -2   7  -1    0.15    0.07
   2   7   1   -0.03    0.03
   2  -7  -1    0.02    0.05
   2   8  -1    1.94    0.17
  -2   8   1    2.40    0.17
   2   8   1    1.93    0.16
   2   0   2    1.09    0.09
   2   0   2    0.80    0.12
  -2   0   2    0.84    0.12
  -2   0   2    1.07    0.09
   2   0  -2    0.92    0.12
  -2   1   2    4.50    0.36
  -2   1   2    3.99    0.46
   2  -1  -2    4.15    0.46
   2   1   2    4.00    0.46
   2  -2   2    2.07    0.20
  -2   2   2    1.87    0.24
   2   2   2    2.02    0.24
  -2   2  -2    2.25    0.19
   2   2   2    2.39    0.18
   2  -2  -2    1.96    0.24
  -2   3   2    0.51    0.06
  -2   3   2    0.38    0.06
  -2  -3  -2    0.52    0.06
   2  -3   2    0.31    0.07
  -2  -3   2    0.38    0.06
   2   3   2    0.35    0.05
   2   3   2    0.40    0.06
   2  -3  -2    0.34    0.06
  -2   3  -2    0.34    0.06
  -2  -4  -2    0.80    0.09
   2  -4   2    0.66    0.10
  -2   4   2    0.69    0.09
  -2   4   2    0.78    0.09
   2   4  -2    0.68    0.07
  -2   4   2    0.56    0.07
  -2  -4   2    0.68    0.09
   2   4   2    0.77    0.09
  -2   4  -2    0.63    0.07
  -2   4  -2    0.67    0.09
   2  -4  -2    0.72    0.10
   2   4   2    0.81    0.10
  -2   5   2    0.03    0.04
  -2   5   2    0.00    0.02
   2   5  -2    0.02    0.03
  -2   5   2   -0.01    0.03
   2  -5   2    0.00    0.04
  -2   5   2    0.06    0.03
  -2   5  -2    0.02    0.04
  -2   5  -2    0.01    0.03
   2   5   2   -0.01    0.03
   2   5   2    0.01    0.02
  -2   5  -2    0.03    0.03
   2   5   2    0.02    0.03
  -2  -5   2    0.02    0.04
   2  -5  -2   -0.01    0.03
   2  -5  -2    0.03    0.04
  -2   6   2    0.08    0.03
  -2   6   2    0.02    0.04
   2   6  -2    0.06    0.03
  -2   6   2    0.10    0.04
  -2   6   2    0.01    0.03
   2  -6   2    0.10    0.05
  -2   6  -2    0.08    0.04
  -2  -6   2    0.06    0.06
   2   6   2    0.02    0.03
   2   6   2    0.01    0.02
  -2   6  -2    0.03    0.05
   2  -6  -2    0.01    0.05
   2   7  -2   -0.02    0.03
  -2   7   2    0.06    0.05
   2  -7   2    0.02    0.05
  -2   7  -2   -0.02    0.03
  -2   7  -2    0.08    0.06
  -2  -7   2   -0.03    0.06
   2   7   2    0.00    0.03
   2   0  -3    0.86    0.11
  -2   0   3    0.84    0.11
   2   0   3    0.88    0.11
  -2   0   3    1.08    0.09
   2  -1   3    7.23    0.57
  -2   1   3    7.60    0.56
  -2   1   3    6.27    0.72
   2   1   3    6.59    0.56
   2   1   3    6.38    0.72
  -2  -1   3    5.78    0.57
   2  -1  -3    6.31    0.72
   2  -2   3    0.05    0.03
  -2   2   3    0.04    0.02
  -2   2   3    0.04    0.02
   2   2   3    0.05    0.01
   2   2   3    0.04    0.03
   2  -2  -3    0.03    0.03
  -2   2  -3    0.09    0.03
  -2  -2   3    0.07    0.02
  -2   3   3    1.90    0.21
   2  -3   3    1.66    0.18
  -2   3  -3    1.59    0.17
   2  -3  -3    1.84    0.21
  -2  -3   3    1.74    0.17
   2   3   3    1.95    0.21
   2   3   3    1.92    0.17
  -2   4   3    0.20    0.05
  -2  -4  -3    0.26    0.03
  -2   4   3    0.22    0.05
   2  -4   3    0.24    0.06
  -2   4   3    0.22    0.04
   2   4  -3    0.28    0.05
   2   4   3    0.26    0.05
  -2  -4   3    0.30    0.06
  -2   4  -3    0.27    0.05
   2   4   3    0.16    0.04
   2  -4  -3    0.18    0.04
   2   4   3    0.26    0.03
  -2   4  -3    0.21    0.05
   2   4   3    0.23    0.04
  -2  -5  -3    0.60    0.06
  -2   5   3    0.45    0.07
   2   5  -3    0.49    0.07
  -2   5   3    0.58    0.09
   2  -5   3    0.69    0.11
  -2   5   3    0.59    0.09
  -2   5  -3    0.56    0.09
  -2  -5   3    0.72    0.10
   2   5   3    0.51    0.07
   2   5   3    0.75    0.10
  -2   5  -3    0.60    0.08
   2   5   3    0.56    0.06
   2  -5  -3    0.55    0.09
  -2  -6  -3    0.11    0.04
  -2   6   3   -0.02    0.03
  -2  -6  -3    0.05    0.02
  -2   6   3    0.08    0.04
  -2   6   3    0.04    0.04
   2  -6   3    0.10    0.06
   2   6  -3    0.01    0.03
  -2   6  -3    0.06    0.04
  -2   6  -3    0.11    0.06
   2   6   3    0.04    0.03
  -2  -6   3    0.11    0.06
   2  -6  -3    0.06    0.03
   2   6   3    0.00    0.03
   2   7  -3    0.25    0.06
  -2  -7  -3    0.15    0.03
   2  -7   3    0.28    0.08
  -2   7   3    0.11    0.05
  -2  -7   3    0.34    0.09
  -2   7  -3    0.17    0.05
   2   7   3    0.28    0.05
  -2   0   4   14.30    1.81
   2   0   4   18.45    1.41
  -2   0   4   19.28    1.41
   2   0   4   16.21    1.81
   2   0  -4   15.02    1.81
  -2   1   4   17.74    1.99
  -2   1   4   20.31    1.55
   2  -1   4   20.43    1.56
   2  -1   4   16.48    1.99
   2   1   4   17.70    1.55
   2   1   4   17.85    1.99
   2  -1  -4   17.49    1.99
  -2   2   4    7.17    0.59
  -2   2   4    7.87    0.62
  -2   2   4    7.19    0.80
   2  -2   4    6.93    0.63
  -2  -2   4    7.18    0.63
   2  -2  -4    7.03    0.80
   2   2   4    7.49    0.62
   2   2   4    7.07    0.80
  -2   3   4    5.81    0.60
   2  -3   4    4.93    0.48
  -2   3   4    6.21    0.47
   2   3  -4    5.02    0.38
  -2   3   4    5.80    0.45
   2  -3  -4    5.46    0.60
   2   3   4    4.81    0.44
  -2   3  -4    5.17    0.38
  -2  -3   4    5.14    0.48
   2   3   4    5.62    0.60
  -2  -4  -4    2.29    0.16
  -2   4   4    2.28    0.26
  -2   4   4    2.42    0.21
  -2   4   4    1.74    0.19
   2   4  -4    2.16    0.17
   2  -4   4    2.10    0.22
   2  -4  -4    2.21    0.26
   2   4   4    2.16    0.16
  -2   4  -4    2.21    0.18
  -2  -4   4    2.23    0.22
   2   4   4    2.70    0.26
   2   4   4    2.00    0.19
  -2   5   4    1.83    0.18
  -2   5   4    1.90    0.20
  -2  -5  -4    1.97    0.15
   2  -5   4    1.99    0.21
   2   5  -4    2.05    0.17
  -2   5   4    1.95    0.24
  -2   5  -4    2.07    0.17
   2   5   4    2.39    0.24
  -2  -5   4    2.11    0.21
   2  -5  -4    2.01    0.24
   2   5   4    1.88    0.15
   2   5   4    1.94    0.18
  -2   6   4    0.70    0.11
  -2  -6  -4    0.68    0.07
   2   6  -4    0.87    0.10
  -2  -6  -4    1.05    0.13
  -2   6   4    0.70    0.10
   2  -6   4    0.79    0.13
   2   6   4    0.93    0.12
   2   6   4    0.75    0.08
  -2  -6   4    1.20    0.13
  -2   6  -4    0.80    0.10
   2  -6  -4    0.79    0.12
   2   7  -4    0.75    0.10
   2  -7   4    0.83    0.13
  -2   7   4    0.72    0.10
   2   7   4    0.73    0.08
   2   7   4    0.68    0.12
  -2   7  -4    0.98    0.10
  -2  -7   4    1.09    0.14
   2   0  -5    0.03    0.03
   2   0   5    0.07    0.02
  -2   0   5    0.10    0.03
  -2   0   5    0.07    0.02
   2   0   5    0.07    0.04
  -2   0   5    0.09    0.04
   2   0   5    0.05    0.02
  -2   1   5   -0.01    0.03
  -2   1   5    0.01    0.02
   2  -1   5    0.04    0.03
  -2   1   5    0.01    0.02
   2  -1   5    0.01    0.02
   2  -1   5   -0.04    0.03
   2   1  -5    0.01    0.03
   2   1   5   -0.02    0.02
  -2  -1   5   -0.01    0.02
   2   1   5   -0.01    0.02
   2  -1  -5   -0.02    0.03
   2   1   5    0.01    0.03
   2  -2   5    0.02    0.03
  -2   2   5    0.00    0.02
  -2   2   5    0.03    0.03
  -2   2   5    0.00    0.02
   2  -2   5    0.03    0.03
   2  -2  -5   -0.03    0.03
  -2  -2   5    0.02    0.02
   2   2   5    0.02    0.02
   2   2   5    0.03    0.03
  -2   2  -5   -0.04    0.04
   2  -3   5    0.24    0.05
  -2   3   5    0.15    0.03
  -2  -3  -5    0.17    0.04
   2   3  -5    0.19    0.05
  -2   3   5    0.17    0.05
   2  -3   5    0.15    0.05
  -2   3   5    0.15    0.03
   2   3   5    0.18    0.05
  -2   3  -5    0.23    0.05
   2   3   5    0.19    0.04
  -2  -3   5    0.22    0.05
   2  -3  -5    0.17    0.05
   2  -4   5   -0.04    0.03
   2   4  -5   -0.01    0.03
  -2  -4  -5   -0.03    0.03
  -2   4   5    0.01    0.03
   2  -4   5    0.02    0.04
  -2   4   5   -0.03    0.02
   2   4   5    0.01    0.02
  -2  -4   5    0.03    0.03
   2   4   5   -0.01    0.03
  -2   4  -5    0.01    0.04
   2   4   5   -0.01    0.03
   2  -4  -5    0.00    0.03
   2  -5   5    0.09    0.05
   2   5  -5    0.13    0.05
  -2   5   5    0.02    0.04
  -2   5   5    0.04    0.03
   2  -5  -5    0.10    0.04
  -2  -5   5    0.11    0.05
   2   5   5    0.07    0.05
   2   5   5    0.03    0.03
   2   5   5    0.09    0.04
  -2   5  -5    0.06    0.04
  -2  -6  -5    0.05    0.04
   2   6  -5   -0.02    0.04
  -2   6   5   -0.04    0.04
   2  -6   5   -0.04    0.05
  -2   6   5   -0.03    0.03
  -2  -6   5    0.04    0.05
   2  -6  -5   -0.02    0.04
   2   6   5   -0.04    0.04
   2   6   5   -0.02    0.03
  -2   6  -5    0.02    0.04
  -2   0   6    1.65    0.15
   2   0  -6    1.44    0.19
   2   0   6    1.79    0.15
  -2   0   6    1.72    0.14
  -2   0   6    1.43    0.19
   2   0   6    1.58    0.20
   2   0   6    1.42    0.15
   2  -1   6   25.18    2.15
   2  -1   6   22.10    2.02
  -2   1   6   26.84    2.75
   2   1  -6   25.33    2.75
  -2   1   6   25.75    2.14
   2   1   6   27.31    2.76
   2  -1  -6   25.52    2.75
  -2  -1   6   25.96    2.02
  -2  -1   6   28.97    2.15
  -2   1  -6   22.14    1.66
   2   1   6   22.65    2.02
  -2   2   6    1.18    0.14
  -2   2   6    0.95    0.10
   2   2  -6    0.90    0.10
   2  -2   6    0.93    0.12
   2  -2   6    1.09    0.11
  -2   2   6    1.21    0.10
   2   2   6    1.03    0.10
  -2  -2   6    0.99    0.12
   2  -2  -6    1.05    0.15
  -2  -2   6    0.99    0.10
  -2   2  -6    0.92    0.11
   2   2   6    1.01    0.15
   2   3  -6   10.67    0.76
  -2   3   6   12.42    1.24
  -2   3   6   11.34    0.91
   2  -3   6   11.35    0.98
   2  -3   6   12.75    0.92
   2  -3  -6   11.92    1.23
  -2   3  -6   10.87    0.76
  -2  -3   6   10.28    0.97
   2   3   6   10.06    0.91
   2   3   6   10.36    1.24
   2  -4   6    0.60    0.10
   2  -4   6    0.57    0.08
  -2   4   6    0.43    0.07
   2   4  -6    0.47    0.08
  -2   4   6    0.40    0.08
   2   4   6    0.45    0.07
   2   4   6    0.42    0.09
  -2   4  -6    0.58    0.08
   2  -4  -6    0.58    0.09
  -2  -4   6    0.58    0.09
  -2   5   6    4.29    0.42
  -2   5   6    5.14    0.56
   2  -5   6    4.97    0.46
  -2  -5  -6    5.40    0.56
   2   5  -6    4.91    0.36
   2   5   6    4.37    0.42
   2  -5  -6    4.95    0.56
  -2  -5   6    5.41    0.46
   2   5   6    4.92    0.56
  -2   5  -6    4.87    0.36
  -2   6   6    0.21    0.06
  -2   6   6    0.09    0.06
  -2  -6  -6    0.25    0.06
   2   6  -6    0.22    0.06
   2  -6   6    0.20    0.07
   2  -6  -6    0.14    0.05
  -2   6  -6    0.24    0.06
   2   6   6    0.18    0.05
   2   6   6    0.13    0.07
   2   0   7    0.81    0.10
  -2   0   7    1.07    0.10
   2   0  -7    0.83    0.14
  -2   0   7    0.82    0.11
   2   0   7    1.23    0.15
  -2   0   7    0.96    0.14
   2  -1   7    0.03    0.04
  -2   1   7   -0.05    0.04
  -2   1   7    0.01    0.03
  -2  -1   7    0.02    0.03
   2   1   7   -0.02    0.03
   2   1   7    0.01    0.05
  -2  -1   7    0.04    0.05
  -2   1  -7   -0.02    0.05
   2  -1  -7   -0.05    0.05
   2  -2   7    0.48    0.08
   2  -2   7    0.44    0.07
  -2   2   7    0.44    0.09
  -2   2   7    0.56    0.06
  -2   2  -7    0.43    0.08
   2   2   7    0.46    0.06
   2   2   7    0.37    0.09
  -2  -2   7    0.43    0.07
  -2  -2   7    0.40    0.08
   2  -2  -7    0.52    0.09
   2  -3   7   -0.02    0.04
  -2   3   7   -0.04    0.04
   2  -3   7    0.00    0.04
  -2   3   7    0.01    0.03
   2   3  -7    0.00    0.04
   2   3   7    0.00    0.03
  -2  -3   7    0.01    0.04
   2   3   7    0.00    0.05
   2  -3  -7   -0.04    0.05
  -2   3  -7    0.07    0.05
  -2   4   7    0.02    0.05
   2   4  -7    0.11    0.05
   2  -4   7    0.08    0.05
  -2  -4  -7    0.18    0.06
  -2   4   7    0.11    0.04
   2  -4  -7    0.11    0.05
   2   4   7    0.09    0.04
  -2  -4   7    0.10    0.05
   2   4   7    0.09    0.06
  -2   4  -7    0.15    0.05
  -2   5   7    0.01    0.04
   2   5  -7    0.05    0.05
   2  -5   7   -0.02    0.05
  -2   5   7   -0.02    0.05
  -2  -5  -7    0.00    0.05
   2   5   7    0.01    0.03
   2  -5  -7   -0.02    0.05
  -2  -5   7    0.03    0.05
   2   5   7   -0.02    0.05
  -2   5  -7   -0.05    0.04
   2   0   8   -0.01    0.03
  -2   0   8    0.00    0.03
  -2   1   8    2.34    0.20
  -2   1   8    2.26    0.27
   2  -1   8    1.92    0.21
  -2  -1  -8    2.61    0.28
  -2  -1   8    2.00    0.20
   2   1   8    2.27    0.28
   2   1   8    2.20    0.20
  -2  -1   8    2.01    0.22
   2  -1  -8    2.39    0.27
  -2   1  -8    2.22    0.19
  -2   2   8    0.00    0.06
  -2  -2  -8    0.09    0.04
  -2   2   8   -0.01    0.03
   2  -2   8    0.03    0.04
   2   2   8    0.01    0.06
   2   2   8    0.04    0.03
  -2  -2   8    0.02    0.03
  -2  -2   8    0.10    0.06
   2  -2  -8    0.03    0.05
  -2   2  -8    0.05    0.05
  -2   3   8    1.40    0.19
   2  -3   8    1.46    0.17
  -2   3   8    1.58    0.14
  -2  -3  -8    1.65    0.19
   2  -3   8    1.55    0.15
  -2  -3   8    1.26    0.17
   2  -3  -8    1.45    0.19
   2   3   8    1.28    0.14
  -2   3  -8    1.10    0.13
   2   3   8    1.10    0.19
  -2   4   8    0.04    0.04
  -2   4   8   -0.10    0.05
  -2  -4  -8    0.18    0.06
   2  -4   8    0.10    0.06
   2   4  -8   -0.01    0.05
   2   4   8    0.01    0.03
   2   4   8    0.01    0.06
  -2  -4   8    0.16    0.07
  -2   4  -8    0.05    0.05
   2  -4  -8   -0.01    0.05
  -2   0   9    0.19    0.05
   2   0   9    0.19    0.05
  -2   1   9    1.10    0.10
   2  -1   9    0.75    0.11
   2   1   9    0.78    0.10
   2  -1  -9    0.89    0.14
  -2  -2  -9    0.19    0.06
  -2   2   9    0.14    0.04
  -2   2   9    0.07    0.08
   2  -2   9    0.22    0.06
   2   2   9    0.14    0.09
   2  -2  -9    0.18    0.07
  -2  -2   9    0.15    0.08
  -2   2  -9    0.11    0.06
   2   2   9    0.13    0.04
  -2   3   9    0.60    0.13
  -2   3   9    0.74    0.09
   2  -3   9    0.57    0.10
  -2  -3  -9    0.92    0.13
   2   3   9    0.67    0.14
  -2  -3   9    0.61    0.12
   2  -3  -9    0.55    0.11
   2   3   9    0.57    0.08
  -2   3  -9    0.41    0.09
   3   0   0   -0.05    0.03
  -3   0   0    0.00    0.01
  -3  -1   0   -0.01    0.01
  -3   1   0   -0.02    0.01
  -3  -2   0    0.01    0.01
   3   2   0   -0.01    0.01
   3  -2   0    0.02    0.02
  -3   2   0   -0.02    0.02
   3  -3   0    0.01    0.02
  -3  -3   0    0.01    0.02
  -3   3   0    0.01    0.02
   3   3   0    0.01    0.02
   3   4   0    0.00    0.02
   3  -4   0   -0.05    0.02
  -3   4   0   -0.04    0.03
  -3  -4   0    0.02    0.02
   3   4   0   -0.02    0.02
   3  -4   0    0.05    0.04
   3   5   0    0.00    0.02
   3  -5   0    0.04    0.05
   3  -5   0    0.01    0.03
  -3   5   0    0.01    0.03
  -3   5   0    0.01    0.03
  -3  -5   0   -0.01    0.03
  -3   5   0    0.02    0.04
  -3   6   0   -0.01    0.03
  -3  -6   0    0.02    0.04
  -3   6   0   -0.04    0.04
   3  -6   0    0.04    0.05
  -3   6   0    0.01    0.05
   3   6   0   -0.05    0.02
   3  -6   0   -0.03    0.03
   3  -7   0    0.01    0.05
  -3   7   0    0.09    0.04
   3   7   0    0.03    0.03
   3   0   1    4.71    0.48
   3   0  -1    4.49    0.48
  -3   0   1    3.85    0.37
   3   1  -1   91.91    9.28
  -3  -1  -1   89.69    7.25
  -3   1   1   80.39    7.26
  -3  -1   1   80.19    7.25
   3  -1  -1   86.33    9.28
   3  -2   1    0.57    0.08
  -3   2   1    0.58    0.08
  -3   2   1    0.71    0.07
  -3  -2  -1    0.50    0.06
  -3   2  -1    0.45    0.07
   3  -2  -1    0.64    0.08
   3   2   1    0.69    0.08
  -3  -2   1    0.53    0.06
   3  -3   1   22.16    2.01
  -3   3   1   22.02    2.00
  -3   3   1   25.76    2.55
  -3  -3  -1   22.45    1.99
  -3   3  -1   22.18    2.00
   3  -3  -1   26.32    2.55
  -3  -3   1   23.24    1.99
  -3   4   1    0.04    0.03
   3   4  -1    0.01    0.02
  -3   4   1    0.01    0.02
  -3  -4  -1    0.02    0.02
   3  -4   1    0.00    0.04
  -3   4   1    0.05    0.03
   3  -4  -1   -0.02    0.02
  -3   4  -1    0.01    0.03
  -3  -4   1    0.04    0.03
   3   4   1    0.02    0.02
   3   4   1    0.01    0.02
   3  -5   1    5.20    0.48
  -3  -5  -1    6.47    0.52
   3   5  -1    5.86    0.40
  -3   5   1    5.63    0.52
   3  -5   1    5.42    0.53
  -3   5   1    6.12    0.39
  -3   5   1    5.87    0.64
  -3   5   1    5.88    0.48
   3  -5  -1    5.19    0.48
  -3   5  -1    5.78    0.53
   3  -5  -1    5.22    0.53
  -3   5  -1    5.96    0.40
   3   5   1    5.76    0.39
  -3  -5   1    6.86    0.52
  -3   5  -1    5.49    0.48
  -3   6   1    0.07    0.05
   3  -6   1    0.04    0.05
  -3   6   1   -0.04    0.03
  -3   6   1    0.07    0.03
   3   6  -1    0.00    0.03
  -3   6  -1    0.14    0.04
  -3   6  -1    0.08    0.04
   3   6   1    0.00    0.02
   3  -6  -1    0.01    0.05
   3  -6  -1    0.03    0.03
  -3  -6   1   -0.02    0.04
  -3   6  -1    0.10    0.06
  -3   7   1    2.01    0.15
   3  -7   1    1.45    0.20
  -3   7   1    2.02    0.21
   3   7  -1    1.75    0.15
  -3  -7   1    2.36    0.22
  -3   7  -1    1.80    0.21
   3  -7  -1    1.54    0.21
  -3   7  -1    1.61    0.15
   3   7   1    1.85    0.14
   3   0  -2    1.06    0.14
  -3   0   2    1.12    0.11
   3   0   2    1.31    0.11
   3   0   2    1.19    0.14
   3   1  -2    2.02    0.23
   3  -1   2    2.11    0.22
  -3   1   2    2.05    0.23
  -3   1   2    1.67    0.18
  -3  -1   2    1.80    0.18
   3  -1  -2    2.07    0.23
   3   1   2    2.37    0.23
  -3   2   2    1.23    0.14
   3  -2   2    1.20    0.13
  -3   2   2    1.23    0.11
  -3  -2   2    0.99    0.11
   3  -2  -2    1.35    0.15
  -3   2  -2    1.07    0.12
   3   2   2    1.36    0.14
  -3   3   2    0.15    0.03
  -3  -3  -2    0.08    0.02
  -3   3   2    0.30    0.04
   3  -3   2    0.18    0.05
  -3   3  -2    0.17    0.04
   3   3   2    0.11    0.03
   3   3   2    0.20    0.03
  -3  -3   2    0.15    0.03
   3  -3  -2    0.13    0.03
  -3   4   2    0.58    0.07
   3   4  -2    0.39    0.05
   3  -4   2    0.49    0.09
  -3  -4  -2    0.39    0.06
  -3  -4  -2    0.38    0.04
   3  -4   2    0.44    0.06
  -3   4   2    0.42    0.06
  -3   4   2    0.49    0.07
   3  -4  -2    0.44    0.07
  -3   4  -2    0.50    0.08
  -3   4  -2    0.38    0.06
   3   4   2    0.50    0.06
   3   4   2    0.50    0.07
  -3  -4   2    0.55    0.08
   3   4   2    0.41    0.04
   3  -5   2    0.06    0.03
   3  -5   2    0.04    0.05
  -3   5   2    0.04    0.04
  -3   5   2    0.04    0.03
  -3   5   2    0.03    0.03
   3   5  -2    0.05    0.03
   3   5   2    0.06    0.02
  -3   5  -2    0.04    0.04
  -3  -5   2    0.03    0.04
   3  -5  -2    0.03    0.04
  -3   5  -2    0.06    0.03
   3   5   2    0.03    0.03
  -3   5  -2    0.04    0.03
   3  -5  -2    0.01    0.03
  -3   6   2    0.04    0.04
   3   6  -2    0.05    0.03
  -3   6   2    0.01    0.04
   3  -6   2    0.04    0.05
  -3   6   2   -0.02    0.03
  -3  -6   2    0.01    0.05
   3   6   2    0.03    0.04
  -3   6  -2    0.12    0.04
   3   6   2    0.04    0.03
  -3   6  -2    0.05    0.05
   3  -6  -2    0.03    0.05
   3  -7   2   -0.03    0.04
  -3   7   2    0.05    0.06
   3   7  -2    0.01    0.03
  -3   7   2    0.01    0.04
   3  -7  -2    0.00    0.05
  -3   7  -2   -0.02    0.04
  -3  -7   2    0.18    0.07
  -3   7  -2    0.01    0.06
   3   7   2    0.01    0.03
   3   0   3    2.27    0.25
   3   0  -3    2.00    0.25
   3   0   3    2.30    0.19
  -3   0   3    2.01    0.25
  -3   0   3    2.39    0.20
   3  -1   3    0.57    0.06
   3   1  -3    0.39    0.06
  -3   1   3    0.38    0.05
  -3   1   3    0.41    0.06
   3  -1   3    0.27    0.05
   3   1   3    0.39    0.06
  -3  -1   3    0.35    0.05
   3  -1  -3    0.45    0.07
  -3   2   3    0.55    0.06
   3  -2   3    0.47    0.08
  -3   2   3    0.56    0.08
  -3  -2   3    0.43    0.06
  -3   2  -3    0.75    0.07
   3  -2  -3    0.57    0.08
   3   2   3    0.57    0.08
  -3   3   3    0.32    0.05
  -3   3   3    0.25    0.04
   3  -3   3    0.37    0.07
  -3   3   3    0.32    0.06
   3   3   3    0.27    0.05
  -3   3  -3    0.32    0.05
  -3  -3   3    0.34    0.05
   3  -3  -3    0.32    0.06
   3   3   3    0.31    0.04
  -3   3  -3    0.29    0.06
   3  -4   3    0.00    0.03
   3   4  -3    0.00    0.02
  -3  -4  -3    0.01    0.02
  -3   4   3   -0.01    0.02
  -3   4   3    0.00    0.02
  -3   4   3    0.01    0.03
   3  -4   3    0.02    0.04
  -3   4  -3   -0.01    0.03
   3  -4  -3    0.00    0.03
  -3   4  -3    0.00    0.03
   3   4   3    0.02    0.03
  -3  -4   3   -0.02    0.03
   3   4   3   -0.01    0.02
  -3  -5  -3    0.11    0.03
  -3   5   3    0.08    0.03
   3  -5   3    0.11    0.04
   3   5  -3    0.13    0.04
  -3   5   3    0.09    0.04
   3  -5   3    0.10    0.05
  -3   5   3    0.10    0.04
   3   5   3    0.07    0.04
  -3   5  -3    0.12    0.05
  -3   5  -3    0.09    0.04
  -3  -5   3    0.15    0.05
   3   5   3    0.15    0.03
   3  -5  -3    0.07    0.03
  -3   6   3   -0.02    0.03
  -3   6   3   -0.01    0.04
  -3  -6  -3    0.01    0.02
   3   6  -3    0.04    0.04
  -3   6   3   -0.03    0.03
   3  -6   3    0.00    0.04
   3  -6  -3   -0.06    0.03
   3   6   3    0.01    0.04
  -3  -6   3   -0.05    0.04
   3   6   3   -0.02    0.03
  -3   6  -3   -0.01    0.04
   3  -6  -3   -0.01    0.05
  -3   6  -3   -0.03    0.03
   3   7  -3    0.04    0.04
  -3   7   3   -0.01    0.04
   3  -7   3    0.06    0.06
  -3  -7  -3    0.07    0.03
   3   7   3    0.03    0.03
  -3  -7   3    0.25    0.08
  -3   7  -3    0.18    0.07
   3   0   4    4.88    0.36
   3   0   4    4.24    0.47
  -3   0   4    4.01    0.37
  -3   0   4    3.98    0.47
   3   0  -4    3.89    0.47
  -3   1   4    0.01    0.03
   3  -1   4    0.00    0.02
   3   1  -4   -0.03    0.03
  -3   1   4    0.00    0.02
   3  -1   4   -0.02    0.02
   3  -1  -4    0.00    0.03
   3   1   4   -0.02    0.02
  -3  -1   4    0.00    0.02
  -3   2   4    2.66    0.20
  -3   2   4    2.31    0.27
   3  -2   4    2.15    0.22
  -3   2   4    2.51    0.21
   3  -2  -4    2.44    0.27
  -3  -2   4    2.13    0.22
   3   2   4    2.23    0.27
  -3   3   4    0.09    0.03
   3  -3   4    0.09    0.04
  -3   3   4    0.09    0.03
   3   3  -4    0.07    0.03
   3  -3   4    0.07    0.04
  -3   3   4    0.08    0.02
  -3  -3  -4    0.10    0.03
   3   3   4    0.10    0.04
   3   3   4    0.09    0.03
   3  -3  -4    0.07    0.04
  -3  -3   4    0.06    0.03
  -3   3  -4    0.06    0.04
   3  -4   4    0.68    0.11
  -3   4   4    0.60    0.07
  -3   4   4    0.85    0.09
  -3  -4  -4    0.68    0.06
   3  -4   4    0.44    0.08
   3   4  -4    0.65    0.08
  -3   4   4    0.65    0.10
  -3   4  -4    0.60    0.08
  -3  -4   4    0.76    0.09
   3   4   4    0.73    0.06
   3   4   4    0.73    0.10
   3   4   4    0.68    0.07
   3  -4  -4    0.61    0.10
   3   5  -4    0.02    0.03
  -3  -5  -4    0.00    0.02
   3  -5   4    0.04    0.05
  -3   5   4    0.11    0.04
  -3   5   4    0.06    0.03
  -3   5   4    0.02    0.03
  -3  -5   4    0.07    0.04
   3   5   4    0.01    0.03
   3   5   4    0.00    0.03
  -3   5  -4    0.02    0.04
   3   5   4    0.02    0.04
   3  -5  -4   -0.01    0.03
   3   6  -4    0.23    0.05
  -3   6   4    0.15    0.05
  -3  -6  -4    0.15    0.03
   3  -6   4    0.18    0.07
   3   6   4    0.17    0.06
   3   6   4    0.10    0.04
  -3   6  -4    0.19    0.05
  -3   7   4    0.02    0.04
  -3  -7  -4    0.02    0.03
   3  -7   4   -0.02    0.05
   3   7  -4    0.01    0.04
   3   7   4    0.01    0.05
  -3  -7   4    0.23    0.07
   3   7   4    0.00    0.03
   3   0   5    5.52    0.58
  -3   0   5    5.09    0.58
   3   0   5    5.62    0.45
  -3   0   5    4.88    0.43
   3   0  -5    5.07    0.58
   3  -1   5    9.47    1.06
   3  -1   5    8.45    0.79
  -3   1   5   10.04    1.07
  -3   1   5   10.95    0.83
   3   1  -5    9.14    1.06
   3  -1   5   10.22    0.83
  -3   1  -5    8.82    0.65
  -3  -1   5   11.06    0.84
   3   1   5    8.52    0.79
   3   1   5   10.22    1.07
   3  -1  -5    9.88    1.07
  -3  -2  -5    3.05    0.20
  -3   2   5    3.32    0.24
  -3   2   5    2.98    0.25
   3  -2   5    2.63    0.24
   3  -2   5    2.60    0.26
  -3   2   5    2.96    0.32
   3  -2  -5    2.82    0.32
   3   2   5    2.61    0.32
   3   2   5    2.33    0.24
  -3  -2   5    2.65    0.25
  -3   2  -5    2.47    0.21
  -3   3   5    5.07    0.53
  -3   3   5    5.18    0.41
   3   3  -5    4.41    0.33
  -3  -3  -5    4.86    0.32
   3  -3   5    4.03    0.40
   3  -3   5    4.77    0.43
  -3   3   5    5.28    0.39
  -3  -3   5    4.53    0.42
  -3   3  -5    4.80    0.34
   3  -3  -5    5.02    0.53
   3   3   5    4.25    0.39
   3   3   5    4.41    0.53
  -3   4   5    0.86    0.10
  -3   4   5    1.03    0.13
   3   4  -5    0.88    0.10
   3  -4   5    1.04    0.13
  -3  -4  -5    0.98    0.09
   3  -4   5    0.74    0.11
   3   4   5    0.92    0.13
   3   4   5    0.81    0.08
   3  -4  -5    0.98    0.13
  -3   4  -5    1.01    0.10
   3   4   5    0.93    0.10
  -3  -4   5    1.03    0.11
   3   5  -5    1.53    0.14
  -3   5   5    1.54    0.20
  -3  -5  -5    1.55    0.12
   3  -5   5    1.69    0.19
  -3   5   5    1.54    0.16
   3   5   5    1.75    0.16
   3  -5  -5    1.57    0.20
   3   5   5    1.65    0.13
   3   5   5    1.81    0.21
  -3  -5   5    1.69    0.18
  -3   5  -5    1.59    0.15
   3   6  -5    0.32    0.06
   3  -6   5    0.37    0.09
  -3   6   5    0.30    0.07
  -3   6   5    0.20    0.06
  -3   6  -5    0.33    0.07
  -3  -6   5    0.45    0.09
   3   6   5    0.32    0.07
   3  -6  -5    0.20    0.06
   3   6   5    0.45    0.06
   3   0  -6    8.90    1.01
  -3   0   6   10.59    0.79
  -3   0  -6    8.31    0.62
  -3   0   6    9.78    0.74
  -3   0   6    9.27    1.01
   3   0   6    9.44    1.01
   3   0   6    7.89    0.75
  -3   1   6    0.30    0.05
   3   1  -6    0.13    0.05
  -3  -1  -6    0.27    0.06
   3  -1   6    0.25    0.05
  -3   1   6    0.43    0.07
  -3   1   6    0.36    0.04
   3  -1   6    0.27    0.05
  -3   1  -6    0.27    0.07
   3  -1  -6    0.32    0.07
   3   1   6    0.30    0.07
  -3  -1   6    0.22    0.04
   3   1   6    0.22    0.05
  -3  -1   6    0.27    0.06
  -3   2   6    6.30    0.52
   3  -2   6    6.10    0.50
   3  -2   6    5.89    0.53
   3   2  -6    5.51    0.41
  -3   2   6    6.76    0.67
   3  -2  -6    6.39    0.67
  -3   2  -6    5.71    0.42
  -3  -2   6    5.59    0.53
   3   2   6    5.40    0.67
   3  -3   6    0.30    0.06
   3  -3   6    0.23    0.06
  -3  -3  -6    0.16    0.05
  -3   3   6    0.24    0.06
  -3   3   6    0.24    0.04
   3   3  -6    0.25    0.06
  -3   3   6    0.24    0.04
  -3   3  -6    0.35    0.07
   3  -3  -6    0.31    0.06
   3   3   6    0.19    0.07
  -3  -3   6    0.25    0.06
   3   3   6    0.21    0.05
  -3   4   6    2.72    0.24
   3  -4   6    2.99    0.25
  -3   4   6    2.91    0.32
   3   4  -6    2.74    0.21
   3  -4   6    2.67    0.27
  -3  -4   6    2.75    0.26
   3   4   6    2.33    0.23
   3  -4  -6    2.66    0.31
  -3   4  -6    2.67    0.21
   3   4   6    2.39    0.32
   3  -5   6    0.08    0.06
   3   5  -6    0.17    0.06
  -3   5   6    0.06    0.05
  -3   5   6    0.17    0.05
  -3  -5   6    0.19    0.06
  -3   5  -6    0.24    0.06
   3  -5  -6    0.12    0.05
   3   5   6    0.14    0.04
   3   5   6    0.11    0.06
  -3   6   6    0.65    0.13
  -3  -6  -6    1.14    0.14
   3  -6   6    0.88    0.14
   3   6  -6    0.81    0.11
  -3   6   6    0.83    0.11
   3   6   6    0.95    0.10
   3  -6  -6    0.66    0.13
   3   6   6    0.79    0.14
  -3  -6   6    1.19    0.14
  -3   6  -6    0.88    0.11
   3   0  -7    2.79    0.35
   3   0   7    3.49    0.36
   3   0   7    2.66    0.26
  -3   0   7    3.20    0.27
  -3   0   7    2.91    0.35
  -3   0  -7    2.96    0.23
  -3   0   7    2.99    0.26
  -3   1   7    0.82    0.12
  -3   1   7    0.59    0.08
   3  -1   7    0.52    0.09
  -3   1   7    0.75    0.07
  -3  -1  -7    0.78    0.09
  -3  -1   7    0.51    0.07
  -3  -1   7    0.54    0.09
   3   1   7    0.59    0.08
  -3   1  -7    0.67    0.10
   3  -1  -7    0.69    0.11
   3   1   7    0.67    0.11
  -3   2   7    2.52    0.28
   3  -2   7    2.47    0.22
   3  -2   7    2.53    0.22
  -3  -2   7    2.23    0.22
  -3   2  -7    2.21    0.19
   3   2   7    2.07    0.28
   3   2   7    1.86    0.20
   3  -2  -7    2.30    0.27
   3  -3   7    0.48    0.08
   3   3  -7    0.38    0.07
   3  -3   7    0.47    0.08
  -3   3   7    0.39    0.09
  -3   3   7    0.45    0.06
   3   3   7    0.26    0.06
  -3  -3   7    0.43    0.08
   3  -3  -7    0.32    0.08
  -3   3  -7    0.29    0.07
   3   3   7    0.37    0.09
  -3   4   7    1.34    0.18
   3  -4   7    1.60    0.15
  -3   4   7    1.47    0.14
   3   4  -7    1.56    0.13
   3  -4   7    1.63    0.17
   3  -4  -7    1.26    0.18
   3   4   7    1.11    0.18
  -3  -4   7    1.34    0.16
  -3   4  -7    1.19    0.13
   3   4   7    1.03    0.13
  -3   5   7    0.19    0.06
  -3   5   7    0.12    0.06
   3  -5   7    0.21    0.07
  -3  -5  -7    0.12    0.06
   3   5  -7    0.19    0.06
  -3   5  -7    0.10    0.05
   3   5   7    0.16    0.05
   3  -5  -7    0.04    0.06
   3   5   7    0.15    0.07
  -3  -5   7    0.27    0.07
  -3   0   8    3.31    0.29
   3   0   8    3.13    0.30
  -3   0   8    3.72    0.31
  -3   1   8    0.13    0.04
  -3   1   8   -0.01    0.06
   3  -1   8    0.07    0.05
   3   1   8    0.05    0.04
  -3  -1   8    0.05    0.03
  -3   1  -8    0.15    0.06
   3   1   8    0.11    0.07
   3  -1  -8    0.05    0.06
  -3  -1   8    0.05    0.06
   3  -2   8    2.65    0.24
  -3   2   8    2.72    0.30
   3  -2  -8    2.63    0.30
   3   2   8    2.20    0.31
  -3   2  -8    2.55    0.21
  -3  -2   8    2.17    0.25
  -3   3   8    0.04    0.03
   3  -3   8    0.12    0.06
  -3   3   8    0.05    0.06
   3  -3   8    0.11    0.06
   3  -3  -8    0.04    0.05
   3   3   8    0.04    0.03
   3   3   8    0.06    0.06
  -3  -3   8    0.10    0.06
  -3   3  -8    0.06    0.05
  -3   4   8    1.35    0.14
  -3  -4  -8    1.63    0.19
  -3   4   8    1.40    0.19
   3  -4   8    1.54    0.17
   3   4   8    1.20    0.19
  -3   4  -8    1.24    0.13
   3  -4  -8    1.29    0.18
   3   4   8    1.00    0.13
  -3  -4   8    1.58    0.18
   3   0   9    0.09    0.05
  -3   0   9    0.08    0.03
  -3  -1  -9    1.09    0.14
  -3   1   9    0.94    0.09
   3  -1   9    0.74    0.11
   3   1   9    0.74    0.10
  -3   1  -9    0.81    0.11
  -3  -1   9    0.66    0.09
   3  -1  -9    0.92    0.14
  -3  -1   9    0.46    0.11
  -3   2   9    0.09    0.04
  -3  -2  -9    0.15    0.05
   3  -2   9    0.08    0.06
  -3   2   9   -0.11    0.06
   3   2   9    0.03    0.07
   3   2   9    0.06    0.04
  -3  -2   9    0.04    0.07
   3  -2  -9    0.00    0.06
  -3   2  -9    0.05    0.06
   3  -3   9    0.59    0.10
  -3   3   9    0.56    0.07
  -3   3   9    0.51    0.11
   3   3   9    0.35    0.07
  -3  -3   9    0.51    0.11
  -3   3  -9    0.49    0.09
   3  -3  -9    0.43    0.09
   3   3   9    0.46    0.11
   4   0   0  161.15   15.10
  -4   0   0  117.58   11.79
   4   1   0    5.62    0.60
  -4  -1   0    5.24    0.47
   4  -1   0    5.56    0.60
  -4   2   0   74.42    6.11
  -4  -2   0   64.71    6.10
   4   2   0   78.11    7.82
   4  -2   0   71.77    7.82
  -4  -3   0    1.70    0.15
  -4   3   0    1.51    0.16
   4  -3   0    1.74    0.19
   4   3   0    1.73    0.19
  -4   4   0   19.38    1.61
   4  -4   0   18.03    1.61
   4  -4   0   17.86    2.03
   4  -4   0   18.03    1.50
   4   4   0   19.28    1.23
  -4   4   0   19.21    1.50
  -4  -4   0   19.05    1.59
   4   5   0    0.48    0.07
   4   5   0    0.45    0.05
  -4   5   0    0.50    0.07
  -4  -5   0    0.48    0.07
   4  -5   0    0.45    0.09
   4  -5   0    0.45    0.07
  -4   5   0    0.42    0.06
  -4   5   0    0.51    0.09
   4  -6   0    4.57    0.50
  -4   6   0    5.37    0.46
  -4   6   0    5.22    0.50
   4  -6   0    4.97    0.45
   4   6   0    5.56    0.37
  -4  -6   0    6.28    0.49
  -4   6   0    5.78    0.38
  -4   7   0    0.09    0.04
   4  -7   0    0.08    0.06
  -4   7   0    0.13    0.07
   4   7   0    0.08    0.04
  -4   0   1   35.23    3.21
   4   0  -1   40.68    4.11
   4   1  -1   62.62    6.30
  -4  -1  -1   58.78    4.92
  -4   1   1   53.28    4.93
   4  -1  -1   58.02    6.30
  -4  -1   1   58.40    4.92
  -4  -2  -1   12.68    1.16
  -4   2   1   12.84    1.17
   4   2  -1   14.86    1.49
   4   2   1   15.52    1.49
   4  -2  -1   14.93    1.49
  -4  -2   1   13.40    1.17
  -4   2  -1   11.76    1.17
   4  -3   1   14.73    1.31
  -4  -3  -1   13.74    1.29
  -4   3   1   14.90    1.30
   4  -3  -1   17.02    1.65
  -4  -3   1   15.55    1.29
  -4   3  -1   14.86    1.30
   4   4  -1    3.28    0.23
   4  -4   1    3.09    0.28
  -4   4   1    3.28    0.28
  -4   4   1    3.23    0.30
  -4  -4  -1    3.35    0.29
   4  -4   1    3.04    0.31
  -4   4  -1    3.24    0.27
  -4  -4   1    3.35    0.29
  -4   4  -1    3.12    0.30
   4   4   1    3.30    0.22
   4  -4  -1    3.26    0.36
  -4   5   1    3.97    0.32
   4   5  -1    3.85    0.26
  -4   5   1    4.14    0.26
  -4   5   1    3.85    0.35
   4  -5   1    3.44    0.36
   4  -5   1    3.40    0.31
  -4  -5   1    4.22    0.34
  -4   5  -1    3.97    0.27
  -4   5  -1    3.95    0.36
   4  -5  -1    3.14    0.41
   4  -5  -1    3.32    0.32
   4  -5  -1    3.19    0.35
  -4   5  -1    3.85    0.32
   4   5   1    3.80    0.26
   4  -6   1    1.14    0.16
   4  -6   1    1.18    0.13
   4   6  -1    1.27    0.11
  -4   6   1    1.38    0.16
  -4   6   1    1.48    0.11
  -4   6   1    1.20    0.13
   4  -6  -1    1.25    0.13
  -4   6  -1    1.30    0.13
  -4   6  -1    1.32    0.12
   4  -6  -1    1.03    0.16
   4   6   1    1.22    0.10
  -4  -6   1    1.40    0.15
  -4   6  -1    1.26    0.16
   4  -7   1    1.01    0.16
   4   7  -1    1.03    0.10
   4   7   1    1.11    0.10
  -4  -7   1    1.26    0.15
   4  -7  -1    1.00    0.15
   4   0  -2    8.27    0.95
   4   0   2    9.72    0.74
  -4   0   2    8.17    0.74
   4   1  -2   23.61    2.59
  -4   1   2   21.29    2.02
   4  -1   2   26.96    2.59
  -4  -1   2   21.82    2.03
   4  -1  -2   22.86    2.59
   4   1   2   26.88    2.60
  -4   2   2    4.33    0.49
   4  -2   2    3.98    0.40
  -4   2   2    4.49    0.39
   4   2   2    4.69    0.49
  -4  -2   2    3.71    0.38
  -4   2  -2    5.21    0.39
   4  -2  -2    4.62    0.49
  -4   3   2    4.00    0.42
  -4  -3  -2    3.17    0.32
   4  -3   2    3.80    0.35
  -4   3   2    3.72    0.33
   4   3   2    4.33    0.42
   4  -3  -2    4.10    0.42
  -4  -3   2    3.63    0.33
  -4   3  -2    3.20    0.34
   4  -4   2    1.28    0.15
  -4   4   2    1.15    0.12
   4  -4   2    1.20    0.12
   4   4  -2    1.37    0.11
  -4   4   2    1.42    0.16
  -4  -4  -2    1.27    0.10
  -4   4   2    1.40    0.14
  -4   4  -2    1.34    0.15
  -4   4  -2    1.28    0.12
   4   4   2    1.27    0.10
  -4   4  -2    1.38    0.12
   4  -4  -2    1.48    0.16
  -4  -4   2    1.43    0.14
  -4   5   2    1.15    0.11
  -4  -5  -2    0.88    0.08
  -4   5   2    1.08    0.12
   4  -5   2    0.88    0.10
   4  -5   2    0.98    0.13
  -4   5   2    1.03    0.13
   4   5  -2    1.09    0.09
  -4   5  -2    0.93    0.10
   4   5   2    1.05    0.08
   4  -5  -2    0.86    0.13
  -4   5  -2    1.08    0.10
  -4   5  -2    1.04    0.13
  -4  -5   2    1.14    0.12
  -4   6   2    0.42    0.07
   4  -6   2    0.47    0.10
  -4  -6  -2    0.47    0.05
   4   6  -2    0.46    0.07
  -4   6   2    0.59    0.10
  -4   6  -2    0.66    0.11
   4   6   2    0.54    0.06
  -4   6  -2    0.57    0.07
  -4   6  -2    0.46    0.07
  -4  -6   2    0.68    0.10
   4  -6  -2    0.49    0.10
   4   6   2    0.59    0.09
   4  -7   2    0.35    0.09
  -4  -7  -2    0.27    0.04
   4   7  -2    0.38    0.06
  -4   7   2    0.39    0.09
   4  -7  -2    0.31    0.09
   4  -7  -2    0.30    0.07
  -4   7  -2    0.38    0.07
  -4  -7   2    0.49    0.10
  -4   7  -2    0.53    0.10
   4   7   2    0.40    0.06
   4   0   3    2.45    0.27
  -4   0   3    2.55    0.21
   4   0  -3    2.09    0.26
   4   0   3    2.32    0.21
   4   1  -3    9.87    1.14
   4  -1   3   10.50    1.14
  -4   1   3   10.40    1.14
  -4   1   3   11.26    0.89
   4  -1   3   11.15    0.90
  -4  -1   3    9.72    0.90
   4  -1  -3   10.64    1.14
   4   1   3   10.33    1.14
  -4   2   3    1.57    0.14
  -4   2   3    1.49    0.17
   4  -2   3    1.20    0.15
  -4  -2   3    1.13    0.13
   4  -2  -3    1.54    0.17
  -4   2  -3    1.72    0.14
   4   2   3    1.37    0.17
   4  -3   3    3.46    0.34
  -4   3   3    3.84    0.42
  -4   3   3    3.99    0.31
  -4   3  -3    3.83    0.27
   4  -3  -3    4.10    0.42
  -4   3  -3    3.10    0.33
   4   3   3    3.85    0.42
  -4  -3   3    3.52    0.33
   4  -4   3    0.43    0.07
  -4   4   3    0.62    0.07
   4  -4   3    0.56    0.10
  -4   4   3    0.42    0.06
   4   4  -3    0.49    0.06
  -4  -4  -3    0.60    0.05
  -4   4   3    0.55    0.08
  -4   4  -3    0.41    0.08
  -4  -4   3    0.57    0.08
   4   4   3    0.60    0.09
  -4   4  -3    0.57    0.07
   4  -4  -3    0.57    0.08
   4   4   3    0.47    0.05
   4   5  -3    1.00    0.09
  -4   5   3    0.90    0.13
   4  -5   3    0.81    0.10
  -4   5   3    0.97    0.10
  -4  -5  -3    1.01    0.08
   4  -5   3    0.97    0.13
  -4   5   3    0.97    0.12
  -4   5  -3    1.02    0.13
   4   5   3    1.01    0.08
   4  -5  -3    0.87    0.13
  -4   5  -3    1.00    0.10
  -4  -5   3    1.26    0.12
   4  -6   3    0.27    0.08
  -4   6   3    0.31    0.08
  -4   6   3    0.25    0.06
   4   6  -3    0.27    0.05
  -4  -6  -3    0.23    0.04
   4   6   3    0.24    0.06
  -4   6  -3    0.37    0.08
   4   6   3    0.27    0.04
  -4  -6   3    0.39    0.08
   4  -6  -3    0.28    0.08
  -4   6  -3    0.27    0.06
   4  -7   3    0.26    0.09
   4   7  -3    0.37    0.07
  -4   7   3    0.37    0.09
  -4  -7  -3    0.31    0.05
   4   7   3    0.46    0.06
  -4   7  -3    0.36    0.07
  -4  -7   3    0.51    0.10
  -4   7  -3    0.48    0.10
   4   0   4   25.53    2.52
   4   0  -4   22.72    2.52
  -4   0   4   20.68    1.97
   4   0   4   23.73    1.96
  -4   1   4    5.27    0.44
   4  -1   4    5.16    0.44
  -4   1   4    5.02    0.56
   4   1  -4    4.51    0.56
   4  -1   4    5.44    0.56
   4  -1  -4    5.14    0.56
   4   1   4    4.49    0.56
  -4  -1   4    5.55    0.44
  -4   2   4   12.73    1.35
  -4   2   4   14.23    0.99
  -4   2   4   14.23    1.05
   4  -2   4   11.21    1.06
  -4  -2   4   10.57    1.06
   4  -2  -4   13.09    1.35
  -4   2  -4   11.59    0.82
   4   2   4   12.35    0.99
   4   2   4   10.94    1.35
  -4  -3  -4    2.07    0.14
  -4   3   4    1.90    0.16
   4  -3   4    1.79    0.19
  -4   3   4    2.01    0.17
   4   3  -4    1.67    0.14
  -4   3   4    1.80    0.22
  -4  -3   4    1.89    0.18
   4   3   4    1.89    0.17
   4  -3  -4    2.04    0.22
   4   3   4    1.69    0.13
   4   3   4    1.86    0.22
  -4   3  -4    1.75    0.15
  -4   3  -4    1.66    0.18
   4   4  -4    4.08    0.28
  -4  -4  -4    3.85    0.27
  -4   4   4    3.92    0.43
   4  -4   4    3.54    0.36
  -4   4   4    4.25    0.35
  -4   4   4    3.19    0.32
   4   4   4    4.04    0.44
  -4   4  -4    3.75    0.36
   4   4   4    4.26    0.33
  -4   4  -4    3.78    0.28
   4  -4  -4    3.96    0.44
   4   4   4    3.52    0.26
  -4  -4   4    4.10    0.35
  -4   5   4    0.87    0.12
  -4  -5  -4    1.00    0.08
   4   5  -4    1.04    0.10
   4  -5   4    0.61    0.10
  -4   5   4    0.78    0.10
  -4   5   4    0.90    0.11
   4  -5   4    0.95    0.13
  -4  -5   4    1.15    0.12
  -4   5  -4    0.89    0.10
   4  -5  -4    0.76    0.12
   4   5   4    0.94    0.13
  -4   5  -4    1.04    0.12
   4   5   4    0.92    0.08
   4   6  -4    1.42    0.12
  -4   6   4    1.08    0.14
  -4  -6  -4    1.00    0.10
   4  -6   4    1.25    0.16
  -4   6   4    1.11    0.15
  -4   6   4    1.18    0.13
  -4  -6   4    1.65    0.16
   4  -6  -4    0.97    0.15
   4   6   4    1.37    0.10
  -4   6  -4    1.34    0.12
  -4   6  -4    1.46    0.16
   4  -7   4    0.39    0.10
   4   7  -4    0.40    0.07
  -4  -7  -4    0.29    0.05
  -4   7  -4    0.29    0.07
   4   7   4    0.44    0.06
   4   7   4    0.35    0.08
   4   0   5    0.02    0.03
  -4   0   5    0.07    0.03
  -4   0  -5   -0.01    0.04
   4   0   5    0.01    0.03
  -4   0   5    0.00    0.01
   4   0  -5    0.02    0.04
   4   0   5    0.05    0.02
  -4   1   5    0.17    0.04
   4  -1   5    0.16    0.05
  -4   1   5    0.23    0.05
   4  -1   5    0.16    0.04
   4   1  -5    0.15    0.05
   4  -1   5    0.18    0.04
  -4   1   5    0.25    0.03
  -4  -1  -5    0.16    0.05
   4   1   5    0.21    0.05
   4  -1  -5    0.22    0.05
   4   1   5    0.19    0.04
  -4   1  -5    0.21    0.06
  -4  -1   5    0.15    0.04
  -4   2   5    0.09    0.03
   4  -2   5    0.08    0.04
  -4   2   5    0.08    0.03
  -4   2   5    0.09    0.04
   4  -2   5    0.10    0.04
  -4  -2  -5    0.05    0.04
  -4   2  -5    0.03    0.05
   4   2   5    0.11    0.04
   4  -2  -5    0.09    0.04
   4   2   5    0.08    0.03
  -4  -2   5    0.06    0.03
   4   3  -5    0.04    0.03
  -4   3   5    0.01    0.02
  -4   3   5    0.02    0.02
  -4   3   5    0.00    0.03
  -4  -3  -5    0.02    0.03
   4  -3   5   -0.02    0.03
   4  -3   5    0.02    0.04
   4   3   5    0.02    0.02
   4   3   5    0.02    0.04
  -4   3  -5    0.00    0.04
   4  -3  -5    0.00    0.03
  -4  -3   5    0.00    0.03
  -4   4   5    0.08    0.04
  -4   4   5    0.12    0.03
   4  -4   5    0.08    0.05
  -4  -4  -5    0.09    0.03
   4  -4   5    0.06    0.05
   4   4  -5    0.15    0.04
  -4  -4   5    0.06    0.04
   4   4   5    0.11    0.04
   4  -4  -5    0.08    0.04
   4   4   5    0.12    0.04
  -4   4  -5    0.08    0.04
   4   4   5    0.13    0.05
  -4  -5  -5   -0.03    0.03
  -4   5   5    0.00    0.03
  -4   5   5   -0.05    0.03
   4   5  -5    0.01    0.04
  -4   5   5   -0.01    0.03
   4  -5   5   -0.04    0.04
   4  -5   5    0.01    0.05
   4   5   5    0.00    0.03
   4  -5  -5   -0.06    0.03
   4   5   5    0.01    0.03
  -4  -5   5    0.05    0.04
  -4   5  -5   -0.01    0.04
   4   5   5   -0.04    0.04
  -4  -6  -5   -0.01    0.03
  -4   6   5   -0.08    0.04
  -4   6   5   -0.01    0.04
   4  -6   5   -0.02    0.05
   4   6  -5   -0.03    0.04
   4   6   5   -0.01    0.03
  -4   6  -5    0.02    0.04
   4   6   5    0.02    0.05
  -4  -6   5    0.01    0.04
   4  -6  -5   -0.06    0.04
  -4   0   6    2.96    0.33
   4   0  -6    2.83    0.33
  -4   0  -6    2.88    0.22
   4   0   6    2.54    0.25
  -4   0   6    3.03    0.26
   4   0   6    2.94    0.34
   4   1  -6    0.29    0.07
  -4   1   6    0.43    0.06
  -4   1   6    0.49    0.05
   4  -1   6    0.56    0.07
  -4   1   6    0.58    0.08
  -4  -1  -6    0.43    0.07
   4  -1   6    0.51    0.07
   4  -1  -6    0.40    0.07
  -4   1  -6    0.39    0.08
  -4  -1   6    0.40    0.06
   4   1   6    0.43    0.08
   4   1   6    0.31    0.06
  -4  -1   6    0.29    0.05
   4  -2   6    2.28    0.21
  -4  -2  -6    2.33    0.16
   4  -2   6    2.22    0.19
  -4   2   6    2.24    0.25
  -4   2   6    2.19    0.19
   4   2   6    1.80    0.25
  -4   2  -6    1.82    0.17
   4   2   6    1.75    0.18
  -4  -2   6    1.75    0.20
   4  -2  -6    2.13    0.25
   4   3  -6    0.32    0.06
  -4   3   6    0.18    0.06
  -4   3   6    0.23    0.04
   4  -3   6    0.30    0.07
  -4   3   6    0.22    0.04
  -4  -3  -6    0.25    0.05
   4  -3   6    0.30    0.07
   4  -3  -6    0.22    0.06
   4   3   6    0.21    0.04
  -4   3  -6    0.25    0.06
  -4  -3   6    0.21    0.06
   4   3   6    0.25    0.07
  -4   4   6    0.95    0.13
   4  -4   6    1.04    0.14
   4   4  -6    1.09    0.11
  -4  -4  -6    0.94    0.09
  -4   4   6    1.05    0.11
   4  -4   6    1.00    0.12
   4   4   6    0.93    0.10
  -4   4  -6    1.08    0.11
   4   4   6    0.87    0.14
  -4  -4   6    0.93    0.12
   4  -4  -6    0.89    0.13
   4   5  -6    0.15    0.05
  -4   5   6    0.10    0.05
   4  -5   6    0.11    0.06
  -4   5   6    0.05    0.05
   4   5   6    0.09    0.04
  -4   5  -6    0.05    0.04
   4   5   6    0.11    0.06
   4   5   6    0.12    0.05
  -4  -5   6    0.20    0.06
   4  -5  -6   -0.02    0.04
   4  -6   6    0.40    0.10
  -4   6   6    0.26    0.07
   4   6  -6    0.42    0.08
  -4   6   6    0.18    0.07
  -4  -6   6    0.58    0.10
  -4   6  -6    0.43    0.08
   4   6   6    0.33    0.09
  -4   0  -7    0.91    0.10
   4   0   7    0.78    0.09
  -4   0   7    0.62    0.12
   4   0   7    0.85    0.13
  -4   0   7    0.61    0.09
   4   0  -7    0.63    0.12
  -4   0   7    0.80    0.08
  -4   1   7    8.83    0.73
  -4   1   7    9.62    0.70
  -4  -1  -7    9.73    0.58
   4  -1   7    7.98    0.70
  -4   1   7    8.96    0.94
   4   1   7    7.46    0.95
  -4  -1   7    8.86    0.74
  -4   1  -7    8.18    0.58
   4   1   7    7.31    0.70
   4  -1  -7    8.37    0.94
   4  -2   7    0.86    0.11
  -4  -2  -7    0.92    0.10
  -4   2   7    0.76    0.08
  -4   2   7    0.68    0.12
  -4   2   7    0.90    0.08
   4   2   7    0.61    0.13
   4   2   7    0.67    0.08
  -4   2  -7    0.62    0.10
  -4  -2   7    0.76    0.11
   4  -2  -7    0.70    0.12
   4  -3   7    5.92    0.44
  -4   3   7    5.18    0.42
   4  -3   7    5.39    0.46
  -4  -3  -7    4.96    0.35
  -4   3   7    5.34    0.57
  -4  -3   7    4.40    0.45
   4   3   7    4.44    0.57
  -4   3  -7    4.63    0.36
   4  -3  -7    4.72    0.56
  -4   4   7    0.41    0.07
   4  -4   7    0.62    0.10
   4   4  -7    0.44    0.07
  -4   4   7    0.40    0.08
   4  -4   7    0.53    0.09
  -4  -4   7    0.36    0.08
   4   4   7    0.33    0.09
   4  -4  -7    0.27    0.08
   4   4   7    0.36    0.06
  -4   4  -7    0.37    0.07
  -4   5   7    2.15    0.25
   4   5  -7    2.24    0.18
   4  -5   7    2.49    0.24
  -4   5   7    2.12    0.20
   4  -5  -7    1.81    0.25
  -4  -5   7    2.30    0.23
  -4   5  -7    1.93    0.18
   4   5   7    1.66    0.19
   4   5   7    2.11    0.26
   4   0   8    0.34    0.07
  -4   0  -8    0.50    0.09
  -4   0   8    0.39    0.05
  -4   0   8    0.27    0.06
  -4   1   8    0.37    0.05
  -4   1   8    0.42    0.05
  -4   1   8    0.38    0.09
   4  -1   8    0.27    0.07
  -4  -1  -8    0.44    0.09
   4   1   8    0.23    0.06
  -4   1  -8    0.34    0.08
  -4  -1   8    0.24    0.05
   4  -1  -8    0.25    0.08
   4   1   8    0.43    0.10
  -4  -1   8    0.14    0.06
   4  -2   8    0.34    0.08
  -4   2   8    0.42    0.09
  -4   2   8    0.52    0.06
  -4   2  -8    0.46    0.08
   4  -2  -8    0.35    0.09
  -4  -2   8    0.29    0.08
   4   2   8    0.27    0.06
   4   2   8    0.39    0.09
  -4   3   8    0.22    0.08
  -4   3   8    0.23    0.05
   4  -3   8    0.38    0.08
   4   3   8    0.19    0.05
  -4  -3   8    0.36    0.08
   4   3   8    0.29    0.09
   4  -3  -8    0.24    0.07
  -4   3  -8    0.17    0.06
   4  -4   8    0.39    0.09
  -4   4   8    0.31    0.08
  -4   4   8    0.23    0.06
   4  -4   8    0.31    0.08
   4  -4  -8    0.16    0.07
   4   4   8    0.21    0.05
   4   4   8    0.27    0.09
  -4  -4   8    0.31    0.09
  -4   4  -8    0.31    0.07
  -4   0   9    0.12    0.04
  -4   0  -9    0.23    0.08
   4   0   9    0.07    0.05
  -4   1   9    0.23    0.05
   4  -1   9    0.22    0.07
   4  -1  -9    0.00    0.07
   4   1   9    0.13    0.05
  -4  -1   9    0.14    0.04
  -4  -1   9   -0.07    0.06
  -4   1  -9    0.18    0.07
   4  -2   9    0.07    0.06
  -4   2   9    0.12    0.04
  -4   2   9    0.00    0.07
   4  -2  -9   -0.03    0.07
  -4   2  -9    0.19    0.07
   4   2   9    0.06    0.04
   4   2   9    0.08    0.07
  -4  -2   9    0.04    0.08
  -4   3   9    0.09    0.04
  -4  -3   9    0.18    0.09
   4   3   9    0.02    0.04
  -4   3  -9    0.12    0.06
   5   0   0   -0.03    0.03
  -5   0   0    0.00    0.01
  -5  -1   0    0.02    0.02
  -5   1   0    0.00    0.02
   5   1   0   -0.02    0.02
   5  -1   0    0.04    0.03
  -5  -2   0    0.00    0.01
   5   2   0   -0.04    0.02
  -5   2   0    0.00    0.02
   5  -2   0    0.02    0.03
   5  -3   0    0.00    0.03
  -5  -3   0    0.02    0.01
  -5   3   0    0.02    0.02
   5   3   0   -0.01    0.02
  -5   4   0    0.03    0.03
  -5  -4   0   -0.02    0.02
   5   4   0   -0.04    0.01
   5  -4   0   -0.05    0.03
  -5   4   0    0.00    0.03
   5   4   0    0.03    0.02
   5  -4   0   -0.01    0.02
   5  -5   0    0.02    0.03
  -5   5   0    0.00    0.03
  -5   5   0   -0.01    0.04
   5   5   0    0.02    0.03
   5  -5   0    0.01    0.04
  -5   5   0    0.04    0.04
  -5  -5   0   -0.01    0.02
   5   5   0   -0.01    0.02
  -5   6   0    0.05    0.04
   5   6   0   -0.02    0.02
  -5   6   0    0.01    0.04
   5  -6   0    0.02    0.04
  -5   6   0    0.09    0.05
   5  -6   0    0.02    0.05
  -5   7   0    0.06    0.06
  -5   7   0   -0.01    0.04
  -5   7   0    0.02    0.05
   5   7   0   -0.03    0.03
   5  -7   0   -0.05    0.04
  -5   0   1    2.66    0.25
   5   0  -1    3.23    0.32
  -5   0  -1    2.50    0.25
  -5   1   1    1.94    0.20
  -5  -1  -1    2.03    0.19
   5   1  -1    2.38    0.25
  -5  -1   1    2.23    0.20
   5   1   1    2.54    0.25
   5  -1  -1    2.28    0.25
   5   2  -1    2.37    0.26
  -5   2   1    2.80    0.22
  -5  -2  -1    2.15    0.21
   5   2   1    2.60    0.27
  -5   2  -1    1.98    0.22
  -5  -2   1    2.06    0.21
   5  -2  -1    2.59    0.27
  -5   3   1    0.97    0.10
   5   3  -1    0.88    0.10
   5  -3   1    0.83    0.11
   5  -3   1    0.81    0.11
  -5  -3  -1    0.70    0.08
   5   3   1    0.92    0.11
   5  -3  -1    0.87    0.11
  -5   3  -1    0.73    0.10
  -5  -3   1    0.77    0.09
   5  -4   1    0.77    0.12
  -5   4   1    0.78    0.08
   5  -4   1    0.66    0.08
   5   4  -1    0.77    0.07
  -5  -4  -1    0.62    0.08
  -5   4   1    0.81    0.10
  -5   4  -1    0.71    0.08
   5  -4  -1    0.63    0.08
  -5  -4   1    0.72    0.08
  -5   4  -1    0.80    0.08
   5   4   1    0.74    0.06
  -5   4  -1    0.82    0.10
   5  -4  -1    0.72    0.10
  -5   5   1    0.26    0.07
   5  -5   1    0.27    0.05
   5   5  -1    0.26    0.04
   5  -5   1    0.27    0.08
  -5   5   1    0.31    0.06
  -5  -5   1    0.31    0.05
   5   5   1    0.26    0.04
   5   5   1    0.24    0.05
   5  -5  -1    0.25    0.05
  -5   5  -1    0.26    0.05
  -5   5  -1    0.22    0.06
  -5   5  -1    0.29    0.05
   5  -5  -1    0.30    0.08
   5  -6   1    0.11    0.06
   5   6  -1    0.09    0.03
   5  -6   1    0.08    0.04
  -5   6   1    0.16    0.06
  -5   6   1    0.08    0.04
  -5   6  -1    0.15    0.05
   5   6   1    0.17    0.04
  -5   6  -1    0.11    0.05
   5  -6  -1    0.09    0.06
  -5   6  -1    0.21    0.07
   5  -6  -1    0.10    0.04
  -5  -6   1    0.10    0.05
  -5   7   1    0.09    0.05
   5  -7   1    0.09    0.06
   5   7  -1    0.10    0.04
   5   7   1    0.08    0.03
   5  -7  -1    0.12    0.04
   5  -7  -1    0.07    0.06
   5   0   2    1.38    0.16
  -5   0   2    1.30    0.13
   5   0  -2    1.36    0.16
  -5   1   2    0.30    0.05
   5  -1   2    0.39    0.06
   5   1  -2    0.46    0.07
   5  -1   2    0.43    0.07
  -5   1  -2    0.42    0.05
   5  -1  -2    0.37    0.06
  -5  -1   2    0.39    0.05
   5   1   2    0.37    0.06
   5  -2   2    0.71    0.09
   5  -2   2    0.57    0.09
   5   2  -2    0.56    0.08
  -5   2   2    0.54    0.07
   5   2   2    0.69    0.08
   5  -2  -2    0.66    0.09
  -5  -2   2    0.52    0.07
  -5   2  -2    0.74    0.08
   5  -3   2    0.01    0.03
  -5   3   2   -0.01    0.02
   5  -3   2    0.01    0.04
  -5  -3  -2    0.00    0.02
  -5   3   2   -0.01    0.02
   5   3   2   -0.01    0.02
  -5   3  -2    0.02    0.02
  -5   3  -2    0.03    0.03
   5  -3  -2    0.01    0.03
  -5  -3   2   -0.01    0.02
   5  -4   2    0.13    0.04
  -5  -4  -2    0.14    0.03
   5  -4   2    0.24    0.06
   5   4  -2    0.19    0.03
  -5   4   2    0.19    0.04
  -5   4   2    0.17    0.05
  -5  -4   2    0.18    0.04
   5  -4  -2    0.12    0.04
  -5   4  -2    0.19    0.05
   5   4   2    0.16    0.03
   5   4   2    0.14    0.04
  -5   4  -2    0.16    0.04
  -5   4  -2    0.20    0.04
  -5   5   2    0.01    0.03
  -5   5   2   -0.01    0.04
   5  -5   2   -0.02    0.04
   5   5  -2   -0.02    0.02
  -5  -5  -2    0.01    0.02
   5  -5   2   -0.02    0.03
  -5   5  -2    0.00    0.04
   5   5   2   -0.02    0.03
  -5   5  -2   -0.01    0.03
  -5  -5   2    0.03    0.03
   5   5   2   -0.01    0.02
   5  -5  -2   -0.05    0.03
  -5   5  -2   -0.01    0.03
   5  -6   2    0.08    0.05
  -5  -6  -2    0.05    0.02
   5   6  -2    0.04    0.03
  -5   6   2    0.06    0.04
  -5   6   2    0.03    0.04
   5  -6   2    0.04    0.04
  -5   6  -2    0.09    0.04
   5   6   2    0.02    0.04
  -5  -6   2    0.07    0.04
   5  -6  -2    0.12    0.06
  -5   6  -2    0.06    0.04
   5   6   2    0.00    0.02
   5  -6  -2    0.03    0.03
  -5   6  -2    0.10    0.06
   5  -7   2   -0.02    0.04
  -5   7   2    0.07    0.05
   5   7  -2    0.00    0.03
  -5   7   2    0.07    0.06
  -5  -7  -2    0.01    0.02
   5  -7  -2   -0.01    0.05
  -5   7  -2    0.04    0.04
  -5   7  -2    0.04    0.05
   5  -7  -2    0.00    0.03
   5   7   2    0.01    0.03
  -5  -7   2    0.01    0.04
   5   0  -3    1.05    0.13
   5   0   3    1.17    0.10
   5   0   3    1.03    0.13
  -5   0   3    0.94    0.11
  -5   1   3    0.20    0.04
   5   1  -3    0.24    0.05
   5  -1   3    0.27    0.05
   5  -1   3    0.31    0.05
   5  -1  -3    0.22    0.04
  -5  -1   3    0.25    0.04
   5   1   3    0.19    0.04
  -5   2   3    0.94    0.09
   5  -2   3    0.61    0.09
   5  -2   3    0.79    0.10
   5  -2   3    0.87    0.10
   5  -2  -3    0.90    0.11
   5   2   3    0.76    0.11
  -5   2  -3    1.06    0.10
  -5  -2   3    0.66    0.09
  -5   3   3    0.08    0.03
   5  -3   3    0.13    0.05
   5  -3   3    0.10    0.04
  -5   3   3    0.08    0.03
  -5   3   3    0.06    0.02
  -5  -3  -3    0.10    0.02
  -5   3  -3    0.04    0.04
   5   3   3    0.05    0.03
  -5  -3   3    0.08    0.03
  -5   3  -3    0.05    0.03
   5  -3  -3    0.05    0.03
   5   3   3    0.12    0.02
   5  -4   3    0.35    0.07
  -5   4   3    0.26    0.05
  -5   4   3    0.28    0.05
  -5   4   3    0.28    0.05
   5   4  -3    0.36    0.05
   5  -4   3    0.23    0.05
  -5  -4  -3    0.28    0.04
   5  -4  -3    0.21    0.05
  -5  -4   3    0.34    0.06
   5   4   3    0.25    0.06
  -5   4  -3    0.24    0.05
   5   4   3    0.31    0.04
  -5   4  -3    0.30    0.06
   5  -5   3    0.02    0.04
  -5   5   3   -0.01    0.03
   5  -5   3    0.04    0.04
   5   5  -3    0.05    0.03
  -5   5   3    0.01    0.03
  -5   5   3   -0.01    0.03
  -5  -5  -3    0.03    0.02
   5  -5  -3    0.00    0.03
  -5  -5   3    0.06    0.04
  -5   5  -3    0.02    0.03
   5   5   3    0.04    0.03
  -5   5  -3    0.09    0.05
   5   5   3    0.03    0.04
   5  -6   3    0.04    0.04
  -5  -6  -3    0.03    0.02
  -5   6   3    0.01    0.04
   5  -6   3    0.02    0.05
  -5   6   3    0.03    0.04
   5   6  -3    0.08    0.04
   5   6   3    0.04    0.04
  -5   6  -3    0.09    0.04
   5  -6  -3   -0.06    0.03
   5   6   3    0.06    0.03
  -5   6  -3    0.08    0.06
  -5  -6   3    0.04    0.04
   5   7  -3    0.05    0.04
  -5   7   3    0.00    0.04
   5  -7   3    0.04    0.05
  -5   7   3    0.02    0.04
  -5  -7  -3    0.01    0.02
   5  -7  -3    0.00    0.05
   5  -7  -3    0.07    0.04
  -5  -7   3    0.14    0.06
  -5   7  -3    0.06    0.06
  -5   7  -3    0.11    0.05
   5   7   3   -0.01    0.03
   5   0   4    0.59    0.09
  -5   0   4    0.57    0.08
   5   0   4    0.59    0.06
   5   0  -4    0.63    0.09
   5   0   4    0.49    0.06
   5   1  -4    6.18    0.66
   5  -1   4    6.82    0.67
   5  -1   4    6.28    0.53
  -5   1   4    5.89    0.52
  -5  -1   4    5.37    0.52
   5  -1  -4    6.51    0.67
   5   1   4    5.53    0.49
   5   1   4    5.54    0.67
   5  -2   4    0.27    0.06
  -5   2   4    0.32    0.06
  -5   2   4    0.35    0.04
  -5  -2  -4    0.24    0.04
  -5   2   4    0.36    0.05
   5  -2   4    0.17    0.05
  -5   2  -4    0.41    0.05
   5   2   4    0.36    0.05
  -5   2  -4    0.26    0.05
   5   2   4    0.29    0.06
   5  -2  -4    0.25    0.06
  -5  -2   4    0.30    0.05
  -5   3   4    4.33    0.46
  -5  -3  -4    4.42    0.28
   5  -3   4    3.83    0.38
  -5   3   4    4.32    0.37
  -5   3   4    4.37    0.35
   5   3  -4    4.03    0.29
   5   3   4    4.45    0.35
  -5   3  -4    4.38    0.30
  -5   3  -4    3.71    0.37
   5   3   4    3.72    0.28
   5   3   4    3.93    0.47
  -5  -3   4    3.88    0.37
   5  -3  -4    4.40    0.47
   5  -4   4    0.06    0.04
   5  -4   4    0.05    0.04
  -5   4   4    0.05    0.03
  -5  -4  -4    0.04    0.03
  -5   4   4    0.08    0.03
  -5   4   4   -0.01    0.03
   5   4  -4    0.05    0.03
  -5  -4   4    0.06    0.03
   5  -4  -4    0.04    0.04
  -5   4  -4    0.06    0.04
   5   4   4    0.06    0.03
  -5   4  -4    0.05    0.04
   5   4   4    0.09    0.04
   5   4   4    0.08    0.03
   5  -5   4    1.86    0.20
  -5   5   4    1.57    0.17
  -5  -5  -4    1.74    0.13
   5  -5   4    1.29    0.17
  -5   5   4    1.66    0.21
  -5   5   4    1.71    0.17
   5   5  -4    1.92    0.15
  -5   5  -4    1.80    0.19
  -5   5  -4    1.80    0.15
  -5  -5   4    2.26    0.19
   5   5   4    2.01    0.22
   5  -5  -4    1.57    0.21
   5   5   4    1.89    0.13
   5  -6   4    0.03    0.05
  -5   6   4    0.02    0.04
  -5   6   4   -0.07    0.03
  -5  -6  -4   -0.01    0.02
  -5   6   4    0.01    0.04
   5   6  -4    0.00    0.04
  -5   6  -4   -0.01    0.04
   5   6   4   -0.02    0.03
  -5  -6   4    0.04    0.04
   5   6   4    0.00    0.04
  -5   6  -4    0.04    0.04
  -5  -7  -4    0.57    0.07
   5  -7   4    0.73    0.13
   5   7  -4    0.80    0.10
  -5   7  -4    1.03    0.14
   5   7   4    0.80    0.08
   5   0   5    0.05    0.04
  -5   0   5    0.07    0.02
   5   0   5    0.09    0.03
   5   0  -5    0.10    0.04
  -5   0   5    0.08    0.04
  -5   0  -5    0.14    0.05
   5  -1   5    0.00    0.03
  -5   1   5   -0.03    0.02
  -5   1   5    0.01    0.02
   5   1  -5   -0.01    0.04
   5  -1   5    0.00    0.03
   5  -1   5    0.00    0.03
  -5  -1  -5    0.06    0.04
   5   1   5   -0.03    0.03
   5  -1  -5    0.03    0.04
  -5   1  -5   -0.11    0.04
  -5  -1   5    0.00    0.03
   5   1   5   -0.01    0.02
  -5   2   5    0.15    0.03
  -5   2   5    0.11    0.03
  -5  -2  -5    0.14    0.04
   5  -2   5    0.06    0.04
  -5   2   5    0.14    0.04
   5  -2   5    0.17    0.05
   5   2   5    0.10    0.03
   5   2   5    0.09    0.05
  -5  -2   5    0.14    0.04
   5  -2  -5    0.15    0.04
  -5   2  -5    0.06    0.05
   5   3  -5    0.00    0.03
  -5  -3  -5    0.04    0.03
   5  -3   5    0.01    0.04
  -5   3   5    0.01    0.02
  -5   3   5    0.02    0.02
  -5   3   5   -0.02    0.03
   5  -3   5   -0.04    0.04
   5  -3  -5   -0.05    0.03
   5   3   5   -0.03    0.04
  -5  -3   5    0.03    0.03
   5   3   5   -0.03    0.02
  -5   3  -5   -0.03    0.04
   5  -4   5   -0.01    0.05
  -5  -4  -5    0.11    0.04
   5   4  -5    0.11    0.04
  -5   4   5    0.08    0.04
  -5   4   5    0.04    0.03
  -5   4   5    0.10    0.03
   5  -4   5    0.08    0.05
   5   4   5    0.08    0.03
   5   4   5    0.12    0.04
  -5  -4   5    0.10    0.04
   5   4   5    0.07    0.05
   5  -4  -5    0.07    0.04
  -5   4  -5    0.08    0.04
   5  -5   5    0.00    0.04
  -5  -5  -5    0.00    0.03
  -5   5   5   -0.01    0.03
  -5   5   5    0.00    0.03
   5  -5   5   -0.01    0.04
  -5   5   5   -0.02    0.03
   5   5  -5    0.02    0.04
   5   5   5    0.01    0.04
   5  -5  -5   -0.03    0.04
  -5  -5   5   -0.02    0.03
  -5   5  -5   -0.02    0.03
   5   5   5    0.01    0.03
  -5   6   5   -0.07    0.04
   5  -6   5    0.04    0.06
  -5   6   5    0.05    0.04
   5   6  -5    0.04    0.04
  -5  -6  -5    0.00    0.03
  -5  -6   5    0.09    0.05
   5   6   5   -0.02    0.05
   5  -6  -5   -0.05    0.04
   5   6   5    0.01    0.04
  -5   6  -5    0.03    0.04
   5   0  -6    0.23    0.06
   5   0   6    0.28    0.05
  -5   0   6    0.20    0.05
   5   0   6    0.23    0.06
  -5   0  -6    0.23    0.07
  -5   0   6    0.15    0.03
  -5   1   6    4.89    0.35
   5  -1   6    4.31    0.36
   5   1  -6    3.96    0.47
  -5   1   6    4.51    0.47
  -5  -1  -6    4.13    0.30
  -5   1   6    4.13    0.37
  -5   1  -6    3.77    0.30
  -5  -1   6    3.98    0.37
   5  -1  -6    4.57    0.48
   5   1   6    3.62    0.48
   5   1   6    4.03    0.35
   5  -2   6    0.27    0.06
  -5  -2  -6    0.23    0.05
  -5   2   6    0.22    0.04
   5  -2   6    0.26    0.06
  -5   2   6    0.18    0.04
  -5   2   6    0.17    0.05
   5   2   6    0.22    0.04
  -5   2  -6    0.15    0.06
   5  -2  -6    0.21    0.06
  -5  -2   6    0.27    0.05
   5   2   6    0.18    0.06
   5  -3   6    3.02    0.29
  -5   3   6    3.22    0.34
  -5  -3  -6    2.94    0.21
   5  -3   6    3.43    0.27
  -5   3   6    3.26    0.26
  -5   3   6    2.71    0.25
  -5   3  -6    2.71    0.23
  -5  -3   6    2.85    0.28
   5   3   6    2.60    0.25
   5   3   6    2.61    0.35
   5  -3  -6    2.92    0.34
  -5   4   6    0.07    0.05
  -5  -4  -6    0.13    0.04
   5  -4   6    0.15    0.06
   5   4  -6    0.15    0.05
  -5   4   6    0.08    0.03
  -5   4   6    0.15    0.04
   5  -4   6    0.11    0.06
  -5  -4   6    0.10    0.05
  -5   4  -6    0.11    0.05
   5  -4  -6    0.06    0.05
   5   4   6    0.12    0.04
   5   4   6    0.12    0.06
   5   5  -6    1.58    0.14
  -5   5   6    1.38    0.14
  -5  -5  -6    1.43    0.12
   5  -5   6    1.27    0.16
  -5   5   6    1.38    0.18
   5  -5   6    1.64    0.18
  -5  -5   6    1.63    0.17
   5   5   6    1.24    0.19
  -5   5  -6    1.45    0.14
   5   5   6    1.32    0.12
   5   5   6    1.29    0.14
   5  -5  -6    1.28    0.18
  -5   6   6    0.09    0.05
   5  -6   6    0.06    0.06
   5   6  -6    0.05    0.04
  -5   6  -6    0.01    0.04
   5   6   6    0.06    0.05
  -5  -6   6    0.04    0.05
   5   0   7    0.32    0.06
  -5   0   7    0.35    0.05
  -5   0   7    0.26    0.06
   5   0  -7    0.29    0.07
  -5   0  -7    0.37    0.08
   5   0   7    0.34    0.08
  -5   1   7    0.13    0.03
   5  -1   7    0.14    0.05
  -5   1   7    0.02    0.05
  -5  -1  -7    0.08    0.07
  -5   1   7    0.13    0.03
   5   1   7    0.10    0.04
  -5  -1   7    0.07    0.03
   5   1   7    0.09    0.06
  -5   1  -7    0.13    0.06
  -5  -1   7    0.00    0.05
   5  -1  -7    0.04    0.06
  -5  -2  -7    0.38    0.08
  -5   2   7    0.32    0.08
  -5   2   7    0.45    0.06
  -5   2   7    0.45    0.06
   5  -2   7    0.49    0.08
   5   2   7    0.37    0.06
  -5  -2   7    0.29    0.07
   5   2   7    0.43    0.10
   5  -2  -7    0.40    0.08
  -5   2  -7    0.31    0.07
  -5   3   7   -0.01    0.05
   5  -3   7    0.03    0.05
   5  -3   7    0.12    0.05
  -5  -3  -7    0.04    0.05
  -5   3   7    0.07    0.03
  -5   3   7    0.08    0.03
   5   3   7    0.06    0.06
  -5  -3   7    0.05    0.05
   5  -3  -7   -0.06    0.05
  -5   3  -7    0.04    0.05
   5   3   7    0.05    0.03
  -5   4   7    0.33    0.06
   5  -4   7    0.43    0.08
  -5   4   7    0.23    0.07
   5  -4   7    0.47    0.09
  -5  -4  -7    0.19    0.06
  -5   4  -7    0.33    0.07
   5   4   7    0.24    0.05
  -5  -4   7    0.36    0.08
   5   4   7    0.25    0.08
   5  -4  -7    0.11    0.06
   5  -5   7   -0.04    0.05
  -5   5   7   -0.07    0.04
   5   5  -7    0.03    0.04
  -5   5   7    0.04    0.04
   5  -5   7    0.03    0.06
   5   5   7    0.04    0.03
  -5  -5   7    0.05    0.05
  -5   5  -7    0.11    0.05
  -5   0   8    0.13    0.05
  -5   0   8    0.23    0.04
   5   0   8    0.20    0.05
  -5   0  -8    0.15    0.08
   5  -1   8    0.77    0.11
  -5   1   8    0.95    0.09
  -5  -1  -8    0.92    0.12
  -5   1   8    0.90    0.09
  -5  -1   8    0.64    0.10
  -5   1  -8    0.93    0.12
   5  -1  -8    0.76    0.13
   5   1   8    0.79    0.10
   5   1   8    0.80    0.14
   5  -2   8    0.24    0.07
  -5  -2  -8    0.25    0.08
  -5   2   8    0.23    0.04
  -5   2   8    0.07    0.06
   5   2   8    0.18    0.05
  -5  -2   8    0.21    0.07
   5   2   8    0.22    0.08
   5  -2  -8    0.08    0.07
  -5   2  -8    0.07    0.06
   5  -3   8    0.52    0.09
  -5   3   8    0.48    0.07
  -5   3   8    0.44    0.10
   5   3   8    0.47    0.10
  -5   3  -8    0.52    0.08
  -5  -3   8    0.40    0.09
   5   3   8    0.33    0.06
   5  -3  -8    0.43    0.09
  -5   4   8    0.13    0.05
   5  -4   8    0.17    0.07
  -5   4  -8    0.11    0.05
   5   4   8    0.10    0.04
  -5   0  -9    3.83    0.30
  -5   0   9    4.14    0.34
   5   0   9    3.31    0.33
  -5   1   9    0.03    0.03
   5  -1   9    0.01    0.05
   5   1   9    0.00    0.04
  -5   1  -9    0.13    0.07
  -5   2   9    3.24    0.27
  -5   2   9    3.16    0.37
   5  -2   9    3.29    0.29
  -5   2  -9    2.86    0.25
   5   2   9    2.94    0.38
   5  -2  -9    2.91    0.37
  -6   0   0    4.92    0.48
   6   0   0    6.39    0.62
  -6   1   0   36.13    3.59
   6   1   0   47.46    4.60
  -6  -1   0   40.19    3.59
   6  -1   0   45.79    4.59
  -6  -2   0    4.09    0.37
  -6   2   0    3.72    0.37
   6   2   0    4.65    0.47
   6  -2   0    4.43    0.47
   6  -3   0   10.97    0.90
   6   3   0   12.85    1.22
  -6  -3   0   10.71    0.95
  -6   3   0   10.19    0.90
   6  -3   0   11.36    1.22
  -6   3   0   10.68    0.96
  -6   4   0    1.69    0.18
   6  -4   0    1.78    0.16
   6  -4   0    1.50    0.20
  -6  -4   0    1.65    0.15
   6   4   0    1.68    0.19
  -6   4   0    1.69    0.15
   6   4   0    1.70    0.12
  -6   5   0    3.84    0.32
   6  -5   0    3.39    0.36
   6  -5   0    3.57    0.33
   6   5   0    3.90    0.26
  -6   5   0    4.49    0.28
  -6  -5   0    3.65    0.34
  -6   5   0    3.63    0.36
   6  -6   0    0.70    0.10
  -6   6   0    0.72    0.13
   6  -6   0    0.73    0.13
  -6   6   0    0.85    0.10
   6   6   0    0.76    0.07
   6  -7   0    1.27    0.15
  -6   7   0    1.58    0.15
   6   7   0    1.36    0.12
  -6   7   0    1.44    0.18
   6  -7   0    1.20    0.18
  -6   0   1    0.16    0.03
   6   0  -1    0.21    0.05
   6   0   1    0.22    0.04
  -6   0  -1    0.19    0.03
  -6   1   1    3.19    0.32
   6  -1   1    4.08    0.41
   6   1  -1    3.84    0.40
  -6  -1  -1    3.46    0.31
   6   1   1    3.90    0.41
   6  -1  -1    3.78    0.41
  -6  -1   1    3.65    0.32
  -6   1  -1    3.19    0.32
   6  -2   1    0.02    0.04
  -6   2   1    0.04    0.02
  -6  -2  -1    0.05    0.02
   6   2  -1    0.06    0.03
  -6  -2   1    0.03    0.02
  -6   2  -1    0.07    0.03
   6   2   1    0.04    0.03
   6  -2  -1    0.04    0.03
   6  -3   1    0.72    0.11
   6   3  -1    0.83    0.09
  -6  -3  -1    0.68    0.08
  -6   3   1    0.75    0.08
  -6   3   1    0.75    0.09
  -6  -3  -1    0.75    0.06
   6  -3   1    0.78    0.08
  -6   3  -1    0.72    0.08
   6  -3  -1    0.79    0.11
  -6  -3   1    0.72    0.08
   6   3   1    0.90    0.10
   6  -3  -1    0.83    0.09
  -6   3  -1    0.81    0.10
   6   3   1    0.76    0.06
   6  -4   1    0.03    0.03
  -6   4   1    0.03    0.03
  -6  -4  -1    0.01    0.01
   6  -4   1    0.01    0.04
   6   4  -1    0.04    0.02
   6   4  -1    0.04    0.02
  -6   4   1    0.06    0.03
  -6  -4   1    0.03    0.02
  -6   4  -1    0.05    0.03
  -6   4  -1    0.05    0.03
   6   4   1    0.01    0.02
   6   4   1    0.03    0.03
  -6   4  -1    0.04    0.04
   6  -4  -1    0.04    0.04
   6  -4  -1    0.03    0.03
   6  -5   1    0.37    0.09
  -6   5   1    0.38    0.06
   6   5  -1    0.34    0.05
  -6   5   1    0.31    0.08
   6  -5   1    0.37    0.06
   6   5   1    0.40    0.05
   6  -5  -1    0.34    0.06
  -6   5  -1    0.36    0.08
  -6   5  -1    0.41    0.06
   6   5   1    0.48    0.07
  -6   5  -1    0.46    0.06
  -6  -5   1    0.51    0.07
   6  -6   1    0.01    0.03
   6   6  -1    0.02    0.03
  -6   6   1    0.02    0.04
   6  -6   1    0.02    0.05
  -6   6   1    0.04    0.05
  -6   6  -1    0.07    0.06
   6  -6  -1    0.01    0.03
  -6  -6   1    0.02    0.03
   6   6   1    0.04    0.03
   6  -6  -1    0.00    0.05
  -6   6  -1    0.02    0.04
  -6   6  -1    0.02    0.04
  -6   7   1    0.12    0.07
   6   7  -1    0.19    0.05
  -6   7   1    0.12    0.06
   6  -7   1    0.18    0.06
   6  -7   1    0.18    0.07
   6   7   1    0.18    0.04
  -6   7  -1    0.25    0.08
  -6   7  -1    0.15    0.05
   6  -7  -1    0.12    0.05
  -6   7  -1    0.29    0.07
   6  -7  -1    0.17    0.07
   6   0   2    8.17    0.89
  -6   0  -2    8.83    0.69
   6   0  -2    7.26    0.88
  -6  -1  -2    0.31    0.04
   6  -1   2    0.45    0.07
   6   1  -2    0.47    0.07
  -6   1   2    0.36    0.05
  -6   1  -2    0.43    0.05
   6  -1  -2    0.45    0.07
  -6  -1   2    0.43    0.06
   6   1   2    0.43    0.07
   6   2  -2    5.20    0.57
  -6   2   2    4.56    0.45
   6  -2   2    5.00    0.47
   6  -2   2    5.69    0.58
   6   2   2    5.42    0.58
  -6   2  -2    5.23    0.46
  -6  -2   2    5.18    0.45
   6  -2  -2    5.32    0.58
  -6  -3  -2    0.03    0.02
   6  -3   2    0.04    0.03
   6  -3   2    0.03    0.04
  -6   3   2    0.01    0.02
   6   3  -2    0.02    0.02
  -6   3   2    0.00    0.02
  -6  -3   2    0.04    0.02
   6   3   2    0.02    0.03
   6  -3  -2    0.04    0.03
   6   3   2    0.02    0.02
  -6   3  -2    0.05    0.03
  -6   3  -2    0.06    0.03
  -6  -4  -2    1.54    0.12
  -6   4   2    1.47    0.15
   6  -4   2    1.53    0.15
   6   4  -2    1.54    0.12
   6  -4   2    1.58    0.18
  -6   4   2    1.59    0.16
   6   4   2    1.87    0.19
  -6  -4   2    1.67    0.16
   6  -4  -2    1.59    0.19
  -6   4  -2    1.46    0.15
  -6   4  -2    1.66    0.17
  -6   4  -2    1.73    0.13
   6   4   2    1.56    0.12
  -6   5   2   -0.02    0.03
  -6   5   2    0.00    0.04
   6  -5   2    0.00    0.04
   6   5  -2    0.02    0.02
   6  -5   2    0.02    0.03
  -6  -5  -2    0.01    0.02
  -6   5  -2    0.00    0.03
   6  -5  -2   -0.07    0.03
   6   5   2   -0.02    0.03
  -6   5  -2    0.01    0.03
  -6  -5   2    0.02    0.03
  -6   5  -2    0.01    0.04
   6   5   2    0.02    0.02
   6   6  -2    0.30    0.05
   6  -6   2    0.19    0.07
  -6  -6  -2    0.24    0.04
  -6   6   2    0.21    0.07
  -6   6   2    0.28    0.06
   6  -6   2    0.26    0.06
  -6   6  -2    0.23    0.05
   6  -6  -2    0.26    0.08
  -6   6  -2    0.28    0.06
  -6   6  -2    0.31    0.09
   6   6   2    0.32    0.05
   6  -6  -2    0.23    0.05
   6   6   2    0.23    0.06
   6  -7   2   -0.01    0.04
  -6   7   2    0.02    0.05
   6   7  -2   -0.03    0.03
  -6  -7  -2    0.04    0.02
  -6   7   2   -0.03    0.04
  -6   7  -2   -0.06    0.04
   6  -7  -2    0.03    0.06
  -6  -7   2    0.05    0.04
   6   7   2    0.01    0.03
  -6   7  -2   -0.02    0.04
   6  -7  -2    0.00    0.04
   6   0   3    4.27    0.41
  -6   0   3    4.59    0.41
   6   0  -3    4.96    0.53
   6   0   3    5.12    0.53
   6  -1   3    8.09    0.70
   6   1  -3    8.79    0.88
  -6   1   3    6.89    0.69
   6  -1   3    8.88    0.89
  -6  -1   3    8.21    0.70
   6  -1  -3    8.56    0.89
   6   1   3    7.10    0.89
   6  -2   3    2.01    0.19
   6   2  -3    1.93    0.22
  -6  -2  -3    1.86    0.14
  -6   2   3    1.74    0.18
   6  -2   3    1.97    0.22
   6  -2   3    1.51    0.17
  -6   2  -3    2.02    0.15
   6  -2  -3    2.14    0.23
  -6  -2   3    1.90    0.18
   6   2   3    1.78    0.22
  -6   2  -3    2.31    0.18
   6   2   3    1.82    0.14
  -6  -3  -3    4.31    0.27
   6   3  -3    3.80    0.27
  -6   3   3    3.92    0.34
  -6   3   3    3.78    0.35
   6  -3   3    3.90    0.37
   6  -3   3    3.67    0.34
   6   3   3    4.08    0.45
  -6  -3   3    4.07    0.36
  -6   3  -3    4.01    0.28
   6   3   3    3.78    0.27
  -6   3  -3    4.00    0.36
   6  -3  -3    4.55    0.45
   6  -4   3    0.64    0.11
   6  -4   3    0.63    0.09
  -6  -4  -3    0.65    0.06
  -6   4   3    0.78    0.09
  -6   4   3    0.61    0.08
   6   4  -3    0.81    0.07
  -6   4  -3    0.70    0.08
   6   4   3    0.69    0.06
   6  -4  -3    0.61    0.10
   6   4   3    0.61    0.10
  -6   4  -3    0.65    0.09
  -6  -4   3    0.67    0.08
   6  -5   3    1.56    0.17
   6  -5   3    1.30    0.14
  -6  -5  -3    1.38    0.11
  -6   5   3    1.29    0.14
  -6   5   3    1.24    0.15
   6   5  -3    1.65    0.12
   6  -5  -3    1.14    0.17
   6   5   3    1.74    0.18
  -6  -5   3    1.50    0.15
  -6   5  -3    1.35    0.12
  -6   5  -3    1.36    0.16
   6   5   3    1.38    0.11
  -6  -6  -3    0.37    0.05
   6  -6   3    0.41    0.07
   6  -6   3    0.32    0.09
   6   6  -3    0.41    0.06
  -6   6   3    0.40    0.08
  -6   6   3    0.33    0.07
  -6   6  -3    0.52    0.10
   6   6   3    0.41    0.05
   6   6   3    0.48    0.09
  -6  -6   3    0.44    0.08
  -6   6  -3    0.28    0.06
   6   7  -3    0.55    0.07
  -6   7   3    0.48    0.10
   6  -7   3    0.44    0.10
  -6  -7  -3    0.38    0.06
  -6   7  -3    0.49    0.08
  -6   7  -3    0.69    0.12
   6   7   3    0.58    0.07
   6  -7  -3    0.51    0.09
  -6  -7   3    0.79    0.11
   6  -7  -3    0.31    0.10
   6   0   4    4.89    0.41
   6   0   4    4.81    0.53
   6   0   4    4.31    0.39
  -6   0  -4    4.27    0.32
  -6   0   4    4.74    0.41
   6   0  -4    5.15    0.52
   6  -1   4    4.05    0.37
  -6  -1  -4    3.83    0.29
   6   1  -4    4.63    0.47
   6  -1   4    4.55    0.47
  -6   1   4    4.55    0.37
  -6   1  -4    3.95    0.29
  -6  -1   4    3.83    0.37
   6   1   4    4.00    0.35
   6  -1  -4    4.74    0.47
   6   1   4    3.67    0.47
  -6   2   4    3.05    0.22
  -6  -2  -4    2.68    0.18
   6  -2   4    2.66    0.25
   6   2  -4    2.47    0.29
  -6   2   4    2.13    0.23
   6  -2  -4    2.88    0.30
  -6   2  -4    2.42    0.19
  -6   2  -4    3.13    0.24
  -6  -2   4    2.49    0.24
   6   2   4    2.05    0.30
   6   2   4    2.69    0.22
  -6   3   4    2.47    0.21
   6   3  -4    2.20    0.16
   6  -3   4    2.20    0.22
  -6   3   4    2.15    0.20
  -6  -3  -4    2.41    0.16
   6   3   4    2.55    0.20
  -6   3  -4    2.09    0.17
   6   3   4    1.98    0.26
   6  -3  -4    2.26    0.26
   6   3   4    2.07    0.16
  -6   3  -4    1.96    0.21
  -6  -3   4    2.23    0.21
  -6   4   4    0.90    0.10
  -6  -4  -4    0.91    0.08
   6   4  -4    1.01    0.09
   6  -4   4    0.80    0.11
   6  -4   4    0.84    0.12
  -6   4   4    1.08    0.11
   6   4   4    0.88    0.13
   6  -4  -4    0.87    0.13
   6   4   4    0.92    0.08
   6   4   4    1.08    0.10
  -6   4  -4    0.85    0.09
  -6   4  -4    0.83    0.11
  -6  -4   4    1.07    0.11
   6   5  -4    1.04    0.09
  -6   5   4    0.86    0.11
   6  -5   4    0.70    0.11
   6  -5   4    1.09    0.14
  -6   5   4    0.92    0.10
  -6  -5  -4    0.99    0.08
   6  -5  -4    0.76    0.13
   6   5   4    0.94    0.13
   6   5   4    1.01    0.08
  -6   5  -4    0.92    0.12
  -6   5  -4    0.95    0.10
  -6  -5   4    1.09    0.12
   6   6  -4    0.48    0.07
   6  -6   4    0.29    0.08
  -6   6   4    0.26    0.06
   6  -6   4    0.26    0.07
  -6   6   4    0.26    0.07
  -6  -6  -4    0.29    0.05
   6   6   4    0.37    0.05
  -6  -6   4    0.50    0.09
  -6   6  -4    0.33    0.08
   6   6   4    0.29    0.07
  -6   6  -4    0.32    0.06
  -6   0   5    1.98    0.16
   6   0   5    1.70    0.17
   6   0  -5    2.08    0.23
   6   0   5    1.88    0.23
  -6   0  -5    1.59    0.15
  -6   0   5    2.20    0.19
   6  -1   5   18.89    1.62
  -6  -1  -5   17.64    1.25
  -6   1   5   20.85    1.52
   6   1  -5   18.93    2.07
  -6   1   5   19.30    1.62
   6  -1   5   18.88    1.53
   6  -1   5   17.81    2.07
  -6   1  -5   18.39    1.25
  -6  -1   5   20.78    1.62
   6  -1  -5   20.06    2.07
   6   1   5   17.74    1.53
  -6  -2  -5    1.15    0.11
  -6   2   5    1.55    0.12
   6  -2   5    1.21    0.14
   6  -2   5    1.04    0.13
  -6   2   5    1.19    0.12
  -6   2  -5    1.15    0.12
  -6  -2   5    1.17    0.13
   6  -2  -5    1.47    0.16
   6   2   5    1.12    0.16
   6   2   5    1.18    0.12
   6  -3   5    9.12    0.81
  -6  -3  -5    9.42    0.61
  -6   3   5   10.37    1.01
  -6   3   5    8.88    0.79
  -6   3   5    9.21    0.75
   6   3  -5    8.84    0.62
   6   3   5    8.24    1.02
  -6  -3   5    9.31    0.80
  -6   3  -5    8.46    0.80
  -6   3  -5    8.91    0.62
   6   3   5    9.71    0.75
   6  -3  -5    9.80    1.01
  -6  -4  -5    0.63    0.07
  -6   4   5    0.53    0.08
  -6   4   5    0.70    0.08
   6  -4   5    0.38    0.09
  -6   4   5    0.68    0.10
   6  -4   5    0.79    0.11
   6   4  -5    0.81    0.08
   6   4   5    0.60    0.11
   6  -4  -5    0.56    0.11
   6   4   5    0.72    0.08
  -6   4  -5    0.62    0.08
  -6  -4   5    0.65    0.09
   6   4   5    0.58    0.07
  -6   4  -5    0.66    0.10
   6  -5   5    4.18    0.40
  -6   5   5    3.74    0.35
  -6   5   5    3.74    0.37
  -6  -5  -5    3.79    0.28
  -6   5   5    4.05    0.46
   6   5  -5    5.01    0.30
  -6  -5   5    4.65    0.39
  -6   5  -5    4.12    0.38
   6   5   5    3.97    0.47
   6   5   5    4.30    0.29
  -6   5  -5    4.22    0.30
   6  -5  -5    3.78    0.46
   6  -6   5    0.38    0.09
   6   6  -5    0.43    0.07
  -6   6   5    0.27    0.06
  -6  -6  -5    0.24    0.05
   6   6   5    0.29    0.08
   6   6   5    0.42    0.06
  -6   6  -5    0.26    0.06
  -6  -6   5    0.50    0.09
  -6   0  -6    0.61    0.09
   6   0   6    0.53    0.10
   6   0   6    0.62    0.08
  -6   0   6    0.58    0.08
  -6   0   6    0.58    0.06
   6   0  -6    0.52    0.09
   6   1  -6    0.15    0.06
   6  -1   6    0.28    0.06
  -6   1   6    0.29    0.04
  -6  -1  -6    0.33    0.06
  -6   1   6    0.21    0.04
   6   1   6    0.26    0.05
   6  -1  -6    0.23    0.06
   6   1   6    0.22    0.06
  -6   1  -6    0.32    0.07
  -6  -1   6    0.26    0.05
  -6   2   6    0.59    0.07
  -6  -2  -6    0.69    0.08
   6  -2   6    0.68    0.09
   6  -2   6    0.79    0.10
  -6   2   6    0.59    0.07
   6   2   6    0.55    0.11
  -6  -2   6    0.61    0.09
   6   2   6    0.55    0.07
   6  -2  -6    0.50    0.09
  -6   2  -6    0.47    0.08
   6  -3   6    0.18    0.06
  -6  -3  -6    0.22    0.05
  -6   3   6    0.19    0.04
  -6   3   6    0.15    0.06
   6  -3   6    0.20    0.06
  -6   3   6    0.24    0.04
  -6   3  -6    0.23    0.06
   6   3   6    0.18    0.04
   6   3   6    0.27    0.07
   6  -3  -6    0.17    0.06
  -6  -3   6    0.16    0.05
   6  -4   6    0.43    0.09
   6  -4   6    0.22    0.07
  -6   4   6    0.24    0.07
   6   4  -6    0.41    0.06
  -6  -4  -6    0.32    0.05
  -6   4   6    0.38    0.05
  -6   4   6    0.32    0.06
  -6   4  -6    0.28    0.06
  -6  -4   6    0.34    0.07
   6   4   6    0.33    0.05
   6  -4  -6    0.23    0.06
   6   4   6    0.31    0.08
  -6   5   6    0.06    0.04
   6   5  -6    0.10    0.04
   6  -5   6    0.05    0.06
  -6  -5  -6    0.09    0.04
  -6   5   6   -0.03    0.04
   6  -5   6    0.10    0.06
   6   5   6    0.07    0.05
   6   5   6    0.08    0.06
  -6  -5   6    0.09    0.05
  -6   5  -6    0.07    0.04
  -6   0   7    2.36    0.22
   6   0   7    2.47    0.22
  -6   0   7    2.33    0.21
   6   0  -7    2.31    0.28
   6   0   7    2.37    0.29
  -6   0  -7    2.60    0.20
   6  -1   7    0.10    0.05
  -6   1   7    0.10    0.03
  -6  -1  -7    0.12    0.07
  -6   1   7    0.06    0.03
   6  -1  -7   -0.05    0.05
  -6   1  -7    0.08    0.06
  -6  -1   7    0.02    0.04
   6   1   7    0.06    0.04
   6   1   7    0.09    0.06
  -6   2   7    1.95    0.17
  -6   2   7    2.08    0.18
   6  -2   7    2.31    0.20
  -6  -2  -7    2.06    0.16
   6   2   7    1.87    0.25
  -6  -2   7    1.66    0.19
   6  -2  -7    1.87    0.24
  -6   2  -7    1.82    0.17
   6   2   7    1.76    0.18
  -6   3   7    0.07    0.03
   6  -3   7    0.02    0.05
  -6   3   7    0.09    0.03
  -6  -3  -7    0.02    0.06
  -6   3   7   -0.04    0.05
  -6   3  -7    0.08    0.05
   6  -3  -7   -0.02    0.05
   6   3   7    0.07    0.06
   6   3   7    0.05    0.03
  -6  -3   7    0.07    0.05
  -6   4   7    1.06    0.14
   6  -4   7    0.97    0.14
   6  -4   7    1.29    0.14
  -6   4   7    0.93    0.11
  -6  -4  -7    0.95    0.10
   6   4   7    0.90    0.10
  -6   4  -7    0.96    0.11
   6  -4  -7    0.86    0.15
  -6  -4   7    1.08    0.13
   6   4   7    1.04    0.16
  -6   5   7   -0.01    0.04
   6  -5   7   -0.03    0.05
   6  -5   7    0.03    0.06
   6   5   7    0.01    0.03
  -6  -5   7    0.07    0.06
  -6   5  -7    0.02    0.04
  -6   0  -8    3.60    0.24
   6   0   8    2.77    0.25
  -6   0   8    2.41    0.24
   6  -1   8    0.17    0.06
  -6  -1  -8    0.04    0.07
  -6   1   8    0.17    0.04
  -6   1   8    0.11    0.03
  -6  -1   8   -0.01    0.05
   6   1   8    0.19    0.07
   6   1   8    0.12    0.05
  -6   1  -8    0.24    0.08
   6  -1  -8    0.02    0.07
  -6   2   8    2.35    0.21
   6  -2   8    2.72    0.23
  -6   2   8    2.40    0.20
  -6  -2  -8    2.44    0.20
  -6   2  -8    2.36    0.20
  -6  -2   8    1.74    0.23
   6   2   8    2.33    0.29
   6  -2  -8    2.36    0.28
   6   2   8    1.91    0.20
  -6  -3  -8    0.03    0.07
  -6   3   8    0.09    0.04
  -6   3   8    0.03    0.06
   6  -3   8    0.11    0.07
  -6  -3   8    0.09    0.06
   6   3   8    0.07    0.03
   6  -3  -8    0.01    0.06
   6   3   8    0.10    0.07
  -6   3  -8    0.09    0.06
   6  -4   8    1.65    0.17
  -6   4   8    1.23    0.13
  -6  -4   8    1.69    0.17
   6   4   8    1.03    0.13
  -6   4  -8    1.19    0.13
  -6   0  -9    0.12    0.08
  -6   0   9   -0.06    0.04
   6   0   9    0.08    0.06
  -6   0   9    0.10    0.03
  -6  -1  -9    0.54    0.11
   6  -1   9    0.48    0.09
   6   1   9    0.42    0.08
  -6   1  -9    0.50    0.10
  -6   2   9    0.05    0.03
   6  -2   9    0.09    0.07
  -6  -2   9    0.02    0.08
  -6   2  -9    0.06    0.06
   6   2   9    0.10    0.04
   7   0   0    0.12    0.04
  -7  -1   0    0.00    0.02
   7  -1   0   -0.02    0.04
   7   1   0   -0.02    0.03
  -7   1   0   -0.01    0.02
   7   2   0   -0.02    0.02
  -7  -2   0    0.00    0.02
   7  -2   0   -0.01    0.04
  -7   2   0    0.00    0.02
  -7   3   0    0.01    0.02
  -7  -3   0   -0.02    0.01
  -7  -3   0   -0.02    0.01
   7   3   0   -0.01    0.02
   7  -3   0   -0.01    0.04
  -7   3   0   -0.01    0.03
   7  -3   0    0.01    0.02
   7   3   0    0.01    0.01
  -7   4   0    0.01    0.03
  -7  -4   0    0.00    0.02
   7   4   0    0.00    0.02
   7  -4   0   -0.03    0.03
   7   4   0    0.01    0.02
  -7   4   0   -0.01    0.03
   7  -4   0   -0.03    0.05
   7  -5   0   -0.02    0.03
  -7   5   0    0.00    0.03
  -7   5   0   -0.03    0.03
  -7   5   0    0.00    0.04
   7   5   0    0.01    0.02
   7  -5   0    0.00    0.04
  -7   6   0   -0.02    0.04
  -7   6   0    0.03    0.04
   7  -6   0   -0.04    0.03
   7  -6   0    0.00    0.05
   7   6   0   -0.02    0.02
   7   7   0    0.01    0.03
   7  -7   0    0.03    0.06
   7  -7   0    0.05    0.04
   7   0   1    1.90    0.21
  -7   0  -1    1.63    0.16
  -7   0   1    1.51    0.16
   7   0  -1    1.88    0.21
  -7  -1  -1    9.59    0.83
  -7   1   1    8.60    0.83
   7  -1   1   11.30    1.07
   7   1  -1   10.17    1.07
   7  -1  -1    9.82    1.07
  -7   1  -1    8.53    0.84
   7   1   1    9.81    1.07
  -7  -1   1   10.16    0.84
  -7   2   1    0.61    0.08
   7   2  -1    0.73    0.09
   7  -2   1    0.70    0.10
  -7  -2  -1    0.69    0.07
   7  -2  -1    0.71    0.10
   7   2   1    0.74    0.09
  -7   2  -1    0.66    0.08
  -7  -2   1    0.59    0.07
   7  -3   1    2.34    0.28
   7   3  -1    2.30    0.17
   7   3  -1    2.58    0.28
  -7   3   1    2.49    0.23
  -7  -3  -1    2.62    0.17
  -7   3   1    2.39    0.21
   7  -3   1    2.43    0.22
   7   3   1    2.80    0.28
  -7  -3   1    2.41    0.22
   7  -3  -1    2.55    0.29
   7  -3  -1    2.40    0.22
   7   3   1    2.34    0.17
  -7   3  -1    2.33    0.21
  -7   3  -1    2.80    0.24
   7  -4   1    0.25    0.07
  -7  -4  -1    0.20    0.03
  -7   4   1    0.20    0.05
  -7   4   1    0.18    0.05
   7   4  -1    0.25    0.05
   7   4  -1    0.27    0.04
   7  -4   1    0.22    0.05
  -7  -4   1    0.21    0.04
  -7   4  -1    0.23    0.05
   7   4   1    0.19    0.04
   7   4   1    0.20    0.03
   7  -4  -1    0.17    0.04
  -7   4  -1    0.18    0.04
   7  -4  -1    0.12    0.05
  -7   4  -1    0.24    0.06
  -7   5   1    0.50    0.07
   7  -5   1    0.35    0.07
   7   5  -1    0.60    0.06
  -7  -5  -1    0.50    0.05
  -7   5   1    0.48    0.09
   7  -5   1    0.51    0.10
  -7   5  -1    0.48    0.07
   7   5   1    0.52    0.05
   7  -5  -1    0.49    0.08
  -7   5  -1    0.51    0.10
  -7  -5   1    0.47    0.07
   7   5   1    0.49    0.08
  -7   6   1    0.17    0.05
  -7   6   1    0.17    0.07
   7  -6   1    0.10    0.06
  -7  -6  -1    0.14    0.03
   7  -6   1    0.08    0.04
   7   6  -1    0.14    0.04
   7  -6  -1    0.05    0.04
   7  -6  -1    0.08    0.06
  -7   6  -1    0.20    0.07
  -7   6  -1    0.14    0.05
  -7   6  -1    0.15    0.05
   7   6   1    0.18    0.04
   7  -7   1    0.09    0.06
  -7   7   1    0.11    0.07
   7  -7   1    0.07    0.05
  -7  -7  -1    0.03    0.03
   7   7  -1    0.08    0.04
  -7   7   1    0.11    0.05
   7   7   1    0.09    0.04
  -7   7  -1    0.08    0.07
   7  -7  -1    0.07    0.06
   7  -7  -1    0.10    0.04
  -7   7  -1    0.05    0.05
  -7   7  -1    0.00    0.04
  -7   0  -2   25.19    2.38
   7   0  -2   30.26    3.05
   7   0   2   29.91    3.05
  -7   0   2   27.05    2.38
  -7  -1  -2    9.64    0.92
  -7   1   2    9.39    0.92
   7   1  -2   12.04    1.18
   7   1   2   10.50    1.18
  -7   1  -2   12.43    0.93
  -7  -1   2   10.84    0.93
   7  -1  -2   11.07    1.18
  -7  -2  -2   18.40    1.22
  -7   2   2   16.54    1.59
   7  -2   2   19.15    1.50
   7  -2   2   20.34    2.04
   7   2  -2   19.42    2.03
  -7   2   2   19.85    1.50
  -7  -2   2   18.52    1.59
   7  -2  -2   19.59    2.04
  -7   2  -2   17.59    1.60
   7   2   2   17.72    2.04
   7  -3   2    4.87    0.38
   7   3  -2    4.33    0.49
  -7  -3  -2    5.13    0.31
  -7   3   2    4.16    0.37
  -7   3   2    5.14    0.40
   7  -3   2    3.79    0.50
   7   3  -2    4.18    0.30
   7  -3   2    4.95    0.42
   7   3   2    4.36    0.50
  -7  -3   2    4.59    0.40
  -7   3  -2    4.32    0.37
   7  -3  -2    4.75    0.50
   7   3   2    4.48    0.30
  -7   3  -2    4.71    0.31
  -7   3  -2    4.02    0.41
  -7  -4  -2    7.11    0.47
   7   4  -2    7.53    0.48
   7  -4   2    6.98    0.58
   7  -4   2    7.01    0.64
  -7   4   2    7.28    0.63
  -7   4   2    6.99    0.59
  -7   4  -2    7.76    0.49
  -7   4  -2    6.81    0.63
  -7   4  -2    6.73    0.58
   7   4   2    7.08    0.47
   7  -4  -2    6.86    0.78
   7   4   2    7.09    0.78
  -7  -4   2    7.12    0.62
   7   5  -2    2.08    0.15
   7  -5   2    1.94    0.18
  -7   5   2    1.69    0.20
   7  -5   2    2.00    0.22
  -7   5   2    1.87    0.18
  -7  -5  -2    1.88    0.15
  -7  -5   2    2.24    0.20
   7   5   2    2.09    0.24
  -7   5  -2    2.07    0.21
   7  -5  -2    1.76    0.19
   7   5   2    2.06    0.15
  -7   5  -2    2.33    0.16
  -7   5  -2    1.91    0.18
   7   6  -2    2.77    0.19
  -7   6   2    2.48    0.23
   7  -6   2    2.25    0.27
  -7  -6  -2    2.27    0.18
   7  -6   2    2.29    0.22
  -7   6   2    2.20    0.25
  -7  -6   2    2.62    0.24
  -7   6  -2    2.39    0.19
  -7   6  -2    2.75    0.23
  -7   6  -2    2.53    0.26
   7   6   2    2.72    0.29
   7   6   2    2.58    0.18
   7  -6  -2    2.02    0.22
  -7   7   2    0.70    0.13
   7  -7   2    0.81    0.10
   7  -7   2    0.70    0.13
  -7  -7  -2    0.69    0.07
   7   7  -2    0.90    0.09
   7   7   2    0.85    0.08
  -7   7  -2    0.95    0.15
   7  -7  -2    0.82    0.14
   7  -7  -2    0.72    0.10
  -7   0   3    0.52    0.07
   7   0   3    0.57    0.07
   7   0  -3    0.54    0.10
   7   0   3    0.54    0.09
  -7   0  -3    0.65    0.06
  -7   1   3    0.06    0.03
   7  -1   3    0.03    0.04
  -7  -1  -3    0.05    0.03
   7   1  -3    0.08    0.04
   7  -1   3    0.05    0.03
   7  -1   3    0.09    0.04
  -7  -1   3    0.06    0.03
  -7   1  -3    0.05    0.02
   7   1   3    0.09    0.03
   7  -1  -3    0.05    0.04
   7  -2   3    0.43    0.07
   7  -2   3    0.42    0.07
   7   2  -3    0.37    0.07
  -7  -2  -3    0.45    0.05
   7  -2   3    0.40    0.07
  -7   2   3    0.45    0.05
  -7   2   3    0.35    0.05
   7   2   3    0.40    0.05
  -7   2  -3    0.30    0.05
   7  -2  -3    0.35    0.07
   7   2   3    0.36    0.07
  -7   2  -3    0.42    0.06
  -7  -2   3    0.41    0.06
  -7  -3  -3    0.03    0.02
   7  -3   3    0.01    0.04
  -7   3   3    0.00    0.02
   7   3  -3    0.01    0.02
   7  -3   3    0.02    0.04
  -7   3   3    0.02    0.02
   7   3   3    0.01    0.02
  -7   3  -3   -0.03    0.03
   7   3   3    0.02    0.03
  -7  -3   3    0.00    0.02
  -7   3  -3    0.00    0.03
   7  -3  -3    0.00    0.04
   7  -4   3    0.13    0.05
  -7  -4  -3    0.14    0.03
   7  -4   3    0.14    0.06
  -7   4   3    0.14    0.04
  -7   4   3    0.14    0.04
   7   4  -3    0.17    0.03
  -7  -4   3    0.19    0.04
   7   4   3    0.13    0.03
   7   4   3    0.17    0.04
  -7   4  -3    0.12    0.04
   7  -4  -3    0.09    0.05
  -7   4  -3    0.17    0.06
   7   5  -3    0.02    0.03
   7  -5   3   -0.01    0.04
   7  -5   3   -0.02    0.04
  -7  -5  -3    0.06    0.03
  -7   5   3    0.04    0.03
  -7   5   3    0.01    0.03
   7  -5  -3   -0.02    0.04
  -7   5  -3    0.02    0.05
  -7  -5   3   -0.01    0.03
  -7   5  -3    0.04    0.04
   7   5   3    0.03    0.03
   7   5   3    0.04    0.04
   7   6  -3    0.08    0.03
  -7   6   3    0.08    0.05
  -7  -6  -3    0.05    0.03
   7  -6   3    0.06    0.05
   7  -6   3    0.12    0.06
  -7   6   3    0.08    0.04
  -7  -6   3    0.12    0.05
  -7   6  -3    0.08    0.06
   7  -6  -3    0.01    0.03
   7   6   3    0.05    0.03
  -7   6  -3    0.06    0.04
   7   6   3    0.07    0.05
  -7  -7  -3    0.01    0.03
  -7   7   3    0.05    0.05
   7   7  -3   -0.03    0.03
  -7   7   3    0.11    0.06
   7  -7   3    0.06    0.06
   7  -7  -3    0.07    0.06
  -7   7  -3    0.11    0.05
  -7   7  -3    0.02    0.05
   7   7   3   -0.01    0.03
  -7  -7   3    0.03    0.05
   7  -7  -3    0.03    0.04
  -7   0  -4    0.47    0.06
   7   0  -4    0.63    0.10
   7   0   4    0.53    0.08
  -7   0   4    0.51    0.07
   7   0   4    0.40    0.06
   7  -1   4    0.11    0.05
   7  -1   4    0.23    0.05
  -7   1   4    0.26    0.04
  -7   1   4    0.20    0.04
   7  -1   4    0.19    0.05
  -7  -1  -4    0.19    0.04
   7   1  -4    0.21    0.06
  -7  -1   4    0.24    0.05
   7   1   4    0.19    0.04
  -7   1  -4    0.14    0.03
   7  -1  -4    0.22    0.06
   7   1   4    0.21    0.05
  -7   1  -4    0.13    0.05
   7  -2   4    0.64    0.09
  -7  -2  -4    0.61    0.06
   7  -2   4    0.44    0.08
   7  -2   4    0.62    0.09
  -7   2   4    0.71    0.07
  -7   2   4    0.45    0.07
   7   2  -4    0.56    0.09
  -7  -2   4    0.45    0.07
   7   2   4    0.60    0.07
  -7   2  -4    0.55    0.07
   7  -2  -4    0.66    0.10
  -7   2  -4    0.60    0.07
   7   2   4    0.47    0.09
   7  -3   4    0.01    0.04
  -7   3   4   -0.01    0.02
  -7  -3  -4    0.04    0.03
   7  -3   4    0.02    0.04
   7   3  -4    0.00    0.02
  -7   3   4    0.01    0.02
  -7  -3   4    0.04    0.03
  -7   3  -4    0.02    0.04
   7  -3  -4    0.02    0.04
   7   3   4    0.01    0.03
  -7   3  -4    0.02    0.03
   7   3   4    0.04    0.03
   7   3   4    0.07    0.03
  -7  -4  -4    0.40    0.05
  -7   4   4    0.29    0.05
   7  -4   4    0.28    0.07
   7   4  -4    0.41    0.05
   7  -4   4    0.39    0.08
  -7   4   4    0.32    0.06
   7   4   4    0.33    0.05
   7  -4  -4    0.22    0.06
  -7   4  -4    0.35    0.06
  -7   4  -4    0.39    0.07
   7   4   4    0.30    0.06
  -7  -4   4    0.37    0.06
  -7   5   4    0.01    0.03
  -7  -5  -4    0.02    0.03
   7  -5   4    0.04    0.05
   7   5  -4   -0.05    0.02
  -7   5   4    0.00    0.03
   7  -5   4   -0.02    0.04
   7   5   4   -0.01    0.03
  -7   5  -4    0.03    0.05
  -7  -5   4   -0.02    0.03
   7   5   4    0.01    0.04
   7  -5  -4   -0.08    0.04
  -7   5  -4    0.03    0.03
   7  -6   4    0.11    0.06
  -7   6   4    0.08    0.04
  -7   6   4    0.05    0.05
   7  -6   4    0.13    0.06
  -7  -6  -4    0.14    0.04
   7   6  -4    0.24    0.05
  -7   6  -4    0.11    0.04
  -7  -6   4    0.21    0.06
  -7   6  -4    0.14    0.07
   7   6   4    0.14    0.06
   7   6   4    0.12    0.04
  -7   0  -5    0.98    0.10
  -7   0   5    0.75    0.10
   7   0   5    0.82    0.12
   7   0  -5    1.00    0.13
  -7   0   5    0.70    0.08
   7   0   5    0.98    0.10
   7  -1   5    8.39    0.99
   7  -1   5    9.07    0.74
   7   1  -5    9.88    0.99
  -7   1   5   10.16    0.73
  -7  -1  -5    8.89    0.60
   7  -1  -5    9.97    0.99
   7   1   5    7.83    0.99
  -7   1  -5    8.69    0.61
   7   1   5    8.79    0.73
  -7  -1   5    8.39    0.78
   7  -2   5    0.69    0.10
  -7  -2  -5    0.72    0.08
  -7   2   5    0.68    0.08
  -7   2   5    0.72    0.07
   7  -2   5    0.63    0.10
   7  -2  -5    0.74    0.12
  -7  -2   5    0.63    0.09
   7   2   5    0.70    0.08
  -7   2  -5    0.74    0.09
   7   2   5    0.58    0.10
  -7   2  -5    0.62    0.08
   7  -3   5    4.87    0.44
  -7   3   5    4.42    0.40
  -7   3   5    5.10    0.42
  -7  -3  -5    4.84    0.33
   7   3   5    4.35    0.54
  -7   3  -5    4.73    0.34
  -7  -3   5    4.82    0.43
   7  -3  -5    5.01    0.54
  -7   3  -5    4.44    0.43
   7   3   5    5.15    0.40
  -7   4   5    0.24    0.05
  -7  -4  -5    0.30    0.05
   7  -4   5    0.36    0.08
   7  -4   5    0.23    0.07
   7   4  -5    0.34    0.05
  -7   4   5    0.26    0.05
   7   4   5    0.24    0.06
  -7   4  -5    0.32    0.07
  -7  -4   5    0.37    0.06
   7  -4  -5    0.18    0.06
   7   4   5    0.34    0.05
   7   4   5    0.31    0.05
  -7   4  -5    0.33    0.06
  -7  -5  -5    1.69    0.14
  -7   5   5    1.83    0.18
  -7   5   5    1.76    0.18
   7   5  -5    2.12    0.15
   7  -5   5    2.10    0.22
   7  -5   5    1.35    0.18
   7   5   5    2.05    0.14
  -7   5  -5    1.95    0.16
   7  -5  -5    1.61    0.22
  -7   5  -5    1.94    0.20
   7   5   5    1.88    0.23
  -7  -5   5    1.93    0.19
  -7   6   5    0.12    0.05
  -7  -6  -5    0.10    0.04
  -7   6   5    0.06    0.04
   7   6  -5    0.16    0.05
   7  -6   5    0.06    0.06
   7  -6   5    0.12    0.07
  -7   6  -5    0.08    0.04
  -7   6  -5    0.12    0.07
  -7  -6   5    0.13    0.06
   7   6   5    0.17    0.05
   7   6   5    0.11    0.06
   7   0  -6   16.98    1.73
  -7   0   6   14.38    1.27
  -7   0  -6   16.20    1.05
  -7   0   6   16.48    1.35
   7   0   6   16.80    1.28
   7   0   6   13.97    1.73
   7   1  -6    0.08    0.07
  -7   1   6    0.17    0.04
   7  -1   6    0.24    0.06
  -7   1   6    0.19    0.04
  -7  -1  -6    0.22    0.06
  -7  -1   6    0.15    0.05
   7   1   6    0.22    0.06
   7   1   6    0.19    0.05
  -7   1  -6    0.19    0.06
   7  -1  -6    0.18    0.06
  -7   2   6   12.08    1.01
   7  -2   6   14.48    1.03
  -7   2   6   12.94    1.07
  -7  -2  -6   13.14    0.83
  -7   2  -6   12.14    0.84
   7   2   6   11.44    1.37
  -7  -2   6   10.97    1.07
   7   2   6   12.08    1.01
   7  -2  -6   13.23    1.37
  -7  -3  -6    0.21    0.05
   7  -3   6    0.18    0.06
  -7   3   6    0.16    0.04
  -7   3   6    0.09    0.04
   7  -3   6    0.18    0.07
  -7  -3   6    0.17    0.05
   7   3   6    0.13    0.04
  -7   3  -6    0.14    0.05
   7  -3  -6    0.10    0.05
   7   3   6    0.12    0.06
  -7  -4  -6    6.37    0.43
   7  -4   6    5.70    0.55
   7  -4   6    7.35    0.59
  -7   4   6    5.81    0.53
   7  -4  -6    6.74    0.71
   7   4   6    6.16    0.52
  -7  -4   6    6.50    0.57
  -7   4  -6    6.23    0.45
   7   4   6    6.47    0.72
  -7   5   6    0.07    0.04
   7  -5   6    0.08    0.06
  -7  -5  -6    0.09    0.04
  -7   5   6    0.04    0.03
   7   5  -6    0.10    0.04
   7  -5   6    0.08    0.06
   7   5   6    0.05    0.06
   7  -5  -6   -0.04    0.05
  -7   5  -6    0.09    0.06
   7   5   6    0.06    0.05
  -7  -5   6    0.06    0.05
   7   0   7    0.47    0.08
  -7   0   7    0.33    0.05
  -7   0  -7    0.45    0.09
  -7   0   7    0.41    0.07
   7   0  -7    0.24    0.08
   7   0   7    0.51    0.09
  -7   1   7    1.25    0.13
   7  -1   7    1.57    0.15
  -7   1   7    1.27    0.12
  -7  -1  -7    1.50    0.14
   7   1   7    1.39    0.18
   7  -1  -7    1.22    0.19
  -7  -1   7    1.08    0.14
  -7   1  -7    1.38    0.14
   7   1   7    1.43    0.14
  -7   2   7    0.30    0.05
  -7  -2  -7    0.39    0.08
   7  -2   7    0.38    0.08
  -7   2   7    0.28    0.05
  -7   2  -7    0.19    0.07
   7   2   7    0.31    0.07
   7   2   7    0.36    0.06
  -7  -2   7    0.25    0.07
   7  -2  -7    0.26    0.08
  -7  -3  -7    0.93    0.11
  -7   3   7    1.01    0.11
   7  -3   7    1.30    0.14
  -7   3   7    1.13    0.11
   7   3   7    1.09    0.16
  -7   3  -7    0.82    0.11
   7  -3  -7    0.84    0.15
   7   3   7    0.89    0.10
  -7  -3   7    0.88    0.12
   7  -4   7    0.24    0.08
  -7   4   7    0.16    0.05
  -7  -4  -7    0.16    0.06
   7   4   7    0.15    0.07
   7   4   7    0.14    0.04
   7  -4  -7    0.06    0.06
  -7   4  -7    0.20    0.06
  -7  -4   7    0.26    0.07
  -7   0  -8    0.05    0.07
   7   0   8    0.01    0.05
  -7   0   8    0.01    0.02
  -7   0   8   -0.06    0.04
  -7   1   8    0.01    0.03
   7  -1   8    0.02    0.06
  -7  -1  -8    0.06    0.07
  -7   1   8    0.04    0.03
  -7   1  -8    0.02    0.07
   7   1   8   -0.01    0.06
   7   1   8   -0.01    0.04
  -7   2   8    0.01    0.03
  -7   2   8    0.06    0.03
  -7  -2  -8   -0.04    0.07
   7  -2   8    0.04    0.06
  -7  -2   8   -0.04    0.05
  -7   2  -8    0.08    0.06
   7   2   8    0.06    0.06
   7   2   8    0.05    0.03
   7  -2  -8   -0.09    0.06
  -7   3   8    0.05    0.03
  -7  -3  -8   -0.07    0.06
   7  -3   8    0.07    0.07
   7   3   8   -0.05    0.06
  -7  -3   8   -0.05    0.06
   7   3   8   -0.01    0.03
  -7   3  -8    0.03    0.05
   7   0   9    0.10    0.06
  -7   0   9    0.09    0.05
  -7   0  -9    0.17    0.09
   7  -1   9    0.16    0.07
  -7   1   9    0.12    0.04
  -7   1   9    0.13    0.04
  -7  -1  -9    0.26    0.09
   7   1   9    0.13    0.06
  -7   1  -9    0.14    0.08
   8   0   0    3.78    0.40
  -8   0   0    3.27    0.31
  -8  -1   0    0.24    0.03
   8  -1   0    0.20    0.05
  -8   1   0    0.19    0.04
   8   1   0    0.25    0.05
  -8   2   0    3.03    0.28
   8  -2   0    3.20    0.38
  -8   2   0    3.25    0.30
   8   2   0    3.78    0.38
   8  -2   0    3.32    0.28
  -8  -2   0    3.38    0.29
  -8   3   0    0.04    0.03
   8  -3   0    0.02    0.03
   8   3   0    0.05    0.02
  -8  -3   0    0.04    0.02
  -8  -3   0    0.04    0.02
  -8   3   0    0.05    0.03
   8   3   0    0.02    0.03
   8  -3   0    0.03    0.05
  -8   4   0    1.19    0.12
   8   4   0    1.33    0.10
  -8  -4   0    1.18    0.10
   8  -4   0    1.09    0.12
   8   4   0    1.37    0.15
  -8   4   0    1.07    0.14
  -8   5   0    0.00    0.03
   8   5   0    0.01    0.02
   8  -5   0    0.08    0.04
  -8   5   0    0.00    0.04
  -8   6   0    0.25    0.08
   8  -6   0    0.15    0.05
   8  -6   0    0.25    0.08
  -8   6   0    0.27    0.06
   8   6   0    0.24    0.04
   8   7   0    0.00    0.03
  -8  -7   0    0.02    0.02
  -8   7   0    0.00    0.04
   8  -7   0    0.02    0.06
   8  -7   0   -0.03    0.04
  -8   7   0   -0.06    0.05
  -8   0  -1   35.56    3.01
   8   0   1   34.66    3.85
   8   0  -1   36.49    3.85
  -8   0   1   35.26    3.01
  -8   1   1    4.47    0.41
  -8  -1  -1    4.54    0.41
   8   1  -1    4.89    0.53
   8  -1   1    4.78    0.53
   8   1   1    5.40    0.53
   8  -1  -1    4.68    0.53
  -8   1  -1    4.36    0.41
  -8  -1   1    4.81    0.41
  -8   2   1   20.64    1.77
   8   2  -1   25.68    2.41
  -8  -2  -1   22.84    1.45
  -8  -2  -1   23.39    1.88
  -8   2   1   20.59    1.89
   8  -2   1   22.79    1.78
   8  -2   1   20.83    2.41
   8  -2  -1   21.82    1.78
  -8   2  -1   20.76    1.77
  -8   2  -1   22.15    1.89
  -8  -2   1   22.98    1.88
   8   2   1   22.15    2.41
   8  -2  -1   21.63    2.41
   8  -3   1    2.60    0.22
   8   3  -1    2.87    0.29
  -8   3   1    2.51    0.22
   8  -3   1    2.26    0.29
   8   3  -1    2.49    0.18
  -8   3   1    2.50    0.24
  -8  -3  -1    2.56    0.18
  -8   3  -1    2.67    0.25
   8  -3  -1    2.37    0.30
  -8  -3   1    2.67    0.23
   8   3   1    2.47    0.18
   8  -3  -1    2.48    0.23
  -8   3  -1    2.50    0.22
   8   3   1    2.73    0.29
   8  -4   1    8.88    0.72
  -8  -4  -1    8.94    0.58
  -8   4   1    8.23    0.76
   8   4  -1    8.04    0.95
   8   4  -1    8.75    0.58
  -8   4   1    8.50    0.71
   8   4   1    9.04    0.96
   8   4   1    8.68    0.58
   8  -4  -1    8.86    0.72
  -8  -4   1    8.50    0.75
  -8   4  -1    8.78    0.77
  -8   4  -1    8.45    0.71
  -8   4  -1    9.95    0.59
   8  -5   1    1.10    0.12
  -8   5   1    1.05    0.12
  -8   5   1    1.12    0.14
  -8  -5  -1    1.04    0.09
   8  -5   1    1.00    0.15
   8   5  -1    1.25    0.09
   8   5   1    1.29    0.14
  -8   5  -1    1.16    0.14
   8  -5  -1    1.09    0.12
  -8   5  -1    1.19    0.12
   8   5   1    1.09    0.09
  -8  -5   1    1.04    0.12
  -8  -6  -1    3.14    0.23
   8  -6   1    3.02    0.33
  -8   6   1    2.84    0.32
  -8   6   1    3.26    0.29
   8   6  -1    3.56    0.23
   8  -6   1    3.11    0.29
   8  -6  -1    2.94    0.33
   8  -6  -1    2.90    0.29
   8   6   1    3.43    0.23
  -8   6  -1    3.52    0.29
  -8   6  -1    3.39    0.33
   8  -7   1    0.39    0.10
   8  -7   1    0.38    0.08
  -8   7   1    0.40    0.10
   8   7  -1    0.47    0.06
  -8  -7  -1    0.29    0.05
   8  -7  -1    0.36    0.07
   8  -7  -1    0.36    0.10
   8   7   1    0.43    0.06
  -8   7  -1    0.49    0.11
  -8   7  -1    0.45    0.08
   8   0   2    0.13    0.04
  -8   0  -2    0.09    0.02
  -8   0   2    0.09    0.03
   8   0  -2    0.13    0.05
   8  -1   2    0.60    0.08
  -8   1   2    0.47    0.07
   8   1  -2    0.67    0.09
   8  -1   2    0.56    0.09
   8  -1  -2    0.58    0.10
  -8   1  -2    0.50    0.07
   8   1   2    0.48    0.09
  -8  -1   2    0.59    0.07
   8  -2   2    0.08    0.04
  -8  -2  -2    0.04    0.02
  -8   2   2    0.04    0.03
   8   2  -2    0.07    0.03
  -8   2   2    0.04    0.02
   8  -2   2    0.05    0.04
  -8   2  -2    0.05    0.03
  -8  -2   2    0.04    0.03
   8   2   2    0.07    0.02
   8   2   2    0.02    0.03
   8  -2  -2    0.04    0.05
   8  -3   2    0.38    0.08
  -8  -3  -2    0.34    0.04
   8  -3   2    0.31    0.05
   8   3  -2    0.30    0.06
  -8   3   2    0.25    0.05
   8   3  -2    0.31    0.03
  -8   3   2    0.25    0.05
   8  -3   2    0.20    0.06
  -8   3  -2    0.36    0.05
   8   3   2    0.30    0.06
  -8   3  -2    0.30    0.05
  -8  -3   2    0.37    0.05
   8  -3  -2    0.28    0.06
  -8   3  -2    0.32    0.07
   8   3   2    0.29    0.04
   8   4  -2    0.00    0.02
   8  -4   2    0.03    0.03
  -8   4   2   -0.01    0.03
   8  -4   2    0.00    0.04
  -8  -4  -2    0.01    0.02
  -8   4   2    0.01    0.03
   8  -4  -2   -0.02    0.05
   8  -4  -2   -0.01    0.02
  -8  -4   2   -0.04    0.02
  -8   4  -2    0.00    0.04
  -8   4  -2    0.04    0.04
   8   4   2    0.01    0.03
   8   4   2    0.00    0.02
  -8   4  -2    0.02    0.03
  -8  -5  -2    0.11    0.03
   8  -5   2    0.10    0.06
  -8   5   2    0.09    0.04
  -8   5   2    0.04    0.04
   8   5  -2    0.12    0.03
   8  -5   2    0.11    0.05
  -8   5  -2    0.12    0.05
  -8  -5   2    0.11    0.04
   8  -5  -2    0.10    0.04
  -8   5  -2    0.16    0.04
   8   5   2    0.12    0.04
  -8   5  -2    0.14    0.06
   8   5   2    0.17    0.03
  -8  -6  -2    0.00    0.02
   8  -6   2    0.01    0.05
   8  -6   2    0.02    0.04
   8   6  -2    0.02    0.03
  -8   6   2    0.03    0.04
  -8   6   2    0.02    0.05
  -8   6  -2    0.02    0.03
  -8   6  -2    0.02    0.04
   8   6   2    0.03    0.04
   8  -6  -2    0.02    0.04
  -8   6  -2    0.08    0.06
  -8  -6   2   -0.06    0.03
   8   6   2    0.00    0.03
   8  -7   2    0.07    0.06
   8  -7   2    0.02    0.05
  -8  -7  -2    0.05    0.03
  -8   7   2    0.09    0.06
  -8   7   2    0.01    0.05
   8   7  -2    0.01    0.03
   8   7   2   -0.02    0.03
  -8   7  -2    0.11    0.05
   8  -7  -2    0.00    0.04
   8  -7  -2    0.06    0.06
  -8   7  -2    0.01    0.05
   8   0   3    3.31    0.39
  -8   0   3    3.40    0.30
   8   0  -3    3.84    0.39
  -8   0  -3    3.02    0.23
  -8  -1  -3    0.92    0.08
   8   1  -3    0.90    0.13
   8  -1   3    0.87    0.12
  -8   1   3    0.72    0.09
  -8   1   3    1.10    0.09
   8  -1   3    0.65    0.10
   8  -1   3    0.91    0.11
  -8  -1   3    0.93    0.10
   8  -1  -3    0.96    0.13
  -8   1  -3    0.82    0.08
   8   1   3    0.71    0.12
   8   1   3    0.84    0.09
  -8   1  -3    1.06    0.10
   8  -2   3    1.73    0.18
   8  -2   3    1.73    0.19
  -8   2   3    2.02    0.17
  -8  -2  -3    1.90    0.14
   8  -2   3    2.08    0.23
   8   2  -3    1.89    0.22
  -8   2   3    1.78    0.18
  -8   2  -3    1.67    0.15
  -8  -2   3    1.95    0.18
   8   2   3    1.69    0.22
   8   2   3    1.89    0.14
   8  -2  -3    2.10    0.23
  -8   2  -3    2.00    0.18
  -8   3   3    0.15    0.04
  -8  -3  -3    0.17    0.03
   8  -3   3    0.17    0.05
   8   3  -3    0.15    0.03
   8   3  -3    0.12    0.03
   8  -3   3    0.34    0.07
  -8   3   3    0.16    0.04
   8   3   3    0.20    0.03
  -8   3  -3    0.23    0.05
   8   3   3    0.13    0.05
  -8  -3   3    0.14    0.04
   8  -3  -3    0.15    0.05
  -8   3  -3    0.09    0.04
  -8   4   3    0.71    0.08
   8   4  -3    0.80    0.07
  -8   4   3    0.69    0.09
   8  -4   3    0.70    0.09
   8  -4   3    0.72    0.12
  -8  -4  -3    0.65    0.07
  -8  -4   3    0.58    0.08
  -8   4  -3    0.64    0.07
  -8   4  -3    0.74    0.10
   8   4   3    0.63    0.06
   8   4   3    0.65    0.10
   8  -5   3    0.10    0.06
  -8   5   3    0.06    0.04
   8   5  -3    0.10    0.03
  -8   5   3    0.08    0.04
   8  -5   3    0.09    0.05
  -8  -5  -3    0.08    0.03
  -8   5  -3    0.03    0.03
   8   5   3    0.09    0.03
  -8  -5   3    0.08    0.04
   8   5   3    0.07    0.05
  -8   5  -3    0.08    0.06
  -8  -6  -3    0.24    0.04
   8   6  -3    0.33    0.05
   8  -6   3    0.29    0.09
  -8   6   3    0.26    0.06
   8  -6   3    0.20    0.06
  -8   6   3    0.28    0.07
   8   6   3    0.22    0.06
  -8   6  -3    0.22    0.05
  -8  -6   3    0.27    0.06
  -8   6  -3    0.35    0.09
   8  -6  -3    0.20    0.06
   8   6   3    0.34    0.05
   8   0   4    0.23    0.05
   8   0  -4    0.20    0.07
  -8   0  -4    0.24    0.05
   8   0   4    0.21    0.05
  -8   0   4    0.25    0.05
   8  -1   4    1.07    0.12
   8  -1   4    1.04    0.14
  -8   1   4    1.41    0.11
   8  -1   4    0.74    0.12
  -8   1   4    1.11    0.12
  -8  -1  -4    1.10    0.10
   8   1  -4    1.24    0.16
   8   1   4    1.08    0.11
   8   1   4    0.97    0.14
  -8  -1   4    1.10    0.12
  -8   1  -4    1.03    0.10
   8  -1  -4    1.23    0.16
  -8  -2  -4    0.25    0.04
   8  -2   4    0.26    0.06
   8  -2   4    0.19    0.06
  -8   2   4    0.25    0.04
   8   2  -4    0.26    0.05
  -8   2   4    0.27    0.05
   8  -2   4    0.25    0.05
  -8   2  -4    0.24    0.05
  -8  -2   4    0.27    0.05
   8   2   4    0.31    0.06
   8   2   4    0.30    0.04
  -8   2  -4    0.21    0.05
   8  -2  -4    0.23    0.06
   8  -3   4    0.53    0.10
  -8   3   4    0.70    0.08
  -8   3   4    0.61    0.08
   8   3  -4    0.69    0.06
  -8  -3  -4    0.76    0.07
   8  -3   4    0.76    0.11
   8   3   4    0.65    0.07
   8  -3  -4    0.73    0.12
  -8   3  -4    0.68    0.08
  -8  -3   4    0.70    0.08
   8   3   4    0.69    0.10
   8   3   4    0.74    0.08
  -8   3  -4    0.66    0.09
  -8   4   4    0.11    0.04
   8   4  -4    0.17    0.03
   8  -4   4    0.07    0.05
  -8   4   4    0.08    0.03
   8  -4   4    0.12    0.06
  -8  -4  -4    0.15    0.04
  -8  -4   4    0.13    0.04
  -8   4  -4    0.19    0.05
   8   4   4    0.13    0.04
   8   4   4    0.13    0.05
  -8   4  -4    0.07    0.04
   8  -4  -4    0.03    0.05
  -8  -5  -4    0.28    0.05
   8  -5   4    0.41    0.09
   8   5  -4    0.40    0.06
  -8   5   4    0.37    0.07
   8  -5   4    0.31    0.07
  -8   5   4    0.36    0.07
   8   5   4    0.38    0.05
   8   5   4    0.35    0.07
  -8   5  -4    0.39    0.08
  -8   5  -4    0.36    0.06
  -8  -5   4    0.43    0.07
   8  -6   4    0.00    0.05
   8  -6   4   -0.02    0.05
  -8  -6  -4    0.03    0.03
   8   6  -4   -0.01    0.03
  -8   6   4    0.04    0.04
  -8   6   4    0.02    0.03
   8   6   4    0.05    0.04
  -8   6  -4    0.03    0.04
  -8  -6   4    0.01    0.04
  -8   6  -4    0.08    0.07
   8   6   4    0.05    0.05
  -8   0  -5    5.12    0.38
  -8   0   5    4.73    0.48
  -8   0   5    6.23    0.45
   8   0  -5    6.07    0.61
   8   0   5    5.77    0.46
   8   0   5    4.74    0.61
   8  -1   5    0.04    0.04
   8   1  -5    0.04    0.06
  -8  -1  -5    0.05    0.05
  -8   1   5    0.07    0.03
  -8   1   5    0.07    0.03
   8  -1   5    0.11    0.04
  -8   1  -5   -0.01    0.05
   8  -1  -5    0.04    0.06
   8   1   5    0.07    0.04
  -8  -1   5    0.07    0.04
   8   1   5    0.06    0.03
   8  -2   5    3.64    0.37
  -8   2   5    4.09    0.37
  -8  -2  -5    4.47    0.30
  -8   2   5    3.97    0.35
   8  -2   5    4.62    0.39
  -8   2  -5    4.11    0.30
   8   2   5    3.84    0.48
   8  -2  -5    4.74    0.48
   8   2   5    4.45    0.35
  -8  -2   5    4.17    0.38
   8  -3   5    0.00    0.05
   8  -3   5    0.02    0.04
  -8   3   5    0.07    0.03
  -8   3   5    0.01    0.03
  -8  -3  -5   -0.01    0.03
  -8  -3   5    0.03    0.03
  -8   3  -5    0.00    0.04
   8   3   5    0.00    0.02
   8  -3  -5   -0.05    0.05
  -8   3  -5    0.00    0.03
   8   3   5    0.06    0.05
   8  -4   5    2.05    0.25
   8  -4   5    2.92    0.28
  -8  -4  -5    2.58    0.19
   8   4  -5    2.82    0.20
  -8   4   5    2.40    0.24
  -8   4  -5    2.58    0.26
  -8  -4   5    2.76    0.25
   8   4   5    2.76    0.32
   8   4   5    2.78    0.19
   8  -4  -5    2.73    0.31
  -8   4  -5    2.61    0.21
  -8   5   5    0.08    0.04
   8  -5   5   -0.01    0.05
   8  -5   5   -0.03    0.05
  -8   5   5    0.01    0.04
   8   5  -5    0.03    0.03
  -8  -5  -5    0.02    0.03
  -8  -5   5    0.00    0.04
  -8   5  -5    0.00    0.04
   8   5   5    0.03    0.04
  -8   5  -5    0.03    0.05
   8   5   5    0.03    0.05
   8   6  -5    1.96    0.14
  -8   6   5    1.23    0.16
  -8   6   5    1.44    0.16
   8   6   5    1.60    0.13
  -8   6  -5    1.72    0.19
  -8   0   6    1.66    0.16
   8   0   6    1.86    0.23
  -8   0   6    1.74    0.18
   8   0  -6    1.97    0.24
  -8   0  -6    2.14    0.16
   8   0   6    2.24    0.19
  -8  -1  -6    5.28    0.34
   8   1  -6    4.93    0.54
  -8   1   6    4.79    0.40
  -8   1  -6    4.91    0.34
   8   1   6    4.77    0.40
   8  -1  -6    5.16    0.54
  -8  -1   6    4.20    0.42
   8   1   6    4.16    0.54
  -8  -2  -6    1.46    0.13
   8  -2   6    1.58    0.16
  -8   2   6    1.41    0.13
  -8   2   6    1.55    0.14
   8  -2  -6    1.25    0.19
  -8   2  -6    1.33    0.13
   8   2   6    1.34    0.14
   8   2   6    1.41    0.19
  -8  -2   6    1.21    0.15
   8  -3   6    3.49    0.32
  -8   3   6    3.42    0.30
  -8   3   6    2.95    0.29
  -8  -3  -6    3.60    0.24
   8  -3  -6    3.51    0.39
  -8   3  -6    3.33    0.25
   8   3   6    3.22    0.28
  -8  -3   6    3.06    0.31
   8   3   6    3.55    0.40
  -8  -4  -6    0.72    0.08
  -8   4   6    0.74    0.08
   8  -4   6    0.92    0.13
   8  -4   6    0.66    0.12
  -8   4   6    0.65    0.09
   8   4   6    0.81    0.12
  -8  -4   6    0.75    0.10
  -8   4  -6    0.60    0.09
   8   4   6    0.67    0.08
   8  -4  -6    0.47    0.10
   8  -5   6    1.45    0.19
  -8  -5  -6    1.70    0.14
   8  -5   6    2.14    0.22
  -8   5   6    1.84    0.18
   8   5   6    1.93    0.24
  -8   5  -6    1.82    0.16
  -8  -5   6    2.12    0.20
   8  -5  -6    1.45    0.22
   8   0   7    0.89    0.10
   8   0   7    0.70    0.12
   8   0  -7    0.54    0.12
  -8   0   7    0.75    0.09
  -8   0  -7    0.77    0.10
  -8  -1  -7    0.44    0.08
   8  -1   7    0.43    0.08
  -8   1   7    0.37    0.05
  -8   1   7    0.34    0.06
  -8  -1   7    0.23    0.06
   8   1   7    0.39    0.08
   8  -1  -7    0.14    0.08
   8   1   7    0.32    0.06
  -8   1  -7    0.38    0.08
  -8  -2  -7    0.56    0.09
  -8   2   7    0.75    0.08
  -8   2   7    0.49    0.07
   8  -2   7    0.76    0.11
  -8  -2   7    0.52    0.09
  -8   2  -7    0.56    0.09
   8   2   7    0.65    0.12
   8  -2  -7    0.39    0.10
   8   2   7    0.71    0.08
   8  -3   7    0.22    0.08
  -8   3   7    0.11    0.04
  -8   3   7    0.21    0.04
  -8  -3  -7    0.13    0.06
   8   3   7    0.23    0.08
  -8   3  -7    0.10    0.06
   8   3   7    0.19    0.04
  -8  -3   7    0.17    0.06
   8  -3  -7    0.14    0.07
  -8   4   7    0.25    0.06
  -8   4   7    0.30    0.05
  -8  -4  -7    0.31    0.06
   8  -4   7    0.41    0.09
   8   4   7    0.31    0.05
  -8  -4   7    0.43    0.08
   8   4   7    0.39    0.09
   8  -4  -7    0.15    0.07
  -8   4  -7    0.32    0.07
  -8   0  -8    0.29    0.09
   8   0   8    0.24    0.08
  -8   0   8    0.15    0.05
  -8   1   8   -0.03    0.03
   8  -1   8    0.01    0.06
  -8  -1  -8    0.05    0.07
  -8   1   8    0.02    0.03
   8   1   8    0.04    0.06
   8   1   8   -0.07    0.03
  -8   1  -8   -0.03    0.07
   8  -2   8    0.28    0.08
  -8  -2  -8    0.30    0.08
  -8   2   8    0.27    0.05
  -8   2   8    0.16    0.04
   8   2   8    0.22    0.05
  -8  -2   8    0.07    0.06
   8   2   8    0.26    0.08
   8  -2  -8    0.05    0.08
  -8   2  -8    0.31    0.08
   8  -3   8    0.02    0.07
  -8  -3  -8    0.01    0.06
  -8   3   8    0.00    0.03
  -8   3   8    0.01    0.02
  -8  -3   8   -0.07    0.06
   8   3   8    0.00    0.03
  -8   3  -8    0.00    0.05
   9   0   0   -0.02    0.04
  -9   0   0    0.03    0.02
  -9  -1   0    0.03    0.02
  -9   1   0   -0.03    0.02
   9   1   0   -0.01    0.04
   9  -1   0   -0.06    0.04
   9  -2   0    0.03    0.03
  -9   2   0   -0.01    0.02
   9   2   0    0.00    0.03
  -9   2   0    0.02    0.02
   9  -2   0   -0.06    0.05
  -9  -2   0    0.02    0.02
  -9  -2   0    0.05    0.02
   9   3   0   -0.01    0.01
   9  -3   0    0.01    0.03
   9  -3   0   -0.08    0.05
  -9   3   0   -0.02    0.03
  -9   3   0    0.02    0.03
  -9  -3   0    0.00    0.02
  -9  -3   0   -0.01    0.02
   9  -4   0    0.00    0.03
  -9  -4   0   -0.01    0.02
   9   4   0   -0.01    0.02
   9  -4   0   -0.02    0.05
  -9   4   0    0.03    0.04
  -9   4   0   -0.01    0.03
   9   4   0    0.00    0.02
  -9  -5   0   -0.01    0.02
  -9   5   0    0.02    0.04
   9   5   0   -0.01    0.02
  -9   5   0    0.03    0.04
   9  -5   0   -0.02    0.03
  -9  -6   0    0.00    0.02
   9  -6   0   -0.01    0.05
   9   6   0   -0.03    0.02
  -9   6   0    0.00    0.04
   9  -6   0    0.01    0.04
  -9   6   0    0.03    0.05
   9   7   0   -0.03    0.03
  -9   7   0   -0.02    0.05
   9   0  -1    4.58    0.48
   9   0   1    3.71    0.48
  -9   0   1    4.50    0.38
  -9   0  -1    4.38    0.38
   9   1  -1    0.19    0.05
   9  -1   1    0.29    0.05
   9  -1   1    0.15    0.05
  -9  -1  -1    0.22    0.03
  -9   1   1    0.24    0.04
   9   1   1    0.20    0.05
  -9  -1   1    0.22    0.04
  -9   1  -1    0.16    0.04
  -9   1  -1    0.26    0.04
   9  -1  -1    0.14    0.06
  -9   2   1    2.74    0.23
   9   2  -1    3.04    0.31
  -9  -2  -1    2.83    0.19
   9  -2   1    2.85    0.24
   9  -2   1    2.36    0.31
  -9   2   1    2.71    0.25
  -9  -2   1    3.07    0.25
   9  -2  -1    2.33    0.32
   9  -2  -1    2.65    0.24
   9   2   1    2.51    0.31
   9   2   1    2.79    0.19
  -9   2  -1    2.75    0.23
  -9   2  -1    2.90    0.26
  -9   3   1    0.01    0.03
  -9  -3  -1    0.07    0.02
   9  -3   1    0.04    0.05
   9   3  -1    0.06    0.02
   9   3  -1   -0.02    0.03
   9  -3   1    0.05    0.03
  -9   3   1    0.07    0.03
   9  -3  -1    0.05    0.03
   9   3   1    0.04    0.02
  -9   3  -1    0.05    0.03
  -9   3  -1    0.04    0.04
  -9   3  -1    0.05    0.03
   9  -3  -1    0.05    0.05
   9   3   1    0.01    0.03
  -9  -3   1    0.05    0.02
  -9  -3   1    0.04    0.03
  -9   4   1    1.13    0.11
  -9   4   1    1.01    0.13
   9   4  -1    1.16    0.14
   9   4  -1    1.13    0.09
   9  -4   1    1.09    0.12
  -9  -4  -1    1.11    0.09
   9   4   1    1.17    0.14
  -9   4  -1    1.16    0.14
  -9   4  -1    1.05    0.11
   9  -4  -1    1.05    0.12
  -9  -4   1    0.97    0.11
   9   4   1    1.11    0.09
  -9   4  -1    1.34    0.10
  -9  -5  -1    0.05    0.02
  -9   5   1    0.04    0.04
   9  -5   1    0.00    0.03
   9  -5   1    0.07    0.05
  -9   5   1    0.02    0.04
   9   5  -1    0.04    0.02
   9   5   1    0.04    0.02
   9   5   1    0.01    0.03
  -9   5  -1    0.03    0.04
  -9   5  -1    0.11    0.06
  -9   5  -1    0.06    0.03
   9  -5  -1    0.00    0.03
  -9  -6  -1    0.39    0.05
  -9   6   1    0.49    0.08
   9   6  -1    0.38    0.05
   9  -6   1    0.43    0.08
  -9   6   1    0.36    0.09
   9  -6   1    0.50    0.11
   9  -6  -1    0.35    0.07
   9   6   1    0.41    0.05
  -9   6  -1    0.58    0.08
   9  -6  -1    0.39    0.10
  -9   6  -1    0.51    0.10
  -9   0  -2    3.00    0.26
  -9   0   2    2.97    0.26
   9   0  -2    3.07    0.33
  -9   0  -2    2.55    0.20
   9   0   2    2.77    0.33
  -9   1   2    0.24    0.04
   9  -1   2    0.27    0.05
  -9  -1  -2    0.26    0.04
  -9   1   2    0.24    0.04
   9  -1   2    0.19    0.06
   9   1  -2    0.23    0.06
   9  -1  -2    0.18    0.04
  -9  -1   2    0.35    0.05
   9  -1  -2    0.26    0.06
   9   1   2    0.27    0.06
  -9   1  -2    0.21    0.04
   9   2  -2    1.82    0.20
   9  -2   2    1.64    0.21
  -9   2   2    1.71    0.15
   9  -2   2    1.96    0.16
  -9  -2  -2    1.79    0.12
  -9   2   2    1.53    0.16
  -9   2  -2    1.44    0.13
   9  -2  -2    1.70    0.21
  -9   2  -2    1.66    0.17
   9   2   2    1.39    0.20
   9   2   2    1.70    0.12
  -9  -2   2    1.79    0.16
   9  -2  -2    1.70    0.16
  -9   3   2    0.11    0.04
  -9  -3  -2    0.17    0.03
   9  -3   2    0.12    0.04
   9  -3   2    0.15    0.05
  -9   3   2    0.11    0.03
   9   3  -2    0.10    0.04
   9   3  -2    0.13    0.02
  -9   3  -2    0.15    0.05
   9  -3  -2    0.08    0.06
  -9   3  -2    0.09    0.04
  -9  -3   2    0.17    0.04
   9   3   2    0.12    0.04
   9  -3  -2    0.12    0.04
   9   3   2    0.15    0.03
   9  -4   2    0.77    0.13
  -9  -4  -2    0.69    0.06
  -9   4   2    0.68    0.08
   9   4  -2    0.75    0.06
  -9   4   2    0.64    0.09
   9  -4   2    0.77    0.09
   9  -4  -2    0.48    0.10
  -9   4  -2    0.74    0.11
   9   4   2    0.71    0.06
  -9   4  -2    0.74    0.07
   9   4   2    0.67    0.10
  -9   4  -2    0.64    0.08
  -9  -4   2    0.66    0.08
   9  -4  -2    0.75    0.09
  -9   5   2    0.08    0.04
   9  -5   2    0.15    0.07
  -9   5   2    0.07    0.04
   9   5  -2    0.06    0.03
   9  -5   2    0.12    0.05
  -9  -5  -2    0.12    0.03
   9   5   2    0.09    0.04
   9  -5  -2    0.09    0.04
  -9   5  -2    0.08    0.05
  -9   5  -2    0.11    0.06
  -9  -5   2    0.11    0.04
  -9   5  -2    0.12    0.04
   9   5   2    0.13    0.03
  -9  -6  -2    0.25    0.04
   9  -6   2    0.31    0.07
  -9   6   2    0.31    0.06
   9  -6   2    0.32    0.09
  -9   6   2    0.28    0.07
   9   6  -2    0.30    0.05
   9   6   2    0.24    0.06
   9   6   2    0.27    0.05
   9  -6  -2    0.26    0.06
  -9   6  -2    0.25    0.05
  -9   6  -2    0.30    0.07
  -9   6  -2    0.36    0.09
  -9   0  -3    2.18    0.17
   9   0   3    2.18    0.28
  -9   0   3    2.45    0.22
   9   0  -3    2.64    0.28
   9  -1   3    3.63    0.45
  -9   1   3    4.04    0.35
   9  -1   3    3.33    0.34
  -9  -1  -3    4.09    0.27
   9  -1   3    4.14    0.36
   9   1  -3    4.50    0.45
  -9   1   3    4.50    0.33
   9   1   3    3.35    0.45
  -9   1  -3    4.03    0.35
  -9   1  -3    3.70    0.27
   9  -1  -3    4.36    0.45
   9   1   3    3.65    0.33
  -9  -1   3    4.31    0.36
   9  -2   3    1.70    0.18
   9   2  -3    1.93    0.21
  -9  -2  -3    1.77    0.13
   9  -2   3    1.90    0.19
  -9   2   3    1.90    0.17
   9  -2   3    1.90    0.22
  -9   2   3    1.75    0.17
   9   2   3    1.65    0.22
   9  -2  -3    1.88    0.23
  -9   2  -3    1.84    0.14
  -9   2  -3    1.75    0.18
  -9  -2   3    1.83    0.18
   9   2   3    1.80    0.13
   9   2   3    1.89    0.16
   9   3  -3    2.38    0.16
   9  -3   3    2.59    0.25
  -9  -3  -3    2.48    0.17
  -9   3   3    2.28    0.21
   9   3  -3    2.24    0.27
  -9   3   3    2.19    0.22
   9  -3   3    2.66    0.22
  -9   3  -3    2.26    0.23
  -9   3  -3    2.33    0.18
   9  -3  -3    2.36    0.28
  -9  -3   3    2.51    0.22
   9   3   3    2.34    0.17
   9   3   3    2.18    0.28
  -9  -4  -3    0.93    0.08
  -9   4   3    1.03    0.11
  -9   4   3    0.97    0.11
   9  -4   3    1.10    0.12
   9   4  -3    1.11    0.08
   9  -4   3    1.09    0.15
  -9   4  -3    0.97    0.09
   9  -4  -3    0.72    0.14
  -9   4  -3    1.01    0.13
  -9  -4   3    1.04    0.11
   9   4   3    0.92    0.13
   9   4   3    1.00    0.08
  -9   5   3    0.96    0.13
   9   5  -3    1.31    0.10
   9  -5   3    1.16    0.16
   9  -5   3    1.27    0.13
  -9  -5  -3    1.14    0.10
  -9   5   3    1.06    0.12
  -9  -5   3    1.18    0.13
  -9   5  -3    1.18    0.15
   9   5   3    1.20    0.10
   9  -5  -3    1.00    0.12
  -9   5  -3    1.14    0.11
   9   5   3    1.00    0.15
   9  -6   3    0.61    0.12
   9   6  -3    0.61    0.07
  -9   6   3    0.50    0.09
  -9   6   3    0.47    0.08
  -9  -6  -3    0.41    0.06
   9  -6   3    0.47    0.09
   9   6   3    0.65    0.07
  -9  -6   3    0.55    0.09
   9  -6  -3    0.50    0.08
   9   6   3    0.47    0.09
  -9   6  -3    0.58    0.11
   9   0   4    0.70    0.11
  -9   0  -4    0.77    0.08
  -9   0   4    0.72    0.09
   9   0   4    0.68    0.09
   9   0  -4    0.76    0.13
   9  -1   4    0.23    0.06
  -9   1   4    0.22    0.04
   9  -1   4    0.20    0.06
   9   1  -4    0.30    0.07
  -9   1   4    0.24    0.05
  -9  -1  -4    0.28    0.05
  -9  -1   4    0.29    0.05
   9   1   4    0.27    0.05
   9  -1  -4    0.28    0.07
  -9   1  -4    0.28    0.05
   9   1   4    0.21    0.06
  -9   2   4    0.39    0.06
  -9   2   4    0.43    0.06
   9  -2   4    0.50    0.08
   9  -2   4    0.35    0.08
   9   2  -4    0.51    0.08
   9  -2   4    0.55    0.09
  -9  -2  -4    0.44    0.05
   9   2   4    0.45    0.06
  -9   2  -4    0.34    0.06
   9   2   4    0.41    0.08
   9  -2  -4    0.30    0.08
  -9   2  -4    0.44    0.06
  -9  -2   4    0.45    0.07
   9  -3   4    0.19    0.06
  -9   3   4    0.16    0.04
  -9   3   4    0.20    0.04
   9  -3   4    0.11    0.06
  -9  -3  -4    0.18    0.04
  -9  -3   4    0.17    0.05
  -9   3  -4    0.15    0.05
  -9   3  -4    0.09    0.04
   9   3   4    0.20    0.06
   9   3   4    0.16    0.04
   9  -3  -4    0.11    0.06
   9  -4   4    0.09    0.05
  -9   4   4    0.07    0.03
  -9   4   4    0.13    0.04
  -9  -4  -4    0.10    0.03
   9   4  -4    0.13    0.03
   9  -4   4    0.23    0.07
   9   4   4    0.22    0.04
  -9  -4   4    0.15    0.04
  -9   4  -4    0.13    0.05
   9  -4  -4   -0.01    0.06
   9   4   4    0.15    0.05
  -9   4  -4    0.12    0.04
   9   5  -4    0.15    0.04
  -9   5   4    0.09    0.04
   9  -5   4    0.08    0.05
   9  -5   4    0.13    0.07
  -9  -5  -4    0.08    0.03
  -9   5   4    0.09    0.04
   9   5   4    0.15    0.04
  -9   5  -4    0.22    0.06
  -9   5  -4    0.10    0.04
  -9  -5   4    0.12    0.05
   9   5   4    0.15    0.05
   9   6  -4    0.10    0.04
   9  -6   4    0.08    0.06
  -9  -6  -4    0.04    0.03
  -9   6   4    0.05    0.04
   9  -6   4    0.04    0.06
  -9   6   4    0.03    0.04
  -9   6  -4    0.04    0.04
  -9  -6   4    0.05    0.05
  -9   6  -4    0.08    0.07
   9   6   4   -0.01    0.05
   9   6   4    0.01    0.04
  -9   0   5    0.26    0.05
   9   0   5    0.31    0.06
   9   0  -5    0.27    0.08
  -9   0  -5    0.32    0.06
   9   0   5    0.31    0.06
  -9   1   5    0.14    0.03
   9  -1   5    0.16    0.05
  -9   1   5    0.09    0.03
   9  -1   5    0.15    0.06
   9   1  -5    0.07    0.07
  -9  -1  -5    0.08    0.05
   9  -1  -5    0.02    0.06
   9   1   5    0.12    0.04
  -9  -1   5    0.06    0.04
  -9   1  -5    0.18    0.06
   9   1   5    0.07    0.05
   9  -2   5    0.15    0.07
  -9   2   5    0.19    0.04
  -9   2   5    0.24    0.04
  -9  -2  -5    0.22    0.05
   9   2   5    0.25    0.07
  -9  -2   5    0.23    0.05
  -9   2  -5    0.20    0.06
   9  -2  -5    0.09    0.07
   9   2   5    0.26    0.05
  -9  -3  -5    0.04    0.04
  -9   3   5    0.02    0.02
  -9   3   5    0.04    0.03
   9  -3   5    0.03    0.06
   9  -3   5    0.00    0.04
  -9  -3   5    0.04    0.04
   9  -3  -5   -0.02    0.05
  -9   3  -5    0.03    0.04
   9   3   5    0.08    0.03
   9   3   5    0.09    0.05
  -9   4   5    0.08    0.03
   9  -4   5    0.06    0.06
  -9  -4  -5    0.10    0.04
  -9   4   5    0.07    0.04
   9  -4   5    0.12    0.06
  -9  -4   5    0.11    0.04
   9   4   5    0.12    0.04
  -9   4  -5    0.09    0.04
  -9   4  -5    0.13    0.05
   9   4   5    0.17    0.06
   9  -4  -5    0.01    0.06
   9  -5   5    0.00    0.05
  -9   5   5    0.00    0.03
  -9  -5  -5   -0.01    0.03
   9  -5   5    0.00    0.05
   9   5  -5    0.01    0.03
  -9   5   5    0.01    0.04
  -9   5  -5    0.02    0.04
  -9   5  -5    0.02    0.05
  -9  -5   5   -0.01    0.04
   9   5   5    0.01    0.04
   9  -5  -5   -0.10    0.05
   9   5   5   -0.02    0.04
  -9   0   6    2.10    0.22
  -9   0  -6    2.39    0.19
   9   0  -6    2.32    0.29
   9   0   6    2.88    0.22
   9   0   6    2.14    0.28
   9  -1   6    0.06    0.06
   9   1  -6   -0.10    0.07
  -9  -1  -6    0.05    0.06
  -9   1   6    0.08    0.03
  -9   1   6    0.05    0.03
   9   1   6    0.09    0.05
   9   1   6    0.09    0.04
  -9  -1   6    0.04    0.04
  -9   1  -6    0.06    0.06
   9  -1  -6   -0.11    0.06
  -9   2   6    1.57    0.16
   9  -2   6    2.05    0.19
  -9  -2  -6    1.81    0.15
  -9   2   6    1.80    0.16
   9   2   6    1.76    0.16
  -9  -2   6    1.37    0.17
   9   2   6    1.67    0.22
  -9   2  -6    1.84    0.15
   9  -2  -6    1.69    0.23
  -9  -3  -6    0.03    0.05
  -9   3   6    0.09    0.03
  -9   3   6    0.07    0.04
   9  -3   6    0.03    0.06
  -9  -3   6    0.06    0.04
   9  -3  -6   -0.10    0.06
  -9   3  -6    0.07    0.05
   9   3   6    0.07    0.03
   9   3   6    0.13    0.06
  -9   4   6    0.90    0.10
  -9   4   6    0.73    0.10
   9  -4   6    0.99    0.14
   9  -4   6    0.82    0.14
  -9  -4  -6    0.90    0.09
  -9  -4   6    0.92    0.12
  -9   4  -6    0.91    0.10
   9   4   6    1.07    0.15
  -9   5   6    0.05    0.03
   9  -5   6   -0.03    0.06
   9  -5   6    0.07    0.06
  -9   5   6    0.02    0.04
  -9  -5  -6    0.00    0.04
  -9   5  -6    0.07    0.04
  -9  -5   6    0.04    0.05
  -9   0  -7    0.03    0.06
  -9   0   7    0.00    0.03
   9   0   7    0.02    0.05
   9   0   7   -0.05    0.05
  -9  -1  -7    0.08    0.07
   9  -1   7    0.11    0.06
  -9   1   7    0.07    0.03
  -9   1   7    0.06    0.03
  -9  -1   7    0.03    0.04
  -9   1  -7    0.03    0.06
   9   1   7    0.07    0.06
   9  -1  -7   -0.06    0.07
   9   1   7    0.07    0.04
   9  -2   7    0.06    0.07
  -9  -2  -7   -0.01    0.06
  -9   2   7   -0.02    0.02
  -9   2   7    0.03    0.03
   9   2   7   -0.01    0.03
  -9  -2   7   -0.03    0.05
  -9   2  -7    0.00    0.06
   9   2   7    0.01    0.05
  -9  -3  -7    0.07    0.06
  -9   3   7    0.03    0.03
  -9   3   7    0.08    0.03
   9  -3   7    0.07    0.07
   9   3   7    0.03    0.03
   9  -3  -7   -0.11    0.06
  -9  -3   7    0.02    0.05
  -9   3  -7    0.06    0.05
   9   3   7    0.05    0.06
   9  -4   7    0.11    0.08
  -9   4   7    0.09    0.04
  -9  -4  -7    0.01    0.05
  -9   4   7    0.07    0.03
  -9   4  -7    0.06    0.05
  -9  -4   7    0.02    0.06
   9   4   7    0.02    0.03
  -9   0   8    0.52    0.08
  -9   0  -8    0.89    0.12
   9   0   8    0.84    0.12
  -9   1   8    1.18    0.12
   9  -1   8    1.43    0.16
  -9  -1  -8    1.19    0.14
  -9   1   8    0.99    0.11
   9   1   8    1.28    0.13
  -9   1  -8    1.26    0.14
  -9  -1   8    0.84    0.13
   9   1   8    1.44    0.18
   9  -1  -8    0.88    0.17
   9  -2   8    0.83    0.13
  -9  -2  -8    0.64    0.10
  -9   2   8    0.68    0.07
  -9   2   8    0.50    0.07
  -9  -2   8    0.33    0.09
   9   2   8    0.58    0.11
   9  -2  -8    0.41    0.11
  -9   2  -8    0.68    0.11
   9   2   8    0.58    0.08
  10   0   0    0.12    0.05
 -10   0   0    0.14    0.03
 -10   1   0    0.32    0.05
 -10  -1   0    0.28    0.04
  10  -1   0    0.22    0.06
  10  -1   0    0.39    0.05
  10   1   0    0.26    0.07
 -10   1   0    0.35    0.05
  10  -2   0    0.02    0.05
 -10  -2   0    0.04    0.03
 -10   2   0    0.01    0.03
  10   2   0    0.04    0.04
 -10   2   0    0.02    0.03
 -10  -2   0    0.02    0.02
  10   2   0    0.03    0.02
  10  -2   0    0.01    0.03
  10  -3   0    0.13    0.04
 -10  -3   0    0.10    0.02
 -10   3   0    0.06    0.04
  10   3   0    0.06    0.03
  10  -3   0    0.09    0.06
 -10   3   0    0.08    0.03
  10   3   0    0.10    0.02
 -10   4   0   -0.02    0.03
  10   4   0    0.03    0.03
  10  -4   0    0.01    0.05
 -10   4   0   -0.01    0.03
  10   4   0    0.00    0.02
 -10  -4   0    0.01    0.02
  10  -4   0    0.00    0.03
  10  -5   0    0.06    0.04
 -10   5   0    0.09    0.04
 -10  -5   0    0.09    0.03
  10   5   0    0.05    0.02
 -10   5   0    0.02    0.04
  10  -6   0   -0.01    0.04
 -10   6   0   -0.04    0.04
  10   6   0    0.01    0.03
 -10   6   0   -0.04    0.04
  10  -6   0    0.00    0.05
 -10  -6   0    0.02    0.02
 -10   0  -1    2.04    0.17
  10   0  -1    1.78    0.22
 -10   0   1    1.82    0.17
  10   0   1    1.51    0.22
 -10  -1  -1    1.85    0.13
 -10  -1  -1    1.83    0.16
  10  -1   1    2.10    0.17
 -10   1   1    1.73    0.16
 -10   1   1    1.73    0.17
  10   1  -1    1.78    0.22
 -10  -1   1    1.77    0.17
 -10   1  -1    1.74    0.17
  10  -1  -1    1.79    0.16
 -10   1  -1    1.86    0.16
  10   1   1    1.51    0.22
  10  -2   1    1.23    0.12
 -10   2   1    1.05    0.12
 -10  -2  -1    1.27    0.09
  10   2  -1    1.12    0.09
 -10   2   1    1.09    0.11
  10   2  -1    1.09    0.15
  10  -2  -1    1.19    0.12
 -10  -2   1    1.23    0.09
 -10   2  -1    1.29    0.13
 -10   2  -1    1.16    0.11
  10   2   1    1.18    0.09
 -10  -2   1    1.27    0.12
 -10   3   1    1.17    0.12
  10   3  -1    1.07    0.13
 -10   3   1    1.08    0.11
  10  -3   1    1.10    0.11
  10  -3   1    0.80    0.14
 -10  -3  -1    1.02    0.08
  10   3  -1    1.13    0.08
 -10   3  -1    1.14    0.11
 -10   3  -1    1.16    0.09
  10   3   1    1.03    0.14
 -10  -3   1    0.98    0.08
 -10   3  -1    1.11    0.13
  10  -3  -1    0.75    0.15
  10   3   1    1.11    0.08
 -10  -3   1    1.08    0.11
  10  -3  -1    1.16    0.12
  10   4  -1    0.48    0.05
 -10   4   1    0.41    0.08
  10   4  -1    0.40    0.07
 -10  -4  -1    0.58    0.05
  10  -4   1    0.50    0.07
 -10   4   1    0.52    0.07
 -10  -4   1    0.49    0.05
  10  -4  -1    0.44    0.07
  10   4   1    0.43    0.07
 -10   4  -1    0.50    0.09
 -10   4  -1    0.59    0.06
 -10   4  -1    0.49    0.07
  10   4   1    0.54    0.05
  10   5  -1    0.60    0.06
 -10   5   1    0.51    0.09
  10  -5   1    0.58    0.11
  10  -5   1    0.47    0.08
 -10  -5  -1    0.46    0.06
 -10   5   1    0.57    0.08
  10   5   1    0.53    0.06
  10  -5  -1    0.41    0.08
 -10   5  -1    0.55    0.08
  10   5   1    0.46    0.08
 -10   5  -1    0.68    0.11
 -10  -5   1    0.49    0.06
 -10   6   1    0.23    0.07
  10   6  -1    0.22    0.04
 -10   6   1    0.20    0.06
 -10  -6  -1    0.22    0.04
  10  -6   1    0.24    0.06
  10  -6   1    0.18    0.08
 -10  -6   1    0.22    0.04
 -10   6  -1    0.23    0.07
 -10   6  -1    0.26    0.06
  10  -6  -1    0.21    0.06
  10   6   1    0.26    0.04
  10   0   2   14.71    1.34
  10   0  -2   16.47    1.81
  10   0   2   14.99    1.81
 -10   0  -2   17.24    1.42
 -10   0  -2   17.24    1.09
 -10   0   2   18.83    1.42
  10  -1   2    0.50    0.07
  10  -1   2    0.31    0.07
  10   1  -2    0.32    0.07
 -10   1   2    0.36    0.05
 -10   1   2    0.35    0.05
 -10  -1  -2    0.40    0.05
  10  -1  -2    0.22    0.07
 -10   1  -2    0.32    0.05
  10   1   2    0.30    0.07
 -10  -1   2    0.44    0.06
 -10   1  -2    0.43    0.05
  10  -1  -2    0.36    0.06
 -10   2   2   11.99    1.05
 -10  -2  -2   12.36    0.81
 -10   2   2   12.09    0.99
  10  -2   2   14.00    1.00
  10  -2   2   10.33    1.34
  10   2  -2   13.71    1.34
  10   2   2   12.70    0.80
 -10   2  -2   12.34    1.06
  10   2   2   10.58    1.34
 -10  -2   2   13.18    1.05
  10  -2  -2   11.73    0.99
 -10   2  -2   11.81    0.81
  10  -3   2    0.24    0.06
  10  -3   2    0.34    0.06
 -10  -3  -2    0.26    0.04
 -10   3   2    0.21    0.05
 -10   3   2    0.26    0.05
  10   3  -2    0.18    0.05
  10   3  -2    0.27    0.03
  10   3   2    0.22    0.06
  10  -3  -2    0.14    0.07
  10   3   2    0.28    0.04
 -10  -3   2    0.29    0.05
 -10   3  -2    0.19    0.04
 -10   3  -2    0.31    0.06
 -10  -3   2    0.34    0.04
  10  -3  -2    0.31    0.06
 -10   4   2    5.14    0.50
  10  -4   2    6.12    0.48
 -10   4   2    5.67    0.47
 -10  -4  -2    5.28    0.38
  10   4  -2    5.81    0.38
  10  -4   2    6.02    0.53
 -10   4  -2    5.75    0.47
  10  -4  -2    5.50    0.48
  10   4   2    5.61    0.38
  10   4   2    4.85    0.62
 -10   4  -2    6.04    0.39
 -10   4  -2    6.03    0.52
 -10  -4   2    5.65    0.49
 -10   5   2    0.04    0.04
  10  -5   2    0.14    0.07
  10  -5   2    0.13    0.05
 -10  -5  -2    0.10    0.03
 -10   5   2    0.09    0.04
  10   5  -2    0.10    0.03
 -10  -5   2    0.07    0.04
 -10   5  -2    0.14    0.05
 -10   5  -2    0.11    0.04
  10  -5  -2    0.12    0.04
  10   5   2    0.11    0.04
 -10   5  -2    0.19    0.07
  10   5   2    0.10    0.03
  10  -6   2    2.49    0.24
 -10   6   2    2.59    0.24
  10  -6   2    2.55    0.29
  10   6  -2    2.85    0.19
 -10  -6  -2    2.33    0.19
 -10   6   2    2.18    0.26
 -10   6  -2    3.05    0.29
 -10   6  -2    2.87    0.24
  10   6   2    2.63    0.19
  10  -6  -2    2.15    0.24
 -10   0  -3    0.08    0.04
  10   0   3    0.05    0.05
  10   0   3    0.03    0.05
 -10   0   3    0.04    0.03
  10   0  -3    0.10    0.06
 -10   1   3    1.52    0.15
 -10  -1  -3    1.71    0.13
  10  -1   3    1.42    0.20
  10   1  -3    1.91    0.20
  10  -1   3    1.36    0.17
 -10  -1   3    1.76    0.16
 -10   1  -3    1.50    0.13
  10   1   3    1.56    0.20
  10   1   3    1.46    0.15
  10  -1  -3    1.68    0.21
  10  -2   3    0.13    0.05
 -10   2   3    0.08    0.03
  10  -2   3    0.10    0.05
  10  -2   3    0.13    0.05
 -10  -2  -3    0.09    0.03
 -10   2   3    0.08    0.03
  10   2  -3    0.13    0.04
  10   2   3    0.10    0.05
 -10   2  -3    0.07    0.04
  10   2   3    0.07    0.03
 -10  -2   3    0.10    0.04
 -10   2  -3    0.08    0.04
  10  -2  -3    0.07    0.06
  10  -3   3    0.94    0.12
 -10  -3  -3    1.14    0.09
 -10   3   3    1.01    0.11
  10  -3   3    1.09    0.14
 -10   3   3    1.02    0.11
  10   3  -3    1.06    0.08
  10   3  -3    1.15    0.14
 -10   3  -3    1.05    0.13
 -10   3  -3    1.06    0.10
 -10  -3   3    1.02    0.11
  10   3   3    1.02    0.14
  10   3   3    1.14    0.09
  10  -3  -3    0.81    0.16
  10   4  -3    0.03    0.02
  10  -4   3    0.02    0.05
  10  -4   3    0.02    0.04
 -10   4   3    0.06    0.04
 -10  -4  -3    0.07    0.03
 -10   4   3    0.03    0.03
 -10  -4   3   -0.02    0.03
 -10   4  -3    0.09    0.04
  10  -4  -3    0.03    0.03
  10   4   3    0.09    0.04
 -10   4  -3    0.06    0.05
  10   4   3    0.05    0.03
 -10   5   3    0.61    0.08
  10  -5   3    0.68    0.10
  10   5  -3    0.80    0.07
 -10  -5  -3    0.70    0.07
 -10   5   3    0.57    0.09
  10  -5   3    0.73    0.13
 -10  -5   3    0.59    0.08
 -10   5  -3    0.59    0.08
 -10   5  -3    0.90    0.12
  10  -5  -3    0.69    0.09
  10   5   3    0.70    0.07
  10   5   3    0.54    0.10
  10  -6   3    0.00    0.05
  10   6  -3    0.01    0.03
  10  -6   3    0.00    0.06
 -10   6   3    0.00    0.04
 -10   6   3   -0.05    0.04
 -10  -6  -3    0.01    0.03
 -10   6  -3    0.03    0.03
 -10   6  -3   -0.04    0.06
  10   6   3    0.02    0.04
 -10  -6   3   -0.08    0.04
  10   6   3    0.01    0.03
  10  -6  -3    0.02    0.04
  10   0  -4    0.06    0.07
  10   0   4    0.05    0.05
 -10   0   4    0.06    0.03
  10   0   4    0.07    0.05
 -10   0  -4    0.03    0.04
  10  -1   4    0.07    0.05
 -10   1   4    0.13    0.04
 -10  -1  -4    0.13    0.04
  10  -1   4    0.11    0.05
 -10   1   4    0.11    0.03
  10   1  -4    0.08    0.06
  10   1   4    0.08    0.04
 -10  -1   4    0.07    0.04
  10  -1  -4    0.06    0.07
  10   1   4    0.11    0.05
 -10   1  -4    0.08    0.05
 -10   2   4    0.05    0.03
  10  -2   4    0.06    0.06
  10  -2   4    0.11    0.04
  10  -2   4    0.08    0.05
 -10   2   4    0.06    0.03
 -10  -2  -4    0.04    0.03
  10   2  -4    0.18    0.05
  10   2   4    0.06    0.05
 -10  -2   4    0.08    0.04
  10  -2  -4   -0.07    0.06
  10   2   4    0.02    0.03
 -10   2  -4    0.05    0.04
 -10   3   4    0.00    0.02
  10  -3   4   -0.01    0.04
 -10  -3  -4    0.04    0.03
  10  -3   4    0.00    0.05
 -10   3   4    0.00    0.03
  10  -3  -4   -0.11    0.06
 -10  -3   4    0.01    0.03
 -10   3  -4    0.04    0.04
  10   3   4    0.10    0.05
 -10   3  -4    0.00    0.04
  10  -4   4    0.08    0.05
 -10   4   4    0.06    0.03
 -10   4   4    0.06    0.04
 -10  -4  -4    0.01    0.03
  10  -4   4    0.00    0.05
 -10  -4   4    0.03    0.04
  10   4   4    0.02    0.04
  10  -4  -4   -0.07    0.06
  10   4   4    0.05    0.04
 -10   4  -4    0.06    0.05
 -10   4  -4    0.09    0.04
  10  -5   4    0.00    0.05
 -10  -5  -4   -0.01    0.03
  10  -5   4   -0.02    0.04
  10   5  -4    0.02    0.02
 -10   5   4   -0.01    0.03
 -10   5   4    0.02    0.03
 -10   5  -4    0.02    0.03
 -10  -5   4   -0.01    0.03
 -10   5  -4    0.04    0.05
  10   5   4    0.00    0.04
  10   5   4    0.03    0.04
 -10   0  -5    0.04    0.05
  10   0   5    0.07    0.05
  10   0  -5    0.04    0.07
  10   0   5    0.12    0.05
 -10   0   5    0.06    0.03
  10  -1   5   11.48    0.93
 -10   1   5   10.91    0.91
  10   1  -5   12.11    1.23
  10  -1   5   10.58    1.23
 -10   1   5   10.02    0.96
 -10  -1  -5   11.58    0.75
 -10  -1   5   10.45    0.97
  10   1   5   10.68    1.24
 -10   1  -5   11.68    0.75
  10   1   5   12.23    0.91
  10  -1  -5   11.75    1.24
 -10   2   5    0.12    0.04
 -10  -2  -5    0.06    0.04
 -10   2   5    0.10    0.03
  10  -2   5    0.05    0.06
 -10  -2   5    0.06    0.04
  10   2   5    0.09    0.03
 -10   2  -5    0.07    0.05
  10  -2  -5    0.00    0.07
  10   2   5    0.14    0.06
 -10  -3  -5    7.30    0.48
 -10   3   5    6.61    0.58
 -10   3   5    6.23    0.61
  10  -3   5    6.55    0.61
 -10   3  -5    7.33    0.49
 -10  -3   5    6.79    0.62
  10  -3  -5    7.31    0.79
  10   3   5    7.75    0.58
  10   3   5    7.43    0.79
  10  -4   5    0.07    0.06
  10  -4   5    0.02    0.05
 -10   4   5    0.11    0.04
 -10   4   5    0.08    0.03
 -10  -4  -5    0.11    0.04
 -10   4  -5    0.06    0.04
 -10   4  -5    0.10    0.05
  10   4   5    0.16    0.06
  10  -4  -5   -0.07    0.06
 -10  -4   5    0.02    0.04
  10  -5   5    2.69    0.32
 -10   5   5    3.06    0.32
  10  -5   5    4.18    0.36
 -10  -5  -5    3.22    0.25
 -10   5   5    3.39    0.31
  10   5   5    3.73    0.25
 -10   5  -5    3.84    0.35
  10   5   5    4.00    0.41
 -10   5  -5    3.17    0.26
 -10  -5   5    3.71    0.33
  10   0   6    0.17    0.06
  10   0  -6   -0.07    0.08
  10   0   6    0.09    0.06
 -10   0  -6    0.16    0.06
 -10   0   6    0.06    0.03
 -10  -1  -6    0.15    0.06
 -10   1   6    0.14    0.04
  10   1  -6    0.00    0.08
 -10   1   6    0.13    0.04
  10  -1   6    0.21    0.07
  10   1   6    0.13    0.05
  10  -1  -6   -0.10    0.08
 -10  -1   6    0.12    0.05
 -10   1  -6    0.15    0.06
  10   1   6    0.12    0.06
 -10  -2  -6    0.11    0.06
 -10   2   6    0.12    0.04
 -10   2   6    0.11    0.03
  10  -2   6    0.05    0.07
 -10  -2   6    0.06    0.05
  10  -2  -6   -0.08    0.07
  10   2   6    0.13    0.06
  10   2   6    0.05    0.04
 -10   2  -6    0.07    0.06
 -10   3   6    0.12    0.04
  10  -3   6    0.12    0.07
 -10   3   6    0.14    0.04
 -10  -3  -6    0.08    0.05
  10   3   6    0.13    0.04
 -10  -3   6    0.07    0.05
 -10   3  -6    0.15    0.06
  10  -3  -6   -0.06    0.07
  10   3   6    0.16    0.07
 -10   4   6    0.03    0.03
 -10   4   6    0.04    0.02
  10  -4   6   -0.05    0.06
 -10  -4  -6    0.05    0.04
  10  -4  -6   -0.10    0.06
 -10  -4   6    0.03    0.05
 -10   4  -6    0.06    0.04
  10   4   6    0.09    0.06
 -10   0   7    0.03    0.03
 -10   0  -7    0.12    0.07
  10   0   7    0.02    0.06
  10   0   7    0.08    0.06
 -10   1   7   -0.03    0.03
 -10   1   7    0.03    0.03
  10  -1   7    0.04    0.07
 -10  -1  -7   -0.03    0.07
  10   1   7    0.02    0.05
 -10   1  -7    0.05    0.07
 -10  -1   7   -0.06    0.04
  10   1   7   -0.06    0.04
 -10   2   7    0.04    0.03
 -10   2   7    0.12    0.03
  10  -2   7    0.05    0.07
 -10  -2  -7    0.20    0.07
 -10  -2   7   -0.02    0.04
  10   2   7    0.06    0.06
  10   2   7    0.11    0.04
  10  -2  -7   -0.15    0.07
 -10   2  -7    0.02    0.06
 -10   3   7    0.06    0.03
 -10   3   7    0.00    0.03
 -10  -3  -7    0.01    0.06
  10  -3   7   -0.06    0.07
  10   3   7    0.01    0.05
  10   3   7   -0.03    0.02
 -10   3  -7   -0.01    0.05
 -10  -3   7   -0.01    0.05
 -10   0  -8    0.10    0.08
  10   0   8   -0.08    0.06
 -10   0   8   -0.01    0.03
  10  -1   8    0.12    0.08
 -10   1   8    0.08    0.04
 -10   1   8    0.11    0.04
 -10  -1  -8    0.18    0.09
 -10   1  -8    0.18    0.08
 -10  -1   8   -0.02    0.05
  10   1   8    0.04    0.05
  10   1   8    0.12    0.07
  11   0   0    0.01    0.03
  11   0   0   -0.04    0.05
 -11   0   0   -0.04    0.03
 -11   0   0    0.00    0.02
  11   1   0   -0.03    0.02
  11  -1   0   -0.01    0.03
 -11   1   0   -0.01    0.02
 -11  -1   0    0.00    0.02
 -11   1   0   -0.02    0.03
  11  -1   0   -0.02    0.05
 -11  -1   0   -0.03    0.02
  11   1   0    0.03    0.05
  11   2   0    0.00    0.04
 -11  -2   0    0.03    0.02
  11   2   0   -0.01    0.02
 -11   2   0    0.00    0.03
  11  -2   0    0.04    0.05
  11  -2   0    0.00    0.03
 -11   2   0    0.01    0.03
 -11  -2   0    0.01    0.02
  11   3   0    0.01    0.02
  11  -3   0    0.01    0.03
 -11   3   0    0.01    0.03
 -11   3   0    0.03    0.03
  11   3   0    0.01    0.03
 -11  -3   0    0.01    0.02
  11  -3   0    0.02    0.05
  11  -4   0   -0.01    0.03
 -11  -4   0    0.01    0.02
  11   4   0    0.03    0.02
  11  -4   0   -0.03    0.05
 -11   4   0    0.01    0.03
 -11   4   0    0.02    0.04
  11   4   0    0.03    0.03
 -11   5   0    0.00    0.04
  11   5   0   -0.01    0.02
 -11  -5   0    0.00    0.02
 -11   5   0    0.03    0.05
  11  -5   0   -0.04    0.03
  11   6   0   -0.03    0.02
 -11  -6   0   -0.03    0.02
  11  -6   0   -0.04    0.05
  11  -6   0   -0.04    0.04
 -11   6   0   -0.02    0.04
 -11   6   0    0.03    0.05
  11   0  -1    2.72    0.21
 -11   0  -1    2.33    0.17
 -11   0  -1    2.46    0.22
  11   0   1    2.80    0.22
  11   0   1    1.82    0.28
 -11   0   1    2.37    0.22
  11  -1   1    1.91    0.27
 -11   1   1    2.38    0.21
 -11   1   1    2.29    0.19
  11   1  -1    2.31    0.27
 -11  -1  -1    2.39    0.16
 -11  -1   1    2.41    0.21
  11  -1  -1    2.47    0.20
 -11   1  -1    2.36    0.21
  11   1   1    1.80    0.27
 -11   1  -1    2.08    0.16
  11  -2   1    2.38    0.20
  11   2  -1    2.13    0.15
 -11   2   1    2.13    0.20
 -11  -2  -1    2.26    0.15
 -11   2   1    1.98    0.19
  11   2  -1    1.87    0.25
  11   2   1    2.16    0.15
 -11  -2   1    2.25    0.15
  11   2   1    1.80    0.25
 -11   2  -1    2.22    0.19
 -11  -2   1    2.28    0.20
  11  -2  -1    2.24    0.20
 -11   2  -1    2.13    0.21
 -11   2  -1    1.99    0.16
  11  -3   1    1.48    0.14
 -11   3   1    1.48    0.13
  11   3  -1    1.22    0.17
 -11  -3  -1    1.37    0.10
 -11   3   1    1.39    0.14
  11  -3   1    1.06    0.17
  11   3  -1    1.28    0.10
 -11  -3   1    1.31    0.13
 -11   3  -1    1.40    0.13
  11   3   1    1.40    0.10
  11  -3  -1    1.37    0.14
  11   3   1    1.40    0.17
 -11   3  -1    1.55    0.15
 -11   3  -1    1.53    0.11
 -11  -3   1    1.32    0.10
  11   4  -1    1.39    0.10
  11  -4   1    1.52    0.14
 -11  -4  -1    1.38    0.11
  11   4  -1    1.26    0.16
 -11   4   1    1.35    0.14
 -11   4   1    1.37    0.15
  11   4   1    1.12    0.16
  11   4   1    1.42    0.10
 -11   4  -1    1.36    0.13
  11  -4  -1    1.31    0.14
 -11  -4   1    1.41    0.11
 -11   4  -1    1.72    0.17
 -11   5   1    0.59    0.08
  11  -5   1    0.49    0.08
 -11  -5  -1    0.50    0.06
 -11   5   1    0.48    0.09
  11   5  -1    0.51    0.05
  11  -5   1    0.61    0.12
 -11  -5   1    0.45    0.06
 -11   5  -1    0.47    0.10
  11   5   1    0.56    0.06
 -11   5  -1    0.60    0.08
  11  -5  -1    0.47    0.08
  11   5   1    0.51    0.08
  11   6  -1    0.85    0.08
 -11   6   1    0.82    0.13
  11  -6   1    0.77    0.15
 -11   6   1    0.87    0.10
  11  -6   1    0.69    0.10
 -11  -6  -1    0.78    0.08
 -11  -6   1    0.70    0.08
 -11   6  -1    0.80    0.10
  11  -6  -1    0.70    0.10
 -11   6  -1    0.78    0.14
  11   6   1    0.80    0.08
  11   0   2    4.45    0.41
  11   0  -2    5.23    0.40
 -11   0  -2    5.10    0.33
 -11   0   2    5.62    0.43
  11   0  -2    4.20    0.54
  11   0   2    4.51    0.55
 -11   1   2    1.01    0.10
 -11  -1  -2    1.18    0.08
  11  -1   2    1.08    0.12
 -11   1   2    1.09    0.10
  11   1  -2    0.80    0.13
  11  -1   2    0.78    0.14
 -11  -1   2    1.01    0.10
  11   1   2    0.68    0.10
 -11   1  -2    0.95    0.09
  11  -1  -2    1.20    0.10
 -11   1  -2    1.02    0.11
  11   1   2    0.70    0.14
  11  -1  -2    0.70    0.14
  11   2  -2    3.75    0.40
 -11   2   2    3.56    0.32
 -11  -2  -2    3.54    0.25
  11  -2   2    4.08    0.31
 -11   2   2    3.63    0.30
  11  -2   2    3.09    0.41
 -11  -2   2    3.63    0.24
  11  -2  -2    3.63    0.31
  11   2   2    3.57    0.25
 -11  -2   2    3.92    0.32
  11   2   2    2.96    0.41
 -11   2  -2    3.25    0.25
 -11   2  -2    3.82    0.33
  11   3  -2    0.47    0.04
 -11   3   2    0.48    0.07
  11  -3   2    0.61    0.08
 -11   3   2    0.32    0.06
 -11  -3  -2    0.49    0.05
  11  -3   2    0.63    0.10
  11   3   2    0.46    0.08
 -11   3  -2    0.45    0.06
 -11  -3   2    0.54    0.07
  11  -3  -2    0.63    0.08
  11   3   2    0.50    0.05
 -11  -3   2    0.57    0.05
 -11   3  -2    0.46    0.08
  11  -3  -2    0.30    0.09
  11  -4   2    1.89    0.21
  11   4  -2    1.73    0.12
  11  -4   2    1.76    0.17
 -11   4   2    1.53    0.17
 -11  -4  -2    1.61    0.13
 -11   4   2    1.62    0.16
 -11   4  -2    1.88    0.19
  11  -4  -2    1.62    0.17
  11   4   2    1.59    0.20
 -11   4  -2    1.79    0.13
 -11  -4   2    1.54    0.12
 -11  -4   2    1.46    0.16
  11   4   2    1.71    0.13
 -11   5   2    0.13    0.05
  11  -5   2    0.24    0.09
  11   5  -2    0.19    0.03
 -11  -5  -2    0.21    0.04
 -11   5   2    0.20    0.05
  11  -5   2    0.14    0.05
 -11  -5   2    0.20    0.04
 -11   5  -2    0.22    0.08
 -11   5  -2    0.20    0.04
  11  -5  -2    0.19    0.05
  11   5   2    0.22    0.04
  11   5   2    0.16    0.05
 -11  -6  -2    0.67    0.08
  11   6  -2    0.86    0.08
  11  -6   2    0.80    0.11
  11  -6   2    0.77    0.15
 -11   6   2    0.69    0.12
 -11   6   2    0.83    0.10
  11  -6  -2    0.63    0.10
 -11   6  -2    1.07    0.15
 -11  -6   2    0.76    0.08
  11   6   2    0.80    0.08
 -11   0   3    0.15    0.04
  11   0   3    0.13    0.05
  11   0   3    0.18    0.06
  11   0  -3    0.11    0.07
  11   0  -3    0.15    0.04
 -11   0  -3    0.17    0.04
 -11  -1  -3    0.18    0.04
  11  -1   3    0.20    0.06
 -11   1   3    0.23    0.04
  11  -1   3    0.21    0.06
  11   1  -3    0.22    0.06
 -11   1   3    0.19    0.04
  11  -1  -3    0.13    0.07
  11   1   3    0.28    0.07
  11   1   3    0.19    0.05
 -11  -1   3    0.18    0.04
 -11   1  -3    0.14    0.05
  11  -1  -3    0.18    0.04
 -11  -2  -3    0.06    0.03
 -11   2   3    0.10    0.04
  11   2  -3    0.17    0.05
  11  -2   3    0.15    0.05
  11  -2   3    0.07    0.05
  11  -2   3    0.14    0.06
 -11   2   3    0.11    0.03
 -11  -2   3    0.12    0.04
 -11   2  -3    0.09    0.04
  11   2   3    0.10    0.05
  11  -2  -3    0.02    0.07
 -11   2  -3    0.08    0.04
  11  -2  -3    0.07    0.04
  11  -3   3    0.12    0.06
 -11   3   3    0.15    0.04
 -11  -3  -3    0.10    0.03
  11  -3   3    0.11    0.05
 -11   3   3    0.09    0.04
  11   3  -3    0.14    0.04
 -11   3  -3    0.12    0.04
  11   3   3    0.08    0.03
  11   3   3    0.10    0.05
  11  -3  -3    0.09    0.04
 -11   3  -3    0.13    0.05
  11  -3  -3   -0.02    0.07
 -11  -3   3    0.10    0.02
 -11  -3   3    0.13    0.04
 -11   4   3   -0.03    0.02
  11  -4   3   -0.01    0.05
 -11   4   3    0.03    0.04
 -11  -4  -3    0.02    0.03
  11   4  -3    0.03    0.02
  11  -4   3    0.03    0.04
  11  -4  -3   -0.11    0.07
 -11   4  -3    0.07    0.03
 -11   4  -3    0.03    0.05
  11   4   3    0.06    0.04
 -11  -4   3   -0.02    0.03
  11  -4  -3    0.00    0.03
  11   4   3    0.00    0.03
  11  -5   3    0.00    0.05
 -11  -5  -3    0.08    0.03
 -11   5   3    0.04    0.04
  11  -5   3    0.11    0.07
 -11   5   3    0.03    0.04
  11   5  -3    0.05    0.03
 -11  -5   3   -0.04    0.03
  11   5   3    0.05    0.04
  11  -5  -3    0.05    0.04
 -11   5  -3    0.02    0.03
  11   5   3    0.08    0.04
 -11   5  -3    0.06    0.06
  11   0   4    0.95    0.14
 -11   0   4    1.01    0.11
  11   0  -4    1.04    0.16
 -11   0  -4    0.84    0.10
  11   0   4    0.86    0.12
  11  -1   4    3.62    0.49
  11   1  -4    4.69    0.49
 -11   1   4    4.57    0.39
  11  -1   4    4.00    0.39
 -11  -1  -4    4.51    0.30
  11  -1  -4    3.87    0.50
  11   1   4    4.19    0.50
  11   1   4    4.97    0.37
 -11   1  -4    4.44    0.31
 -11  -1   4    4.53    0.39
 -11   2   4    0.77    0.09
 -11  -2  -4    0.74    0.08
  11   2  -4    1.03    0.12
  11  -2   4    0.83    0.13
 -11   2   4    0.83    0.09
  11  -2   4    0.86    0.12
 -11  -2   4    0.76    0.10
  11   2   4    0.79    0.12
  11   2   4    0.77    0.09
  11  -2  -4    0.62    0.13
 -11   2  -4    0.89    0.09
 -11   3   4    2.72    0.24
  11  -3   4    2.43    0.26
  11  -3   4    3.16    0.29
 -11  -3  -4    2.91    0.20
 -11   3   4    2.58    0.26
 -11   3  -4    2.93    0.21
 -11  -3   4    2.79    0.26
  11   3   4    2.91    0.33
  11  -3  -4    2.41    0.34
  11  -4   4    0.50    0.11
 -11   4   4    0.44    0.07
 -11  -4  -4    0.39    0.05
  11  -4   4    0.56    0.10
 -11   4   4    0.40    0.07
  11  -4  -4    0.25    0.09
 -11   4  -4    0.47    0.07
 -11  -4   4    0.44    0.07
 -11   4  -4    0.47    0.09
  11   4   4    0.60    0.09
  11   4   4    0.44    0.06
  11  -5   4    1.33    0.16
  11   5  -4    1.73    0.12
 -11  -5  -4    1.40    0.12
 -11   5   4    1.43    0.15
  11  -5   4    1.78    0.20
 -11   5   4    1.20    0.15
 -11   5  -4    1.59    0.18
  11  -5  -4    1.22    0.15
  11   5   4    1.44    0.19
  11   5   4    1.53    0.12
 -11  -5   4    1.38    0.15
  11   0   5   -0.01    0.05
  11   0  -5   -0.05    0.07
 -11   0   5    0.02    0.03
  11   0   5    0.08    0.05
 -11   0  -5    0.04    0.05
 -11  -1  -5    1.85    0.15
  11   1  -5    1.89    0.23
 -11   1   5    1.74    0.17
  11  -1   5    1.96    0.20
 -11   1   5    1.70    0.16
  11  -1   5    1.74    0.22
  11   1   5    1.99    0.17
 -11   1  -5    1.76    0.15
  11   1   5    1.84    0.23
  11  -1  -5    1.45    0.24
 -11  -1   5    1.70    0.18
 -11   2   5    0.00    0.02
 -11  -2  -5   -0.03    0.04
  11  -2   5    0.00    0.06
 -11   2   5    0.00    0.03
  11   2   5    0.05    0.05
 -11   2  -5    0.00    0.05
 -11  -2   5   -0.03    0.03
  11   2   5    0.00    0.03
  11  -2  -5   -0.11    0.07
 -11   3   5    0.94    0.11
  11  -3   5    0.97    0.15
 -11  -3  -5    1.00    0.09
 -11   3   5    0.96    0.11
 -11  -3   5    0.91    0.11
  11   3   5    1.13    0.14
 -11   3  -5    1.02    0.10
  11  -3  -5    0.66    0.14
 -11   4   5    0.04    0.03
 -11   4   5    0.03    0.04
  11  -4   5    0.02    0.05
  11  -4   5   -0.01    0.05
 -11  -4  -5   -0.02    0.03
  11   4   5    0.00    0.04
 -11   4  -5    0.02    0.04
 -11  -4   5   -0.01    0.04
 -11   5   5    0.35    0.07
  11   0  -6    1.49    0.23
 -11   0  -6    1.80    0.15
 -11   0   6    1.43    0.16
  11   0   6    1.71    0.21
 -11  -1  -6    2.18    0.17
 -11   1   6    1.88    0.18
  11   1  -6    2.06    0.26
 -11   1   6    1.73    0.19
  11   1   6    2.34    0.19
 -11  -1   6    1.78    0.19
  11  -1  -6    1.62    0.27
 -11   1  -6    2.39    0.18
  11   1   6    2.09    0.25
 -11  -2  -6    1.25    0.12
 -11   2   6    1.21    0.13
 -11   2   6    1.13    0.12
 -11   2  -6    1.50    0.13
  11  -2  -6    0.98    0.18
 -11  -2   6    1.04    0.13
  11   2   6    1.42    0.18
  11   2   6    1.34    0.13
 -11   3   6    1.16    0.12
  11  -3   6    1.21    0.16
 -11   3   6    1.17    0.12
 -11  -3  -6    1.26    0.11
  11  -3  -6    0.82    0.17
 -11   3  -6    1.36    0.12
  11   3   6    1.41    0.17
 -11  -3   6    1.13    0.14
 -11  -4  -6    0.60    0.08
 -11   4   6    0.62    0.08
 -11   4   6    0.59    0.08
  11  -4   6    0.59    0.12
 -11   4  -6    0.63    0.09
 -11  -4   6    0.71    0.10
 -11   0  -7   -0.03    0.07
  11   0   7   -0.09    0.05
  11   0   7    0.01    0.05
 -11   0   7    0.00    0.03
  11  -1   7    0.27    0.09
 -11   1   7    0.16    0.04
 -11  -1  -7    0.10    0.07
  11   1   7    0.14    0.06
  11   1   7    0.14    0.07
 -11  -1   7    0.09    0.05
 -11   1  -7    0.15    0.07
  11  -2   7    0.03    0.08
 -11   2   7   -0.03    0.03
 -11   2   7    0.05    0.03
 -11  -2  -7   -0.04    0.06
  11   2   7   -0.07    0.03
  11   2   7    0.05    0.06
 -11   2  -7   -0.06    0.05
 -11   3   7    0.04    0.04
  11   3   7    0.12    0.04
 -11  -3   7    0.06    0.06
  12   0   0    0.05    0.05
  12   0   0    0.03    0.03
 -12   0   0    0.01    0.02
 -12   0   0    0.01    0.03
 -12  -1   0    1.97    0.18
  12  -1   0    2.11    0.18
 -12  -1   0    2.07    0.14
 -12   1   0    1.86    0.18
 -12   1   0    1.99    0.17
  12   1   0    1.55    0.24
  12  -2   0    0.07    0.05
 -12   2   0    0.04    0.03
  12   2   0    0.00    0.02
  12  -2   0    0.00    0.03
  12   2   0   -0.04    0.04
 -12   2   0    0.06    0.03
 -12  -2   0    0.00    0.02
 -12   3   0    1.20    0.12
  12   3   0    1.20    0.09
 -12   3   0    1.28    0.13
  12   3   0    0.98    0.15
 -12  -3   0    1.24    0.09
  12  -3   0    0.85    0.16
  12  -3   0    1.29    0.12
 -12  -4   0    0.01    0.02
  12   4   0   -0.01    0.02
  12   4   0    0.04    0.03
  12  -4   0    0.01    0.04
 -12   4   0    0.00    0.03
 -12   4   0    0.00    0.04
  12  -4   0    0.16    0.06
  12  -5   0    0.66    0.09
 -12   5   0    0.65    0.09
 -12   5   0    0.66    0.11
 -12  -5   0    0.65    0.07
  12   5   0    0.66    0.06
  12  -6   0    0.00    0.04
 -12   6   0    0.03    0.05
 -12   6   0   -0.02    0.04
  12   6   0   -0.01    0.03
  12  -6   0    0.04    0.06
 -12  -6   0   -0.02    0.02
 -12   0  -1    4.74    0.40
 -12   0   1    4.52    0.40
  12   0  -1    4.86    0.38
  12   0   1    5.10    0.39
 -12   0  -1    4.45    0.31
  12   0   1    3.67    0.52
  12   1  -1    0.73    0.13
 -12   1   1    0.87    0.09
  12  -1   1    1.13    0.10
  12  -1   1    0.68    0.13
 -12  -1  -1    0.92    0.08
 -12   1   1    0.84    0.09
  12  -1  -1    0.57    0.12
  12   1   1    0.72    0.14
 -12  -1   1    0.95    0.07
 -12   1  -1    0.84    0.10
 -12   1  -1    0.79    0.08
 -12  -1   1    0.92    0.09
  12  -1  -1    0.90    0.09
  12  -2   1    4.04    0.32
 -12   2   1    3.66    0.31
  12   2  -1    3.03    0.41
 -12  -2  -1    3.51    0.25
  12   2  -1    3.74    0.25
 -12   2   1    3.77    0.33
 -12  -2   1    3.76    0.32
  12  -2  -1    3.84    0.32
 -12   2  -1    3.40    0.25
 -12  -2   1    3.82    0.25
  12   2   1    3.04    0.42
  12   2   1    3.84    0.25
 -12   2  -1    3.76    0.31
 -12   2  -1    4.03    0.34
 -12   3   1    0.43    0.07
  12  -3   1    0.49    0.09
  12  -3   1    0.53    0.07
 -12   3   1    0.50    0.07
  12   3  -1    0.49    0.05
 -12  -3  -1    0.54    0.05
  12   3  -1    0.34    0.07
  12  -3  -1    0.49    0.07
  12   3   1    0.44    0.08
 -12   3  -1    0.51    0.07
  12  -3  -1    0.29    0.09
 -12   3  -1    0.47    0.08
  12   3   1    0.51    0.05
 -12  -3   1    0.49    0.05
  12  -4   1    2.09    0.20
 -12   4   1    2.25    0.20
 -12   4   1    2.05    0.22
  12   4  -1    2.20    0.15
  12   4  -1    1.89    0.25
 -12  -4  -1    2.11    0.16
  12  -4  -1    2.28    0.20
 -12   4  -1    2.54    0.23
 -12  -4   1    2.27    0.16
 -12   4  -1    2.22    0.20
  12   4   1    1.86    0.25
  12   4   1    2.10    0.15
 -12   5   1    0.29    0.06
  12   5  -1    0.28    0.04
 -12   5   1    0.21    0.06
  12  -5   1    0.30    0.09
  12  -5   1    0.20    0.06
 -12  -5  -1    0.18    0.04
 -12  -5   1    0.28    0.04
 -12   5  -1    0.26    0.06
 -12   5  -1    0.28    0.08
  12   5   1    0.23    0.04
  12   5   1    0.19    0.05
  12  -5  -1    0.22    0.06
 -12   6   1    1.04    0.15
  12   6  -1    1.17    0.10
  12   6   1    1.07    0.10
 -12   6  -1    1.18    0.16
 -12   0  -2    0.75    0.07
  12   0   2    0.57    0.11
  12   0   2    0.52    0.09
 -12   0   2    0.69    0.08
  12   0  -2    0.47    0.10
  12   0  -2    0.63    0.07
  12  -1   2    0.42    0.09
 -12   1   2    0.47    0.07
  12  -1   2    0.54    0.08
  12   1  -2    0.43    0.08
 -12  -1  -2    0.54    0.06
 -12   1   2    0.58    0.06
 -12  -1   2    0.49    0.07
  12   1   2    0.53    0.10
  12   1   2    0.44    0.07
 -12   1  -2    0.47    0.06
  12  -1  -2    0.33    0.09
  12  -1  -2    0.47    0.07
  12  -2   2    0.76    0.09
 -12   2   2    0.65    0.07
 -12   2   2    0.65    0.08
  12  -2   2    0.61    0.12
  12   2  -2    0.71    0.11
 -12  -2  -2    0.64    0.06
  12  -2  -2    0.40    0.10
  12  -2  -2    0.56    0.08
 -12   2  -2    0.58    0.07
 -12  -2   2    0.59    0.08
 -12   2  -2    0.68    0.09
  12   2   2    0.57    0.11
  12   3  -2    0.39    0.04
 -12  -3  -2    0.37    0.05
  12  -3   2    0.38    0.07
 -12   3   2    0.29    0.06
  12  -3   2    0.51    0.08
  12   3  -2    0.31    0.07
 -12   3   2    0.40    0.06
 -12   3  -2    0.43    0.08
  12  -3  -2    0.43    0.07
 -12   3  -2    0.39    0.05
  12   3   2    0.36    0.07
  12   3   2    0.45    0.05
 -12  -3   2    0.39    0.06
 -12  -3   2    0.40    0.04
  12  -3  -2    0.23    0.09
  12  -4   2    0.64    0.12
 -12   4   2    0.33    0.07
  12  -4   2    0.53    0.08
 -12   4   2    0.53    0.08
  12   4  -2    0.50    0.05
 -12  -4  -2    0.52    0.06
 -12   4  -2    0.36    0.06
 -12   4  -2    0.52    0.10
  12   4   2    0.42    0.08
  12  -4  -2    0.49    0.08
 -12  -4   2    0.51    0.05
  12   4   2    0.50    0.05
 -12   5   2    0.46    0.07
  12  -5   2    0.33    0.07
 -12  -5  -2    0.36    0.05
  12  -5   2    0.55    0.12
 -12   5   2    0.32    0.07
  12   5  -2    0.41    0.05
 -12   5  -2    0.29    0.09
  12  -5  -2    0.36    0.07
  12   5   2    0.26    0.06
  12   5   2    0.41    0.05
 -12  -5   2    0.35    0.05
  12   0   3    6.05    0.53
  12   0   3    5.64    0.70
 -12   0  -3    7.07    0.43
 -12   0   3    7.25    0.55
  12   0  -3    5.38    0.70
  12  -1   3    0.62    0.12
 -12   1   3    0.82    0.09
  12   1  -3    0.89    0.13
 -12   1   3    0.73    0.09
  12  -1   3    0.74    0.12
 -12  -1  -3    0.85    0.08
 -12   1  -3    0.76    0.08
 -12  -1   3    0.75    0.09
  12   1   3    1.01    0.11
  12  -1  -3    0.88    0.09
  12   1   3    0.66    0.12
  12  -1  -3    0.52    0.12
 -12  -2  -3    5.46    0.36
 -12   2   3    5.30    0.47
  12   2  -3    5.09    0.59
  12  -2   3    4.50    0.59
  12  -2   3    5.53    0.46
 -12   2  -3    5.16    0.36
  12   2   3    5.34    0.60
  12  -2  -3    5.43    0.45
 -12  -2   3    5.74    0.47
  12  -3   3    0.66    0.12
  12   3  -3    0.56    0.09
 -12   3   3    0.53    0.07
  12  -3   3    0.59    0.09
 -12   3   3    0.43    0.07
 -12  -3  -3    0.65    0.06
  12  -3  -3    0.29    0.10
 -12   3  -3    0.54    0.09
  12   3   3    0.54    0.10
 -12   3  -3    0.49    0.07
  12   3   3    0.60    0.06
 -12  -3   3    0.55    0.08
  12  -3  -3    0.54    0.08
 -12  -4  -3    2.83    0.21
 -12   4   3    2.64    0.28
 -12   4   3    2.89    0.27
  12  -4   3    3.61    0.33
  12  -4   3    3.25    0.28
  12   4   3    3.02    0.35
 -12  -4   3    2.76    0.21
 -12  -4   3    2.99    0.28
 -12   4  -3    3.58    0.31
  12  -4  -3    3.06    0.27
 -12   4  -3    2.90    0.22
  12   4   3    2.97    0.21
  12   5  -3    0.26    0.04
  12  -5   3    0.36    0.10
  12  -5   3    0.32    0.08
 -12   5   3    0.26    0.06
 -12  -5  -3    0.37    0.05
 -12   5   3    0.19    0.06
  12  -5  -3    0.26    0.06
 -12  -5   3    0.30    0.04
 -12   5  -3    0.31    0.09
  12   5   3    0.31    0.05
  12   5   3    0.29    0.07
 -12   5  -3    0.26    0.05
  12   0   4    0.28    0.08
 -12   0   4    0.35    0.06
 -12   0  -4    0.28    0.06
  12   0   4    0.30    0.08
  12   0  -4    0.24    0.08
  12  -1   4    0.84    0.14
  12   1  -4    1.13    0.15
 -12   1   4    0.96    0.10
  12  -1   4    0.88    0.14
 -12  -1  -4    0.99    0.10
  12  -1  -4    0.61    0.14
  12   1   4    0.76    0.14
  12   1   4    1.12    0.11
 -12   1  -4    0.93    0.10
 -12  -1   4    0.93    0.10
 -12   2   4    0.23    0.05
  12  -2   4    0.24    0.06
 -12   2   4    0.18    0.05
  12  -2   4    0.12    0.07
 -12  -2  -4    0.20    0.04
  12   2   4    0.28    0.08
 -12  -2   4    0.18    0.05
  12  -2  -4    0.01    0.08
 -12   2  -4    0.21    0.06
 -12   3   4    0.51    0.07
 -12  -3  -4    0.62    0.07
 -12   3   4    0.53    0.08
  12  -3   4    0.50    0.10
  12  -3   4    0.64    0.11
 -12  -3   4    0.55    0.08
  12   3   4    0.63    0.11
 -12   3  -4    0.55    0.07
  12  -4   4    0.22    0.08
 -12   4   4    0.12    0.04
  12  -4   4    0.13    0.07
 -12   4   4    0.11    0.04
 -12  -4  -4    0.10    0.04
  12   4   4    0.11    0.04
  12  -4  -4    0.13    0.05
 -12  -4   4    0.14    0.05
 -12   4  -4    0.12    0.04
 -12   4  -4    0.17    0.07
  12   4   4    0.12    0.06
 -12   5   4    0.24    0.06
 -12   5   4    0.22    0.06
  12  -5   4    0.30    0.10
  12  -5   4    0.29    0.08
 -12  -5  -4    0.25    0.05
  12  -5  -4    0.21    0.06
 -12  -5   4    0.26    0.06
 -12   5  -4    0.41    0.09
 -12   5  -4    0.18    0.05
  12   5   4    0.24    0.05
  12   0   5    0.02    0.06
 -12   0   5    0.00    0.03
  12   0  -5   -0.05    0.07
  12   0   5    0.08    0.05
 -12   0  -5    0.03    0.05
  12  -1   5    0.04    0.05
  12   1  -5    0.08    0.07
  12  -1   5    0.02    0.07
 -12  -1  -5   -0.01    0.04
 -12   1   5    0.02    0.03
  12   1   5    0.08    0.06
  12  -1  -5   -0.07    0.08
  12   1   5   -0.02    0.04
 -12   1  -5   -0.03    0.05
 -12  -1   5   -0.01    0.03
 -12  -2  -5    0.01    0.04
 -12   2   5    0.01    0.03
 -12   2   5    0.01    0.03
  12  -2   5    0.10    0.08
  12   2   5    0.01    0.05
 -12   2  -5    0.03    0.05
  12  -2  -5   -0.13    0.08
 -12  -2   5   -0.03    0.03
 -12   3   5   -0.03    0.03
 -12  -3  -5   -0.02    0.04
 -12   3   5    0.00    0.02
  12  -3   5    0.00    0.06
 -12  -3   5   -0.03    0.03
 -12   3  -5    0.00    0.04
  12   3   5    0.04    0.05
 -12  -4  -5   -0.02    0.04
  12  -4   5    0.03    0.06
 -12   4   5    0.02    0.03
  12   4   5    0.05    0.05
 -12   4  -5    0.05    0.04
 -12  -4   5   -0.03    0.04
  12   0   6    0.24    0.08
  12   0   6    0.20    0.07
  12   0  -6    0.07    0.09
 -12   0  -6    0.21    0.07
 -12   0   6    0.11    0.04
 -12  -1  -6    0.02    0.06
  12   1  -6    0.05    0.07
  12  -1   6    0.11    0.08
 -12   1   6    0.05    0.03
 -12  -1   6    0.02    0.03
 -12   1  -6    0.03    0.06
  12  -1  -6   -0.18    0.09
  12   1   6    0.07    0.06
  12   1   6    0.00    0.05
  12  -2   6    0.15    0.09
 -12   2   6    0.10    0.04
 -12   2   6    0.17    0.04
 -12  -2  -6    0.18    0.06
 -12   2  -6    0.15    0.07
  12  -2  -6   -0.10    0.09
  12   2   6    0.05    0.04
  12   2   6    0.20    0.07
 -12  -2   6    0.02    0.04
 -12  -3  -6    0.07    0.05
  12  -3   6   -0.02    0.07
 -12   3   6    0.05    0.03
 -12   3   6    0.06    0.03
 -12  -3   6   -0.03    0.05
  12   3   6    0.02    0.06
  12  -3  -6   -0.19    0.08
 -12   3  -6    0.04    0.05
  12   0   7   -0.15    0.07
 -12   0  -7    0.01    0.07
 -12   0   7    0.00    0.03
  12  -1   7    0.45    0.12
 -12   1   7    0.29    0.06
 -12  -1  -7    0.33    0.09
  12   1   7    0.29    0.08
 -12   1  -7    0.24    0.09
  12   1   7    0.30    0.07
 -12  -1   7    0.26    0.06
 -12  -2  -7   -0.03    0.06
 -12   2   7    0.04    0.03
 -12   2   7   -0.03    0.03
  12  -2   7    0.16    0.10
  12   2   7   -0.06    0.03
 -12   2  -7    0.07    0.07
 -12  -2   7   -0.09    0.04
  13   0   0   -0.01    0.04
  13   0   0    0.02    0.05
 -13   0   0    0.01    0.02
 -13   1   0    0.01    0.02
 -13  -1   0    0.00    0.03
 -13   1   0    0.02    0.03
  13  -1   0    0.00    0.05
  13  -1   0    0.01    0.03
  13   1   0    0.05    0.06
  13   2   0   -0.03    0.03
  13  -2   0   -0.01    0.03
 -13   2   0   -0.01    0.03
 -13  -2   0   -0.01    0.02
  13  -2   0    0.08    0.05
  13   2   0   -0.02    0.05
 -13   2   0    0.02    0.03
 -13  -3   0    0.01    0.02
 -13   3   0    0.03    0.04
  13   3   0   -0.02    0.04
 -13   3   0    0.00    0.03
  13  -3   0    0.08    0.05
  13   3   0   -0.04    0.02
  13  -3   0    0.01    0.03
  13   4   0   -0.01    0.02
 -13   4   0   -0.06    0.03
  13  -4   0    0.01    0.04
  13  -4   0    0.13    0.06
 -13   4   0   -0.01    0.03
  13   4   0    0.01    0.03
 -13  -4   0    0.01    0.02
 -13  -5   0   -0.02    0.02
 -13   5   0    0.03    0.05
 -13   5   0    0.01    0.04
  13  -5   0   -0.02    0.04
  13   5   0   -0.03    0.02
 -13   0  -1    0.73    0.08
 -13   0   1    0.81    0.09
  13   0  -1    0.67    0.13
  13   0   1    0.69    0.13
  13   0  -1    0.88    0.09
  13   0   1    0.97    0.10
 -13   1   1    5.21    0.44
  13  -1   1    5.76    0.42
 -13   1   1    5.15    0.41
  13  -1   1    4.20    0.56
 -13  -1  -1    5.19    0.33
  13   1  -1    4.00    0.55
  13  -1  -1    5.16    0.41
  13   1   1    4.06    0.56
 -13   1  -1    4.81    0.33
 -13   1  -1    5.25    0.44
 -13  -1   1    5.34    0.43
 -13   2   1    0.54    0.07
 -13  -2  -1    0.57    0.06
 -13   2   1    0.50    0.07
  13   2  -1    0.59    0.11
  13  -2   1    0.62    0.08
  13  -2   1    0.45    0.09
  13  -2  -1    0.52    0.07
 -13   2  -1    0.56    0.07
 -13  -2   1    0.56    0.07
 -13  -2   1    0.56    0.05
 -13   2  -1    0.47    0.08
  13   2   1    0.59    0.06
  13  -2  -1    0.40    0.09
  13   2   1    0.48    0.10
 -13   3   1    3.19    0.29
 -13  -3  -1    3.13    0.21
  13  -3   1    3.44    0.27
  13   3  -1    3.13    0.21
  13   3  -1    2.54    0.35
 -13   3   1    3.18    0.27
  13  -3   1    2.48    0.35
 -13   3  -1    3.42    0.30
  13  -3  -1    3.30    0.27
  13   3   1    3.17    0.21
  13   3   1    2.67    0.35
 -13  -3   1    3.01    0.21
 -13   3  -1    3.31    0.27
  13  -4   1    0.25    0.06
 -13  -4  -1    0.21    0.04
  13   4  -1    0.17    0.05
 -13   4   1    0.24    0.06
 -13   4   1    0.21    0.06
  13   4  -1    0.23    0.04
  13   4   1    0.26    0.04
  13   4   1    0.24    0.06
  13  -4  -1    0.28    0.06
 -13  -4   1    0.22    0.04
 -13   4  -1    0.31    0.07
  13  -4  -1    0.17    0.07
 -13   4  -1    0.24    0.05
 -13   5   1    1.55    0.18
  13   5  -1    1.65    0.13
  13  -5   1    2.02    0.22
 -13  -5  -1    1.52    0.13
 -13   5   1    1.89    0.17
  13  -5   1    1.68    0.17
  13  -5  -1    1.60    0.17
 -13   5  -1    2.08    0.21
 -13   5  -1    1.76    0.16
 -13  -5   1    1.55    0.13
  13   5   1    1.59    0.13
  13   5   1    1.39    0.20
 -13   0   2    2.17    0.18
 -13   0  -2    2.10    0.15
  13   0  -2    1.64    0.24
  13   0   2    1.84    0.25
  13   0   2    1.76    0.19
  13   1  -2    0.29    0.07
  13  -1   2    0.24    0.07
 -13  -1  -2    0.19    0.04
 -13   1   2    0.22    0.05
  13  -1   2    0.27    0.07
 -13   1   2    0.31    0.05
  13   1   2    0.25    0.07
 -13  -1   2    0.30    0.05
  13  -1  -2    0.19    0.07
  13  -1  -2    0.20    0.05
 -13   1  -2    0.17    0.05
 -13   2   2    1.63    0.15
  13  -2   2    1.46    0.20
  13   2  -2    1.54    0.20
 -13  -2  -2    1.58    0.12
  13  -2   2    1.94    0.17
 -13   2   2    1.71    0.16
 -13   2  -2    1.83    0.17
 -13   2  -2    1.56    0.13
  13  -2  -2    1.75    0.16
  13  -2  -2    1.17    0.21
 -13  -2   2    1.59    0.16
  13   2   2    1.57    0.21
 -13  -3  -2    0.12    0.03
  13   3  -2    0.14    0.05
 -13   3   2    0.11    0.04
  13  -3   2    0.17    0.06
  13  -3   2    0.22    0.06
 -13   3   2    0.14    0.05
  13  -3  -2    0.20    0.05
 -13   3  -2    0.24    0.06
 -13  -3   2    0.12    0.04
  13   3   2    0.19    0.04
 -13   3  -2    0.09    0.04
 -13  -3   2    0.16    0.03
  13  -3  -2    0.08    0.07
  13   3   2    0.22    0.06
  13   4  -2    1.01    0.08
 -13   4   2    0.95    0.12
 -13  -4  -2    0.85    0.09
  13  -4   2    1.09    0.12
  13  -4   2    1.23    0.16
 -13   4   2    1.08    0.11
  13  -4  -2    1.03    0.12
 -13  -4   2    1.00    0.08
 -13   4  -2    1.26    0.15
  13   4   2    0.96    0.09
  13   4   2    0.97    0.14
  13  -5   2    0.07    0.07
  13   5  -2    0.05    0.03
 -13   5   2    0.03    0.04
  13  -5   2    0.05    0.05
 -13   5   2    0.09    0.05
 -13  -5  -2    0.10    0.03
 -13   5  -2    0.17    0.08
  13   5   2    0.08    0.03
 -13  -5   2    0.10    0.03
  13   5   2    0.14    0.05
  13  -5  -2    0.01    0.04
 -13   0   3    0.14    0.04
  13   0   3    0.21    0.07
 -13   0  -3   -0.01    0.04
  13   0  -3    0.20    0.07
  13   0   3    0.06    0.06
  13  -1   3    3.01    0.40
 -13  -1  -3    3.82    0.25
 -13   1   3    3.71    0.32
  13  -1   3    3.27    0.32
  13  -1  -3    3.69    0.30
  13   1   3    3.45    0.30
 -13  -1   3    3.46    0.31
 -13   1  -3    3.69    0.25
  13   1   3    3.06    0.41
  13  -2   3    0.08    0.06
  13  -2   3    0.27    0.07
 -13   2   3    0.10    0.04
 -13   2   3    0.16    0.04
 -13  -2  -3    0.12    0.04
  13   2  -3    0.25    0.06
  13  -2  -3   -0.07    0.07
  13  -2  -3    0.10    0.04
  13   2   3    0.16    0.06
 -13  -2   3    0.10    0.04
 -13   2  -3    0.08    0.05
 -13   3   3    2.07    0.22
 -13   3   3    2.41    0.21
  13   3  -3    2.04    0.27
 -13  -3  -3    2.25    0.17
  13  -3   3    2.83    0.27
  13  -3   3    2.62    0.23
  13  -3  -3    2.41    0.22
 -13  -3   3    2.33    0.22
 -13   3  -3    2.11    0.17
  13   3   3    2.34    0.28
 -13   4   3    0.05    0.04
 -13  -4  -3    0.04    0.03
 -13   4   3    0.06    0.03
  13  -4   3    0.04    0.05
  13  -4   3    0.10    0.07
 -13  -4   3    0.01    0.04
  13   4   3    0.10    0.04
 -13   4  -3    0.10    0.06
 -13   4  -3    0.10    0.04
  13  -4  -3    0.06    0.04
  13  -4  -3   -0.10    0.08
  13   4   3    0.12    0.05
  13  -5   3    1.47    0.19
 -13  -5  -3    1.17    0.10
 -13   5   3    1.27    0.13
 -13   5   3    1.07    0.14
  13  -5   3    1.24    0.15
  13   5  -3    1.24    0.10
 -13  -5   3    1.29    0.10
  13   5   3    1.23    0.11
  13  -5  -3    1.06    0.14
 -13   5  -3    1.49    0.18
  13   0  -4    0.08    0.07
 -13   0  -4    0.02    0.05
 -13   0   4    0.05    0.03
  13   0   4    0.07    0.07
  13   0   4    0.07    0.06
  13  -1   4    0.11    0.07
 -13   1   4    0.07    0.03
  13   1  -4    0.20    0.06
  13  -1   4    0.12    0.06
 -13  -1  -4    0.01    0.04
 -13   1  -4    0.06    0.05
  13  -1  -4    0.00    0.03
 -13  -1   4    0.05    0.04
  13  -1  -4    0.01    0.07
  13   1   4    0.01    0.05
  13   1   4    0.11    0.06
 -13  -2  -4    0.04    0.04
 -13   2   4    0.01    0.03
  13  -2   4   -0.02    0.06
 -13   2   4    0.03    0.03
 -13   2  -4    0.03    0.05
  13   2   4    0.06    0.05
 -13  -2   4    0.01    0.04
  13  -2  -4   -0.08    0.08
  13  -2  -4    0.01    0.03
  13  -3   4    0.13    0.07
 -13   3   4    0.03    0.04
 -13   3   4    0.04    0.03
 -13  -3  -4    0.00    0.03
  13   3   4    0.08    0.06
  13  -3  -4    0.01    0.03
 -13   3  -4    0.03    0.04
 -13  -3   4    0.00    0.04
  13  -4   4   -0.01    0.05
 -13   4   4    0.03    0.04
 -13   4   4    0.07    0.03
  13  -4   4    0.00    0.06
 -13  -4  -4    0.06    0.04
 -13  -4   4   -0.03    0.05
  13  -4  -4    0.04    0.04
  13   4   4    0.03    0.05
 -13   4  -4    0.03    0.04
 -13   0  -5    0.36    0.08
 -13   0   5    0.34    0.06
  13   0  -5    0.25    0.09
  13   0   5    0.47    0.09
  13   0   5    0.31    0.07
 -13   1   5    1.03    0.12
  13  -1   5    1.34    0.17
  13  -1   5    1.00    0.16
 -13  -1  -5    1.34    0.12
  13   1  -5    1.34    0.17
  13   1   5    1.36    0.13
  13   1   5    1.22    0.17
 -13   1  -5    1.15    0.12
 -13  -1   5    0.94    0.12
 -13   2   5    0.24    0.06
 -13   2   5    0.26    0.05
 -13  -2  -5    0.28    0.06
  13  -2   5    0.30    0.10
 -13  -2   5    0.26    0.06
  13   2   5    0.41    0.10
 -13   2  -5    0.34    0.07
 -13  -3  -5    0.65    0.08
 -13   3   5    0.78    0.09
  13  -3   5    0.63    0.13
 -13   3   5    0.75    0.09
 -13   3  -5    0.74    0.09
 -13  -3   5    0.72    0.10
  13   3   5    0.85    0.13
  13   0  -6    1.16    0.23
  13   0   6    2.08    0.19
 -13   0  -6    1.74    0.16
 -13   0   6    1.40    0.15
  13   0   6    1.51    0.20
 -13  -1  -6    0.10    0.07
  13  -1   6    0.26    0.10
  13   1  -6    0.24    0.08
 -13   1   6    0.15    0.04
  13   1   6    0.14    0.07
  13  -1  -6   -0.15    0.09
 -13  -1   6    0.07    0.04
  13   1   6    0.05    0.06
 -13   1  -6    0.07    0.07
  13  -2   6    1.67    0.20
 -13  -2  -6    1.16    0.12
 -13   2   6    1.13    0.13
 -13   2   6    1.07    0.13
 -13  -2   6    1.01    0.13
  13   2   6    1.21    0.13
  13   2   6    1.39    0.18
 -13   2  -6    1.47    0.14
  14   0   0    0.90    0.10
 -14   0   0    0.98    0.10
  14   0   0    0.85    0.15
 -14  -1   0    1.60    0.11
 -14   1   0    1.47    0.15
  14   1   0    1.22    0.20
  14  -1   0    1.68    0.14
  14  -1   0    1.08    0.19
 -14   1   0    1.55    0.14
 -14   2   0    0.66    0.08
  14  -2   0    0.55    0.10
 -14   2   0    0.64    0.09
  14   2   0    0.58    0.06
  14  -2   0    0.74    0.08
  14   2   0    0.62    0.11
 -14  -2   0    0.60    0.06
 -14   3   0    0.98    0.12
 -14  -3   0    1.01    0.08
  14   3   0    0.70    0.13
 -14   3   0    1.01    0.10
  14  -3   0    1.08    0.11
  14   3   0    0.97    0.08
  14  -3   0    0.82    0.14
 -14   4   0    0.40    0.07
 -14  -4   0    0.21    0.04
  14   4   0    0.30    0.04
  14  -4   0    0.50    0.08
  14  -4   0    0.33    0.07
 -14   4   0    0.35    0.08
  14   4   0    0.32    0.07
  14  -5   0    0.54    0.09
 -14   5   0    0.52    0.10
 -14   5   0    0.60    0.09
  14   5   0    0.49    0.06
 -14  -5   0    0.50    0.06
 -14   0  -1    0.30    0.05
  14   0  -1    0.28    0.07
 -14   0   1    0.29    0.05
  14   0   1    0.29    0.07
  14   0   1    0.25    0.08
  14  -1   1    0.37    0.08
  14  -1   1    0.35    0.07
 -14  -1  -1    0.26    0.05
 -14   1   1    0.34    0.06
  14   1  -1    0.31    0.08
 -14   1   1    0.36    0.06
  14  -1  -1    0.29    0.07
  14  -1  -1    0.27    0.06
  14   1   1    0.36    0.09
 -14  -1   1    0.35    0.05
 -14   1  -1    0.33    0.06
  14  -2   1    0.27    0.06
 -14   2   1    0.14    0.04
 -14   2   1    0.22    0.05
  14  -2   1    0.23    0.06
 -14  -2  -1    0.21    0.04
  14   2  -1    0.20    0.07
  14   2   1    0.19    0.07
  14  -2  -1    0.17    0.07
 -14   2  -1    0.24    0.05
  14  -2  -1    0.25    0.05
  14   3  -1    0.19    0.03
 -14  -3  -1    0.23    0.04
 -14   3   1    0.21    0.05
  14  -3   1    0.28    0.06
  14  -3   1    0.22    0.06
 -14   3   1    0.25    0.05
  14   3  -1    0.24    0.06
 -14   3  -1    0.30    0.06
  14   3   1    0.27    0.07
 -14  -3   1    0.19    0.03
  14  -3  -1    0.20    0.07
  14  -3  -1    0.22    0.06
  14   3   1    0.18    0.04
 -14   3  -1    0.25    0.06
 -14  -4  -1    0.11    0.03
  14  -4   1    0.14    0.05
 -14   4   1    0.12    0.05
  14   4  -1    0.12    0.04
 -14   4   1    0.16    0.05
  14   4  -1    0.08    0.03
  14  -4  -1    0.17    0.05
 -14   4  -1    0.07    0.05
 -14  -4   1    0.07    0.03
  14  -4  -1    0.11    0.07
  14   4   1    0.11    0.03
  14   4   1    0.19    0.05
 -14   4  -1    0.14    0.06
 -14   5   1    0.10    0.05
 -14  -5  -1    0.09    0.03
  14  -5   1    0.13    0.06
  14  -5   1    0.23    0.08
  14   5  -1    0.11    0.03
 -14   5   1    0.08    0.05
 -14  -5   1    0.07    0.03
 -14   5  -1    0.18    0.07
  14  -5  -1    0.07    0.05
  14   5   1    0.08    0.03
 -14   5  -1    0.09    0.06
  14   0   2    2.77    0.28
 -14   0  -2    3.53    0.23
 -14   0   2    3.21    0.28
  14   0   2    2.83    0.37
  14   1  -2    1.06    0.16
 -14  -1  -2    1.19    0.10
 -14   1   2    1.05    0.11
  14  -1   2    0.98    0.17
 -14   1   2    1.23    0.12
  14  -1   2    1.25    0.14
 -14   1  -2    1.14    0.10
 -14  -1   2    1.17    0.12
  14   1   2    1.02    0.17
  14  -1  -2    1.30    0.12
  14  -1  -2    0.82    0.16
  14   2  -2    2.30    0.30
 -14   2   2    2.54    0.24
 -14   2   2    2.64    0.22
  14  -2   2    2.21    0.30
  14  -2   2    2.72    0.24
 -14  -2  -2    2.43    0.18
 -14  -2   2    2.55    0.23
  14  -2  -2    2.66    0.23
 -14   2  -2    2.55    0.19
  14   2   2    2.18    0.30
  14  -3   2    0.78    0.13
 -14  -3  -2    0.86    0.08
 -14   3   2    0.79    0.10
 -14   3   2    0.86    0.10
  14   3  -2    0.61    0.13
  14  -3   2    1.10    0.12
  14  -3  -2    0.87    0.11
  14   3   2    0.89    0.08
 -14   3  -2    0.94    0.12
  14   3   2    0.78    0.13
 -14   4   2    1.62    0.17
 -14   4   2    1.61    0.16
  14  -4   2    1.58    0.17
  14  -4   2    1.84    0.21
 -14  -4  -2    1.44    0.12
  14  -4  -2    1.49    0.16
 -14  -4   2    1.50    0.12
  14   4   2    1.55    0.20
  14   4   2    1.50    0.12
 -14   4  -2    1.74    0.19
 -14   0  -3    0.61    0.08
  14   0  -3    0.51    0.10
  14   0   3    0.65    0.11
 -14   0   3    0.58    0.08
  14   0   3    0.53    0.10
  14  -1   3    0.22    0.07
  14   1  -3    0.23    0.06
 -14   1   3    0.16    0.04
 -14  -1  -3    0.16    0.05
  14  -1   3    0.22    0.08
  14   1   3    0.24    0.08
  14  -1  -3    0.14    0.07
 -14  -1   3    0.16    0.04
  14  -1  -3    0.17    0.05
 -14   1  -3    0.16    0.05
  14  -2   3    0.49    0.10
  14  -2   3    0.69    0.11
 -14   2   3    0.55    0.08
 -14  -2  -3    0.51    0.06
  14   2  -3    0.77    0.11
 -14   2   3    0.50    0.07
 -14   2  -3    0.55    0.07
 -14  -2   3    0.48    0.07
  14   2   3    0.51    0.10
  14  -2  -3    0.48    0.08
  14  -2  -3    0.27    0.10
 -14   3   3    0.16    0.04
 -14  -3  -3    0.07    0.04
  14  -3   3    0.20    0.08
 -14   3   3    0.13    0.05
  14  -3   3    0.20    0.07
  14  -3  -3    0.16    0.05
 -14  -3   3    0.15    0.05
  14   3   3    0.24    0.07
  14  -3  -3    0.01    0.08
 -14   3  -3    0.17    0.05
 -14   4   3    0.41    0.07
  14  -4   3    0.46    0.11
  14  -4   3    0.37    0.08
 -14   4   3    0.27    0.06
 -14  -4  -3    0.30    0.05
 -14   4  -3    0.33    0.09
  14  -4  -3    0.29    0.07
  14   4   3    0.38    0.08
  14   4   3    0.33    0.05
 -14   4  -3    0.30    0.05
  14   0   4    1.16    0.15
 -14   0  -4    1.08    0.12
 -14   0   4    1.10    0.12
  14   0   4    1.15    0.17
  14   0  -4    1.05    0.17
  14  -1   4    0.20    0.06
  14   1  -4    0.24    0.06
 -14   1   4    0.02    0.03
 -14  -1  -4    0.09    0.05
  14  -1   4    0.07    0.08
 -14  -1   4    0.04    0.03
 -14   1  -4    0.00    0.05
  14  -1  -4   -0.01    0.07
  14   1   4    0.17    0.06
  14  -1  -4   -0.01    0.03
  14   1   4    0.10    0.06
  14   2  -4    0.93    0.12
 -14  -2  -4    0.77    0.09
  14  -2   4    0.70    0.13
 -14   2   4    0.83    0.10
 -14  -2   4    0.68    0.09
  14  -2  -4    0.50    0.13
  14   2   4    0.98    0.14
  14  -2  -4    0.79    0.10
 -14   2  -4    0.85    0.10
 -14   3   4   -0.02    0.03
 -14  -3  -4   -0.03    0.03
 -14   3   4    0.05    0.03
  14  -3   4   -0.02    0.06
 -14   3  -4    0.01    0.04
 -14  -3   4   -0.02    0.04
  14  -3  -4    0.00    0.04
  14  -3  -4   -0.13    0.08
  14   3   4    0.07    0.06
 -14   4   4    0.25    0.06
 -14   0  -5    0.00    0.06
  14   0  -5    0.11    0.08
 -14   0   5    0.03    0.03
  14   0   5    0.09    0.06
  14   0   5    0.04    0.08
 -14  -1  -5    0.68    0.09
  14  -1   5    0.69    0.12
  14   1  -5    0.81    0.12
 -14   1   5    0.60    0.08
  14  -1   5    0.84    0.14
  14   1   5    0.62    0.12
  14   1   5    0.77    0.11
 -14   1  -5    0.71    0.10
 -14  -1   5    0.61    0.09
 -14  -2  -5   -0.01    0.05
 -14   2   5    0.04    0.03
  14  -2   5    0.03    0.08
 -14   2   5    0.02    0.04
 -14  -2   5    0.00    0.03
  14   2   5    0.03    0.06
  14  -2  -5   -0.13    0.09
 -14   2  -5    0.07    0.06
  14  -2  -5    0.02    0.04
 -14  -3  -5    0.43    0.07
 -14   3   5    0.45    0.07
  14  -3   5    0.42    0.11
 -14   3   5    0.33    0.07
 -14  -3   5    0.36    0.07
 -14   3  -5    0.35    0.07
  14  -3  -5    0.39    0.07
  14   0  -6    0.10    0.09
  14   0   6    0.28    0.08
 -14   0   6    0.13    0.04
 -14   0  -6    0.13    0.08
  14   0   6    0.18    0.10
 -14   1   6    0.04    0.03
  14  -1   6    0.19    0.11
 -14  -1  -6    0.08    0.07
 -14   1  -6   -0.01    0.07
  14  -1  -6   -0.11    0.10
 -14  -1   6   -0.01    0.03
  14   1   6    0.05    0.07
  14   1   6   -0.12    0.06
  15   0   0    0.07    0.06
  15  -1   0    0.15    0.06
  15  -1   0    0.01    0.04
 -15   1   0    0.02    0.03
  15   1   0    0.10    0.06
 -15   2   0   -0.02    0.03
 -15   2   0   -0.01    0.03
  15   2   0    0.05    0.06
  15  -2   0    0.02    0.04
  15  -2   0    0.14    0.05
 -15  -2   0   -0.03    0.03
  15   3   0   -0.01    0.03
 -15  -3   0   -0.03    0.02
  15   3   0    0.08    0.05
 -15   3   0    0.01    0.04
  15  -3   0    0.01    0.04
 -15   3   0    0.04    0.04
  15  -4   0   -0.03    0.04
  15   4   0   -0.02    0.02
 -15   4   0    0.00    0.04
 -15  -4   0   -0.01    0.02
 -15   4   0    0.01    0.04
  15   4   0    0.06    0.04
 -15   0   1    2.37    0.21
  15   0   1    2.13    0.28
 -15   0  -1    2.50    0.17
  15   0  -1    1.95    0.28
  15  -1   1    0.19    0.06
  15  -1   1    0.27    0.07
  15   1  -1    0.25    0.07
 -15   1   1    0.22    0.05
 -15  -1  -1    0.14    0.04
  15   1   1    0.18    0.07
  15  -1  -1    0.25    0.07
  15  -1  -1    0.10    0.04
  15   2  -1    1.67    0.24
 -15  -2  -1    2.05    0.14
  15  -2   1    1.62    0.23
 -15   2   1    1.96    0.17
  15  -2   1    2.14    0.18
 -15   2   1    1.87    0.18
 -15   2  -1    2.02    0.19
  15   2   1    1.74    0.24
  15  -2  -1    1.99    0.18
  15  -2  -1    1.48    0.23
 -15   3   1    0.10    0.04
  15  -3   1    0.04    0.05
  15   3  -1    0.11    0.05
 -15  -3  -1    0.06    0.03
 -15   3   1    0.11    0.04
  15  -3   1    0.25    0.05
  15   3   1    0.06    0.03
  15  -3  -1    0.09    0.05
 -15  -3   1    0.10    0.03
 -15   3  -1    0.12    0.05
  15  -3  -1    0.18    0.06
  15   3   1    0.13    0.06
 -15  -4  -1    1.21    0.10
 -15   4   1    1.26    0.15
  15  -4   1    1.36    0.14
  15   4  -1    1.09    0.16
  15   4  -1    1.20    0.10
 -15   4   1    1.40    0.13
  15   4   1    1.22    0.16
 -15  -4   1    1.04    0.10
 -15   4  -1    1.34    0.13
  15   4   1    1.11    0.10
 -15   4  -1    1.31    0.16
  15  -4  -1    1.23    0.18
  15  -4  -1    1.32    0.14
 -15   0   2    0.07    0.03
  15   0  -2    0.18    0.06
 -15   0  -2    0.03    0.05
  15   0   2    0.16    0.07
  15   0   2    0.14    0.07
  15  -1   2    0.14    0.06
  15  -1   2    0.21    0.07
 -15   1   2    0.17    0.04
 -15  -1  -2    0.14    0.05
  15   1   2    0.19    0.07
 -15   1  -2    0.15    0.05
  15  -1  -2    0.11    0.04
  15  -1  -2    0.20    0.07
 -15  -1   2    0.17    0.04
  15  -2   2    0.01    0.05
  15  -2   2    0.17    0.06
 -15  -2  -2    0.01    0.03
 -15   2   2    0.04    0.04
  15   2  -2    0.18    0.06
 -15   2   2    0.07    0.04
 -15  -2   2    0.06    0.03
  15  -2  -2    0.07    0.04
  15   2   2    0.17    0.07
  15  -2  -2    0.15    0.07
 -15   3   2    0.10    0.04
 -15   3   2    0.12    0.04
 -15  -3  -2    0.09    0.04
  15  -3   2    0.16    0.06
  15  -3   2    0.25    0.06
  15   3  -2    0.10    0.06
  15  -3  -2    0.11    0.05
  15   3   2    0.17    0.06
  15  -3  -2    0.19    0.08
  15  -4   2   -0.01    0.06
 -15   4   2    0.03    0.04
  15  -4   2   -0.01    0.05
 -15  -4  -2    0.00    0.03
 -15   4   2    0.03    0.03
 -15   4  -2    0.02    0.05
  15   4   2    0.09    0.05
  15  -4  -2    0.03    0.04
  15  -4  -2    0.11    0.08
  15   4   2    0.02    0.03
 -15   0  -3    1.45    0.12
  15   0   3    1.25    0.19
  15   0   3    1.28    0.17
 -15   0   3    1.21    0.13
  15   0  -3    1.15    0.18
 -15  -1  -3    0.19    0.06
  15   1  -3    0.29    0.06
  15  -1   3    0.22    0.07
 -15   1   3    0.17    0.04
  15  -1   3    0.17    0.08
 -15   1  -3    0.06    0.05
  15   1   3    0.19    0.08
 -15  -1   3    0.09    0.04
  15  -1  -3    0.15    0.07
  15  -2   3    0.95    0.14
  15   2  -3    1.22    0.15
 -15   2   3    0.91    0.11
 -15  -2  -3    0.87    0.09
 -15   2   3    1.00    0.11
  15  -2   3    0.96    0.14
  15   2   3    1.06    0.15
  15  -2  -3    0.93    0.11
 -15  -2   3    0.90    0.10
 -15   2  -3    0.96    0.10
  15  -2  -3    0.63    0.14
  15  -3   3    0.06    0.06
 -15   3   3    0.07    0.04
 -15  -3  -3    0.05    0.04
 -15   3   3    0.12    0.04
 -15   3  -3    0.11    0.04
 -15  -3   3    0.05    0.04
  15  -3  -3    0.08    0.04
  15  -3  -3    0.07    0.08
  15   3   3    0.17    0.06
  15   0   4    0.17    0.07
 -15   0  -4   -0.07    0.06
  15   0   4    0.19    0.09
  15   0  -4    0.18    0.07
  15  -1   4    2.65    0.33
 -15   1   4    2.90    0.26
  15   1  -4    2.41    0.32
  15  -1   4    2.71    0.28
 -15  -1  -4    2.85    0.21
 -15  -1   4    2.74    0.25
  15   1   4    2.88    0.34
  15  -1  -4    2.09    0.33
 -15   1  -4    3.15    0.22
 -15  -2  -4    0.00    0.05
  15  -2   4    0.05    0.07
 -15   2   4    0.07    0.04
 -15   2   4    0.01    0.04
 -15  -2   4    0.02    0.03
  15  -2  -4    0.01    0.08
  15  -2  -4   -0.03    0.04
 -15   2  -4   -0.02    0.05
  15   2   4    0.09    0.06
 -15   3   4    1.72    0.18
  15  -3   4    1.45    0.20
 -15  -3  -4    1.76    0.14
  15  -3  -4    1.57    0.17
 -15  -3   4    1.81    0.17
 -15   3  -4    1.90    0.15
  15   0   5    0.28    0.08
  15   0  -5    0.46    0.10
 -15   0  -5    0.37    0.08
 -15   0   5    0.24    0.06
  15   0   5    0.42    0.12
 -15   1   5    0.10    0.04
  15  -1   5    0.14    0.11
 -15  -1  -5    0.13    0.06
 -15   1  -5    0.07    0.07
  15   1   5    0.15    0.07
 -15  -1   5    0.10    0.04
  15  -1  -5    0.01    0.09
  15   1   5   -0.08    0.07
 -15   2   5    0.23    0.05
  15  -2   5    0.23    0.11
 -15  -2  -5    0.15    0.06
 -15   2  -5    0.27    0.07
 -15  -2   5    0.19    0.05
  15  -2  -5    0.26    0.06
  16   0   0    2.03    0.26
  16  -1   0    0.17    0.06
  16  -1   0    0.02    0.04
  16   1   0    0.04    0.06
 -16   1   0    0.02    0.03
 -16   2   0    1.75    0.18
  16  -2   0    1.83    0.17
  16   2   0    1.62    0.23
 -16  -2   0    1.70    0.13
 -16   2   0    2.05    0.17
  16  -2   0    1.66    0.23
  16   3   0    0.06    0.05
  16  -3   0    0.05    0.04
 -16   3   0    0.03    0.04
 -16  -3   0   -0.03    0.03
 -16   3   0   -0.01    0.04
  16   3   0   -0.01    0.03
  16   0   1    0.46    0.11
  16   0  -1    0.66    0.12
 -16   0   1    0.43    0.07
  16   1  -1    0.14    0.07
 -16  -1  -1   -0.03    0.04
  16  -1   1    0.16    0.07
  16  -1   1    0.02    0.05
 -16   1   1    0.07    0.03
  16  -1  -1    0.19    0.06
  16   1   1    0.06    0.07
  16  -1  -1    0.01    0.04
  16   2  -1    0.34    0.08
  16  -2   1    0.23    0.06
 -16  -2  -1    0.31    0.05
 -16   2   1    0.22    0.05
 -16   2   1    0.37    0.06
  16  -2   1    0.36    0.08
  16  -2  -1    0.31    0.06
  16   2   1    0.40    0.09
  16  -2  -1    0.30    0.07
  16   3  -1    0.02    0.05
 -16   3   1    0.00    0.04
 -16   3   1    0.03    0.04
 -16  -3  -1    0.01    0.03
  16  -3   1   -0.01    0.04
  16   3   1    0.05    0.05
  16  -3  -1    0.21    0.06
 -16   3  -1    0.03    0.04
  16  -3  -1    0.04    0.04
 -16   0  -2   -0.01    0.05
  16   0  -2    0.17    0.06
 -16   0   2    0.06    0.03
  16   0   2    0.10    0.07
  16  -1   2    0.42    0.08
 -16   1   2    0.30    0.06
  16  -1   2    0.26    0.08
 -16  -1  -2    0.30    0.06
  16  -1  -2    0.33    0.08
  16   1   2    0.39    0.09
 -16   1  -2    0.26    0.06
 -16  -1   2    0.31    0.05
  16  -2   2    0.02    0.05
 -16   2   2   -0.01    0.04
 -16  -2  -2   -0.01    0.04
  16  -2   2    0.15    0.06
 -16   2   2    0.05    0.03
  16   2  -2    0.08    0.06
  16  -2  -2    0.16    0.06
  16  -2  -2    0.00    0.04
  16   2   2    0.14    0.07
  16   3  -2    0.11    0.06
 -16   3   2    0.16    0.05
 -16  -3  -2    0.12    0.04
 -16   3   2    0.19    0.05
  16  -3   2    0.16    0.06
  16  -3  -2    0.26    0.08
  16  -3  -2    0.10    0.05
  16   3   2    0.30    0.08
  16   0  -3    0.22    0.07
  16   0   3    0.19    0.09
 -16   0  -3   -0.03    0.05
  16   0   3    0.16    0.07
  16  -1   3    0.17    0.06
 -16  -1  -3   -0.03    0.05
  16  -1   3    0.10    0.08
 -16   1   3    0.06    0.03
  16   1  -3    0.27    0.07
 -16   1  -3    0.09    0.06
 -16  -1   3    0.05    0.03
  16   1   3    0.21    0.07
  16  -1  -3    0.23    0.07
  16  -2   3    0.22    0.06
  16  -2   3    0.07    0.07
 -16  -2  -3    0.01    0.04
 -16   2   3   -0.02    0.03
 -16   2   3    0.05    0.04
  16   2  -3    0.27    0.07
  16  -2  -3    0.00    0.04
  16   2   3    0.05    0.06
 -16   2  -3    0.09    0.05
  16  -2  -3    0.20    0.08
 -16  -2   3    0.00    0.03
  16   0   4    0.53    0.13
 -16   0  -4    0.26    0.08
  16   0   4    0.40    0.09
 -16   0   4    0.29    0.06
 -16  -1  -4    0.00    0.06
  16  -1   4    0.18    0.10
  16  -1   4    0.21    0.07
 -16   1  -4    0.05    0.06
  16  -1  -4    0.17    0.08
  17   0   0    0.19    0.07
  17  -1   0    0.26    0.07
  17  -1   0    0.05    0.05
  17   1   0    0.07    0.07
 -17   2   0    0.01    0.03
  17   2   0    0.03    0.06
  17  -2   0   -0.01    0.04
  17   0   1    0.14    0.07
  17   0  -1    0.22    0.07
  17   1  -1    0.19    0.08
  17  -1   1    0.21    0.07
 -17   1   1    0.10    0.04
  17  -1   1    0.14    0.06
  17   1   1    0.21    0.08
  17  -1  -1    0.28    0.07
 -17   2   1    0.01    0.04
  17   2  -1    0.02    0.07
  17  -2   1    0.20    0.07
  17  -2   1    0.03    0.05
 -17  -2  -1   -0.01    0.04
 -17   2   1    0.07    0.03
  17   2   1    0.06    0.06
  17  -2  -1    0.02    0.04
  17   0  -2    0.27    0.07
 -17   0  -2   -0.01    0.05
 -17   0   2    0.07    0.03
  17   0   2    0.09    0.07
 -17   1   2    0.39    0.07
  17  -1   2    0.48    0.10
  17  -1   2    0.39    0.10
 -17  -1  -2    0.27    0.07
  17   1   2    0.41    0.10
  17  -1  -2    0.73    0.12
 -17   2   2   -0.04    0.04
  17   2  -2    0.12    0.08
 -17  -2  -2   -0.02    0.04
 -17   2   2    0.03    0.03
  17  -2   2    0.06    0.06
  17  -2  -2   -0.02    0.04
 -17   0  -3   -0.03    0.06
 -17   0   3    0.06    0.03
 -17   1   3    1.62    0.17
  17   1  -3    1.99    0.24
 -17  -1  -3    1.68    0.15
  17  -1   3    1.61    0.21
 -17  -1   3    1.56    0.17
   0   0   0    0.00    0.00
;
_shelx_hkl_checksum              8284
#END Tags that were not found in dictionaries
loop_
_space_group_symop_operation_xyz
'x, y, z'
'-x+1/2, -y, z+1/2'
'-x, y+1/2, -z'
'x+1/2, -y+1/2, -z+1/2'
'-x, -y, -z'
'x-1/2, y, -z-1/2'
'x, -y-1/2, z'
'-x-1/2, y-1/2, z-1/2'
loop_
_atom_site_label
_atom_site_type_symbol
_atom_site_fract_x
_atom_site_fract_y
_atom_site_fract_z
_atom_site_U_iso_or_equiv
_atom_site_adp_type
_atom_site_occupancy
_atom_site_site_symmetry_order
_atom_site_calc_flag
_atom_site_refinement_flags_posn
_atom_site_refinement_flags_adp
_atom_site_refinement_flags_occupancy
N5 N 0.13254(12) 0.7500 0.6726(2) 0.0297(5) Uani 1 2 d S T P
N1 N 0.35419(12) 0.7500 0.2732(2) 0.0287(5) Uani 1 2 d S T P
N3 N 0.40174(11) 0.7500 0.5327(2) 0.0294(5) Uani 1 2 d S T P
N6 N 0.10684(13) 0.7500 0.5308(3) 0.0404(6) Uani 1 2 d S T P
N4 N 0.15976(14) 0.7500 0.8139(2) 0.0357(5) Uani 1 2 d S T P
C2 C 0.32681(16) 0.7500 0.4335(3) 0.0281(5) Uani 1 2 d S T P
H2 H 0.2624(19) 0.7500 0.468(3) 0.034 Uiso 1 2 d S U P
C5 C 0.44998(16) 0.7500 0.2683(3) 0.0317(6) Uani 1 2 d S T P
H5 H 0.4802(18) 0.7500 0.163(4) 0.038 Uiso 1 2 d S U P
C7 C 0.40015(16) 0.7500 0.7189(3) 0.0365(6) Uani 1 2 d S T P
H7A H 0.4453 0.8523 0.7616 0.055 Uiso 0.5 1 calc R U P
H7B H 0.4164 0.6102 0.7608 0.055 Uiso 0.5 1 calc R U P
H7C H 0.3376 0.7875 0.7585 0.055 Uiso 0.5 1 calc R U P
C4 C 0.47997(16) 0.7500 0.4310(3) 0.0329(6) Uani 1 2 d S T P
H4 H 0.543(2) 0.7500 0.475(3) 0.040 Uiso 1 2 d S U P
C6 C 0.29109(18) 0.7500 0.1273(3) 0.0374(6) Uani 1 2 d S T P
H6A H 0.2268 0.7330 0.1666 0.056 Uiso 0.5 1 calc R U P
H6B H 0.3073 0.6340 0.0514 0.056 Uiso 0.5 1 calc R U P
H6C H 0.2970 0.8830 0.0661 0.056 Uiso 0.5 1 calc R U P
loop_
_atom_site_aniso_label
_atom_site_aniso_U_11
_atom_site_aniso_U_22
_atom_site_aniso_U_33
_atom_site_aniso_U_23
_atom_site_aniso_U_13
_atom_site_aniso_U_12
N5 0.0280(10) 0.0310(10) 0.0301(10) 0.000 0.0025(7) 0.000
N1 0.0392(11) 0.0287(9) 0.0183(9) 0.000 0.0006(7) 0.000
N3 0.0345(11) 0.0339(10) 0.0198(10) 0.000 0.0015(6) 0.000
N6 0.0358(11) 0.0602(14) 0.0252(11) 0.000 -0.0025(7) 0.000
N4 0.0412(11) 0.0411(11) 0.0248(10) 0.000 -0.0039(8) 0.000
C2 0.0336(12) 0.0291(10) 0.0216(11) 0.000 0.0025(8) 0.000
C5 0.0388(12) 0.0339(11) 0.0223(11) 0.000 0.0064(8) 0.000
C7 0.0415(14) 0.0523(14) 0.0158(11) 0.000 0.0012(7) 0.000
C4 0.0341(13) 0.0383(11) 0.0264(11) 0.000 0.0039(8) 0.000
C6 0.0534(15) 0.0384(12) 0.0204(11) 0.000 -0.0078(9) 0.000
loop_
_atom_type_symbol
_atom_type_description
_atom_type_scat_dispersion_real
_atom_type_scat_dispersion_imag
_atom_type_scat_source
C C 0.0033 0.0016 'International Tables Vol C Tables 4.2.6.8 and 6.1.1.4'
H H 0.0000 0.0000 'International Tables Vol C Tables 4.2.6.8 and 6.1.1.4'
N N 0.0061 0.0033 'International Tables Vol C Tables 4.2.6.8 and 6.1.1.4'
loop_
_geom_angle_atom_site_label_1
_geom_angle_atom_site_label_2
_geom_angle_atom_site_label_3
_geom_angle
N6 N5 N4 178.9(2)
C2 N1 C5 108.87(17)
C2 N1 C6 124.55(19)
C5 N1 C6 126.59(18)
C2 N3 C4 108.4(2)
C2 N3 C7 125.15(17)
C4 N3 C7 126.43(18)
N1 C2 N3 108.78(19)
C4 C5 N1 106.93(17)
C5 C4 N3 107.0(2)
loop_
_geom_bond_atom_site_label_1
_geom_bond_atom_site_label_2
_geom_bond_distance
N5 N6 1.178(3)
N5 N4 1.181(3)
N1 C2 1.324(3)
N1 C5 1.376(3)
N1 C6 1.465(3)
N3 C2 1.330(3)
N3 C4 1.380(3)
N3 C7 1.469(3)
C5 C4 1.354(3)
