#------------------------------------------------------------------------------
#$Date: 2016-02-14 16:26:36 +0200 (Sun, 14 Feb 2016) $
#$Revision: 176435 $
#$URL: svn://www.crystallography.net/cod/cif/1/51/62/1516208.cif $
#------------------------------------------------------------------------------
#
# This file is available in the Crystallography Open Database (COD),
# http://www.crystallography.net/
#
# All data on this site have been placed in the public domain by the
# contributors.
#
data_1516208
loop_
_publ_author_name
'Migliorati, Valentina'
'Ballirano, Paolo'
'Gontrani, Lorenzo'
'Russina, Olga'
'Caminiti, Ruggero'
_publ_section_title
;
 Crystal polymorphism of propylammonium chloride and structural properties
 of its mixture with water.
;
_journal_issue                   41
_journal_name_full               'The journal of physical chemistry. B'
_journal_page_first              11805
_journal_page_last               11815
_journal_paper_doi               10.1021/jp206831d
_journal_volume                  115
_journal_year                    2011
_chemical_formula_sum            'C3 Cl N'
_chemical_formula_weight         85.49
_chemical_name_systematic        ' ?'
_space_group_IT_number           129
_symmetry_cell_setting           tetragonal
_symmetry_space_group_name_Hall  '-P 4a 2a'
_symmetry_space_group_name_H-M   'P 4/n m m :2'
_audit_creation_date             2011-07-21T08:56
_audit_creation_method           'from EXP file using GSAS2CIF'
_audit_update_record
' 2011-07-21T08:56  Initial CIF as created by GSAS2CIF'
_cell_angle_alpha                90.0
_cell_angle_beta                 90.0
_cell_angle_gamma                90.0
_cell_formula_units_Z            2
_cell_length_a                   6.25958(7)
_cell_length_b                   6.25958
_cell_length_c                   7.39974(18)
_cell_volume                     289.939(8)
_computing_structure_refinement  GSAS
_diffrn_radiation_probe          x-ray
_exptl_absorpt_correction_T_max  0.81793
_exptl_absorpt_correction_T_min  0.81483
_exptl_absorpt_process_details
;   GSAS Absorption/surface roughness correction: function number 0
 Debye-Scherrer absorption correction
Term (= MU.r/wave) =     0.78580E-01
Correction is not refined.
;
_pd_block_id                     2011-07-21T08:56|65|paolo|Bruker_AXS_D8_Advance
_pd_calc_method                  'Rietveld Refinement'
_pd_instr_location               ' ?'
_pd_meas_2theta_range_inc        0.022
_pd_meas_2theta_range_max        89.988
_pd_meas_2theta_range_min        3.0
_pd_meas_number_of_points        3955
_pd_phase_name                   'Propylammonium chloride'
_pd_proc_2theta_range_inc        0.022
_pd_proc_2theta_range_max        89.988
_pd_proc_2theta_range_min        3.0
_pd_proc_info_datetime           2011-07-21T08:56:05
_pd_proc_info_excluded_regions   ' ?'
_pd_proc_ls_background_function
;   GSAS Background function number 1 with 30 terms.
 Shifted Chebyshev function of 1st kind
      1:    517.439     2:   -349.777     3:    43.0859     4:    77.0965    
      5:   -72.5183     6:   -2.27077     7:    69.0787     8:   -78.1049    
      9:    34.6091    10:    10.0284    11:   -30.3228    12:    24.1733    
     13:   -6.83233    14:   -8.22949    15:    1.83447    16:    1.27781    
     17:   -3.63415    18:  -0.537933    19:   0.682563    20:  -0.228117    
     21:   -4.71262    22:    1.19540    23:  -0.496280    24:   -3.16228    
     25:    3.29391    26:   -3.85735    27:  -9.044900E-0228:    1.31445    
     29:   -1.29224    30:   0.481997    
;
_pd_proc_ls_peak_cutoff          0.00100
_pd_proc_ls_profile_function
;
 CW Profile function number 3 with  19 terms
 Pseudovoigt profile coefficients as parameterized in
 P. Thompson, D.E. Cox & J.B. Hastings (1987). J. Appl. Cryst.,20,79-83.
 Asymmetry correction of L.W. Finger, D.E. Cox & A. P. Jephcoat (1994).
 J. Appl. Cryst.,27,892-900.
 Peak tails are ignored  where the intensity is below 0.0010 times the peak
   Aniso. broadening axis   0.0   1.0   0.0
;
_pd_proc_ls_prof_R_factor        0.0445
_pd_proc_ls_prof_wR_expected     0.0409
_pd_proc_ls_prof_wR_factor       0.0588
_pd_proc_number_of_points        3955
_pd_spec_mounting                ' ?'
_refine_ls_goodness_of_fit_all   1.45
_refine_ls_matrix_type           full
_refine_ls_number_parameters     47
_refine_ls_number_restraints     8
_refine_ls_R_Fsqd_factor         0.14841
_refine_ls_shift/su_max          0.08
_refine_ls_shift/su_mean         0.01
_reflns_d_resolution_high        1.094
_reflns_d_resolution_low         7.400
_reflns_limit_h_max              5
_reflns_limit_h_min              0
_reflns_limit_k_max              4
_reflns_limit_k_min              0
_reflns_limit_l_max              6
_reflns_limit_l_min              0
_reflns_number_total             174
_cod_data_source_file            338K.cif
_cod_data_source_block           65_publ
_cod_depositor_comments
;
The following automatic conversions were performed:

'_geom_bond_publ_flag' value 'N' changed to 'n' according to
/usr/data/users/saulius/automatic-downloads/retrospective/ACS/lib/dictionaries/cif_core.dic
dictionary named 'cif_core.dic' version 2.4.2 from 2011-04-26 (24
times).

'_geom_angle_publ_flag' value 'N' changed to 'n' according
to
/usr/data/users/saulius/automatic-downloads/retrospective/ACS/lib/dictionaries/cif_core.dic
dictionary named 'cif_core.dic' version 2.4.2 from 2011-04-26 (68
times).

Automatic conversion script
Id: cif_fix_values 2281 2013-09-26 08:29:07Z andrius 
;
_cod_original_cell_volume        289.939(10)
_cod_original_sg_symbol_H-M      'p 4/n m m'
_cod_original_formula_sum        'C3.00 Cl N'
_cod_database_code               1516208
#BEGIN Tags that were not found in dictionaries:
_gsas_exptl_extinct_corr_t_min   1.00000
_gsas_exptl_extinct_corr_t_max   1.00000
#END Tags that were not found in dictionaries
loop_
_symmetry_equiv_pos_site_id
_symmetry_equiv_pos_as_xyz
1 +x,+y,+z
2 -y+1/2,+x,+z
3 -x+1/2,-y+1/2,+z
4 +y,-x+1/2,+z
5 -x+1/2,+y,+z
6 -y+1/2,-x+1/2,+z
7 +x,-y+1/2,+z
8 +y,+x,+z
-1 -x,-y,-z
-2 +y+1/2,-x,-z
-3 +x+1/2,+y+1/2,-z
-4 -y,+x+1/2,-z
-5 +x+1/2,-y,-z
-6 +y+1/2,+x+1/2,-z
-7 -x,+y+1/2,-z
-8 -y,-x,-z
loop_
_atom_site_type_symbol
_atom_site_label
_atom_site_fract_x
_atom_site_fract_y
_atom_site_fract_z
_atom_site_occupancy
_atom_site_thermal_displace_type
_atom_site_U_iso_or_equiv
_atom_site_symmetry_multiplicity
Cl CL1 0.25 -0.25 0.0 1.0 Uiso 0.1152(9) 2
C C(1) 0.25 0.3332(6) 0.29578(33) 0.25 Uiso 0.0659(16) 8
N N 0.25 0.25 0.11040(29) 1.0 Uiso 0.0659(16) 2
C C(2) 0.25 0.1495(5) 0.43453(28) 0.25 Uiso 0.0659(16) 8
C C(3) 0.25 0.25 0.6267(4) 1.0 Uiso 0.0659(16) 2
loop_
_atom_type_symbol
_atom_type_number_in_cell
_atom_type_scat_dispersion_real
_atom_type_scat_dispersion_imag
_atom_type_scat_Cromer_Mann_a1
_atom_type_scat_Cromer_Mann_a2
_atom_type_scat_Cromer_Mann_a3
_atom_type_scat_Cromer_Mann_a4
_atom_type_scat_Cromer_Mann_b1
_atom_type_scat_Cromer_Mann_b2
_atom_type_scat_Cromer_Mann_b3
_atom_type_scat_Cromer_Mann_b4
_atom_type_scat_Cromer_Mann_c
_atom_type_scat_source
Cl 2.0 0.000 0.000 11.4604 0.01040 7.19640 1.16620 6.25560 18.5194 1.64550
47.7784 -9.5574 International_Tables_Vol_C
C 6.0 0.000 0.000 2.31000 20.8439 1.02000 10.2075 1.58860 0.56870 0.86500
51.6512 0.21560 International_Tables_Vol_C
N 2.0 0.000 0.000 12.2126 0.00570 3.13220 9.89330 2.01250 28.9975 1.16630
0.58260 -11.529 International_Tables_Vol_C
loop_
_diffrn_radiation_wavelength
_diffrn_radiation_wavelength_wt
_diffrn_radiation_type
_diffrn_radiation_wavelength_id
1.540598 1.000 K\a~1~ 1
1.544390 0.500 K\a~2~ 2
loop_
_geom_angle_atom_site_label_1
_geom_angle_atom_site_label_2
_geom_angle_atom_site_label_3
_geom_angle
_geom_angle_site_symmetry_1
_geom_angle_site_symmetry_3
_geom_angle_publ_flag
C(1) C(1) C(1) 45.0 2_555 3_555 n
C(1) C(1) C(1) 90.0 2_555 4_555 n
C(1) C(1) N 75.47(10) 2_555 1_555 n
C(1) C(1) C(2) 58.17(8) 2_555 1_555 n
C(1) C(1) C(2) 93.35(15) 2_555 2_555 n
C(1) C(1) C(2) 94.25(19) 2_555 3_555 n
C(1) C(1) C(2) 51.71(15) 2_555 4_555 n
C(1) C(1) C(1) 45.0 3_555 4_555 n
C(1) C(1) N 69.22(14) 3_555 1_555 n
C(1) C(1) C(2) 41.77(15) 3_555 1_555 n
C(1) C(1) C(2) 66.62(16) 3_555 2_555 n
C(1) C(1) C(2) 96.02(27) 3_555 3_555 n
C(1) C(1) C(2) 66.62(16) 3_555 4_555 n
C(1) C(1) N 75.47(10) 4_555 1_555 n
C(1) C(1) C(2) 58.17(8) 4_555 1_555 n
C(1) C(1) C(2) 51.71(15) 4_555 2_555 n
C(1) C(1) C(2) 94.25(19) 4_555 3_555 n
C(1) C(1) C(2) 93.35(15) 4_555 4_555 n
N C(1) C(2) 110.99(25) 1_555 1_555 n
N C(1) C(2) 126.23(24) 1_555 2_555 n
N C(1) C(2) 165.2(4) 1_555 3_555 n
N C(1) C(2) 126.23(24) 1_555 4_555 n
C(2) C(1) C(2) 35.17(17) 1_555 2_555 n
C(2) C(1) C(2) 54.25(31) 1_555 3_555 n
C(2) C(1) C(2) 35.17(17) 1_555 4_555 n
C(2) C(1) C(2) 42.54(23) 2_555 3_555 n
C(2) C(1) C(2) 57.30(29) 2_555 4_555 n
C(2) C(1) C(2) 42.54(23) 3_555 4_555 n
C(1) N C(1) 29.06(19) 1_555 2_555 n
C(1) N C(1) 41.56(28) 1_555 3_555 n
C(1) N C(1) 29.06(19) 1_555 4_555 n
C(1) N C(1) 29.06(19) 2_555 3_555 n
C(1) N C(1) 41.56(28) 2_555 4_555 n
C(1) N C(1) 29.06(19) 3_555 4_555 n
C(1) C(2) C(1) 28.48(18) 1_555 2_555 n
C(1) C(2) C(1) 42.21(32) 1_555 3_555 n
C(1) C(2) C(1) 28.48(18) 1_555 4_555 n
C(1) C(2) C(2) 58.17(8) 1_555 2_555 n
C(1) C(2) C(2) 41.77(15) 1_555 3_555 n
C(1) C(2) C(2) 58.17(8) 1_555 4_555 n
C(1) C(2) C(3) 107.91(23) 1_555 1_555 n
C(1) C(2) C(1) 34.04(25) 2_555 3_555 n
C(1) C(2) C(1) 46.76(31) 2_555 4_555 n
C(1) C(2) C(2) 86.65(15) 2_555 2_555 n
C(1) C(2) C(2) 61.35(15) 2_555 3_555 n
C(1) C(2) C(2) 51.71(15) 2_555 4_555 n
C(1) C(2) C(3) 121.46(23) 2_555 1_555 n
C(1) C(2) C(1) 34.04(25) 3_555 4_555 n
C(1) C(2) C(2) 85.75(19) 3_555 2_555 n
C(1) C(2) C(2) 83.98(27) 3_555 3_555 n
C(1) C(2) C(2) 85.75(19) 3_555 4_555 n
C(1) C(2) C(3) 150.1(4) 3_555 1_555 n
C(1) C(2) C(2) 51.71(15) 4_555 2_555 n
C(1) C(2) C(2) 61.35(15) 4_555 3_555 n
C(1) C(2) C(2) 86.65(15) 4_555 4_555 n
C(1) C(2) C(3) 121.46(23) 4_555 1_555 n
C(2) C(2) C(2) 45.0 2_555 3_555 n
C(2) C(2) C(2) 90.0 2_555 4_555 n
C(2) C(2) C(3) 73.38(8) 2_555 1_555 n
C(2) C(2) C(2) 45.0 3_555 4_555 n
C(2) C(2) C(3) 66.14(12) 3_555 1_555 n
C(2) C(2) C(3) 73.38(8) 4_555 1_555 n
C(2) C(3) C(2) 33.24(17) 1_555 2_555 n
C(2) C(3) C(2) 47.72(25) 1_555 3_555 n
C(2) C(3) C(2) 33.24(17) 1_555 4_555 n
C(2) C(3) C(2) 33.24(17) 2_555 3_555 n
C(2) C(3) C(2) 47.72(25) 2_555 4_555 n
C(2) C(3) C(2) 33.24(17) 3_555 4_555 n
loop_
_geom_bond_atom_site_label_1
_geom_bond_atom_site_label_2
_geom_bond_distance
_geom_bond_site_symmetry_2
_geom_bond_publ_flag
C(1) C(1) 0.736(5) 2_555 n
C(1) C(1) 1.041(7) 3_555 n
C(1) C(1) 0.736(5) 4_555 n
C(1) N 1.4672(33) 1_555 n
C(1) C(2) 1.541(4) 1_555 n
C(1) C(2) 1.3117(33) 2_555 n
C(1) C(2) 1.0324(32) 3_555 n
C(1) C(2) 1.3117(33) 4_555 n
N C(1) 1.4672(33) 1_555 n
N C(1) 1.4672(33) 2_555 n
N C(1) 1.4672(33) 3_555 n
N C(1) 1.4672(33) 4_555 n
C(2) C(1) 1.541(4) 1_555 n
C(2) C(1) 1.3117(33) 2_555 n
C(2) C(1) 1.0324(32) 3_555 n
C(2) C(1) 1.3117(33) 4_555 n
C(2) C(2) 0.889(5) 2_555 n
C(2) C(2) 1.258(7) 3_555 n
C(2) C(2) 0.889(5) 4_555 n
C(2) C(3) 1.5548(34) 1_555 n
C(3) C(2) 1.5548(34) 1_555 n
C(3) C(2) 1.5548(34) 2_555 n
C(3) C(2) 1.5548(34) 3_555 n
C(3) C(2) 1.5548(34) 4_555 n
loop_
_pd_meas_counts_total
_pd_proc_ls_weight
_pd_proc_intensity_bkg_calc
_pd_calc_intensity_total
21607.0 0.0 -11356551.00000 .
20647.0 0.0 -11056669.00000 .
19997.0 0.0 -10764146.00000 .
19052.0 0.0 -10478798.00000 .
18433.0 0.0 -10200470.00000 .
17850.0 0.0 -9928999.00000 .
17300.0 0.0 -9664238.00000 .
16853.0 0.0 -9406023.00000 .
15993.0 0.0 -9154207.00000 .
15847.0 0.0 -8908646.00000 .
15159.0 0.0 -8669195.00000 .
14748.0 0.0 -8435705.00000 .
14268.0 0.0 -8208049.50000 .
13785.0 0.0 -7986093.50000 .
13562.0 0.0 -7769693.00000 .
13074.0 0.0 -7558730.50000 .
12769.0 0.0 -7353071.50000 .
12392.0 0.0 -7152607.00000 .
11997.0 0.0 -6957200.50000 .
11681.0 0.0 -6766738.50000 .
11320.0 0.0 -6581105.00000 .
10906.0 0.0 -6400187.00000 .
10383.0 0.0 -6223876.00000 .
10327.0 0.0 -6052059.00000 .
10023.0 0.0 -5884634.00000 .
9794.0 0.0 -5721499.00000 .
9454.0 0.0 -5562542.00000 .
9081.0 0.0 -5407675.50000 .
8933.0 0.0 -5256799.00000 .
9024.0 0.0 -5109816.00000 .
8685.0 0.0 -4966633.50000 .
8353.0 0.0 -4827159.00000 .
8249.0 0.0 -4691310.00000 .
8002.0 0.0 -4558994.50000 .
7742.0 0.0 -4430128.50000 .
7509.0 0.0 -4304630.00000 .
7594.0 0.0 -4182415.00000 .
7178.0 0.0 -4063406.75000 .
7016.0 0.0 -3947527.50000 .
6814.0 0.0 -3834700.50000 .
6759.0 0.0 -3724849.75000 .
6637.0 0.0 -3617906.00000 .
6515.0 0.0 -3513797.75000 .
6355.0 0.0 -3412453.75000 .
6215.0 0.0 -3313810.00000 .
6199.0 0.0 -3217795.25000 .
6046.0 0.0 -3124349.25000 .
6078.0 0.0 -3033406.00000 .
5823.0 0.0 -2944903.50000 .
5792.0 0.0 -2858783.25000 .
5551.0 0.0 -2774986.25000 .
5323.0 0.0 -2693451.25000 .
5518.0 0.0 -2614125.25000 .
5470.0 0.0 -2536955.50000 .
5345.0 0.0 -2461882.75000 .
5164.0 0.0 -2388855.50000 .
5091.0 0.0 -2317823.50000 .
5217.0 0.0 -2248740.50000 .
5002.0 0.0 -2181549.25000 .
4749.0 0.0 -2116208.25000 .
4833.0 0.0 -2052668.12500 .
4765.0 0.0 -1990885.25000 .
4729.0 0.0 -1930812.00000 .
4659.0 0.0 -1872406.62500 .
4515.0 0.0 -1815626.87500 .
4472.0 0.0 -1760431.25000 .
4458.0 0.0 -1706777.00000 .
4424.0 0.0 -1654627.00000 .
4291.0 0.0 -1603940.62500 .
4238.0 0.0 -1554683.12500 .
4234.0 0.0 -1506812.75000 .
4132.0 0.0 -1460297.25000 .
4094.0 0.0 -1415101.25000 .
4075.0 0.0 -1371190.37500 .
3895.0 0.0 -1328529.75000 .
4056.0 0.0 -1287086.75000 .
3987.0 0.0 -1246830.50000 .
3974.0 0.0 -1207729.62500 .
3850.0 0.0 -1169752.50000 .
3867.0 0.0 -1132871.37500 .
3814.0 0.0 -1097056.37500 .
3716.0 0.0 -1062278.87500 .
3797.0 0.0 -1028512.50000 .
3689.0 0.0 -995728.75000 .
3573.0 0.0 -963902.68750 .
3642.0 0.0 -933008.50000 .
3474.0 0.0 -903020.06250 .
3370.0 0.0 -873915.18750 .
3422.0 0.0 -845668.43750 .
3383.0 0.0 -818256.81250 .
3423.0 0.0 -791657.62500 .
3285.0 0.0 -765848.93750 .
3173.0 0.0 -740810.62500 .
3302.0 0.0 -716520.56250 .
3274.0 0.0 -692957.68750 .
3240.0 0.0 -670102.37500 .
3255.0 0.0 -647936.62500 .
3183.0 0.0 -626439.18750 .
3197.0 0.0 -605593.62500 .
3155.0 0.0 -585381.56250 .
3076.0 0.0 -565784.06250 .
3082.0 0.0 -546785.50000 .
3095.0 0.0 -528367.62500 .
2989.0 0.0 -510516.50000 .
2950.0 0.0 -493215.56250 .
2850.0 0.0 -476447.15625 .
2949.0 0.0 -460198.96875 .
2838.0 0.0 -444454.50000 .
2856.0 0.0 -429200.71875 .
2882.0 0.0 -414423.75000 .
2772.0 0.0 -400108.87500 .
2813.0 0.0 -386244.31250 .
2825.0 0.0 -372815.56250 .
2733.0 0.0 -359811.62500 .
2710.0 0.0 -347220.31250 .
2714.0 0.0 -335028.00000 .
2614.0 0.0 -323225.12500 .
2746.0 0.0 -311798.96875 .
2630.0 0.0 -300739.65625 .
2615.0 0.0 -290036.46875 .
2596.0 0.0 -279677.50000 .
2582.0 0.0 -269654.50000 .
2574.0 0.0 -259956.54688 .
2625.0 0.0 -250574.40625 .
2562.0 0.0 -241499.07813 .
2525.0 0.0 -232720.42188 .
2536.0 0.0 -224230.93750 .
2515.0 0.0 -216020.79688 .
2414.0 0.0 -208082.39063 .
2365.0 0.0 -200407.95313 .
2399.0 0.0 -192988.31250 .
2374.0 0.0 -185817.03125 .
2397.0 0.0 -178885.45313 .
2432.0 0.0 -172187.20313 .
2360.0 0.0 -165715.26563 .
2367.0 0.0 -159461.89063 .
2354.0 0.0 -153421.12500 .
2365.0 0.0 -147585.89063 .
2247.0 0.0 -141950.32813 .
2252.0 0.0 -136508.39063 .
2295.0 0.0 -131253.40625 .
2174.0 0.0 -126180.17969 .
2208.0 0.0 -121282.38281 .
2229.0 0.0 -116555.21094 .
2205.0 0.0 -111993.38281 .
2272.0 0.0 -107590.94531 .
2225.0 0.0 -103343.64844 .
2205.0 0.0 -99245.92969 .
2145.0 0.0 -95293.36719 .
2174.0 0.0 -91481.64063 .
2131.0 0.0 -87805.50781 .
2136.0 0.0 -84261.29688 .
2103.0 0.0 -80844.21875 .
2016.0 0.0 -77550.63281 .
2059.0 0.0 -74376.45313 .
1982.0 0.0 -71317.36719 .
2033.0 0.0 -68370.09375 .
1913.0 0.0 -65530.68750 .
1931.0 0.0 -62795.86328 .
1920.0 0.0 -60162.09375 .
2004.0 0.0 -57625.80078 .
1942.0 0.0 -55184.04297 .
1934.0 0.0 -52833.44922 .
1888.0 0.0 -50571.07422 .
1898.0 0.0 -48394.12891 .
1962.0 0.0 -46299.32422 .
1923.0 0.0 -44284.28125 .
1863.0 0.0 -42345.97266 .
1816.0 0.0 -40481.96875 .
1865.0 0.0 -38689.83984 .
1774.0 0.0 -36966.85547 .
1925.0 0.0 -35310.80078 .
1785.0 0.0 -33719.23828 .
1841.0 0.0 -32190.06055 .
1784.0 0.0 -30721.09766 .
1693.0 0.0 -29310.06641 .
1798.0 0.0 -27955.08984 .
1769.0 0.0 -26654.13086 .
1766.0 0.0 -25405.26563 .
1699.0 0.0 -24206.77344 .
1747.0 0.0 -23056.61133 .
1706.0 0.0 -21953.27734 .
1624.0 0.0 -20894.89648 .
1660.0 0.0 -19879.97266 .
1703.0 0.0 -18906.94727 .
1636.0 0.0 -17974.13867 .
1706.0 0.0 -17080.25000 .
1645.0 0.0 -16223.68555 .
1684.0 0.0 -15403.20508 .
1655.0 0.0 -14617.42480 .
1612.0 0.0 -13864.98633 .
1584.0 0.0 -13144.71680 .
1578.0 0.0 -12455.35352 .
1606.0 0.0 -11795.78809 .
1554.0 0.0 -11164.87695 .
1546.0 0.0 -10561.45020 .
1604.0 0.0 -9984.53613 .
1554.0 0.0 -9433.05566 .
1557.0 0.0 -8906.07324 .
1503.0 0.0 -8402.65527 .
1477.0 0.0 -7921.79102 .
1465.0 0.0 -7462.67627 .
1509.0 0.0 -7024.39502 .
1561.0 0.0 -6606.14648 .
1512.0 0.0 -6207.16211 .
1499.0 0.0 -5826.60986 .
1451.0 0.0 -5463.79834 .
1422.0 0.0 -5117.96436 .
1412.0 0.0 -4788.44873 .
1423.0 0.0 -4474.58398 .
1440.0 0.0 -4175.68750 .
1426.0 0.0 -3891.17700 .
1395.0 0.0 -3620.43848 .
1344.0 0.0 -3362.89404 .
1397.0 0.0 -3118.00122 .
1374.0 0.0 -2885.20239 .
1405.0 0.0 -2664.00317 .
1305.0 0.0 -2453.87988 .
1293.0 0.0 -2254.37988 .
1358.0 0.0 -2065.04419 .
1391.0 0.0 -1885.39795 .
1352.0 0.0 -1715.04736 .
1381.0 0.0 -1553.56165 .
1300.0 0.0 -1400.55200 .
1307.0 0.0 -1255.64612 .
1339.0 0.0 -1118.46594 .
1305.0 0.0 -988.66748 .
1286.0 0.0 -865.90637 .
1279.0 0.0 -749.86731 .
1262.0 0.0 -640.24585 .
1262.0 0.0 -536.71698 .
1260.0 0.0 -439.01953 .
1251.0 0.0 -346.86035 .
1220.0 0.0 -259.98169 .
1212.0 0.0 -178.13632 .
1144.0 0.0 -101.06357 .
1198.0 0.0 -28.54569 .
1224.0 0.0 39.65252 .
1217.0 0.0 103.73609 .
1142.0 0.0 163.91502 .
1134.0 0.0 220.38841 .
1103.0 0.0 273.34018 .
1125.0 0.0 322.95859 .
1047.0 0.0 369.40808 .
1151.0 0.0 412.85568 .
1104.0 0.0 453.46545 .
1081.0 0.0 491.38205 .
1074.0 0.0 526.75378 .
1134.0 0.0 559.71765 .
1067.0 0.0 590.40466 .
1032.0 0.0 618.94232 .
1057.0 0.0 645.44904 .
1011.0 0.0 670.04248 .
1063.0 0.0 692.82855 .
1040.0 0.0 713.91266 .
1021.0 0.0 733.39569 .
1038.0 0.0 751.37115 .
1019.0 0.0 767.92944 .
1064.0 0.0 783.15558 .
992.0 0.0 797.13049 .
965.0 0.0 809.93408 .
1010.0 0.0 821.63837 .
1049.0 0.0 832.31366 .
984.0 0.0 842.02698 .
966.0 0.0 850.84033 .
981.0 0.0 858.81439 .
999.0 0.0 866.00513 .
968.0 0.0 872.46710 .
946.0 0.0 878.25006 .
1023.0 0.0 883.40253 .
1023.0 0.0 887.97021 .
1035.0 0.0 891.99591 .
1035.0 0.0 895.51996 .
1029.0 0.0 898.58051 .
1016.0 0.0 901.21362 .
923.0 0.0 903.45349 .
1004.0 0.0 905.33154 .
946.0 0.0 906.87811 .
1006.0 0.0 908.12146 .
999.0 0.0 909.08765 .
993.0 0.0 909.80206 .
946.0 0.0 910.28729 .
922.0 0.0 910.56549 .
963.0 0.0 910.65662 .
945.0 0.0 910.57977 .
918.0 0.0 910.35254 .
1010.0 0.0 909.99133 .
923.0 0.0 909.51123 .
971.0 0.0 908.92664 .
934.0 0.0 908.25049 .
951.0 0.0 907.49475 .
918.0 0.0 906.67072 .
952.0 0.0 905.78845 .
947.0 0.0 904.85760 .
939.0 0.0 903.88666 .
938.0 0.0 902.88348 .
953.0 0.0 901.85516 .
942.0 0.0 900.80823 .
954.0 0.0 899.74860 .
971.0 0.0 898.68152 .
956.0 0.0 897.61157 .
929.0 0.0 896.54315 .
850.0 0.0 895.47974 .
939.0 0.0 894.42474 .
854.0 0.0 893.38098 .
884.0 0.0 892.35071 .
898.0 0.0 891.33618 .
897.0 0.0 890.33881 .
871.0 0.0 889.36035 .
890.0 0.0 888.40161 .
905.0 0.0 887.46356 .
906.0 0.0 886.54669 .
910.0 0.0 885.65131 .
899.0 0.0 884.77753 .
888.0 0.0 883.92542 .
916.0 0.0 883.09442 .
861.0 0.0 882.28442 .
857.0 0.0 881.49469 .
879.0 0.001138 880.72449 880.72382
889.0 0.001125 879.97308 879.97260
929.0 0.001076 879.23956 879.23914
886.0 0.001129 878.52295 878.52258
850.0 0.001176 877.82190 877.82166
884.0 0.001131 877.13556 877.13538
913.0 0.001095 876.46259 876.46246
886.0 0.001129 875.80164 875.80157
885.0 0.001130 875.15149 875.15149
869.0 0.001151 874.51074 874.51074
906.0 0.001104 873.87799 873.87811
847.0 0.001181 873.25201 873.25214
818.0 0.001222 872.63123 872.63141
861.0 0.001161 872.01434 872.01453
888.0 0.001126 871.39996 871.40015
841.0 0.001189 870.78662 870.78687
872.0 0.001147 870.17303 870.17328
876.0 0.001142 869.55786 869.55804
812.0 0.001232 868.93964 868.93982
864.0 0.001157 868.31714 868.31732
853.0 0.001172 867.68909 867.68927
802.0 0.001247 867.05426 867.05444
881.0 0.001135 866.41144 866.41156
922.0 0.001085 865.75934 865.75946
877.0 0.001140 865.09705 865.09717
864.0 0.001157 864.42322 864.42334
865.0 0.001156 863.73712 863.73718
883.0 0.001133 863.03754 863.03760
895.0 0.001117 862.32355 862.32361
843.0 0.001186 861.59436 861.59436
832.0 0.001202 860.84906 860.84900
837.0 0.001195 860.08685 860.08679
799.0 0.001252 859.30707 859.30701
832.0 0.001202 858.50885 858.50879
828.0 0.001208 857.69177 857.69165
873.0 0.001145 856.85510 856.85498
872.0 0.001147 855.99841 855.99829
853.0 0.001172 855.12115 855.12097
883.0 0.001133 854.22284 854.22266
867.0 0.001153 853.30334 853.30310
885.0 0.001130 852.36200 852.36169
802.0 0.001247 851.39880 851.39856
827.0 0.001209 850.41345 850.41315
886.0 0.001129 849.40576 849.40540
863.0 0.001159 848.37555 848.37518
822.0 0.001217 847.32275 847.32239
877.0 0.001140 846.24750 846.24707
899.0 0.001112 845.14966 845.14923
853.0 0.001172 844.02917 844.02875
850.0 0.001176 842.88641 845.88507
896.0 0.001116 841.72131 846.34143
890.0 0.001124 840.53424 845.39557
869.0 0.001151 839.32513 844.44708
801.0 0.001248 838.09448 843.49866
832.0 0.001202 836.84259 842.55310
830.0 0.001205 835.56952 841.61316
837.0 0.001195 834.27600 840.68292
868.0 0.001152 832.96222 839.76636
828.0 0.001208 831.62860 838.86810
843.0 0.001186 830.27563 837.99377
824.0 0.001214 828.90381 837.14996
851.0 0.001175 827.51367 836.34412
810.0 0.001235 826.10571 835.58508
790.0 0.001266 824.68036 834.88330
819.0 0.001221 823.23846 834.25153
812.0 0.001232 821.78046 833.70471
895.0 0.001117 820.30695 833.26105
868.0 0.001152 818.81873 832.94312
877.0 0.001140 817.31628 832.77844
828.0 0.001208 815.80035 832.80157
886.0 0.001129 814.27155 833.05609
870.0 0.001149 812.73071 833.59827
867.0 0.001153 811.17853 834.50073
830.0 0.001205 809.61554 835.86023
840.0 0.001190 808.04266 837.80688
886.0 0.001129 806.46063 840.52075
874.0 0.001144 804.87012 844.25671
929.0 0.001076 803.27191 849.39404
939.0 0.001065 801.66656 856.56348
937.0 0.001067 800.05524 867.09790
971.0 0.001030 798.43829 884.43610
995.0 0.001005 796.81671 916.95636
1064.0 0.000940 795.19128 980.76221
1168.0 0.000856 793.56262 1097.90515
1261.0 0.000793 791.93158 1289.32983
1480.0 0.000676 790.29877 1572.73352
1877.0 0.000533 788.66516 1974.84229
2400.0 0.000417 787.03137 2551.74561
3267.0 0.0003061 785.39807 3380.67847
4390.0 0.0002278 783.76617 4434.96631
5537.0 0.0001806 782.13629 5353.07422
5410.0 0.0001848 780.50922 5444.11328
4244.0 0.0002356 778.88550 4457.25879
2976.0 0.0003360 777.26599 3034.59839
1677.0 0.000596 775.65143 1904.88452
1193.0 0.000838 774.04224 1294.84082
924.0 0.001082 772.43945 1038.82031
902.0 0.001109 770.84344 938.87927
829.0 0.001206 769.25494 891.92639
820.0 0.001220 767.67462 863.15399
816.0 0.001225 766.10297 842.81549
740.0 0.001351 764.54083 827.55615
796.0 0.001256 762.98865 815.68250
794.0 0.001259 761.44690 806.16833
789.0 0.001267 759.91638 798.35193
794.0 0.001259 758.39740 791.78833
756.0 0.001323 756.89081 786.17157
791.0 0.001264 755.39679 781.28412
717.0 0.001395 753.91602 776.96869
737.0 0.001357 752.44897 773.10956
779.0 0.001284 750.99603 769.61914
763.0 0.001311 749.55786 766.43140
753.0 0.001328 748.13470 763.49463
751.0 0.001332 746.72699 760.76862
729.0 0.001372 745.33521 758.22150
727.0 0.001376 743.95966 755.82782
762.0 0.001312 742.60083 753.56720
723.0 0.001383 741.25903 751.42273
745.0 0.001342 739.93445 749.38062
768.0 0.001302 738.62769 747.42981
746.0 0.001340 737.33875 745.56067
751.0 0.001332 736.06812 743.76538
779.0 0.001284 734.81610 742.03748
768.0 0.001302 733.58270 740.37097
733.0 0.001364 732.36847 738.76160
733.0 0.001364 731.17334 737.20483
749.0 0.001335 729.99774 735.69745
717.0 0.001395 728.84174 734.23639
730.0 0.001370 727.70551 732.81891
723.0 0.001383 726.58917 731.44287
714.0 0.001401 725.49298 730.10632
720.0 0.001389 724.41699 728.80731
738.0 0.001355 723.36139 724.81183
734.0 0.001362 722.32605 722.32593
741.0 0.001350 721.31128 721.31116
742.0 0.001348 720.31702 720.31696
750.0 0.001333 719.34338 719.34332
721.0 0.001387 718.39044 718.39038
698.0 0.001433 717.45813 717.45801
733.0 0.001364 716.54645 716.54639
702.0 0.001425 715.65533 715.65527
716.0 0.001397 714.78497 714.78491
697.0 0.001435 713.93524 713.93518
687.0 0.001456 713.10596 713.10590
720.0 0.001389 712.29724 712.29724
711.0 0.001406 711.50897 711.50891
703.0 0.001422 710.74103 710.74097
750.0 0.001333 709.99341 709.99335
748.0 0.001337 709.26581 709.26581
667.0 0.001499 708.55835 708.55835
732.0 0.001366 707.87079 707.87079
705.0 0.001418 707.20306 707.20306
703.0 0.001422 706.55499 706.55493
741.0 0.001350 705.92633 705.92633
754.0 0.001326 705.31708 705.31708
738.0 0.001355 704.72693 704.72693
734.0 0.001362 704.15582 704.15582
725.0 0.001379 703.60352 703.60352
728.0 0.001374 703.06976 703.06976
676.0 0.001479 702.55450 702.55450
725.0 0.001379 702.05737 702.05737
704.0 0.001420 701.57831 701.57831
724.0 0.001381 701.11694 701.11694
769.0 0.001300 700.67316 700.67316
703.0 0.001422 700.24670 700.24670
777.0 0.001287 699.83728 699.83728
704.0 0.001420 699.44470 699.44470
727.0 0.001376 699.06879 699.06879
722.0 0.001385 698.70911 698.70917
753.0 0.001328 698.36560 698.36560
696.0 0.001437 698.03790 698.03796
690.0 0.001449 697.72577 697.72583
698.0 0.001433 697.42902 697.42902
679.0 0.001473 697.14722 697.14722
735.0 0.001361 696.88025 696.88025
720.0 0.001389 696.62775 696.62781
720.0 0.001389 696.38953 696.38959
671.0 0.001490 696.16528 696.16528
754.0 0.001326 695.95471 695.95477
718.0 0.001393 695.75757 695.75763
669.0 0.001495 695.57355 695.57355
719.0 0.001391 695.40240 695.40247
670.0 0.001493 695.24390 695.24396
676.0 0.001479 695.09766 695.09772
657.0 0.001522 694.96350 694.96356
724.0 0.001381 694.84113 694.84113
664.0 0.001506 694.73016 694.73022
689.0 0.001451 694.63049 694.63055
681.0 0.001468 694.54181 694.54187
695.0 0.001439 694.46381 694.46387
617.0 0.001621 694.39624 694.39624
659.0 0.001517 694.33881 694.33887
725.0 0.001379 694.29126 694.29132
747.0 0.001339 694.25336 694.25342
693.0 0.001443 694.22491 694.22498
709.0 0.001410 694.20557 694.20557
678.0 0.001475 694.19507 694.19513
720.0 0.001389 694.19324 694.19330
701.0 0.001427 694.19977 694.19983
691.0 0.001447 694.21448 694.21454
675.0 0.001481 694.23712 694.23718
632.0 0.001582 694.26746 694.26752
682.0 0.001466 694.30524 694.30524
722.0 0.001385 694.35022 694.35028
673.0 0.001486 694.40228 694.40234
669.0 0.001495 694.46112 694.46118
698.0 0.001433 694.52655 694.52661
685.0 0.001460 694.59839 694.59845
661.0 0.001513 694.67639 694.67645
727.0 0.001376 694.76038 694.76044
715.0 0.001399 694.85022 694.85028
680.0 0.001471 694.94562 694.94568
689.0 0.001451 695.04651 695.04651
693.0 0.001443 695.15265 695.15265
754.0 0.001326 695.26385 695.26392
718.0 0.001393 695.38000 695.38007
718.0 0.001393 695.50092 695.50098
718.0 0.001393 695.62646 695.62653
710.0 0.001408 695.75647 695.75653
696.0 0.001437 695.89081 695.89087
728.0 0.001374 696.02936 696.02942
724.0 0.001381 696.17200 696.17200
669.0 0.001495 696.31854 696.31860
681.0 0.001468 696.46887 696.46893
711.0 0.001406 696.62292 696.62299
680.0 0.001471 696.78064 696.78070
703.0 0.001422 696.94183 696.94189
706.0 0.001416 697.10638 697.10645
648.0 0.001543 697.27429 697.27435
692.0 0.001445 697.44537 697.44543
722.0 0.001385 697.61969 697.61975
687.0 0.001456 697.79706 697.79712
733.0 0.001364 697.97736 697.97742
678.0 0.001475 698.16071 698.16077
709.0 0.001410 698.34692 698.34698
664.0 0.001506 698.53595 698.53601
730.0 0.001370 698.72784 698.72791
683.0 0.001464 698.92249 698.92255
695.0 0.001439 699.11981 699.11987
681.0 0.001468 699.31982 699.31989
719.0 0.001391 699.52258 699.52264
695.0 0.001439 699.72791 699.72803
708.0 0.001412 699.93597 699.93604
684.0 0.001462 700.14667 700.14673
694.0 0.001441 700.35999 700.36005
694.0 0.001441 700.57593 700.57599
703.0 0.001422 700.79449 700.79462
730.0 0.001370 701.01575 701.01587
629.0 0.001590 701.23975 701.23981
692.0 0.001445 701.46637 701.46643
686.0 0.001458 701.69580 701.69586
655.0 0.001527 701.92792 701.92804
699.0 0.001431 702.16290 702.16296
704.0 0.001420 702.40070 702.40076
746.0 0.001340 702.64142 702.64148
772.0 0.001295 702.88501 702.88507
670.0 0.001493 703.13165 703.13171
712.0 0.001404 703.38129 703.38135
671.0 0.001490 703.63403 703.63416
683.0 0.001464 703.89001 703.89008
678.0 0.001475 704.14917 704.14929
689.0 0.001451 704.41168 704.41180
730.0 0.001370 704.67761 704.67767
652.0 0.001534 704.94696 704.94708
662.0 0.001511 705.21991 705.22003
676.0 0.001479 705.49652 705.49658
724.0 0.001381 705.77679 705.77686
699.0 0.001431 706.06091 706.06097
740.0 0.001351 706.34894 706.34906
732.0 0.001366 706.64099 706.64111
680.0 0.001471 706.93713 706.93726
705.0 0.001418 707.23749 707.23761
682.0 0.001466 707.54218 707.54230
725.0 0.001379 707.85132 707.85144
695.0 0.001439 708.16498 708.16510
722.0 0.001385 708.48328 708.48340
721.0 0.001387 708.80640 708.80646
704.0 0.001420 709.13428 709.13440
727.0 0.001376 709.46722 709.46735
734.0 0.001362 709.80524 709.80536
709.0 0.001410 710.14850 710.14862
702.0 0.001425 710.49713 710.49725
734.0 0.001362 710.85120 710.85132
730.0 0.001370 711.21088 711.21100
759.0 0.001318 711.57623 711.57635
694.0 0.001441 711.94751 711.94763
726.0 0.001377 712.32465 712.32477
715.0 0.001399 712.70795 712.70807
691.0 0.001447 713.09747 713.09760
707.0 0.001414 713.49329 713.49341
687.0 0.001456 713.89557 713.89575
689.0 0.001451 714.30450 714.30463
713.0 0.001403 714.72009 714.72021
668.0 0.001497 715.14264 715.14276
698.0 0.001433 715.57208 715.57220
681.0 0.001468 716.00861 716.00879
713.0 0.001403 716.45245 716.45258
671.0 0.001490 716.90363 716.90375
696.0 0.001437 717.36224 717.36237
666.0 0.001502 717.82843 717.82855
665.0 0.001504 718.30243 718.30255
701.0 0.001427 718.78424 718.78436
700.0 0.001429 719.27405 719.27417
742.0 0.001348 719.77197 719.77209
705.0 0.001418 720.27808 720.27820
743.0 0.001346 720.79254 720.79266
747.0 0.001339 721.31543 721.31555
730.0 0.001370 721.84686 721.84698
712.0 0.001404 722.38702 722.38715
774.0 0.001292 722.93591 722.93610
759.0 0.001318 723.49377 723.49396
709.0 0.001410 724.06061 724.06073
737.0 0.001357 724.63654 724.63666
704.0 0.001420 725.22168 725.22186
716.0 0.001397 725.81616 725.81635
732.0 0.001366 726.42017 726.42029
683.0 0.001464 727.03357 727.03375
718.0 0.001393 727.65668 727.65680
747.0 0.001339 728.28943 728.28961
755.0 0.001325 728.93201 728.93219
755.0 0.001325 729.58453 729.58472
746.0 0.001340 730.24701 730.24713
748.0 0.001337 730.91949 730.91968
749.0 0.001335 731.60229 731.60242
733.0 0.001364 732.29517 732.29529
726.0 0.001377 732.99841 732.99854
731.0 0.001368 733.71198 733.71210
750.0 0.001333 734.43597 734.43616
733.0 0.001364 735.17053 735.17065
745.0 0.001342 735.91571 735.91583
723.0 0.001383 736.67145 736.67157
721.0 0.001387 737.43787 737.43805
745.0 0.001342 738.21509 738.21521
752.0 0.001330 739.00317 739.00330
765.0 0.001307 739.80200 739.80219
728.0 0.001374 740.61182 740.61194
736.0 0.001359 741.43256 741.43268
729.0 0.001372 742.26422 742.26434
807.0 0.001239 743.10699 743.10718
715.0 0.001399 743.96075 743.96088
709.0 0.001410 744.82568 744.82581
718.0 0.001393 745.70166 745.70178
777.0 0.001287 746.58868 746.58887
745.0 0.001342 747.48694 747.48706
746.0 0.001340 748.39642 748.39655
719.0 0.001391 749.31702 749.31714
751.0 0.001332 750.24878 750.24890
748.0 0.001337 751.19171 751.19183
750.0 0.001333 752.14594 752.14612
714.0 0.001401 753.11127 755.87433
753.0 0.001328 754.08789 756.99060
764.0 0.001309 755.07562 759.49725
749.0 0.001335 756.07452 760.72754
769.0 0.001300 757.08466 761.98773
802.0 0.001247 758.10583 763.27972
786.0 0.001272 759.13818 764.60602
775.0 0.001290 760.18158 765.96899
833.0 0.001200 761.23602 767.37195
805.0 0.001242 762.30157 768.81860
824.0 0.001214 763.37805 770.31274
776.0 0.001289 764.46545 771.85944
802.0 0.001247 765.56378 773.46423
772.0 0.001295 766.67291 775.13379
840.0 0.001190 767.79297 776.87628
810.0 0.001235 768.92377 778.70068
821.0 0.001218 770.06531 780.61865
776.0 0.001289 771.21741 782.64368
826.0 0.001211 772.38007 784.79236
853.0 0.001172 773.55334 787.08539
835.0 0.001198 774.73694 789.54761
821.0 0.001218 775.93103 792.21112
863.0 0.001159 777.13531 795.11536
826.0 0.001211 778.34979 798.31146
782.0 0.001279 779.57452 801.86578
835.0 0.001198 780.80920 805.86450
875.0 0.001143 782.05383 810.42377
858.0 0.001166 783.30829 815.70020
843.0 0.001186 784.57263 821.91223
839.0 0.001192 785.84656 829.36969
851.0 0.001175 787.13007 838.52698
853.0 0.001172 788.42316 850.09869
920.0 0.001087 789.72546 865.39697
930.0 0.001075 791.03699 887.49683
936.0 0.001068 792.35785 924.49146
1031.0 0.000970 793.68756 995.97595
1163.0 0.000860 795.02631 1141.85938
1450.0 0.000690 796.37372 1428.85400
1970.0 0.000508 797.72980 1945.33264
2857.0 0.0003500 799.09454 2760.85913
3552.0 0.0002815 800.46753 3805.15674
4362.0 0.0002293 801.84888 4732.48340
4932.0 0.0002028 803.23828 5003.17139
4701.0 0.0002127 804.63586 4453.98877
3748.0 0.0002668 806.04120 3479.00586
2664.0 0.000375 807.45428 2452.46436
1845.0 0.000542 808.87500 1682.39526
1266.0 0.000790 810.30310 1245.24219
1040.0 0.000962 811.73853 1043.70215
848.0 0.001179 813.18115 959.92108
889.0 0.001125 814.63074 921.77124
840.0 0.001190 816.08722 900.05511
828.0 0.001208 817.55029 885.58252
814.0 0.001229 819.01990 875.31567
856.0 0.001168 820.49603 867.85706
828.0 0.001208 821.97827 862.37762
834.0 0.001199 823.46649 858.33551
784.0 0.001276 824.96082 855.36371
861.0 0.001161 826.46069 853.20490
895.0 0.001117 827.96619 851.67523
795.0 0.001258 829.47705 850.64050
844.0 0.001185 830.99323 850.00049
849.0 0.001178 832.51434 849.67938
819.0 0.001221 834.04041 849.61890
859.0 0.001164 835.57129 849.77368
811.0 0.001233 837.10657 850.10760
830.0 0.001205 838.64636 850.59241
833.0 0.001200 840.19019 851.20477
915.0 0.001093 841.73804 852.54309
848.0 0.001179 843.28992 853.38934
878.0 0.001139 844.84528 854.62183
824.0 0.001214 846.40405 855.63922
850.0 0.001176 847.96637 856.72247
852.0 0.001174 849.53162 857.86395
890.0 0.001124 851.09979 859.05792
830.0 0.001205 852.67072 860.29962
851.0 0.001175 854.24438 861.58514
863.0 0.001159 855.82025 862.91089
868.0 0.001152 857.39838 864.27460
814.0 0.001229 858.97864 865.67401
858.0 0.001166 860.56067 867.10779
825.0 0.001212 862.14441 868.57489
842.0 0.001188 863.72949 870.07507
886.0 0.001129 865.31592 868.95605
827.0 0.001209 866.90350 870.64581
877.0 0.001140 868.49194 871.03668
854.0 0.001171 870.08124 872.84540
864.0 0.001157 871.67096 874.68439
875.0 0.001143 873.26099 876.55902
865.0 0.001156 874.85132 878.47620
835.0 0.001198 876.44153 880.44464
916.0 0.001092 878.03174 882.47559
870.0 0.001149 879.62146 884.58331
847.0 0.001181 881.21063 886.78680
864.0 0.001157 882.79926 889.11182
902.0 0.001109 884.38678 891.59247
850.0 0.001176 885.97339 894.27704
879.0 0.001138 887.55853 897.23303
895.0 0.001117 889.14227 900.56006
945.0 0.001058 890.72455 904.41290
945.0 0.001058 892.30487 909.07013
934.0 0.001071 893.88336 915.17181
882.0 0.001134 895.45953 924.41339
878.0 0.001139 897.03339 941.05811
957.0 0.001045 898.60474 974.25885
1103.0 0.000907 900.17352 1040.12061
1207.0 0.000829 901.73938 1159.61816
1569.0 0.000637 903.30219 1346.17236
1952.0 0.000512 904.86182 1576.34082
2093.0 0.000478 906.41827 1767.38562
2241.0 0.000446 907.97101 1809.04919
2212.0 0.000452 909.52020 1688.13464
1831.0 0.000546 911.06549 1489.02454
1480.0 0.000676 912.60669 1277.88855
1150.0 0.000870 914.14386 1113.95374
1035.0 0.000966 915.67657 1017.04028
1011.0 0.000989 917.20496 970.94000
974.0 0.001027 918.72852 952.01385
868.0 0.001152 920.24731 944.21271
813.0 0.001230 921.76111 940.46045
905.0 0.001105 923.26996 938.40887
932.0 0.001073 924.77338 937.30035
932.0 0.001073 926.27142 936.81110
898.0 0.001114 927.76392 936.75500
910.0 0.001099 929.25085 937.01166
899.0 0.001112 930.73181 937.49902
924.0 0.001082 932.20691 938.15997
840.0 0.001190 933.67572 938.95349
949.0 0.001054 935.13831 939.84961
920.0 0.001087 936.59448 940.82605
908.0 0.001101 938.04449 941.86597
925.0 0.001081 939.48737 942.95581
948.0 0.001055 940.92365 944.08582
915.0 0.001093 942.35284 945.24762
953.0 0.001049 943.77502 946.43494
960.0 0.001042 945.19043 947.64307
886.0 0.001129 946.59796 948.86658
880.0 0.001136 947.99854 950.10315
925.0 0.001081 949.39105 951.34888
919.0 0.001088 950.77637 952.60217
950.0 0.001053 952.15399 953.86072
915.0 0.001093 953.52338 955.12238
930.0 0.001075 954.88501 956.38611
907.0 0.001103 956.23834 957.65039
899.0 0.001112 957.58362 958.91418
860.0 0.001163 958.92090 960.17682
867.0 0.001153 960.24933 961.43689
913.0 0.001095 961.56952 962.69391
882.0 0.001134 962.88086 963.94720
931.0 0.001074 964.18359 965.19623
873.0 0.001145 965.47797 966.44073
871.0 0.001148 966.76282 967.09058
947.0 0.001056 968.03925 968.35107
958.0 0.001044 969.30627 969.30652
921.0 0.001086 970.56421 970.56445
950.0 0.001053 971.81329 971.81348
942.0 0.001062 973.05267 973.05292
1017.0 0.000983 974.28296 974.28320
1049.0 0.000953 975.50354 975.50378
939.0 0.001065 976.71478 976.71503
1007.0 0.000993 977.91675 977.91699
966.0 0.001035 979.10864 979.10895
1034.0 0.000967 980.29108 980.29132
1022.0 0.000978 981.46350 981.46375
1013.0 0.000987 982.62622 982.62646
972.0 0.001029 983.77936 983.77966
1056.0 0.000947 984.92206 984.92236
992.0 0.001008 986.05518 986.05542
1056.0 0.000947 987.17798 987.17822
1023.0 0.000978 988.29071 988.29095
1002.0 0.000998 989.39355 989.39380
974.0 0.001027 990.48590 990.48621
903.0 0.001107 991.56824 991.56854
978.0 0.001022 992.64014 992.64038
989.0 0.001011 993.70178 993.70209
940.0 0.001064 994.75342 994.75366
927.0 0.001079 995.79431 995.79456
898.0 0.001114 996.82495 996.82526
980.0 0.001020 997.84497 997.84528
908.0 0.001101 998.85468 998.85498
970.0 0.001031 999.85413 999.85443
984.0 0.001016 1000.84271 1000.84296
1014.0 0.000986 1001.82104 1001.82129
958.0 0.001044 1002.78857 1002.78888
1004.0 0.000996 1003.74567 1003.74597
1024.0 0.000977 1004.69238 1004.69263
974.0 0.001027 1005.62817 1005.62848
1010.0 0.000990 1006.55365 1006.55396
975.0 0.001026 1007.46832 1007.46857
997.0 0.001003 1008.37244 1008.37274
1019.0 0.000981 1009.26617 1009.26648
977.0 0.001024 1010.14899 1010.14929
994.0 0.001006 1011.02142 1011.02167
1026.0 0.000975 1011.88300 1011.88330
982.0 0.001018 1012.73407 1012.73438
1050.0 0.000952 1013.57477 1013.57507
994.0 0.001006 1014.40454 1014.40485
1009.0 0.000991 1015.22400 1015.22430
959.0 0.001043 1016.03265 1016.03296
1011.0 0.000989 1016.83081 1016.83112
997.0 0.001003 1017.61859 1017.61890
979.0 0.001021 1018.39563 1018.39594
989.0 0.001011 1019.16235 1019.16266
1003.0 0.000997 1019.91827 1019.91858
1039.0 0.000962 1020.66388 1020.66418
996.0 0.001004 1021.39923 1021.39960
1013.0 0.000987 1022.12396 1022.12427
1056.0 0.000947 1022.83838 1022.83868
1032.0 0.000969 1023.54230 1023.54260
979.0 0.001021 1024.23596 1024.23621
1027.0 0.000974 1024.91943 1024.91980
1003.0 0.000997 1025.59241 1025.59277
994.0 0.001006 1026.25525 1026.25562
1025.0 0.000976 1026.90784 1026.90820
1041.0 0.000961 1027.55029 1027.55066
1006.0 0.000994 1028.18262 1028.18298
1059.0 0.000944 1028.80481 1028.80518
997.0 0.001003 1029.41711 1029.41736
1073.0 0.000932 1030.01904 1030.01941
1137.0 0.000880 1030.61133 1030.61157
1109.0 0.000902 1031.19360 1040.78552
1068.0 0.000936 1031.76599 1041.83484
1074.0 0.000931 1032.32849 1042.91089
1055.0 0.000948 1032.88123 1048.87024
1025.0 0.000976 1033.42419 1050.25500
1075.0 0.000930 1033.95764 1051.69861
1063.0 0.000941 1034.48132 1053.20825
1170.0 0.000855 1034.99548 1054.79309
1073.0 0.000932 1035.50000 1056.46240
1097.0 0.000912 1035.99512 1058.22864
1123.0 0.000890 1036.48083 1060.10522
1124.0 0.000890 1036.95703 1062.10645
1130.0 0.000885 1037.42419 1064.25159
1063.0 0.000941 1037.88184 1066.56067
1153.0 0.000867 1038.33032 1069.05969
1139.0 0.000878 1038.76990 1071.77832
1144.0 0.000874 1039.20020 1074.75037
1135.0 0.000881 1039.62158 1078.01953
1189.0 0.000841 1040.03394 1081.63586
1128.0 0.000887 1040.43738 1085.66260
1226.0 0.000816 1040.83215 1090.17712
1130.0 0.000885 1041.21802 1095.27124
1172.0 0.000853 1041.59521 1101.06641
1212.0 0.000825 1041.96375 1107.70984
1224.0 0.000817 1042.32373 1115.39539
1166.0 0.000858 1042.67529 1124.37280
1155.0 0.000866 1043.01831 1134.96362
1177.0 0.000850 1043.35303 1147.60901
1237.0 0.000808 1043.67932 1162.89661
1232.0 0.000812 1043.99744 1182.72534
1286.0 0.000778 1044.30750 1206.17737
1310.0 0.000763 1044.60925 1235.98279
1318.0 0.000759 1044.90308 1275.43518
1401.0 0.000714 1045.18896 1328.65845
1532.0 0.000653 1045.46680 1408.78345
1650.0 0.000606 1045.73706 1550.26831
1958.0 0.000511 1045.99939 1841.00891
2431.0 0.000411 1046.25403 2470.00903
3707.0 0.0002698 1046.50098 3747.61646
5667.0 0.0001765 1046.74048 5981.42920
8592.0 0.0001164 1046.97253 9126.96387
11690.0 0.0000855 1047.19714 12387.84277
13717.0 0.0000729 1047.41443 14291.34375
14251.0 0.0000702 1047.62427 13848.49219
12558.0 0.0000796 1047.82703 11789.89844
9132.0 0.0001095 1048.02271 9086.28223
6277.0 0.0001593 1048.21130 6286.64893
4271.0 0.0002341 1048.39282 4044.91479
2556.0 0.000391 1048.56750 2632.90991
1745.0 0.000573 1048.73523 1902.88867
1468.0 0.000681 1048.89624 1573.33740
1360.0 0.000735 1049.05054 1423.57178
1246.0 0.000803 1049.19812 1342.63379
1289.0 0.000776 1049.33911 1289.72168
1204.0 0.000831 1049.47363 1251.47205
1248.0 0.000801 1049.60168 1222.71265
1209.0 0.000827 1049.72327 1200.72900
1153.0 0.000867 1049.83862 1183.80481
1137.0 0.000880 1049.94775 1170.83826
1161.0 0.000861 1050.05066 1161.11621
1239.0 0.000807 1050.14746 1154.23486
1117.0 0.000895 1050.23816 1150.08521
1234.0 0.000810 1050.32300 1148.99817
1130.0 0.000885 1050.40173 1152.40662
1211.0 0.000826 1050.47473 1164.73962
1251.0 0.000799 1050.54199 1197.41187
1362.0 0.000734 1050.60339 1274.04138
1537.0 0.000651 1050.65918 1430.60596
1835.0 0.000545 1050.70947 1695.62122
2420.0 0.000413 1050.75403 2048.09033
2725.0 0.000367 1050.79321 2381.19312
2499.0 0.000400 1050.82690 2532.95410
2583.0 0.000387 1050.85535 2437.08105
2209.0 0.000453 1050.87842 2198.27637
1858.0 0.000538 1050.89612 1903.54736
1611.0 0.000621 1050.90881 1607.25903
1341.0 0.000746 1050.91626 1376.05640
1250.0 0.000800 1050.91870 1232.24634
1137.0 0.000880 1050.91614 1158.07019
1119.0 0.000894 1050.90857 1123.96130
1041.0 0.000961 1050.89600 1107.67139
1126.0 0.000888 1050.87866 1098.27356
1097.0 0.000912 1050.85657 1091.75476
1089.0 0.000918 1050.82971 1077.06091
1127.0 0.000887 1050.79810 1073.56995
1076.0 0.000929 1050.76172 1070.77795
1094.0 0.000914 1050.72095 1063.73792
1039.0 0.000962 1050.67554 1062.06763
1084.0 0.000923 1050.62561 1060.67981
1026.0 0.000975 1050.57117 1059.51050
1066.0 0.000938 1050.51245 1058.51245
1091.0 0.000917 1050.44934 1057.65125
1047.0 0.000955 1050.38184 1056.89941
1077.0 0.000929 1050.31006 1056.23669
1060.0 0.000943 1050.23401 1055.64648
1011.0 0.000989 1050.15381 1055.11646
1028.0 0.000973 1050.06946 1054.63611
1037.0 0.000964 1049.98108 1054.19727
1014.0 0.000986 1049.88855 1053.79333
1085.0 0.000922 1049.79199 1053.41870
1039.0 0.000962 1049.69141 1053.06848
1038.0 0.000963 1049.58679 1052.73938
1030.0 0.000971 1049.47839 1052.42810
1081.0 0.000925 1049.36609 1052.13184
1036.0 0.000965 1049.24976 1051.84839
1081.0 0.000925 1049.12976 1051.57593
1055.0 0.000948 1049.00586 1051.31262
973.0 0.001028 1048.87830 1051.05713
1068.0 0.000936 1048.74695 1050.80847
1043.0 0.000959 1048.61194 1050.56519
1017.0 0.000983 1048.47314 1050.32642
1047.0 0.000955 1048.33069 1050.09155
1062.0 0.000942 1048.18469 1048.79309
993.0 0.001007 1048.03516 1048.61340
1103.0 0.000907 1047.88196 1048.43225
1104.0 0.000906 1047.72510 1047.72534
994.0 0.001006 1047.56482 1047.56506
1013.0 0.000987 1047.40100 1047.40125
1004.0 0.000996 1047.23376 1047.23401
972.0 0.001029 1047.06299 1047.06323
995.0 0.001005 1046.88867 1046.88892
1010.0 0.000990 1046.71106 1046.71130
1092.0 0.000916 1046.52991 1046.53015
1044.0 0.000958 1046.34546 1046.34570
1014.0 0.000986 1046.15759 1046.15784
1057.0 0.000946 1045.96631 1045.96643
1053.0 0.000950 1045.77161 1045.77185
1015.0 0.000985 1045.57361 1045.57385
991.0 0.001009 1045.37231 1045.37256
996.0 0.001004 1045.16760 1045.16785
1133.0 0.000883 1044.95959 1044.95972
1042.0 0.000960 1044.74829 1044.74841
1000.0 0.001000 1044.53357 1044.53381
1013.0 0.000987 1044.31567 1044.31592
1029.0 0.000972 1044.09436 1044.09460
981.0 0.001019 1043.86975 1043.87000
1052.0 0.000951 1043.64197 1043.64221
1048.0 0.000954 1043.41077 1043.41101
1007.0 0.000993 1043.17639 1043.17651
1005.0 0.000995 1042.93860 1042.93884
1026.0 0.000975 1042.69751 1042.69775
984.0 0.001016 1042.45325 1042.45337
992.0 0.001008 1042.20557 1042.20581
1041.0 0.000961 1041.95471 1041.95496
1044.0 0.000958 1041.70044 1041.70068
1077.0 0.000929 1041.44287 1041.44312
1065.0 0.000939 1041.18201 1041.18225
1017.0 0.000983 1040.91785 1040.91809
1043.0 0.000959 1040.65039 1040.65063
1081.0 0.000925 1040.37952 1040.37976
1077.0 0.000929 1040.10535 1040.10559
1034.0 0.000967 1039.82788 1039.82800
1022.0 0.000978 1039.54688 1039.54712
999.0 0.001001 1039.26270 1039.26282
1022.0 0.000978 1038.97498 1038.97522
1011.0 0.000989 1038.68396 1038.68408
1058.0 0.000945 1038.38953 1038.38965
1023.0 0.000978 1038.09155 1038.09180
993.0 0.001007 1037.79028 1037.79053
1021.0 0.000979 1037.48547 1037.48572
1066.0 0.000938 1037.17725 1037.17737
1027.0 0.000974 1036.86548 1036.86560
1024.0 0.000977 1036.55017 1036.55042
1029.0 0.000972 1036.23145 1036.23169
995.0 0.001005 1035.90918 1035.90942
963.0 0.001038 1035.58325 1035.58337
1045.0 0.000957 1035.25391 1035.25403
927.0 0.001079 1034.92078 1034.92102
1006.0 0.000994 1034.58423 1034.58435
981.0 0.001019 1034.24390 1034.24402
1042.0 0.000960 1033.89990 1033.90002
981.0 0.001019 1033.55225 1033.55237
1019.0 0.000981 1033.20093 1033.20105
1027.0 0.000974 1032.84583 1032.84595
1010.0 0.000990 1032.48706 1032.48718
1043.0 0.000959 1032.12427 1032.12451
984.0 0.001016 1031.75793 1031.75806
1042.0 0.000960 1031.38757 1031.38782
1024.0 0.000977 1031.01355 1031.01367
985.0 0.001015 1030.63562 1030.63574
1075.0 0.000930 1030.25354 1030.25378
1029.0 0.000972 1029.86780 1029.86804
956.0 0.001046 1029.47791 1029.47815
1011.0 0.000989 1029.08423 1029.08435
1058.0 0.000945 1028.68640 1028.68665
991.0 0.001009 1028.28455 1028.28467
989.0 0.001011 1027.87866 1027.87891
1008.0 0.000992 1027.46863 1027.46887
1004.0 0.000996 1027.05444 1027.05469
1008.0 0.000992 1026.63623 1026.63647
992.0 0.001008 1026.21362 1026.21387
987.0 0.001013 1025.78699 1025.78711
1016.0 0.000984 1025.35596 1025.35608
970.0 0.001031 1024.92065 1024.92090
1073.0 0.000932 1024.48120 1024.48132
907.0 0.001103 1024.03711 1024.03735
988.0 0.001012 1023.58899 1023.58917
993.0 0.001007 1023.13617 1023.13641
960.0 0.001042 1022.67914 1022.67932
1010.0 0.000990 1022.21759 1022.47662
986.0 0.001014 1021.75146 1022.02087
974.0 0.001027 1021.28088 1021.56128
978.0 0.001022 1020.80566 1021.22559
1037.0 0.000964 1020.32593 1020.76343
1032.0 0.000969 1019.84155 1020.29773
1031.0 0.000970 1019.35242 1019.82837
980.0 0.001020 1018.85870 1019.35590
1008.0 0.000992 1018.36023 1018.87994
1008.0 0.000992 1017.85706 1018.40106
1005.0 0.000995 1017.34912 1017.91907
1001.0 0.000999 1016.83624 1017.43396
1036.0 0.000965 1016.31866 1016.94641
1003.0 0.000997 1015.79608 1016.45599
1039.0 0.000962 1015.26868 1015.96344
964.0 0.001037 1014.73633 1015.46875
998.0 0.001002 1014.19897 1014.97211
986.0 0.001014 1013.65668 1014.47412
1031.0 0.000970 1013.10925 1013.97485
1031.0 0.000970 1012.55688 1013.47516
1049.0 0.000953 1011.99939 1012.97516
984.0 0.001016 1011.43658 1012.47552
1071.0 0.000934 1010.86884 1011.97717
1061.0 0.000943 1010.29578 1015.28052
1043.0 0.000959 1009.71765 1014.93927
1020.0 0.000980 1009.13422 1014.61169
991.0 0.001009 1008.54535 1016.17194
988.0 0.001012 1007.95148 1015.95313
1056.0 0.000947 1007.35199 1015.76001
1058.0 0.000945 1006.74738 1015.59698
1002.0 0.000998 1006.13727 1015.46863
1067.0 0.000937 1005.52167 1015.38062
1056.0 0.000947 1004.90076 1015.33984
1072.0 0.000933 1004.27423 1015.35480
1015.0 0.000985 1003.64240 1015.43597
1032.0 0.000969 1003.00500 1015.59644
1066.0 0.000938 1002.36182 1015.85315
1067.0 0.000937 1001.71332 1016.22736
1043.0 0.000959 1001.05908 1016.74841
979.0 0.001021 1000.39935 1017.45477
1094.0 0.000914 999.73395 1018.40082
1002.0 0.000998 999.06268 1019.66595
1033.0 0.000968 998.38586 1021.37976
1084.0 0.000923 997.70331 1023.81409
1080.0 0.000926 997.01508 1027.67261
1103.0 0.000907 996.32104 1034.88135
1152.0 0.000868 995.62109 1050.08423
1158.0 0.000864 994.91553 1082.11340
1219.0 0.000820 994.20392 1142.65503
1297.0 0.000771 993.48669 1237.89258
1411.0 0.000709 992.76355 1355.10999
1458.0 0.000686 992.03430 1457.02661
1480.0 0.000676 991.29938 1497.50574
1584.0 0.000631 990.55835 1468.17822
1482.0 0.000675 989.81158 1404.05359
1355.0 0.000738 989.05878 1326.51404
1269.0 0.000788 988.29974 1241.85400
1228.0 0.000814 987.53503 1166.15186
1162.0 0.000861 986.76416 1112.92932
1089.0 0.000918 985.98743 1083.81250
1090.0 0.000917 985.20459 1072.92273
1099.0 0.000910 984.41553 1073.06042
1103.0 0.000907 983.62061 1079.50671
1083.0 0.000923 982.81940 1090.48035
1117.0 0.000895 982.01245 1106.12085
1144.0 0.000874 981.19922 1127.96057
1182.0 0.000846 980.37964 1159.90393
1325.0 0.000755 979.55426 1212.63892
1438.0 0.000695 978.72266 1315.64038
1606.0 0.000623 977.88495 1539.00378
2038.0 0.000491 977.04108 2013.45264
2990.0 0.0003344 976.19086 2905.14551
4460.0 0.0002242 975.33478 4289.62793
6554.0 0.0001526 974.47235 5963.27930
7537.0 0.0001327 973.60394 7375.45654
7202.0 0.0001389 972.72925 7883.02783
7592.0 0.0001317 971.84827 7409.46289
7071.0 0.0001414 970.96136 6462.79492
5042.0 0.0001983 970.06799 5329.36182
3623.0 0.0002760 969.16876 4083.30493
3080.0 0.0003247 968.26312 2942.72705
2210.0 0.000452 967.35126 2102.39893
1611.0 0.000621 966.43341 1590.91382
1257.0 0.000796 965.50928 1326.08777
1199.0 0.000834 964.57904 1201.00684
1136.0 0.000880 963.64258 1139.21497
1056.0 0.000947 962.69977 1103.01660
1114.0 0.000898 961.75104 1077.95056
1043.0 0.000959 960.79608 1058.92151
1051.0 0.000951 959.83508 1043.86536
1018.0 0.000982 958.86780 1031.65527
1051.0 0.000951 957.89417 1021.56384
1039.0 0.000962 956.91486 1013.09033
1001.0 0.000999 955.92908 1005.86572
965.0 0.001036 954.93756 999.62659
1014.0 0.000986 953.93958 994.17084
1002.0 0.000998 952.93549 989.34698
968.0 0.001033 951.92560 985.04059
965.0 0.001036 950.90948 981.15784
959.0 0.001043 949.88745 977.62842
924.0 0.001082 948.85925 974.39343
942.0 0.001062 947.82483 971.40643
995.0 0.001005 946.78473 968.63104
947.0 0.001056 945.73853 965.77795
969.0 0.001032 944.68646 963.34595
935.0 0.001070 943.62836 961.04590
996.0 0.001004 942.56409 958.73083
959.0 0.001043 941.49432 956.64960
945.0 0.001058 940.41833 954.65405
941.0 0.001063 939.33667 952.73438
952.0 0.001050 938.24915 950.88055
926.0 0.001080 937.15558 949.08453
965.0 0.001036 936.05652 947.34033
886.0 0.001129 934.95148 945.64099
941.0 0.001063 933.84082 943.98193
959.0 0.001043 932.72437 942.35822
890.0 0.001124 931.60193 940.76556
934.0 0.001071 930.47418 939.20135
903.0 0.001107 929.34064 937.66174
949.0 0.001054 928.20160 936.14453
957.0 0.001045 927.05688 934.64673
923.0 0.001083 925.90637 933.16602
917.0 0.001091 924.75079 931.70148
895.0 0.001117 923.58929 930.25037
951.0 0.001052 922.42267 928.81189
893.0 0.001120 921.25049 927.38416
937.0 0.001067 920.07269 922.20490
903.0 0.001107 918.88983 920.93665
886.0 0.001129 917.70148 919.66809
918.0 0.001089 916.50800 916.50842
861.0 0.001161 915.30914 915.30957
891.0 0.001122 914.10480 914.10522
945.0 0.001058 912.89563 912.89606
926.0 0.001080 911.68115 911.68158
924.0 0.001082 910.46179 910.46216
924.0 0.001082 909.23724 909.23767
865.0 0.001156 908.00726 908.00769
920.0 0.001087 906.77295 908.01666
867.0 0.001153 905.53320 906.82690
939.0 0.001065 904.28888 905.63550
833.0 0.001200 903.03961 905.04816
915.0 0.001093 901.78528 903.87781
881.0 0.001135 900.52649 902.70837
910.0 0.001099 899.26276 901.53986
935.0 0.001070 897.99457 900.37329
862.0 0.001160 896.72168 899.20898
889.0 0.001125 895.44379 898.04730
947.0 0.001056 894.16187 896.88977
893.0 0.001120 892.87518 895.73676
862.0 0.001160 891.58423 894.58960
839.0 0.001192 890.28882 893.44904
989.0 0.001011 888.98871 892.31610
937.0 0.001067 887.68488 891.19299
905.0 0.001105 886.37628 890.08038
883.0 0.001133 885.06390 888.98071
932.0 0.001073 883.74719 887.89575
853.0 0.001172 882.42615 886.82764
880.0 0.001136 881.10144 885.77966
848.0 0.001179 879.77240 884.75439
911.0 0.001098 878.43982 884.93695
886.0 0.001129 877.10321 884.01660
870.0 0.001149 875.76233 883.13489
868.0 0.001152 874.41815 882.87256
889.0 0.001125 873.07001 882.11127
876.0 0.001142 871.71851 881.41309
916.0 0.001092 870.36322 880.78851
871.0 0.001148 869.00397 880.25055
938.0 0.001066 867.64172 879.81580
893.0 0.001120 866.27582 879.50378
865.0 0.001156 864.90680 879.33960
916.0 0.001092 863.53424 879.35425
882.0 0.001134 862.15820 879.58801
903.0 0.001107 860.77936 880.09235
933.0 0.001072 859.39691 880.93536
892.0 0.001121 858.01196 882.20734
883.0 0.001133 856.62366 884.03113
878.0 0.001139 855.23199 886.57788
881.0 0.001135 853.83795 890.09119
922.0 0.001085 852.44080 894.95648
876.0 0.001142 851.04102 901.89105
902.0 0.001109 849.63849 912.62671
1001.0 0.000999 848.23285 931.89960
1006.0 0.000994 846.82513 971.93427
1085.0 0.000922 845.41461 1059.06421
1247.0 0.000802 844.00177 1235.80518
1593.0 0.000628 842.58649 1545.08911
2140.0 0.000467 841.16852 1987.89856
2496.0 0.000401 839.74866 2476.23706
2875.0 0.0003478 838.32617 2837.02393
2910.0 0.0003436 836.90198 2915.72485
2872.0 0.0003482 835.47546 2747.05493
2620.0 0.000382 834.04651 2479.26831
2045.0 0.000489 832.61609 2172.23218
1661.0 0.000602 831.18347 1828.22461
1525.0 0.000656 829.74921 1496.84155
1286.0 0.000778 828.31305 1236.79333
1023.0 0.000978 826.87482 1067.29858
947.0 0.001056 825.43542 974.11584
909.0 0.001100 823.99414 929.39880
903.0 0.001107 822.55157 909.50122
878.0 0.001139 821.10742 901.03271
891.0 0.001122 819.66162 898.59998
945.0 0.001058 818.21484 901.25745
934.0 0.001071 816.76642 911.54333
913.0 0.001095 815.31720 938.01233
980.0 0.001020 813.86652 1000.80334
1128.0 0.000887 812.41467 1135.74268
1410.0 0.000709 810.96210 1385.45190
1819.0 0.000550 809.50836 1767.22375
2392.0 0.000418 808.05396 2226.44385
2692.0 0.000371 806.59863 2620.89966
2781.0 0.000360 805.14221 2783.61792
2804.0 0.000357 803.68549 2683.29565
2726.0 0.000367 802.22797 2450.27856
2191.0 0.000456 800.77008 2176.10718
1685.0 0.000593 799.31158 1864.63818
1517.0 0.000659 797.85229 1540.37634
1412.0 0.000708 796.39319 1263.32007
1086.0 0.000921 794.93335 1067.12048
927.0 0.001079 793.47369 949.65240
898.0 0.001114 792.01355 888.06580
801.0 0.001248 790.55310 857.37573
821.0 0.001218 789.09302 840.81036
843.0 0.001186 787.63269 830.16412
812.0 0.001232 786.17267 822.21881
801.0 0.001248 784.71271 815.78937
826.0 0.001211 783.25250 810.37598
831.0 0.001203 781.79309 805.70789
760.0 0.001316 780.33380 801.60223
796.0 0.001256 778.87506 797.93384
759.0 0.001318 777.41675 794.60870
740.0 0.001351 775.95850 791.55762
832.0 0.001202 774.50146 788.72998
775.0 0.001290 773.04474 786.08374
792.0 0.001263 771.58881 783.58850
796.0 0.001256 770.13361 781.21906
751.0 0.001332 768.67908 778.95551
806.0 0.001241 767.22559 776.78253
771.0 0.001297 765.77307 774.68677
739.0 0.001353 764.32159 772.65765
783.0 0.001277 762.87115 769.47260
750.0 0.001333 761.42157 767.59698
725.0 0.001379 759.97369 765.76373
744.0 0.001344 758.52655 763.34949
801.0 0.001248 757.08124 761.60901
734.0 0.001362 755.63708 759.89600
751.0 0.001332 754.19379 758.20703
772.0 0.001295 752.75275 756.54114
803.0 0.001245 751.31274 754.89459
782.0 0.001279 749.87476 753.26666
706.0 0.001416 748.43823 751.65485
763.0 0.001311 747.00299 750.05750
697.0 0.001435 745.57019 748.47461
741.0 0.001350 744.13873 746.90387
801.0 0.001248 742.70966 745.34528
754.0 0.001326 741.28223 743.79724
729.0 0.001372 739.85657 742.25909
721.0 0.001387 738.43317 740.73059
744.0 0.001344 737.01166 739.21075
714.0 0.001401 735.59277 737.69965
737.0 0.001357 734.17584 736.19629
771.0 0.001297 732.76099 734.70007
755.0 0.001325 731.34863 732.02924
732.0 0.001366 729.93860 730.59174
707.0 0.001414 728.53107 729.15826
702.0 0.001425 727.12592 727.72882
774.0 0.001292 725.72308 725.72339
732.0 0.001366 724.32306 724.32336
724.0 0.001381 722.92566 722.92596
732.0 0.001366 721.53088 721.53119
695.0 0.001439 720.13885 720.13916
754.0 0.001326 718.74933 718.74963
724.0 0.001381 717.36310 717.36340
734.0 0.001362 715.97931 715.97955
706.0 0.001416 714.59882 714.59912
714.0 0.001401 713.22083 713.22113
684.0 0.001462 711.84589 711.84613
718.0 0.001393 710.47443 710.47467
710.0 0.001408 709.10559 709.10583
711.0 0.001406 707.74036 707.74060
702.0 0.001425 706.37799 706.37830
678.0 0.001475 705.01849 705.01874
722.0 0.001385 703.66290 703.66315
754.0 0.001326 702.31012 702.55328
700.0 0.001429 700.96124 701.21399
722.0 0.001385 699.61548 699.87848
715.0 0.001399 698.27264 698.54657
714.0 0.001401 696.93402 697.34064
682.0 0.001466 695.59845 696.02216
671.0 0.001490 694.26691 694.70886
702.0 0.001425 692.93872 693.40015
662.0 0.001511 691.61389 692.09613
638.0 0.001567 690.29297 690.79736
697.0 0.001435 688.97577 689.50403
710.0 0.001408 687.66229 688.21606
658.0 0.001520 686.35260 686.93378
673.0 0.001486 685.04651 685.65723
680.0 0.001471 683.74451 684.38702
691.0 0.001447 682.44635 683.12323
688.0 0.001453 681.15210 681.86621
670.0 0.001493 679.86182 680.61633
737.0 0.001357 678.57532 679.37372
666.0 0.001502 677.29327 678.13947
654.0 0.001529 676.01483 676.91327
664.0 0.001506 674.74066 675.69641
640.0 0.001563 673.47058 674.48932
676.0 0.001479 672.20447 673.29260
640.0 0.001563 670.94299 672.10779
686.0 0.001458 669.68518 670.93518
632.0 0.001582 668.43213 669.77692
668.0 0.001497 667.18304 668.63397
673.0 0.001486 665.93781 667.50793
665.0 0.001504 664.69757 666.40210
669.0 0.001495 663.46118 665.31830
711.0 0.001406 662.22961 664.26074
636.0 0.001572 661.00226 663.23297
682.0 0.001466 659.77881 662.24023
649.0 0.001541 658.56049 661.29016
629.0 0.001590 657.34619 660.39063
670.0 0.001493 656.13672 659.55365
661.0 0.001513 654.93164 658.79370
689.0 0.001451 653.73083 658.13116
637.0 0.001570 652.53473 657.59387
629.0 0.001590 651.34326 657.22168
695.0 0.001439 650.15637 657.07617
660.0 0.001515 648.97406 657.27356
609.0 0.001642 647.79614 658.08990
649.0 0.001541 646.62305 660.26019
647.0 0.001546 645.45471 665.64716
686.0 0.001458 644.29102 678.21118
706.0 0.001416 643.13196 704.47040
698.0 0.001433 641.97742 751.59619
780.0 0.001282 640.82806 821.81708
894.0 0.001119 639.68298 905.37732
904.0 0.001106 638.54285 977.87781
950.0 0.001053 637.40753 1010.52460
886.0 0.001129 636.27673 995.97668
902.0 0.001109 635.15118 956.02356
861.0 0.001161 634.03003 909.64355
839.0 0.001192 632.91406 858.23407
756.0 0.001323 631.80273 800.65991
709.0 0.001410 630.69580 745.06464
647.0 0.001546 629.59436 700.34229
652.0 0.001534 628.49738 669.72174
633.0 0.001580 627.40564 651.48315
597.0 0.001675 626.31860 641.52844
601.0 0.001664 625.23608 636.03021
598.0 0.001672 624.15894 632.57971
619.0 0.001616 623.08636 630.01703
618.0 0.001618 622.01910 627.88055
625.0 0.001600 620.95648 625.99207
644.0 0.001553 619.89862 624.27423
671.0 0.001490 618.84589 622.68427
601.0 0.001664 617.79791 621.19250
660.0 0.001515 616.75519 619.77905
596.0 0.001678 615.71722 618.42816
597.0 0.001675 614.68396 617.12823
592.0 0.001689 613.65588 615.87115
583.0 0.001715 612.63269 614.64972
629.0 0.001590 611.61444 613.45886
638.0 0.001567 610.60120 612.29419
601.0 0.001664 609.59265 611.15222
637.0 0.001570 608.58923 610.03064
596.0 0.001678 607.59076 608.92694
610.0 0.001639 606.59717 607.83923
588.0 0.001701 605.60858 606.76624
613.0 0.001631 604.62476 605.70624
600.0 0.001667 603.64618 604.65881
629.0 0.001590 602.67224 603.62244
590.0 0.001695 601.70349 602.59680
563.0 0.001776 600.73956 601.58093
650.0 0.001538 599.78021 600.57410
620.0 0.001613 598.82623 599.57660
557.0 0.001795 597.87683 598.58716
597.0 0.001675 596.93268 597.60608
596.0 0.001678 595.99329 596.63251
554.0 0.001805 595.05841 595.66602
562.0 0.001779 594.12897 594.70734
633.0 0.001580 593.20398 593.75507
608.0 0.001645 592.28430 592.81000
584.0 0.001712 591.36926 591.87134
618.0 0.001618 590.45892 590.93890
570.0 0.001754 589.55359 590.22015
592.0 0.001689 588.65295 589.30847
625.0 0.001600 587.75745 588.40350
595.0 0.001681 586.86658 587.50500
585.0 0.001709 585.98041 586.46967
550.0 0.001818 585.09918 585.59711
572.0 0.001748 584.22272 584.73077
597.0 0.001675 583.35101 583.87048
594.0 0.001684 582.48413 582.89459
531.0 0.001883 581.62183 582.05121
584.0 0.001712 580.76440 581.21411
536.0 0.001866 579.91168 580.38318
570.0 0.001754 579.06372 579.55859
550.0 0.001818 578.22046 578.74048
574.0 0.001742 577.38171 577.92889
573.0 0.001745 576.54797 577.12445
579.0 0.001727 575.71857 576.32678
575.0 0.001739 574.89410 575.53680
548.0 0.001825 574.07397 574.75421
601.0 0.001664 573.25848 573.97955
553.0 0.001808 572.44788 573.21362
622.0 0.001608 571.64160 572.45630
597.0 0.001675 570.84015 571.70856
555.0 0.001802 570.04309 570.97083
620.0 0.001613 569.25031 570.24365
549.0 0.001821 568.46246 569.52863
564.0 0.001773 567.67889 568.82617
562.0 0.001779 566.90002 568.13806
571.0 0.001751 566.12549 567.46558
599.0 0.001669 565.35516 566.81042
601.0 0.001664 564.58966 566.17560
591.0 0.001692 563.82837 565.56342
542.0 0.001845 563.07166 564.97784
601.0 0.001664 562.31921 564.42322
581.0 0.001721 561.57104 563.90540
582.0 0.001718 560.82727 563.43188
614.0 0.001629 560.08789 563.01263
612.0 0.001634 559.35278 562.66040
595.0 0.001681 558.62195 562.39264
606.0 0.001650 557.89532 562.23376
556.0 0.001799 557.17303 562.21942
600.0 0.001667 556.45490 562.40997
548.0 0.001825 555.74103 562.93237
535.0 0.001869 555.03137 564.10944
588.0 0.001701 554.32568 566.77673
575.0 0.001739 553.62445 572.86072
621.0 0.001610 552.92706 586.00507
643.0 0.001555 552.23389 611.36401
736.0 0.001359 551.54486 653.42224
895.0 0.001117 550.85968 711.61530
1043.0 0.000959 550.17883 775.88763
1034.0 0.000967 549.50177 826.82971
996.0 0.001004 548.82892 845.32764
947.0 0.001056 548.15991 830.34991
1006.0 0.000994 547.49463 799.33667
889.0 0.001125 546.83362 766.00018
751.0 0.001332 546.17633 728.99915
713.0 0.001403 545.52307 686.90491
698.0 0.001433 544.87360 644.49316
656.0 0.001524 544.22778 608.99127
602.0 0.001661 543.58606 583.08276
547.0 0.001828 542.94794 566.83185
546.0 0.001832 542.31384 557.70026
554.0 0.001805 541.68335 552.76965
560.0 0.001786 541.05646 549.92657
482.0 0.002075 540.43341 548.02515
572.0 0.001748 539.81396 546.55853
589.0 0.001698 539.19824 545.32825
548.0 0.001825 538.58618 544.25299
597.0 0.001675 537.97760 543.29279
578.0 0.001730 537.37268 542.42346
564.0 0.001773 536.77136 541.62830
573.0 0.001745 536.17358 540.89539
537.0 0.001862 535.57928 540.21631
560.0 0.001786 534.98840 539.58484
560.0 0.001786 534.40118 538.99707
572.0 0.001748 533.81726 538.44989
518.0 0.001931 533.23682 537.94208
554.0 0.001805 532.65979 537.47302
558.0 0.001792 532.08606 537.04321
524.0 0.001908 531.51587 536.65442
550.0 0.001818 530.94879 536.30872
545.0 0.001835 530.38525 536.00958
553.0 0.001808 529.82489 535.76172
529.0 0.001890 529.26758 535.57092
520.0 0.001923 528.71381 535.44519
539.0 0.001855 528.16302 535.39392
543.0 0.001842 527.61566 535.42969
539.0 0.001855 527.07135 535.56805
535.0 0.001869 526.53003 535.82904
521.0 0.001919 525.99207 536.23865
559.0 0.001789 525.45703 536.83057
572.0 0.001748 524.92529 537.64948
516.0 0.001938 524.39648 538.75543
560.0 0.001786 523.87061 540.23120
549.0 0.001821 523.34784 542.19580
544.0 0.001838 522.82794 544.84845
529.0 0.001890 522.31122 548.59222
541.0 0.001848 521.79736 554.42542
603.0 0.001658 521.28632 564.91290
596.0 0.001678 520.77820 586.02551
661.0 0.001513 520.27301 629.39545
659.0 0.001517 519.77063 712.44257
781.0 0.001280 519.27112 852.39862
1058.0 0.000945 518.77429 1053.60498
1165.0 0.000858 518.28033 1290.23108
1347.0 0.000742 517.78918 1501.63806
1453.0 0.000688 517.30072 1613.50220
1539.0 0.000650 516.81500 1596.49927
1562.0 0.000640 516.33185 1498.38757
1385.0 0.000722 515.85156 1379.52393
1063.0 0.000941 515.37372 1255.96960
980.0 0.001020 514.89868 1115.61621
896.0 0.001116 514.42621 961.68066
835.0 0.001198 513.95618 818.12982
667.0 0.001499 513.48889 704.60150
623.0 0.001605 513.02399 627.24213
516.0 0.001938 512.56177 581.18109
538.0 0.001859 512.10199 556.34406
509.0 0.001965 511.64453 543.33557
519.0 0.001927 511.18976 536.02356
497.0 0.002012 510.73730 531.27759
524.0 0.001908 510.28738 527.76251
515.0 0.001942 509.83975 524.94446
522.0 0.001916 509.39447 522.59351
523.0 0.001912 508.95160 520.58807
516.0 0.001938 508.51102 518.84802
495.0 0.002020 508.07288 517.31763
551.0 0.001815 507.63696 515.95447
491.0 0.002037 507.20325 514.75433
524.0 0.001908 506.77185 513.63910
462.0 0.002165 506.34271 512.61572
476.0 0.002101 505.91580 511.66959
501.0 0.001996 505.49106 510.80182
511.0 0.001957 505.06845 509.97614
493.0 0.002028 504.64807 509.19812
514.0 0.001946 504.22980 508.46088
473.0 0.002114 503.81369 507.75931
441.0 0.002268 503.39969 507.08881
493.0 0.002028 502.98770 506.44550
488.0 0.002049 502.57791 505.82660
510.0 0.001961 502.17007 505.22913
501.0 0.001996 501.76437 504.65109
481.0 0.002079 501.36053 504.09021
451.0 0.002217 500.95874 503.54504
522.0 0.001916 500.55902 503.01425
470.0 0.002128 500.16113 502.49637
492.0 0.002033 499.76535 501.99048
533.0 0.001876 499.37143 501.49557
505.0 0.001980 498.97928 501.01074
497.0 0.002012 498.58923 500.53564
512.0 0.001953 498.20093 500.06931
464.0 0.002155 497.81461 499.61154
473.0 0.002114 497.43008 499.16171
513.0 0.001949 497.04727 498.71933
462.0 0.002165 496.66647 498.28455
499.0 0.002004 496.28732 497.85681
471.0 0.002123 495.91010 497.43625
470.0 0.002128 495.53458 497.02258
471.0 0.002123 495.16074 495.83612
503.0 0.001988 494.78873 495.46561
483.0 0.002070 494.41843 495.10098
498.0 0.002008 494.04980 494.74271
461.0 0.002169 493.68292 493.99792
495.0 0.002020 493.31763 493.66946
488.0 0.002049 492.95410 493.34955
515.0 0.001942 492.59219 493.04001
514.0 0.001946 492.23193 492.74319
505.0 0.001980 491.87329 492.46265
495.0 0.002020 491.51624 492.20410
494.0 0.002024 491.16086 491.97922
420.0 0.002381 490.80695 491.81534
456.0 0.002193 490.45468 491.78229
446.0 0.002242 490.10397 492.04227
499.0 0.002004 489.75473 492.91550
501.0 0.001996 489.40717 494.90146
501.0 0.001996 489.06097 498.55350
517.0 0.001934 488.71643 504.12900
526.0 0.001901 488.37332 511.13507
546.0 0.001832 488.03156 518.03839
595.0 0.001681 487.69147 522.57361
606.0 0.001650 487.35269 523.41315
592.0 0.001689 487.01547 520.72656
584.0 0.001712 486.67966 516.79749
543.0 0.001842 486.34515 512.76697
531.0 0.001883 486.01221 508.60773
519.0 0.001927 485.68060 503.71390
553.0 0.001808 485.35043 498.62741
480.0 0.002083 485.02161 494.09045
506.0 0.001976 484.69412 490.56723
509.0 0.001965 484.36804 488.13809
509.0 0.001965 484.04330 486.59692
513.0 0.001949 483.71991 485.63687
483.0 0.002070 483.39783 484.99582
472.0 0.002119 483.07703 484.51019
512.0 0.001953 482.75757 484.09827
530.0 0.001887 482.43942 483.72498
517.0 0.001934 482.12256 484.54202
489.0 0.002045 481.80698 484.25778
511.0 0.001957 481.49261 483.99164
489.0 0.002045 481.17960 483.74210
506.0 0.001976 480.86774 483.50812
513.0 0.001949 480.55719 483.87500
451.0 0.002217 480.24786 483.69507
494.0 0.002024 479.93970 483.53226
503.0 0.001988 479.63284 483.38776
466.0 0.002146 479.32715 483.26263
490.0 0.002041 479.02267 483.15869
498.0 0.002008 478.71939 483.07794
498.0 0.002008 478.41718 483.02295
463.0 0.002160 478.11630 482.99689
498.0 0.002008 477.81650 483.00372
476.0 0.002101 477.51794 483.04807
513.0 0.001949 477.22046 483.13586
469.0 0.002132 476.92404 483.27435
495.0 0.002020 476.62894 483.47266
470.0 0.002128 476.33481 483.74234
511.0 0.001957 476.04196 484.09827
505.0 0.001980 475.75012 484.55988
463.0 0.002160 475.45938 485.15338
531.0 0.001883 475.16977 485.91553
504.0 0.001984 474.88120 486.90784
428.0 0.002336 474.59384 488.25208
513.0 0.001949 474.30746 490.23923
515.0 0.001942 474.02216 493.58130
525.0 0.001905 473.73795 499.86694
515.0 0.001942 473.45477 512.11188
518.0 0.001931 473.17270 534.82721
617.0 0.001621 472.89166 572.77795
667.0 0.001499 472.61160 627.91724
769.0 0.001300 472.33264 695.49811
809.0 0.001236 472.05469 761.94336
810.0 0.001235 471.77777 807.41608
808.0 0.001238 471.50186 817.92688
790.0 0.001266 471.22693 799.07123
873.0 0.001145 470.95313 768.83984
746.0 0.001340 470.68018 738.36749
701.0 0.001427 470.40833 707.13397
674.0 0.001484 470.13745 671.49158
594.0 0.001684 469.86743 634.41376
619.0 0.001616 469.59854 604.15094
594.0 0.001684 469.33057 589.71344
571.0 0.001751 469.06360 601.55316
595.0 0.001681 468.79758 654.09833
713.0 0.001403 468.53244 766.02557
865.0 0.001156 468.26837 953.39386
1298.0 0.000770 468.00513 1215.33228
1565.0 0.000639 467.74298 1517.97925
1698.0 0.000589 467.48169 1789.73315
1702.0 0.000588 467.22128 1943.14465
1714.0 0.000583 466.96188 1937.89905
1823.0 0.000549 466.70334 1822.58765
1690.0 0.000592 466.44580 1674.80664
1304.0 0.000767 466.18912 1527.95020
1064.0 0.000940 465.93335 1369.63635
1021.0 0.000979 465.67847 1186.61133
906.0 0.001104 465.42456 995.62396
788.0 0.001269 465.17148 825.35840
598.0 0.001672 464.91934 693.92987
559.0 0.001789 464.66806 605.23633
544.0 0.001838 464.41763 552.07916
552.0 0.001812 464.16815 522.86835
513.0 0.001949 463.91949 507.20538
496.0 0.002016 463.67172 498.28848
494.0 0.002024 463.42484 492.53662
507.0 0.001972 463.17880 488.33798
500.0 0.002000 462.93362 485.02420
469.0 0.002132 462.68930 482.30029
506.0 0.001976 462.44577 480.01358
519.0 0.001927 462.20316 478.06732
514.0 0.001946 461.96136 476.39221
492.0 0.002033 461.72040 474.93756
463.0 0.002160 461.48029 473.66406
462.0 0.002165 461.24097 472.54175
468.0 0.002137 461.00253 471.54764
526.0 0.001901 460.76486 470.66296
489.0 0.002045 460.52808 469.87393
456.0 0.002193 460.29202 469.16904
465.0 0.002151 460.05679 468.54007
528.0 0.001894 459.82242 467.98077
462.0 0.002165 459.58878 467.48660
477.0 0.002096 459.35599 467.05533
451.0 0.002217 459.12396 467.09958
467.0 0.002141 458.89267 466.80954
491.0 0.002037 458.66226 466.32791
464.0 0.002155 458.43259 466.18765
449.0 0.002227 458.20374 466.12851
485.0 0.002062 457.97559 466.36899
467.0 0.002141 457.74820 466.52411
472.0 0.002119 457.52167 466.69266
509.0 0.001965 457.29578 467.18283
476.0 0.002101 457.07077 467.96289
502.0 0.001992 456.84641 469.27490
490.0 0.002041 456.62286 471.70728
454.0 0.002203 456.40002 476.56616
464.0 0.002155 456.17795 486.33566
470.0 0.002128 455.95657 504.80267
479.0 0.002088 455.73593 536.20355
544.0 0.001838 455.51605 582.86261
614.0 0.001629 455.29688 642.01953
669.0 0.001495 455.07840 703.61285
709.0 0.001410 454.86069 749.94604
633.0 0.001580 454.64365 768.17230
697.0 0.001435 454.42728 756.32648
683.0 0.001464 454.21170 728.65771
629.0 0.001590 453.99673 697.82520
615.0 0.001626 453.78250 668.10590
579.0 0.001727 453.56897 634.97980
567.0 0.001764 453.35605 596.97968
512.0 0.001953 453.14392 558.52386
515.0 0.001942 452.93237 525.02277
461.0 0.002169 452.72156 499.61130
511.0 0.001957 452.51135 482.66888
458.0 0.002183 452.30179 472.61618
525.0 0.001905 452.09299 467.16226
486.0 0.002058 451.88474 464.32870
472.0 0.002119 451.67719 462.84235
471.0 0.002123 451.47025 462.03836
452.0 0.002212 451.26392 461.62677
460.0 0.002174 451.05832 461.49976
474.0 0.002110 450.85324 461.62946
497.0 0.002012 450.64890 462.02859
499.0 0.002004 450.44507 462.74817
507.0 0.001972 450.24191 463.91281
443.0 0.002257 450.03934 465.83292
453.0 0.002208 449.83737 469.27838
507.0 0.001972 449.63602 475.98923
519.0 0.001927 449.43521 489.37466
459.0 0.002179 449.23502 514.88641
567.0 0.001764 449.03546 559.11340
696.0 0.001437 448.83643 626.79639
917.0 0.001091 448.63797 716.08514
1047.0 0.000955 448.44009 814.62732
1049.0 0.000953 448.24274 899.08997
1179.0 0.000848 448.04602 943.32593
1169.0 0.000855 447.84976 937.74097
1154.0 0.000867 447.65411 899.21912
1010.0 0.000990 447.45898 851.48065
912.0 0.001096 447.26434 805.02167
819.0 0.001221 447.07031 756.11566
710.0 0.001408 446.87677 699.18024
659.0 0.001517 446.68378 637.77557
584.0 0.001712 446.49124 580.56793
521.0 0.001919 446.29919 534.21173
508.0 0.001969 446.10773 501.19022
422.0 0.002370 445.91669 480.26221
478.0 0.002092 445.72623 468.18799
465.0 0.002151 445.53613 461.53842
470.0 0.002128 445.34656 457.78128
481.0 0.002079 445.15750 455.43317
491.0 0.002037 444.96884 453.76398
477.0 0.002096 444.78073 452.45502
449.0 0.002227 444.59299 451.36862
473.0 0.002114 444.40576 450.18234
480.0 0.002083 444.21893 449.38351
394.0 0.002538 444.03250 448.67877
497.0 0.002012 443.84659 448.05005
440.0 0.002273 443.66104 447.48288
505.0 0.001980 443.47595 446.83896
425.0 0.002353 443.29123 446.36981
408.0 0.002451 443.10693 445.93579
469.0 0.002132 442.92303 445.53156
470.0 0.002128 442.73953 445.15250
461.0 0.002169 442.55640 444.79507
462.0 0.002165 442.37366 444.45639
444.0 0.002252 442.19128 444.13385
431.0 0.002320 442.00928 443.82541
415.0 0.002410 441.82764 443.52930
435.0 0.002299 441.64633 443.24408
445.0 0.002247 441.46542 442.96848
435.0 0.002299 441.28476 442.70135
474.0 0.002110 441.10452 442.44189
462.0 0.002165 440.92456 442.18918
470.0 0.002128 440.74490 441.94257
386.0 0.002591 440.56561 441.70157
428.0 0.002336 440.38657 441.46542
402.0 0.002488 440.20789 441.23389
451.0 0.002217 440.02945 441.00638
458.0 0.002183 439.85129 440.78259
401.0 0.002494 439.67346 440.56226
430.0 0.002326 439.49585 440.34497
410.0 0.002439 439.31857 440.13068
444.0 0.002252 439.14148 439.91891
423.0 0.002364 438.96466 439.70959
451.0 0.002217 438.78812 439.50250
432.0 0.002315 438.61176 439.31076
454.0 0.002203 438.43567 438.69888
451.0 0.002217 438.25980 438.51321
418.0 0.002392 438.08414 438.32849
416.0 0.002404 437.90869 438.14450
392.0 0.002551 437.73343 437.96783
472.0 0.002119 437.55838 437.58185
428.0 0.002336 437.38351 437.40781
403.0 0.002481 437.20880 437.23392
466.0 0.002146 437.03430 437.06030
444.0 0.002252 436.85995 436.88693
431.0 0.002320 436.68579 436.71375
410.0 0.002439 436.51175 436.54074
440.0 0.002273 436.33783 436.36795
422.0 0.002370 436.16412 436.19543
433.0 0.002309 435.99048 436.02304
426.0 0.002347 435.81702 435.85092
441.0 0.002268 435.64362 435.67896
428.0 0.002336 435.47031 435.50720
405.0 0.002469 435.29718 435.33566
465.0 0.002151 435.12408 435.16431
430.0 0.002326 434.95114 434.99323
442.0 0.002262 434.77823 434.82230
408.0 0.002451 434.60538 434.65158
427.0 0.002342 434.43265 434.48114
434.0 0.002304 434.25992 434.31088
436.0 0.002294 434.08731 434.14093
414.0 0.002415 433.91467 433.97122
432.0 0.002315 433.74210 433.80176
448.0 0.002232 433.56961 433.63266
403.0 0.002481 433.39706 433.46384
421.0 0.002375 433.22461 433.29599
418.0 0.002392 433.05212 433.12796
407.0 0.002457 432.87964 432.96033
405.0 0.002469 432.70718 432.79324
480.0 0.002083 432.53470 432.62668
438.0 0.002283 432.36221 432.46072
429.0 0.002331 432.18967 432.29572
415.0 0.002410 432.01712 432.13129
383.0 0.002611 431.84451 431.96786
407.0 0.002457 431.67188 431.80548
410.0 0.002439 431.49921 431.64444
430.0 0.002326 431.32648 431.48486
399.0 0.002506 431.15363 431.32712
426.0 0.002347 430.98077 431.17166
417.0 0.002398 430.80780 431.01883
419.0 0.002387 430.63477 430.86926
456.0 0.002193 430.46164 430.72382
391.0 0.002558 430.28839 430.58347
414.0 0.002415 430.11508 430.44977
421.0 0.002375 429.94159 430.32492
422.0 0.002370 429.76807 430.21320
435.0 0.002299 429.59436 430.12357
452.0 0.002212 429.42053 430.07742
421.0 0.002375 429.24661 430.12329
439.0 0.002278 429.07248 430.35925
417.0 0.002398 428.89828 430.95526
422.0 0.002370 428.72388 432.14963
419.0 0.002387 428.54929 434.18448
416.0 0.002404 428.37457 437.16873
431.0 0.002320 428.19968 440.91425
458.0 0.002183 428.02463 444.82123
436.0 0.002294 427.84933 447.92859
427.0 0.002342 427.67389 449.28348
456.0 0.002193 427.49826 448.67343
451.0 0.002217 427.32242 446.83722
422.0 0.002370 427.14636 444.68646
394.0 0.002538 426.97006 442.63150
437.0 0.002288 426.79361 440.53745
448.0 0.002232 426.61688 438.13370
406.0 0.002463 426.43994 435.46594
418.0 0.002392 426.26279 432.84897
425.0 0.002353 426.08536 430.57870
405.0 0.002469 425.90768 428.81366
424.0 0.002358 425.72980 427.56293
431.0 0.002320 425.55161 426.72928
411.0 0.002433 425.37317 426.17926
399.0 0.002506 425.19449 425.79535
419.0 0.002387 425.01550 425.49857
416.0 0.002404 424.83630 425.45639
401.0 0.002494 424.65674 425.23105
392.0 0.002551 424.47699 425.01831
419.0 0.002387 424.29684 424.81403
363.0 0.002755 424.11646 424.61630
439.0 0.002278 423.93579 424.52835
421.0 0.002375 423.75476 424.34689
388.0 0.002577 423.57352 424.17526
397.0 0.002519 423.39188 424.01910
451.0 0.002217 423.20993 423.88770
430.0 0.002326 423.02771 423.79184
438.0 0.002283 422.84512 423.73941
470.0 0.002128 422.66226 423.72836
491.0 0.002037 422.47900 423.74020
507.0 0.001972 422.29544 423.73886
468.0 0.002137 422.11154 423.67853
480.0 0.002083 421.92728 423.53058
509.0 0.001965 421.74274 423.30978
523.0 0.001912 421.55777 423.05774
480.0 0.002083 421.37247 422.80618
471.0 0.002123 421.18683 422.56067
446.0 0.002242 421.00082 422.30933
441.0 0.002268 420.81448 422.04471
459.0 0.002179 420.62775 421.77545
455.0 0.002198 420.44064 421.51636
403.0 0.002481 420.25317 421.27881
445.0 0.002247 420.06534 421.06744
420.0 0.002381 419.87714 420.88113
399.0 0.002506 419.68854 420.71490
409.0 0.002445 419.49954 420.86966
421.0 0.002375 419.31024 420.73859
391.0 0.002558 419.12048 420.61603
423.0 0.002364 418.93039 420.50119
433.0 0.002309 418.73987 420.39407
393.0 0.002545 418.54892 420.29529
439.0 0.002278 418.35767 420.35995
407.0 0.002457 418.16595 420.28577
401.0 0.002494 417.97394 420.22375
437.0 0.002288 417.78143 420.17551
405.0 0.002469 417.58853 420.14328
415.0 0.002410 417.39529 420.12958
443.0 0.002257 417.20160 420.13745
408.0 0.002451 417.00757 420.17081
456.0 0.002193 416.81305 420.23416
418.0 0.002392 416.61819 420.33362
403.0 0.002481 416.42291 420.62668
430.0 0.002326 416.22720 420.82681
439.0 0.002278 416.03116 421.07867
397.0 0.002519 415.83463 421.42499
416.0 0.002404 415.63773 421.87433
453.0 0.002208 415.44043 422.46152
445.0 0.002247 415.24274 423.32721
417.0 0.002398 415.04462 424.45654
411.0 0.002433 414.84613 426.26282
436.0 0.002294 414.64716 429.46237
450.0 0.002222 414.44785 435.49286
446.0 0.002242 414.24811 446.81003
473.0 0.002114 414.04797 466.81265
485.0 0.002062 413.84744 498.99881
537.0 0.001862 413.64648 545.09375
594.0 0.001684 413.44519 602.79028
760.0 0.001316 413.24341 664.26031
815.0 0.001227 413.04132 716.25049
789.0 0.001267 412.83875 744.16034
783.0 0.001277 412.63577 742.26453
865.0 0.001156 412.43250 719.59491
804.0 0.001244 412.22873 690.15979
714.0 0.001401 412.02466 662.23492
626.0 0.001597 411.82013 635.66498
637.0 0.001570 411.61520 605.70197
586.0 0.001706 411.40994 570.53992
523.0 0.001912 411.20425 533.59619
543.0 0.001842 410.99826 499.65460
429.0 0.002331 410.79181 472.06909
447.0 0.002237 410.58496 452.13089
499.0 0.002004 410.37781 439.24976
436.0 0.002294 410.17023 431.74689
469.0 0.002132 409.96237 427.77762
410.0 0.002439 409.75403 425.88800
446.0 0.002242 409.54538 425.18033
400.0 0.002500 409.33640 425.21469
464.0 0.002155 409.12701 425.88556
423.0 0.002364 408.91730 427.39005
462.0 0.002165 408.70718 430.37231
470.0 0.002128 408.49677 436.25809
455.0 0.002198 408.28601 447.69946
451.0 0.002217 408.07489 468.82080
503.0 0.001988 407.86343 504.65457
501.0 0.001996 407.65167 559.35455
615.0 0.001626 407.43954 633.20734
749.0 0.001335 407.22714 719.79260
836.0 0.001196 407.01434 804.82001
887.0 0.001127 406.80127 867.83960
859.0 0.001164 406.58789 891.34460
875.0 0.001143 406.37418 875.46454
904.0 0.001106 406.16022 837.69751
851.0 0.001175 405.94589 795.96289
731.0 0.001368 405.73132 757.89093
659.0 0.001517 405.51642 720.36639
618.0 0.001618 405.30121 677.28937
579.0 0.001727 405.08582 629.32800
572.0 0.001748 404.87006 583.89233
536.0 0.001866 404.65411 549.53613
500.0 0.002000 404.43781 532.61829
515.0 0.001942 404.22128 535.70380
540.0 0.001852 404.00455 556.58594
689.0 0.001451 403.78751 588.39435
680.0 0.001471 403.57028 620.55029
680.0 0.001471 403.35275 641.25897
724.0 0.001381 403.13504 643.25854
657.0 0.001522 402.91708 629.39154
649.0 0.001541 402.69891 608.58252
656.0 0.001524 402.48053 587.85175
553.0 0.001808 402.26190 568.88867
558.0 0.001792 402.04312 549.07892
506.0 0.001976 401.82416 525.84479
504.0 0.001984 401.60498 500.12512
497.0 0.002012 401.38562 475.00006
451.0 0.002217 401.16611 453.21326
435.0 0.002299 400.94638 436.29507
465.0 0.002151 400.72656 424.43024
403.0 0.002481 400.50650 416.79453
407.0 0.002457 400.28635 412.15738
412.0 0.002427 400.06604 409.36758
421.0 0.002375 399.84558 407.60086
405.0 0.002469 399.62503 406.36490
388.0 0.002577 399.40433 405.19308
387.0 0.002584 399.18356 404.39374
421.0 0.002375 398.96262 403.69324
367.0 0.002725 398.74158 403.06445
390.0 0.002564 398.52051 402.49191
442.0 0.002262 398.29932 401.96451
389.0 0.002571 398.07809 401.37137
387.0 0.002584 397.85672 400.91605
413.0 0.002421 397.63528 400.48721
401.0 0.002494 397.41391 400.08087
390.0 0.002564 397.19238 399.69379
405.0 0.002469 396.97089 399.32364
412.0 0.002427 396.74930 398.96796
346.0 0.002890 396.52771 398.62509
399.0 0.002506 396.30612 398.29361
364.0 0.002747 396.08447 397.97223
402.0 0.002488 395.86292 397.66000
391.0 0.002558 395.64127 397.35571
400.0 0.002500 395.41971 397.05902
433.0 0.002309 395.19815 396.76917
413.0 0.002421 394.97662 396.48566
404.0 0.002475 394.75516 396.20813
375.0 0.002667 394.53375 395.93628
416.0 0.002404 394.31235 395.66980
386.0 0.002591 394.09103 395.46347
419.0 0.002387 393.86981 395.20956
379.0 0.002639 393.64865 394.96127
435.0 0.002299 393.42761 394.71893
405.0 0.002469 393.20663 394.48288
390.0 0.002564 392.98584 394.25412
413.0 0.002421 392.76508 393.75372
385.0 0.002597 392.54449 393.55579
408.0 0.002451 392.32401 393.37595
391.0 0.002558 392.10364 393.22980
366.0 0.002732 391.88351 393.14990
400.0 0.002500 391.66345 393.04178
368.0 0.002717 391.44366 393.32379
390.0 0.002564 391.22394 393.97211
391.0 0.002558 391.00443 395.12814
383.0 0.002611 390.78519 396.87122
412.0 0.002427 390.56607 399.13663
387.0 0.002584 390.34723 401.65042
380.0 0.002632 390.12854 403.92538
387.0 0.002584 389.91013 405.36584
409.0 0.002445 389.69196 405.58722
405.0 0.002469 389.47397 404.57635
418.0 0.002392 389.25635 403.15906
363.0 0.002755 389.03888 401.65005
397.0 0.002519 388.82175 400.23288
393.0 0.002545 388.60489 398.80716
393.0 0.002545 388.38834 397.20078
358.0 0.002793 388.17206 395.32831
365.0 0.002740 387.95612 393.49524
387.0 0.002584 387.74045 391.80811
387.0 0.002584 387.52515 390.39511
384.0 0.002604 387.31015 389.30304
383.0 0.002611 387.09552 388.50806
362.0 0.002762 386.88123 387.94376
355.0 0.002817 386.66730 387.53531
359.0 0.002786 386.45377 387.22083
395.0 0.002532 386.24057 386.95898
431.0 0.002320 386.02783 386.72629
394.0 0.002538 385.81540 386.51083
398.0 0.002513 385.60339 386.30734
377.0 0.002653 385.39185 386.11398
359.0 0.002786 385.18066 385.92999
341.0 0.002933 384.96997 385.75558
377.0 0.002653 384.75967 385.59131
365.0 0.002740 384.54980 385.43839
383.0 0.002611 384.34045 385.29831
389.0 0.002571 384.13150 385.17316
371.0 0.002695 383.92313 385.06610
355.0 0.002817 383.71512 384.98117
384.0 0.002604 383.50763 384.92523
396.0 0.002525 383.30069 384.91080
349.0 0.002865 383.09418 384.96420
380.0 0.002632 382.88828 385.14410
391.0 0.002558 382.68283 385.57611
402.0 0.002488 382.47794 386.50589
405.0 0.002469 382.27356 388.35480
391.0 0.002558 382.06976 391.73596
368.0 0.002717 381.86649 397.35394
374.0 0.002674 381.66379 405.75348
408.0 0.002451 381.46164 416.93185
408.0 0.002451 381.26010 429.98056
407.0 0.002457 381.05914 442.95624
410.0 0.002439 380.85880 453.06509
422.0 0.002370 380.65903 457.68924
425.0 0.002353 380.45987 456.26932
392.0 0.002551 380.26135 450.85464
412.0 0.002427 380.06342 444.17102
390.0 0.002564 379.86615 437.86172
405.0 0.002469 379.66949 432.01834
449.0 0.002227 379.47348 425.71332
378.0 0.002646 379.27817 418.28537
402.0 0.002488 379.08347 410.10934
368.0 0.002717 378.88950 402.10641
388.0 0.002577 378.69617 395.08936
386.0 0.002591 378.50348 389.53192
402.0 0.002488 378.31155 385.52289
382.0 0.002618 378.12027 382.84866
376.0 0.002660 377.92975 381.15652
358.0 0.002793 377.73987 380.09525
356.0 0.002809 377.55072 379.39789
371.0 0.002695 377.36234 378.89505
387.0 0.002584 377.17465 378.49310
403.0 0.002481 376.98776 378.13818
360.0 0.002778 376.80151 377.82132
375.0 0.002667 376.61609 377.53003
388.0 0.002577 376.43140 377.25589
382.0 0.002618 376.24747 376.99539
387.0 0.002584 376.06433 376.74612
402.0 0.002488 375.88190 376.50244
372.0 0.002688 375.70032 376.26923
343.0 0.002915 375.51950 376.04443
374.0 0.002674 375.33948 375.82550
356.0 0.002809 375.16025 375.61176
418.0 0.002392 374.98184 375.40262
363.0 0.002755 374.80417 375.19751
375.0 0.002667 374.62741 374.99606
352.0 0.002841 374.45142 374.79797
343.0 0.002915 374.27625 374.60287
362.0 0.002762 374.10193 374.41061
377.0 0.002653 373.92838 374.22089
384.0 0.002604 373.75577 374.03360
385.0 0.002597 373.58392 374.05417
381.0 0.002625 373.41299 373.87805
382.0 0.002618 373.24286 373.70435
361.0 0.002770 373.07358 373.53299
416.0 0.002404 372.90521 373.36411
354.0 0.002825 372.73767 373.19757
386.0 0.002591 372.57104 373.13477
381.0 0.002625 372.40524 372.97650
362.0 0.002762 372.24033 372.82114
380.0 0.002632 372.07632 372.66925
419.0 0.002387 371.91318 372.52173
385.0 0.002597 371.75095 372.38071
398.0 0.002513 371.58960 372.25061
358.0 0.002793 371.42914 372.13934
390.0 0.002564 371.26959 372.05923
379.0 0.002639 371.11093 372.02652
387.0 0.002584 370.95325 372.05762
370.0 0.002703 370.79639 372.16141
373.0 0.002681 370.64047 372.33072
405.0 0.002469 370.48550 372.53528
355.0 0.002817 370.33142 372.72079
432.0 0.002315 370.17828 372.81805
416.0 0.002404 370.02606 372.77341
406.0 0.002463 369.87473 372.59103
377.0 0.002653 369.72437 372.32919
385.0 0.002597 369.57495 371.99670
377.0 0.002653 369.42645 371.73666
368.0 0.002717 369.27887 371.49115
371.0 0.002695 369.13223 371.23682
373.0 0.002681 368.98657 370.95959
387.0 0.002584 368.84180 370.66962
385.0 0.002597 368.69803 370.36295
353.0 0.002833 368.55515 370.11401
355.0 0.002817 368.41321 369.90765
391.0 0.002558 368.27228 369.74750
364.0 0.002747 368.13226 369.62979
330.0 0.003030 367.99323 369.54739
383.0 0.002611 367.85507 369.49313
347.0 0.002882 367.71790 369.46191
357.0 0.002801 367.58170 369.45123
381.0 0.002625 367.44644 369.46082
383.0 0.002611 367.31213 369.49228
361.0 0.002770 367.17880 369.54843
379.0 0.002639 367.04639 369.63330
384.0 0.002604 366.91495 369.75189
382.0 0.002618 366.78445 369.91101
386.0 0.002591 366.65494 370.11911
360.0 0.002778 366.52634 370.38770
369.0 0.002710 366.39871 370.73358
397.0 0.002519 366.27203 371.18427
431.0 0.002320 366.14630 371.79358
387.0 0.002584 366.02155 372.67413
402.0 0.002488 365.89774 374.06885
415.0 0.002410 365.77484 376.46979
404.0 0.002475 365.65292 380.78354
400.0 0.002500 365.53198 388.48221
428.0 0.002336 365.41196 401.58136
370.0 0.002703 365.29288 422.29321
401.0 0.002494 365.17471 452.38354
490.0 0.002041 365.05756 491.27209
576.0 0.001736 364.94128 536.21802
673.0 0.001486 364.82602 581.10468
691.0 0.001447 364.71164 617.30377
703.0 0.001422 364.59818 636.30975
664.0 0.001506 364.48569 635.31848
645.0 0.001550 364.37411 619.45935
646.0 0.001548 364.26349 597.58160
604.0 0.001656 364.15378 576.06165
547.0 0.001828 364.04495 556.70190
513.0 0.001949 363.93710 537.32135
475.0 0.002105 363.83017 514.84528
486.0 0.002058 363.72415 488.86545
464.0 0.002155 363.61902 461.68085
455.0 0.002198 363.51480 436.20605
426.0 0.002347 363.41153 414.64108
387.0 0.002584 363.30911 398.04123
377.0 0.002653 363.20764 386.36145
381.0 0.002625 363.10706 378.76248
381.0 0.002625 363.00735 374.10626
370.0 0.002703 362.90854 371.33301
415.0 0.002410 362.81061 369.65250
384.0 0.002604 362.71359 368.56662
417.0 0.002398 362.61743 367.79703
394.0 0.002538 362.52213 367.20340
392.0 0.002551 362.42773 366.72070
363.0 0.002755 362.33417 366.30930
367.0 0.002725 362.24152 365.95721
371.0 0.002695 362.14969 365.65204
350.0 0.002857 362.05872 365.38654
368.0 0.002717 361.96860 365.15527
367.0 0.002725 361.87930 364.95529
359.0 0.002786 361.79086 364.78055
369.0 0.002710 361.70328 364.63132
385.0 0.002597 361.61649 364.50534
375.0 0.002667 361.53055 364.40167
347.0 0.002882 361.44543 364.31985
359.0 0.002786 361.36115 364.26001
353.0 0.002833 361.27762 364.22281
370.0 0.002703 361.19492 364.20926
404.0 0.002475 361.11304 364.22131
370.0 0.002703 361.03192 364.26144
361.0 0.002770 360.95163 364.33307
384.0 0.002604 360.87207 364.44055
399.0 0.002506 360.79330 364.58984
359.0 0.002786 360.71533 364.78864
369.0 0.002710 360.63809 365.04794
414.0 0.002415 360.56165 365.38443
411.0 0.002433 360.48593 365.82761
362.0 0.002762 360.41095 366.43634
351.0 0.002849 360.33673 367.33496
360.0 0.002778 360.26324 368.78391
413.0 0.002421 360.19049 371.28964
397.0 0.002519 360.11844 375.74615
365.0 0.002740 360.04709 383.53125
384.0 0.002604 359.97647 396.43848
376.0 0.002660 359.90656 416.31281
432.0 0.002315 359.83734 444.29028
448.0 0.002232 359.76880 479.90308
521.0 0.001919 359.70096 520.28198
552.0 0.001812 359.63379 559.94458
594.0 0.001684 359.56723 591.44000
552.0 0.001812 359.50140 607.67816
516.0 0.001938 359.43619 606.45367
572.0 0.001748 359.37164 592.37317
600.0 0.001667 359.30774 572.90936
573.0 0.001745 359.24445 553.63727
482.0 0.002075 359.18179 536.16278
442.0 0.002262 359.11972 519.25104
454.0 0.002203 359.05829 499.93539
415.0 0.002410 358.99747 477.39191
443.0 0.002257 358.93719 453.27725
462.0 0.002165 358.87756 430.10043
377.0 0.002653 358.81848 409.81329
381.0 0.002625 358.75998 393.80191
377.0 0.002653 358.70206 382.16983
372.0 0.002688 358.64465 374.36490
347.0 0.002882 358.58783 369.46585
364.0 0.002747 358.53152 366.52432
376.0 0.002660 358.47577 364.78864
376.0 0.002660 358.42053 363.76001
356.0 0.002809 358.36581 363.15546
343.0 0.002915 358.31161 362.83548
347.0 0.002882 358.25790 362.73224
376.0 0.002660 358.20468 362.79858
369.0 0.002710 358.15195 362.97623
348.0 0.002874 358.09970 363.18301
370.0 0.002703 358.04791 363.31659
364.0 0.002747 357.99661 363.28281
383.0 0.002611 357.94571 363.05035
396.0 0.002525 357.89529 362.67395
398.0 0.002513 357.84531 362.24463
363.0 0.002755 357.79575 361.83142
378.0 0.002646 357.74658 361.45654
360.0 0.002778 357.69785 361.09937
388.0 0.002577 357.64951 360.79660
377.0 0.002653 357.60156 360.38922
380.0 0.002632 357.55405 359.96655
397.0 0.002519 357.50684 359.55902
364.0 0.002747 357.46002 359.19293
346.0 0.002890 357.41360 358.88403
356.0 0.002809 357.36749 358.67145
388.0 0.002577 357.32175 358.47879
357.0 0.002801 357.27634 358.32892
355.0 0.002817 357.23126 358.20935
384.0 0.002604 357.18649 358.10962
367.0 0.002725 357.14203 358.02249
379.0 0.002639 357.09787 357.94339
355.0 0.002817 357.05402 357.86972
363.0 0.002755 357.01044 357.80026
360.0 0.002778 356.96713 357.73422
332.0 0.003012 356.92410 357.67111
334.0 0.002994 356.88135 357.61084
361.0 0.002770 356.83884 357.55310
358.0 0.002793 356.79654 357.49765
359.0 0.002786 356.75452 357.44458
381.0 0.002625 356.71271 357.39368
359.0 0.002786 356.67111 357.34482
380.0 0.002632 356.62973 357.29810
345.0 0.002899 356.58853 357.25342
362.0 0.002762 356.54752 357.21075
398.0 0.002513 356.50671 357.17020
370.0 0.002703 356.46609 357.13177
351.0 0.002849 356.42563 357.09549
320.0 0.003125 356.38531 357.06143
336.0 0.002976 356.34518 356.83652
357.0 0.002801 356.30515 356.81332
341.0 0.002933 356.26529 356.79257
386.0 0.002591 356.22556 356.77448
364.0 0.002747 356.18591 356.75928
378.0 0.002646 356.14639 356.74728
333.0 0.003003 356.10696 356.64127
379.0 0.002639 356.06766 356.64011
377.0 0.002653 356.02841 356.64349
320.0 0.003125 355.98926 356.65207
377.0 0.002653 355.95020 356.66678
390.0 0.002564 355.91116 356.68854
366.0 0.002732 355.87219 356.71860
355.0 0.002817 355.83328 356.75854
370.0 0.002703 355.79437 356.81024
389.0 0.002571 355.75555 356.87628
375.0 0.002667 355.71671 356.95993
405.0 0.002469 355.67792 357.06616
383.0 0.002611 355.63910 357.20322
328.0 0.003049 355.60031 357.38702
349.0 0.002865 355.56149 357.64972
371.0 0.002695 355.52267 358.05804
329.0 0.003040 355.48383 358.74124
384.0 0.002604 355.44495 359.93176
385.0 0.002597 355.40604 362.00101
377.0 0.002653 355.36707 365.46460
346.0 0.002890 355.32806 370.91797
369.0 0.002710 355.28900 378.87302
362.0 0.002762 355.24988 389.49878
417.0 0.002398 355.21066 402.35489
439.0 0.002278 355.17139 416.22552
420.0 0.002381 355.13202 429.14447
447.0 0.002237 355.09256 438.68002
424.0 0.002358 355.05298 442.85666
418.0 0.002392 355.01331 441.45786
461.0 0.002169 354.97351 436.22876
411.0 0.002433 354.93359 429.51657
446.0 0.002242 354.89359 422.99124
401.0 0.002494 354.85339 417.16064
406.0 0.002463 354.81308 411.49680
356.0 0.002809 354.77264 405.10272
372.0 0.002688 354.73203 397.61938
364.0 0.002747 354.69125 389.48981
402.0 0.002488 354.65030 381.48929
361.0 0.002770 354.60919 374.32071
380.0 0.002632 354.56790 368.43610
359.0 0.002786 354.52643 363.98700
344.0 0.002907 354.48477 360.87112
389.0 0.002571 354.44290 358.82452
388.0 0.002577 354.40085 357.53995
349.0 0.002865 354.35858 356.74567
349.0 0.002865 354.31610 356.24118
365.0 0.002740 354.27341 355.89877
391.0 0.002558 354.23047 355.64490
359.0 0.002786 354.18729 355.44107
368.0 0.002717 354.14389 355.26782
380.0 0.002632 354.10028 355.11542
340.0 0.002941 354.05640 354.97849
379.0 0.002639 354.01227 354.85379
343.0 0.002915 353.96786 354.73904
361.0 0.002770 353.92322 354.63260
333.0 0.003003 353.87830 354.53305
358.0 0.002793 353.83310 354.43939
380.0 0.002632 353.78766 354.35068
349.0 0.002865 353.74191 354.26761
320.0 0.003125 353.69586 354.19092
400.0 0.002500 353.64954 354.11325
353.0 0.002833 353.60294 354.03830
387.0 0.002584 353.55600 353.96567
380.0 0.002632 353.50879 353.89502
331.0 0.003021 353.46127 353.82617
350.0 0.002857 353.41345 353.75946
365.0 0.002740 353.36530 353.69550
321.0 0.003115 353.31683 353.63058
352.0 0.002841 353.26804 353.56668
355.0 0.002817 353.21893 353.50369
342.0 0.002924 353.16946 353.44131
334.0 0.002994 353.11972 353.37970
310.0 0.003226 353.06958 353.31857
356.0 0.002809 353.01910 353.25797
354.0 0.002825 352.96832 353.19769
330.0 0.003030 352.91714 353.13779
379.0 0.002639 352.86566 353.07816
324.0 0.003086 352.81381 353.01871
339.0 0.002950 352.76160 352.95950
333.0 0.003003 352.70901 352.90045
348.0 0.002874 352.65610 352.84149
333.0 0.003003 352.60281 352.78262
372.0 0.002688 352.54913 352.72379
332.0 0.003012 352.49512 352.66501
344.0 0.002907 352.44070 352.60620
370.0 0.002703 352.38593 352.54745
367.0 0.002725 352.33078 352.48862
366.0 0.002732 352.27524 352.42978
339.0 0.002950 352.21933 352.37091
372.0 0.002688 352.16302 352.31198
339.0 0.002950 352.10635 352.18103
373.0 0.002681 352.04929 352.12427
366.0 0.002732 351.99182 352.06732
351.0 0.002849 351.93396 352.01031
370.0 0.002703 351.87573 351.95319
338.0 0.002959 351.81711 351.89590
347.0 0.002882 351.75809 351.83865
363.0 0.002755 351.69864 351.85312
336.0 0.002976 351.63882 351.80023
347.0 0.002882 351.57861 351.74759
342.0 0.002924 351.51801 351.69519
356.0 0.002809 351.45700 351.64328
378.0 0.002646 351.39560 351.59180
334.0 0.002994 351.33377 351.54108
337.0 0.002967 351.27158 351.54428
358.0 0.002793 351.20895 351.49728
324.0 0.003086 351.14594 351.45206
281.0 0.00356 351.08249 351.40952
351.0 0.002849 351.01868 351.37134
359.0 0.002786 350.95447 351.34082
359.0 0.002786 350.88983 351.32468
338.0 0.002959 350.82480 351.33481
346.0 0.002890 350.75937 351.39066
336.0 0.002976 350.69351 351.52081
335.0 0.002985 350.62726 351.76163
355.0 0.002817 350.56064 352.15048
363.0 0.002755 350.49359 352.71353
329.0 0.003040 350.42615 353.44992
328.0 0.003049 350.35828 354.31744
324.0 0.003086 350.29004 355.22461
325.0 0.003077 350.22141 356.03708
325.0 0.003077 350.15237 356.60144
373.0 0.002681 350.08292 356.80557
366.0 0.002732 350.01306 356.64740
323.0 0.003096 349.94284 356.23877
354.0 0.002825 349.87219 355.72754
363.0 0.002755 349.80121 355.22311
363.0 0.002755 349.72977 354.76501
347.0 0.002882 349.65796 354.32782
361.0 0.002770 349.58578 353.85617
324.0 0.003086 349.51321 353.31647
362.0 0.002762 349.44025 352.72449
342.0 0.002924 349.36691 352.12592
347.0 0.002882 349.29315 351.56958
340.0 0.002941 349.21906 351.09201
390.0 0.002564 349.14456 350.71161
350.0 0.002857 349.06973 350.42963
379.0 0.002639 348.99448 350.23428
348.0 0.002874 348.91888 350.15637
351.0 0.002849 348.84293 350.08163
332.0 0.003012 348.76657 350.04303
362.0 0.002762 348.68988 350.03107
331.0 0.003021 348.61279 350.04074
332.0 0.003012 348.53537 350.07104
375.0 0.002667 348.45758 350.12411
346.0 0.002890 348.37946 350.22949
345.0 0.002899 348.30096 350.35590
370.0 0.002703 348.22214 350.55173
371.0 0.002695 348.14294 350.87201
318.0 0.003145 348.06345 351.41699
325.0 0.003077 347.98358 352.35837
386.0 0.002591 347.90338 353.95923
351.0 0.002849 347.82285 356.57654
347.0 0.002882 347.74197 360.61581
397.0 0.002519 347.66080 366.42892
350.0 0.002857 347.57928 374.16541
356.0 0.002809 347.49747 383.59760
388.0 0.002577 347.41531 394.02057
383.0 0.002611 347.33286 404.22702
390.0 0.002564 347.25009 412.64722
345.0 0.002899 347.16699 417.77463
358.0 0.002793 347.08365 418.95184
389.0 0.002571 346.99997 416.93735
368.0 0.002717 346.91599 413.48563
366.0 0.002732 346.83176 410.31610
412.0 0.002427 346.74719 408.70190
419.0 0.002387 346.66238 409.15710
386.0 0.002591 346.57727 411.50064
345.0 0.002899 346.49188 415.16864
379.0 0.002639 346.40625 419.58908
409.0 0.002445 346.32034 424.20154
476.0 0.002101 346.23416 428.12576
404.0 0.002475 346.14771 430.19974
439.0 0.002278 346.06104 429.34824
413.0 0.002421 345.97409 425.38208
461.0 0.002169 345.88693 419.27103
436.0 0.002294 345.79950 412.48001
387.0 0.002584 345.71185 406.15060
402.0 0.002488 345.62396 400.74362
377.0 0.002653 345.53586 396.01315
405.0 0.002469 345.44751 391.26398
395.0 0.002532 345.35898 385.89243
360.0 0.002778 345.27020 379.81897
363.0 0.002755 345.18121 373.43460
375.0 0.002667 345.09207 367.26987
394.0 0.002538 345.00266 361.77414
341.0 0.002933 344.91312 357.24255
404.0 0.002475 344.82333 353.76242
342.0 0.002924 344.73337 351.26212
339.0 0.002950 344.64328 349.56494
391.0 0.002558 344.55298 348.45862
333.0 0.003003 344.46252 347.75037
361.0 0.002770 344.37189 347.29150
380.0 0.002632 344.28110 346.98630
361.0 0.002770 344.19016 346.77301
322.0 0.003106 344.09906 346.61954
375.0 0.002667 344.00784 346.51083
343.0 0.002915 343.91644 346.44211
311.0 0.003215 343.82495 346.41696
330.0 0.003030 343.73331 346.44891
344.0 0.002907 343.64154 346.56876
362.0 0.002762 343.54965 346.83765
370.0 0.002703 343.45764 347.36789
298.0 0.003356 343.36554 348.34644
337.0 0.002967 343.27335 350.05255
348.0 0.002874 343.18103 352.85489
329.0 0.003040 343.08865 357.15808
369.0 0.002710 342.99615 363.30334
393.0 0.002545 342.90356 371.40961
381.0 0.002625 342.81091 381.21707
434.0 0.002304 342.71820 391.99084
470.0 0.002128 342.62543 402.49722
451.0 0.002217 342.53256 411.14993
503.0 0.001988 342.43964 416.38998
480.0 0.002083 342.34671 417.44012
482.0 0.002075 342.25366 414.84708
477.0 0.002096 342.16064 410.09262
490.0 0.002041 342.06757 404.69489
407.0 0.002457 341.97443 399.62027
437.0 0.002288 341.88129 395.09692
391.0 0.002558 341.78812 390.71884
414.0 0.002415 341.69495 385.85934
410.0 0.002439 341.60175 380.20572
433.0 0.002309 341.50854 373.90939
383.0 0.002611 341.41537 367.60962
400.0 0.002500 341.32217 361.77319
356.0 0.002809 341.22900 356.82846
384.0 0.002604 341.13583 353.04703
311.0 0.003215 341.04269 350.56305
329.0 0.003040 340.94955 349.41974
360.0 0.002778 340.85648 349.63220
340.0 0.002941 340.76343 351.22195
336.0 0.002976 340.67041 354.19955
318.0 0.003145 340.57742 358.49432
384.0 0.002604 340.48453 363.86624
409.0 0.002445 340.39166 369.84369
440.0 0.002273 340.29886 375.70038
492.0 0.002033 340.20612 380.52789
422.0 0.002370 340.11343 383.43726
416.0 0.002404 340.02087 383.97275
464.0 0.002155 339.92834 382.42194
451.0 0.002217 339.83591 379.61197
452.0 0.002212 339.74359 376.40775
398.0 0.002513 339.65131 373.37549
378.0 0.002646 339.55917 370.67001
397.0 0.002519 339.46713 368.08112
425.0 0.002353 339.37521 365.24847
410.0 0.002439 339.28339 361.96136
394.0 0.002538 339.19165 358.24289
352.0 0.002841 339.10007 354.49707
385.0 0.002597 339.00861 350.95129
340.0 0.002941 338.91730 347.83850
326.0 0.003067 338.82608 345.29037
322.0 0.003106 338.73502 343.33682
341.0 0.002933 338.64410 341.92126
324.0 0.003086 338.55331 340.93851
326.0 0.003067 338.46274 340.24893
360.0 0.002778 338.37225 339.79272
356.0 0.002809 338.28195 339.46750
336.0 0.002976 338.19183 339.21991
365.0 0.002740 338.10184 339.01697
361.0 0.002770 338.01205 338.84009
340.0 0.002941 337.92242 338.67938
309.0 0.003236 337.83298 338.52972
365.0 0.002740 337.74374 338.38818
339.0 0.002950 337.65466 338.25314
360.0 0.002778 337.56577 338.12350
347.0 0.002882 337.47708 337.99835
355.0 0.002817 337.38861 337.87863
365.0 0.002740 337.30032 337.76086
324.0 0.003086 337.21225 337.64618
346.0 0.002890 337.12436 337.53412
317.0 0.003155 337.03671 337.42432
330.0 0.003030 336.94925 337.31665
344.0 0.002907 336.86206 337.21091
316.0 0.003165 336.77505 337.10684
317.0 0.003155 336.68826 337.00510
370.0 0.002703 336.60172 336.90402
313.0 0.003195 336.51541 336.80505
365.0 0.002740 336.42935 336.70660
324.0 0.003086 336.34348 336.60910
328.0 0.003049 336.25790 336.51273
312.0 0.003205 336.17252 336.41724
321.0 0.003115 336.08740 336.32275
333.0 0.003003 336.00253 336.22910
324.0 0.003086 335.91791 336.13620
338.0 0.002959 335.83356 336.04456
342.0 0.002924 335.74945 335.95319
348.0 0.002874 335.66559 335.86252
334.0 0.002994 335.58203 335.72629
324.0 0.003086 335.49869 335.63651
322.0 0.003106 335.41565 335.54898
337.0 0.002967 335.33282 335.46198
323.0 0.003096 335.25031 335.37555
326.0 0.003067 335.16806 335.28958
307.0 0.003257 335.08609 335.20432
342.0 0.002924 335.00439 335.09604
338.0 0.002959 334.92294 335.01138
344.0 0.002907 334.84183 334.92807
321.0 0.003115 334.76096 334.84521
313.0 0.003195 334.68036 334.76285
336.0 0.002976 334.60007 334.68088
330.0 0.003030 334.52005 334.59937
304.0 0.003289 334.44031 334.51828
350.0 0.002857 334.36087 334.43777
334.0 0.002994 334.28171 334.35757
334.0 0.002994 334.20282 334.27789
327.0 0.003058 334.12427 334.19870
327.0 0.003058 334.04596 334.12003
297.0 0.003367 333.96799 334.04181
339.0 0.002950 333.89026 333.96411
326.0 0.003067 333.81287 333.88702
368.0 0.002717 333.73575 333.81052
339.0 0.002950 333.65891 333.73471
315.0 0.003175 333.58240 333.63181
356.0 0.002809 333.50616 333.55911
350.0 0.002857 333.43024 333.48859
329.0 0.003040 333.35461 333.42130
350.0 0.002857 333.27924 333.35928
304.0 0.003289 333.20422 333.30502
310.0 0.003226 333.12946 333.26163
348.0 0.002874 333.05502 333.21786
290.0 0.003448 332.98087 333.20453
332.0 0.003012 332.90701 333.20685
285.0 0.00351 332.83344 333.22171
359.0 0.002786 332.76016 333.24228
344.0 0.002907 332.68719 333.25848
358.0 0.002793 332.61450 333.25797
349.0 0.002865 332.54214 333.22992
339.0 0.002950 332.47003 333.17026
323.0 0.003096 332.39825 333.08514
312.0 0.003205 332.32675 332.98813
313.0 0.003195 332.25552 332.89401
318.0 0.003145 332.18457 332.81537
321.0 0.003115 332.11395 332.76181
324.0 0.003086 332.04358 332.73987
316.0 0.003165 331.97354 332.75461
344.0 0.002907 331.90375 332.81070
339.0 0.002950 331.83423 332.91162
326.0 0.003067 331.76505 333.05515
348.0 0.002874 331.69611 333.22922
357.0 0.002801 331.62744 333.42383
326.0 0.003067 331.55905 333.57950
320.0 0.003125 331.49094 333.67456
306.0 0.003268 331.42310 333.68707
329.0 0.003040 331.35553 333.62369
310.0 0.003226 331.28827 333.51831
333.0 0.003003 331.22122 333.41248
348.0 0.002874 331.15445 333.33661
324.0 0.003086 331.08795 333.30710
382.0 0.002618 331.02170 333.29739
356.0 0.002809 330.95572 333.28241
360.0 0.002778 330.88998 333.22467
346.0 0.002890 330.82452 333.09686
346.0 0.002890 330.75931 332.91635
336.0 0.002976 330.69431 332.65460
307.0 0.003257 330.62958 332.36969
353.0 0.002833 330.56509 332.08664
318.0 0.003145 330.50082 331.83084
342.0 0.002924 330.43680 331.61038
339.0 0.002950 330.37302 331.42047
335.0 0.002985 330.30948 331.24805
325.0 0.003077 330.24612 331.09155
323.0 0.003096 330.18301 330.92206
302.0 0.003311 330.12012 330.75354
331.0 0.003021 330.05746 330.58783
329.0 0.003040 329.99500 330.43195
318.0 0.003145 329.93274 330.29028
349.0 0.002865 329.87070 330.16498
336.0 0.002976 329.80887 330.05606
329.0 0.003040 329.74719 329.96158
285.0 0.00351 329.68576 329.87894
313.0 0.003195 329.62448 329.80502
332.0 0.003012 329.56342 329.73706
311.0 0.003215 329.50253 329.67334
299.0 0.003344 329.44180 329.61227
306.0 0.003268 329.38126 329.55298
348.0 0.002874 329.32089 329.49512
331.0 0.003021 329.26065 329.43829
319.0 0.003135 329.20062 329.38235
343.0 0.002915 329.14072 329.32736
353.0 0.002833 329.08099 329.27328
358.0 0.002793 329.02139 329.22006
309.0 0.003236 328.96194 329.16772
319.0 0.003135 328.90265 329.11633
331.0 0.003021 328.84344 329.06589
331.0 0.003021 328.78439 329.01654
310.0 0.003226 328.72546 328.96826
323.0 0.003096 328.66666 328.92126
321.0 0.003115 328.60797 328.87558
335.0 0.002985 328.54938 328.83127
312.0 0.003205 328.49091 328.78876
319.0 0.003135 328.43253 328.74786
328.0 0.003049 328.37424 328.70917
326.0 0.003067 328.31604 328.67258
314.0 0.003185 328.25793 328.63882
325.0 0.003077 328.19989 328.60794
339.0 0.002950 328.14191 328.58081
307.0 0.003257 328.08401 328.55792
330.0 0.003030 328.02618 328.54056
356.0 0.002809 327.96838 328.53076
322.0 0.003106 327.91068 328.53210
307.0 0.003257 327.85297 328.55136
350.0 0.002857 327.79535 328.60083
337.0 0.002967 327.73773 328.70148
323.0 0.003096 327.68018 328.88831
336.0 0.002976 327.62259 329.21014
344.0 0.002907 327.56503 329.73486
322.0 0.003106 327.50754 330.54074
306.0 0.003268 327.44998 331.70364
352.0 0.002841 327.39246 333.27518
310.0 0.003226 327.33493 335.25400
340.0 0.002941 327.27737 337.56616
354.0 0.002825 327.21982 340.04831
343.0 0.002915 327.16223 342.45486
370.0 0.002703 327.10461 344.49048
328.0 0.003049 327.04694 345.87775
342.0 0.002924 326.98926 346.49051
393.0 0.002545 326.93149 346.46103
355.0 0.002817 326.87372 346.14548
361.0 0.002770 326.81583 345.98264
368.0 0.002717 326.75793 346.35382
344.0 0.002907 326.69992 347.51001
348.0 0.002874 326.64182 349.52444
360.0 0.002778 326.58365 352.28076
364.0 0.002747 326.52539 355.51419
338.0 0.002959 326.46704 358.86984
356.0 0.002809 326.40857 361.93326
357.0 0.002801 326.34998 364.23462
362.0 0.002762 326.29129 365.33240
404.0 0.002475 326.23245 365.01382
405.0 0.002469 326.17352 363.43112
375.0 0.002667 326.11444 361.01999
391.0 0.002558 326.05518 358.28464
356.0 0.002809 325.99582 355.62231
344.0 0.002907 325.93628 353.22720
346.0 0.002890 325.87662 351.07193
332.0 0.003012 325.81671 348.96432
358.0 0.002793 325.75668 346.69299
349.0 0.002865 325.69647 344.16272
335.0 0.002985 325.63605 341.44907
328.0 0.003049 325.57547 338.65060
328.0 0.003049 325.51465 335.96008
328.0 0.003049 325.45361 333.55411
315.0 0.003175 325.39240 331.48566
319.0 0.003135 325.33096 329.81992
318.0 0.003145 325.26929 328.54526
341.0 0.002933 325.20740 327.61020
352.0 0.002841 325.14523 326.94565
307.0 0.003257 325.08286 326.49243
332.0 0.003012 325.02020 326.16452
294.0 0.003401 324.95731 325.93848
312.0 0.003205 324.89413 325.79745
314.0 0.003185 324.83069 325.65015
327.0 0.003058 324.76697 325.52362
327.0 0.003058 324.70297 325.41003
360.0 0.002778 324.63870 325.30542
327.0 0.003058 324.57410 325.20709
286.0 0.003497 324.50919 325.11359
360.0 0.002778 324.44400 325.02423
294.0 0.003401 324.37848 324.93817
303.0 0.003300 324.31265 324.87619
300.0 0.003333 324.24649 324.79630
289.0 0.003460 324.18002 324.71909
325.0 0.003077 324.11316 324.64435
310.0 0.003226 324.04596 324.57239
323.0 0.003096 323.97845 324.50372
321.0 0.003115 323.91055 324.43945
308.0 0.003247 323.84229 324.38174
307.0 0.003257 323.77365 324.33374
305.0 0.003279 323.70468 324.29956
308.0 0.003247 323.63525 324.28458
349.0 0.002865 323.56549 324.29428
332.0 0.003012 323.49533 324.33307
322.0 0.003106 323.42474 324.40256
338.0 0.002959 323.35379 324.49985
304.0 0.003289 323.28238 324.61597
306.0 0.003268 323.21060 324.73621
358.0 0.002793 323.13837 324.84045
349.0 0.002865 323.06570 324.90634
319.0 0.003135 322.99261 324.91592
318.0 0.003145 322.91910 324.86374
319.0 0.003135 322.84512 324.76004
307.0 0.003257 322.77069 324.62564
309.0 0.003236 322.69583 324.48160
329.0 0.003040 322.62045 324.34238
318.0 0.003145 322.54468 324.21417
340.0 0.002941 322.46835 324.09436
375.0 0.002667 322.39160 323.97498
328.0 0.003049 322.31439 323.84879
318.0 0.003145 322.23663 323.71368
313.0 0.003195 322.15845 323.57477
299.0 0.003344 322.07971 323.42474
321.0 0.003115 322.00049 323.29926
316.0 0.003165 321.92078 323.19092
322.0 0.003106 321.84052 323.10419
320.0 0.003125 321.75980 323.04163
314.0 0.003185 321.67850 323.00409
330.0 0.003030 321.59668 322.99213
330.0 0.003030 321.51437 323.00757
310.0 0.003226 321.43152 323.04810
305.0 0.003279 321.34811 323.13901
329.0 0.003040 321.26416 323.29611
319.0 0.003135 321.17966 323.56027
317.0 0.003155 321.09460 323.99875
305.0 0.003279 321.00900 324.69223
321.0 0.003115 320.92285 325.83215
309.0 0.003236 320.83612 327.57800
334.0 0.002994 320.74881 330.14749
313.0 0.003195 320.66095 333.73822
297.0 0.003367 320.57251 338.49347
340.0 0.002941 320.48349 344.43146
340.0 0.002941 320.39389 351.39752
326.0 0.003067 320.30368 359.04425
322.0 0.003106 320.21292 366.74194
335.0 0.002985 320.12152 373.79495
381.0 0.002625 320.02957 379.51178
400.0 0.002500 319.93698 383.46863
392.0 0.002551 319.84381 385.67532
349.0 0.002865 319.75003 386.59802
379.0 0.002639 319.65564 387.03125
323.0 0.003096 319.56064 387.82224
384.0 0.002604 319.46503 389.56635
377.0 0.002653 319.36877 392.32614
414.0 0.002415 319.27194 395.70514
454.0 0.002203 319.17444 398.90198
467.0 0.002141 319.07635 400.94778
426.0 0.002347 318.97760 400.91049
435.0 0.002299 318.87827 398.30472
464.0 0.002155 318.77826 393.30942
471.0 0.002123 318.67764 386.71539
438.0 0.002283 318.57639 379.55209
363.0 0.002755 318.47446 372.69678
400.0 0.002500 318.37195 366.68259
382.0 0.002618 318.26874 361.64651
353.0 0.002833 318.16495 357.34961
355.0 0.002817 318.06046 353.38193
345.0 0.002899 317.95535 349.36615
356.0 0.002809 317.84958 345.15378
368.0 0.002717 317.74316 340.82523
317.0 0.003155 317.63611 336.57440
344.0 0.002907 317.52835 332.61469
342.0 0.002924 317.42001 329.11691
312.0 0.003205 317.31097 326.18689
334.0 0.002994 317.20132 323.85406
327.0 0.003058 317.09097 322.07819
331.0 0.003021 316.98001 320.77625
343.0 0.002915 316.86835 319.84412
335.0 0.002985 316.75604 319.18060
287.0 0.003484 316.64310 318.70071
296.0 0.003378 316.52945 318.33972
318.0 0.003145 316.41522 318.05365
293.0 0.003413 316.30026 317.81442
324.0 0.003086 316.18466 317.60580
324.0 0.003086 316.06845 317.41904
340.0 0.002941 315.95154 317.24982
322.0 0.003106 315.83398 317.09747
294.0 0.003401 315.71576 316.96350
327.0 0.003058 315.59689 316.84885
306.0 0.003268 315.47739 316.75470
319.0 0.003135 315.35721 316.68115
326.0 0.003067 315.23639 316.62607
316.0 0.003165 315.11490 316.58511
327.0 0.003058 314.99277 316.55099
280.0 0.00357 314.87000 316.51395
325.0 0.003077 314.74658 316.46423
345.0 0.002899 314.62253 316.39261
290.0 0.003448 314.49777 316.29602
337.0 0.002967 314.37241 316.17926
317.0 0.003155 314.24643 316.05292
351.0 0.002849 314.11978 315.92908
323.0 0.003096 313.99252 315.81900
340.0 0.002941 313.86459 315.73221
343.0 0.002915 313.73602 315.67932
330.0 0.003030 313.60684 315.67606
317.0 0.003155 313.47702 315.82071
339.0 0.002950 313.34662 316.02603
331.0 0.003021 313.21555 316.44107
337.0 0.002967 313.08383 317.18118
328.0 0.003049 312.95157 318.39108
296.0 0.003378 312.81863 320.23215
308.0 0.003247 312.68515 322.85132
319.0 0.003135 312.55096 326.34357
339.0 0.002950 312.41620 330.70044
370.0 0.002703 312.28088 335.80521
379.0 0.002639 312.14490 341.27634
421.0 0.002375 312.00839 346.67279
396.0 0.002525 311.87125 351.40735
444.0 0.002252 311.73352 354.87280
420.0 0.002381 311.59521 356.63947
448.0 0.002232 311.45630 356.67764
404.0 0.002475 311.31683 355.37912
372.0 0.002688 311.17679 353.45544
398.0 0.002513 311.03619 351.52637
399.0 0.002506 310.89499 350.01730
351.0 0.002849 310.75327 349.15482
359.0 0.002786 310.61096 348.80743
362.0 0.002762 310.46814 348.64975
343.0 0.002915 310.32471 348.28040
410.0 0.002439 310.18076 347.37988
384.0 0.002604 310.03629 345.76459
390.0 0.002564 309.89127 343.42264
382.0 0.002618 309.74576 340.42938
379.0 0.002639 309.59967 337.01447
340.0 0.002941 309.45313 333.58035
323.0 0.003096 309.30603 330.38605
346.0 0.002890 309.15845 327.62949
309.0 0.003236 309.01035 325.37326
343.0 0.002915 308.86172 323.55951
321.0 0.003115 308.71268 322.04300
316.0 0.003165 308.56308 320.64850
338.0 0.002959 308.41306 319.24365
332.0 0.003012 308.26254 317.76184
363.0 0.002755 308.11151 316.26257
316.0 0.003165 307.96011 314.78864
303.0 0.003300 307.80820 313.40503
321.0 0.003115 307.65588 312.16641
321.0 0.003115 307.50308 311.10580
327.0 0.003058 307.34982 310.23428
295.0 0.003390 307.19623 309.54190
318.0 0.003145 307.04211 309.00391
297.0 0.003367 306.88766 308.59158
293.0 0.003413 306.73276 308.27023
299.0 0.003344 306.57745 308.01495
307.0 0.003257 306.42178 307.80533
304.0 0.003289 306.26569 307.62683
313.0 0.003195 306.10925 307.47052
316.0 0.003165 305.95242 307.33096
293.0 0.003413 305.79520 307.20575
270.0 0.00370 305.63766 307.09399
349.0 0.002865 305.47974 306.99637
274.0 0.00365 305.32153 306.91458
335.0 0.002985 305.16293 306.85248
305.0 0.003279 305.00400 306.81680
322.0 0.003106 304.84479 306.82013
298.0 0.003356 304.68521 306.88507
304.0 0.003289 304.52539 307.05124
330.0 0.003030 304.36523 307.38516
292.0 0.003425 304.20477 307.99158
294.0 0.003401 304.04407 309.02466
331.0 0.003021 303.88306 310.69440
328.0 0.003049 303.72183 313.25677
315.0 0.003175 303.56030 316.99023
348.0 0.002874 303.39853 322.14264
316.0 0.003165 303.23654 328.85611
296.0 0.003378 303.07428 337.09531
312.0 0.003205 302.91187 346.56790
314.0 0.003185 302.74915 356.70428
352.0 0.002841 302.58624 366.65451
372.0 0.002688 302.42319 375.36267
382.0 0.002618 302.25992 381.73672
352.0 0.002841 302.09650 384.95337
366.0 0.002732 301.93283 384.83954
351.0 0.002849 301.76907 381.97791
345.0 0.002899 301.60510 377.40842
374.0 0.002674 301.44107 372.18359
347.0 0.002882 301.27679 367.07864
302.0 0.003311 301.11243 362.45953
332.0 0.003012 300.94800 358.29669
332.0 0.003012 300.78336 354.20270
358.0 0.002793 300.61871 349.73907
320.0 0.003125 300.45392 344.63342
323.0 0.003096 300.28909 338.92007
331.0 0.003021 300.12411 332.87363
338.0 0.002959 299.95914 326.81888
303.0 0.003300 299.79407 321.16528
288.0 0.003472 299.62894 316.13956
291.0 0.003436 299.46384 311.90448
296.0 0.003378 299.29861 308.49530
317.0 0.003155 299.13348 305.87500
299.0 0.003344 298.96826 303.93384
291.0 0.003436 298.80307 302.53513
292.0 0.003425 298.63788 301.54047
293.0 0.003413 298.47269 300.81326
289.0 0.003460 298.30756 300.29913
287.0 0.003484 298.14243 299.91727
284.0 0.00352 297.97739 299.63071
303.0 0.003300 297.81235 299.40747
286.0 0.003497 297.64740 299.27228
291.0 0.003436 297.48257 299.21396
266.0 0.00376 297.31775 299.25229
312.0 0.003205 297.15308 299.36166
279.0 0.00358 296.98846 299.55270
291.0 0.003436 296.82397 299.80557
347.0 0.002882 296.65967 300.09283
306.0 0.003268 296.49539 300.37271
289.0 0.003460 296.33133 300.58759
313.0 0.003195 296.16739 300.70001
296.0 0.003378 296.00360 300.66470
267.0 0.00375 295.84003 300.48105
283.0 0.00353 295.67657 300.16263
286.0 0.003497 295.51334 299.76584
294.0 0.003401 295.35028 299.33826
296.0 0.003378 295.18744 298.91760
281.0 0.00356 295.02484 298.52219
309.0 0.003236 294.86243 298.15048
315.0 0.003175 294.70029 297.78659
279.0 0.00358 294.53833 297.40891
270.0 0.00370 294.37665 297.00299
285.0 0.00351 294.21527 296.56876
260.0 0.00385 294.05411 296.11780
290.0 0.003448 293.89331 295.66690
256.0 0.00391 293.73270 295.23215
275.0 0.00364 293.57242 294.82684
288.0 0.003472 293.41248 294.45950
271.0 0.00369 293.25281 294.13333
275.0 0.00364 293.09354 293.84717
290.0 0.003448 292.93451 293.59653
310.0 0.003226 292.77585 293.37537
290.0 0.003448 292.61758 293.17709
315.0 0.003175 292.45966 292.99579
306.0 0.003268 292.30212 292.82693
309.0 0.003236 292.14493 292.66730
283.0 0.00353 291.98816 292.51474
254.0 0.00394 291.83176 292.36838
280.0 0.00357 291.67575 292.22845
254.0 0.00394 291.52020 292.09616
310.0 0.003226 291.36502 291.97440
303.0 0.003300 291.21033 291.86874
307.0 0.003257 291.05600 291.78836
299.0 0.003344 290.90222 291.74866
283.0 0.00353 290.74881 291.77225
286.0 0.003497 290.59592 291.89160
271.0 0.00369 290.44345 292.14807
276.0 0.00362 290.29147 292.59033
276.0 0.00362 290.14001 293.26825
294.0 0.003401 289.98901 294.15027
278.0 0.00360 289.83859 295.40021
297.0 0.003367 289.68860 296.92676
301.0 0.003322 289.53918 298.66644
263.0 0.00380 289.39023 300.50662
325.0 0.003077 289.24188 302.28659
298.0 0.003356 289.09402 303.81403
307.0 0.003257 288.94675 304.89288
295.0 0.003390 288.80005 305.38043
271.0 0.00369 288.65387 305.21442
348.0 0.002874 288.50827 304.57196
327.0 0.003058 288.36325 303.60251
322.0 0.003106 288.21881 302.49838
330.0 0.003030 288.07501 301.40607
307.0 0.003257 287.93179 300.40201
318.0 0.003145 287.78918 299.49030
266.0 0.00376 287.64716 298.61447
302.0 0.003311 287.50577 297.69247
271.0 0.00369 287.36502 296.66211
297.0 0.003367 287.22488 295.51239
287.0 0.003484 287.08545 294.28204
291.0 0.003436 286.94659 293.03293
297.0 0.003367 286.80838 291.83020
324.0 0.003086 286.67090 290.72906
289.0 0.003460 286.53406 289.76837
272.0 0.00368 286.39789 288.96973
302.0 0.003311 286.26239 288.33749
272.0 0.00368 286.12753 287.86600
288.0 0.003472 285.99344 287.54626
293.0 0.003413 285.85999 287.37344
309.0 0.003236 285.72729 287.35495
280.0 0.00357 285.59525 287.51462
293.0 0.003413 285.46390 287.89355
307.0 0.003257 285.33334 288.54681
283.0 0.00353 285.20346 289.53558
286.0 0.003497 285.07431 290.91153
295.0 0.003390 284.94589 292.70123
270.0 0.00370 284.81818 294.88196
319.0 0.003135 284.69128 297.38217
340.0 0.002941 284.56506 300.05408
297.0 0.003367 284.43964 302.68723
318.0 0.003145 284.31494 305.02524
308.0 0.003247 284.19098 306.79803
361.0 0.002770 284.06784 307.79333
358.0 0.002793 283.94540 307.93768
318.0 0.003145 283.82382 307.32813
334.0 0.002994 283.70294 306.18436
326.0 0.003067 283.58286 304.75925
303.0 0.003300 283.46359 303.27432
301.0 0.003322 283.34503 301.86469
319.0 0.003135 283.22733 300.57269
293.0 0.003413 283.11038 299.35172
286.0 0.003497 282.99426 298.10397
322.0 0.003106 282.87894 296.73648
302.0 0.003311 282.76440 295.20932
289.0 0.003460 282.65063 293.54828
312.0 0.003205 282.53769 291.82144
277.0 0.00361 282.42560 290.11392
277.0 0.00361 282.31427 288.50626
303.0 0.003300 282.20380 287.06107
309.0 0.003236 282.09409 285.81784
270.0 0.00370 281.98523 284.78983
319.0 0.003135 281.87717 283.96869
272.0 0.00368 281.76996 283.33038
304.0 0.003289 281.66354 282.84189
307.0 0.003257 281.55795 282.46921
287.0 0.003484 281.45322 282.18091
289.0 0.003460 281.34927 281.95142
292.0 0.003425 281.24619 281.76135
260.0 0.00385 281.14392 281.59708
305.0 0.003279 281.04248 281.44943
279.0 0.00358 280.94186 281.31287
277.0 0.00361 280.84204 281.18365
281.0 0.00356 280.74313 281.06009
296.0 0.003378 280.64499 280.94077
313.0 0.003195 280.54773 280.82516
282.0 0.00355 280.45126 280.71295
305.0 0.003279 280.35562 280.60403
292.0 0.003425 280.26086 280.49878
282.0 0.00355 280.16690 280.39734
292.0 0.003425 280.07379 280.30042
282.0 0.00355 279.98151 280.20847
264.0 0.00379 279.89001 280.12219
282.0 0.00355 279.79941 280.02701
294.0 0.003401 279.70959 279.95798
302.0 0.003311 279.62067 279.88962
280.0 0.00357 279.53250 279.82544
323.0 0.003096 279.44519 279.76337
284.0 0.00352 279.35873 279.70087
266.0 0.00376 279.27304 279.63492
294.0 0.003401 279.18820 279.56274
304.0 0.003289 279.10419 279.48242
304.0 0.003289 279.02100 279.39392
293.0 0.003413 278.93863 279.29358
307.0 0.003257 278.85706 279.19547
304.0 0.003289 278.77631 279.09604
280.0 0.00357 278.69635 278.99792
306.0 0.003268 278.61722 278.90213
244.0 0.00410 278.53894 278.80884
247.0 0.00405 278.46140 278.71707
288.0 0.003472 278.38470 278.62564
269.0 0.00372 278.30878 278.53363
305.0 0.003279 278.23364 278.44070
261.0 0.00383 278.15933 278.34711
277.0 0.00361 278.08582 278.25394
286.0 0.003497 278.01306 278.16208
250.0 0.00400 277.94110 278.07230
275.0 0.00364 277.86990 277.98529
246.0 0.00407 277.79953 277.90146
273.0 0.00366 277.72989 277.82083
250.0 0.00400 277.66104 277.74341
292.0 0.003425 277.59293 277.66864
321.0 0.003115 277.52560 277.59647
298.0 0.003356 277.45905 277.52618
351.0 0.002849 277.39322 277.45776
297.0 0.003367 277.32816 277.39063
255.0 0.00392 277.26382 277.32480
271.0 0.00369 277.20026 277.26004
285.0 0.00351 277.13742 277.19626
283.0 0.00353 277.07532 277.13333
275.0 0.00364 277.01392 277.07135
323.0 0.003096 276.95328 277.01019
262.0 0.00382 276.89331 276.94983
250.0 0.00400 276.83411 276.89023
261.0 0.00383 276.77560 276.83157
287.0 0.003484 276.71777 276.77365
286.0 0.003497 276.66068 276.71649
266.0 0.00376 276.60425 276.66022
252.0 0.00397 276.54852 276.60461
294.0 0.003401 276.49347 276.54993
281.0 0.00356 276.43912 276.49591
263.0 0.00380 276.38541 276.44269
263.0 0.00380 276.33237 276.37604
265.0 0.00377 276.28000 276.32471
280.0 0.00357 276.22827 276.27252
275.0 0.00364 276.17719 276.22281
265.0 0.00377 276.12677 276.17389
273.0 0.00366 276.07697 276.12573
262.0 0.00382 276.02780 276.07834
258.0 0.00388 275.97925 276.03174
268.0 0.00373 275.93137 275.98605
292.0 0.003425 275.88403 275.93399
272.0 0.00368 275.83734 275.89011
248.0 0.00403 275.79126 275.84705
268.0 0.00373 275.74573 275.80411
263.0 0.00380 275.70081 275.76297
273.0 0.00366 275.65646 275.72272
278.0 0.00360 275.61270 275.68353
284.0 0.00352 275.56952 275.64539
276.0 0.00362 275.52686 275.60846
252.0 0.00397 275.48480 275.57272
314.0 0.003185 275.44324 275.53854
259.0 0.00386 275.40222 275.50598
281.0 0.00356 275.36179 275.47546
285.0 0.00351 275.32184 275.44785
286.0 0.003497 275.28244 275.42422
271.0 0.00369 275.24350 275.40671
281.0 0.00356 275.20511 275.39853
234.0 0.00427 275.16721 275.40509
237.0 0.00422 275.12979 275.43381
295.0 0.003390 275.09286 275.49533
263.0 0.00380 275.05640 275.60327
262.0 0.00382 275.02042 275.77371
278.0 0.00360 274.98492 276.02362
296.0 0.003378 274.94986 276.36838
254.0 0.00394 274.91525 276.81757
266.0 0.00376 274.88107 277.37167
265.0 0.00377 274.84732 278.01785
294.0 0.003401 274.81400 278.72754
309.0 0.003236 274.78110 279.45679
296.0 0.003378 274.74863 280.14728
267.0 0.00375 274.71655 280.73282
293.0 0.003413 274.68488 281.14883
321.0 0.003115 274.65359 281.35049
278.0 0.00360 274.62268 281.33038
285.0 0.00351 274.59216 281.12268
317.0 0.003155 274.56201 280.78824
293.0 0.003413 274.53220 280.39285
290.0 0.003448 274.50275 279.99039
292.0 0.003425 274.47366 279.61383
271.0 0.00369 274.44489 279.27277
255.0 0.00392 274.41647 278.95599
312.0 0.003205 274.38837 278.63788
299.0 0.003344 274.36057 278.29187
287.0 0.003484 274.33310 277.90277
273.0 0.00366 274.30591 277.47281
280.0 0.00357 274.27905 277.01743
291.0 0.003436 274.25244 276.55826
310.0 0.003226 274.22614 276.11642
284.0 0.00352 274.20010 275.70990
248.0 0.00403 274.17432 275.35178
283.0 0.00353 274.14883 275.04861
276.0 0.00362 274.12357 274.80087
284.0 0.00352 274.09854 274.60489
284.0 0.00352 274.07379 274.45328
280.0 0.00357 274.04926 274.33771
259.0 0.00386 274.02490 274.24951
253.0 0.00395 274.00079 274.18149
276.0 0.00362 273.97693 274.12717
287.0 0.003484 273.95322 274.08215
293.0 0.003413 273.92975 274.04327
289.0 0.003460 273.90643 274.00977
275.0 0.00364 273.88330 273.97751
260.0 0.00385 273.86038 273.94711
272.0 0.00368 273.83759 273.91791
255.0 0.00392 273.81500 273.88983
266.0 0.00376 273.79251 273.86246
252.0 0.00397 273.77020 273.83575
271.0 0.00369 273.74805 273.80969
258.0 0.00388 273.72604 273.78412
286.0 0.003497 273.70413 273.75903
259.0 0.00386 273.68237 273.73438
278.0 0.00360 273.66071 273.71069
261.0 0.00383 273.63916 273.68680
262.0 0.00382 273.61774 273.66309
265.0 0.00377 273.59641 273.63980
253.0 0.00395 273.57516 273.61661
292.0 0.003425 273.55399 273.59372
275.0 0.00364 273.53293 273.57114
290.0 0.003448 273.51193 273.54865
261.0 0.00383 273.49100 273.52646
281.0 0.00356 273.47012 273.50433
244.0 0.00410 273.44931 273.48236
294.0 0.003401 273.42856 273.46060
259.0 0.00386 273.40784 273.43890
293.0 0.003413 273.38718 273.41739
267.0 0.00375 273.36655 273.39587
256.0 0.00391 273.34595 273.37454
279.0 0.00358 273.32538 273.35336
283.0 0.00353 273.30481 273.33215
298.0 0.003356 273.28427 273.31107
296.0 0.003378 273.26373 273.29004
275.0 0.00364 273.24323 273.26901
282.0 0.00355 273.22269 273.24814
262.0 0.00382 273.20215 273.22720
259.0 0.00386 273.18161 273.20630
258.0 0.00388 273.16107 273.18552
283.0 0.00353 273.14050 273.16467
277.0 0.00361 273.11990 273.14389
259.0 0.00386 273.09927 273.12308
270.0 0.00370 273.07861 273.10233
254.0 0.00394 273.05792 273.08157
275.0 0.00364 273.03720 273.06091
267.0 0.00375 273.01642 273.04010
266.0 0.00376 272.99561 273.01935
246.0 0.00407 272.97470 272.99863
272.0 0.00368 272.95377 272.98734
270.0 0.00370 272.93277 272.96686
256.0 0.00391 272.91171 272.94629
253.0 0.00395 272.89056 272.92578
262.0 0.00382 272.86938 272.90524
281.0 0.00356 272.84811 272.88474
268.0 0.00373 272.82672 272.86420
264.0 0.00379 272.80530 272.84381
251.0 0.00398 272.78378 272.82333
288.0 0.003472 272.76218 272.80298
274.0 0.00365 272.74045 272.78741
275.0 0.00364 272.71863 272.76721
271.0 0.00369 272.69675 272.74738
249.0 0.00402 272.67474 272.72778
255.0 0.00392 272.65265 272.70874
265.0 0.00377 272.63043 272.69043
307.0 0.003257 272.60812 272.66925
286.0 0.003497 272.58569 272.65353
293.0 0.003413 272.56314 272.64090
266.0 0.00376 272.54050 272.63187
257.0 0.00389 272.51770 272.62759
287.0 0.003484 272.49481 272.62900
274.0 0.00365 272.47177 272.64154
271.0 0.00369 272.44864 272.65726
260.0 0.00385 272.42535 272.68054
268.0 0.00373 272.40195 272.71786
266.0 0.00376 272.37842 272.75244
259.0 0.00386 272.35474 272.79257
290.0 0.003448 272.33093 272.83429
267.0 0.00375 272.30698 272.87445
276.0 0.00362 272.28290 272.91083
262.0 0.00382 272.25870 272.94281
264.0 0.00379 272.23431 272.97415
294.0 0.003401 272.20981 273.00458
256.0 0.00391 272.18515 273.04190
298.0 0.003356 272.16034 273.09216
278.0 0.00360 272.13541 273.16473
278.0 0.00360 272.11032 273.25598
276.0 0.00362 272.08505 273.36975
258.0 0.00388 272.05966 273.50159
259.0 0.00386 272.03412 273.64301
263.0 0.00380 272.00842 273.78094
279.0 0.00358 271.98254 273.90024
273.0 0.00366 271.95654 273.98502
273.0 0.00366 271.93039 274.02194
269.0 0.00372 271.90405 274.00424
265.0 0.00377 271.87756 273.93521
295.0 0.003390 271.85092 273.82596
286.0 0.003497 271.82413 273.69278
268.0 0.00373 271.79718 273.55142
257.0 0.00389 271.77005 273.41367
277.0 0.00361 271.74277 273.28644
264.0 0.00379 271.71533 273.17130
286.0 0.003497 271.68771 273.06436
325.0 0.003077 271.65994 272.95969
312.0 0.003205 271.63202 272.85001
257.0 0.00389 271.60394 272.73175
305.0 0.003279 271.57568 272.60464
218.0 0.00459 271.54727 272.47186
273.0 0.00366 271.51868 272.33804
293.0 0.003413 271.48993 272.20828
289.0 0.003460 271.46100 272.08685
286.0 0.003497 271.43192 271.97699
282.0 0.00355 271.40268 271.88080
264.0 0.00379 271.37329 271.79898
276.0 0.00362 271.34372 271.73096
291.0 0.003436 271.31396 271.67590
269.0 0.00372 271.28406 271.63226
275.0 0.00364 271.25397 271.59909
285.0 0.00351 271.22372 271.57559
281.0 0.00356 271.19333 271.56253
271.0 0.00369 271.16275 271.56177
251.0 0.00398 271.13202 271.57739
270.0 0.00370 271.10110 271.61652
243.0 0.00412 271.07004 271.68982
292.0 0.003425 271.03879 271.81213
260.0 0.00385 271.00739 272.00296
265.0 0.00377 270.97580 272.28528
290.0 0.003448 270.94406 272.68430
287.0 0.003484 270.91214 273.22418
282.0 0.00355 270.88007 273.92401
301.0 0.003322 270.84781 274.79153
281.0 0.00356 270.81540 275.81836
264.0 0.00379 270.78281 276.97659
271.0 0.00369 270.75003 278.21487
304.0 0.003289 270.71710 279.46143
271.0 0.00369 270.68399 280.62616
289.0 0.003460 270.65073 281.60876
261.0 0.00383 270.61728 282.31607
291.0 0.003436 270.58368 282.68365
312.0 0.003205 270.54990 282.70084
304.0 0.003289 270.51593 282.41605
287.0 0.003484 270.48181 281.91910
289.0 0.003460 270.44751 281.31082
256.0 0.00391 270.41302 280.68069
285.0 0.00351 270.37836 280.09198
274.0 0.00365 270.34354 279.57904
254.0 0.00394 270.30853 279.14636
273.0 0.00366 270.27335 278.77655
308.0 0.003247 270.23798 278.44427
308.0 0.003247 270.20245 278.13324
263.0 0.00380 270.16672 277.85117
301.0 0.003322 270.13083 277.63022
261.0 0.00383 270.09473 277.51657
283.0 0.00353 270.05847 277.55713
282.0 0.00355 270.02203 277.78763
307.0 0.003257 269.98538 278.22974
288.0 0.003472 269.94855 278.86316
270.0 0.00370 269.91153 279.65576
314.0 0.003185 269.87436 280.54202
307.0 0.003257 269.83694 281.43658
280.0 0.00357 269.79935 282.24591
296.0 0.003378 269.76160 282.88531
275.0 0.00364 269.72360 283.29218
295.0 0.003390 269.68546 283.44470
289.0 0.003460 269.64706 283.31433
282.0 0.00355 269.60849 282.95801
293.0 0.003413 269.56970 282.42224
280.0 0.00357 269.53073 281.78506
289.0 0.003460 269.49155 281.11365
263.0 0.00380 269.45215 280.44901
288.0 0.003472 269.41254 279.80701
280.0 0.00357 269.37271 279.18182
253.0 0.00395 269.33267 278.55399
302.0 0.003311 269.29239 277.90005
259.0 0.00386 269.25192 277.20514
281.0 0.00356 269.21121 276.44598
269.0 0.00372 269.17026 275.64182
281.0 0.00356 269.12909 274.80539
259.0 0.00386 269.08768 273.97318
260.0 0.00385 269.04605 273.17584
254.0 0.00394 269.00418 272.43939
280.0 0.00357 268.96207 271.78217
242.0 0.00413 268.91971 271.21317
257.0 0.00389 268.87711 270.73236
232.0 0.00431 268.83423 270.33685
268.0 0.00373 268.79111 270.01550
272.0 0.00368 268.74774 269.75604
301.0 0.003322 268.70410 269.54620
285.0 0.00351 268.66019 269.37482
277.0 0.00361 268.61600 269.23267
277.0 0.00361 268.57153 269.11227
264.0 0.00379 268.52682 269.00821
275.0 0.00364 268.48181 268.91617
295.0 0.003390 268.43652 268.83289
241.0 0.00415 268.39093 268.75754
272.0 0.00368 268.34503 268.68796
294.0 0.003401 268.29886 268.62305
248.0 0.00403 268.25238 268.56174
280.0 0.00357 268.20560 268.50360
275.0 0.00364 268.15848 268.44754
267.0 0.00375 268.11105 268.39337
275.0 0.00364 268.06332 268.34070
248.0 0.00403 268.01526 268.28912
281.0 0.00356 267.96686 268.23859
259.0 0.00386 267.91812 268.18893
284.0 0.00352 267.86905 268.14017
279.0 0.00358 267.81964 268.09219
318.0 0.003145 267.76987 268.04514
271.0 0.00369 267.71976 267.99908
265.0 0.00377 267.66925 267.95459
264.0 0.00379 267.61841 267.91083
262.0 0.00382 267.56720 267.86832
263.0 0.00380 267.51559 267.82700
281.0 0.00356 267.46362 267.78665
261.0 0.00383 267.41125 267.74722
276.0 0.00362 267.35849 267.70850
261.0 0.00383 267.30536 267.67017
259.0 0.00386 267.25177 267.63174
257.0 0.00389 267.19781 267.59329
287.0 0.003484 267.14343 267.55453
261.0 0.00383 267.08865 267.51563
294.0 0.003401 267.03345 267.47729
280.0 0.00357 266.97775 267.43994
292.0 0.003425 266.92169 267.40497
311.0 0.003215 266.86517 267.37387
275.0 0.00364 266.80817 267.34833
232.0 0.00431 266.75076 267.33121
262.0 0.00382 266.69287 267.31683
264.0 0.00379 266.63452 267.32947
270.0 0.00370 266.57571 267.36691
285.0 0.00351 266.51642 267.43890
284.0 0.00352 266.45663 267.55759
259.0 0.00386 266.39639 267.73798
305.0 0.003279 266.33566 267.99646
237.0 0.00422 266.27438 268.35092
292.0 0.003425 266.21265 268.81879
246.0 0.00407 266.15039 269.41599
277.0 0.00361 266.08765 270.15698
292.0 0.003425 266.02435 271.04794
246.0 0.00407 265.96054 272.10754
267.0 0.00375 265.89618 273.33664
274.0 0.00365 265.83133 274.73776
280.0 0.00357 265.76593 276.31482
272.0 0.00368 265.69995 278.05338
274.0 0.00365 265.63348 279.95328
297.0 0.003367 265.56641 282.00891
267.0 0.00375 265.49878 284.20724
277.0 0.00361 265.43060 286.51569
265.0 0.00377 265.36188 288.86340
275.0 0.00364 265.29254 291.13504
297.0 0.003367 265.22266 293.18842
266.0 0.00376 265.15219 294.84827
323.0 0.003096 265.08112 295.95746
280.0 0.00357 265.00946 296.40311
302.0 0.003311 264.93723 296.17673
298.0 0.003356 264.86438 295.33142
303.0 0.003300 264.79095 294.00748
292.0 0.003425 264.71689 292.37878
271.0 0.00369 264.64224 290.61789
270.0 0.00370 264.56696 288.85910
287.0 0.003484 264.49109 287.18173
272.0 0.00368 264.41461 285.61349
286.0 0.003497 264.33746 284.12488
267.0 0.00375 264.25974 282.65674
266.0 0.00376 264.18137 281.15723
285.0 0.00351 264.10236 279.58359
280.0 0.00357 264.02277 277.92889
256.0 0.00391 263.94247 276.21582
290.0 0.003448 263.86160 274.49002
272.0 0.00368 263.78006 272.80441
272.0 0.00368 263.69791 271.21115
256.0 0.00391 263.61511 269.75320
269.0 0.00372 263.53168 268.45956
249.0 0.00402 263.44763 267.34579
252.0 0.00397 263.36288 266.41245
259.0 0.00386 263.27753 265.64963
259.0 0.00386 263.19153 265.03818
255.0 0.00392 263.10489 264.55447
262.0 0.00382 263.01764 264.17398
245.0 0.00408 262.92969 263.87320
278.0 0.00360 262.84113 263.63171
264.0 0.00379 262.75195 263.43314
284.0 0.00352 262.66211 263.26477
254.0 0.00394 262.57169 263.11758
251.0 0.00398 262.48056 262.98541
271.0 0.00369 262.38882 262.86450
270.0 0.00370 262.29651 262.75568
248.0 0.00403 262.20352 262.65155
253.0 0.00395 262.10995 262.55505
244.0 0.00410 262.01572 262.47437
256.0 0.00391 261.92090 262.39258
262.0 0.00382 261.82544 262.31747
277.0 0.00361 261.72940 262.24820
283.0 0.00353 261.63284 262.18338
272.0 0.00368 261.53552 262.12051
255.0 0.00392 261.43774 262.05731
267.0 0.00375 261.33926 261.99045
266.0 0.00376 261.24026 261.91644
219.0 0.00457 261.14078 261.83292
285.0 0.00351 261.04059 261.73837
254.0 0.00394 260.93991 261.63199
264.0 0.00379 260.83859 261.51584
261.0 0.00383 260.73679 261.39279
273.0 0.00366 260.63452 261.26630
269.0 0.00372 260.53162 261.13858
288.0 0.003472 260.42825 261.01208
255.0 0.00392 260.32428 260.88760
251.0 0.00398 260.21985 260.76556
246.0 0.00407 260.11505 260.64539
274.0 0.00365 260.00961 260.52576
283.0 0.00353 259.90375 260.40604
235.0 0.00426 259.79739 260.28610
264.0 0.00379 259.69058 260.16672
247.0 0.00405 259.58347 260.05023
291.0 0.003436 259.47574 259.93988
284.0 0.00352 259.36768 259.84033
243.0 0.00412 259.25916 259.75735
268.0 0.00373 259.15024 259.69809
276.0 0.00362 259.04108 259.67093
252.0 0.00397 258.93140 259.68509
262.0 0.00382 258.82141 259.74994
255.0 0.00392 258.71103 259.87421
205.0 0.00488 258.60037 260.06415
265.0 0.00377 258.48950 260.32196
267.0 0.00375 258.37814 260.64505
242.0 0.00413 258.26663 261.02283
269.0 0.00372 258.15475 261.43835
248.0 0.00403 258.04266 261.86615
275.0 0.00364 257.93045 262.27454
270.0 0.00370 257.81787 262.62863
264.0 0.00379 257.70514 262.89096
266.0 0.00376 257.59216 263.03162
300.0 0.003333 257.47906 263.03345
284.0 0.00352 257.36594 262.89441
280.0 0.00357 257.25250 262.64740
305.0 0.003279 257.13907 262.32135
268.0 0.00373 257.02539 261.95175
286.0 0.003497 256.91174 261.57080
266.0 0.00376 256.79807 261.20068
283.0 0.00353 256.68423 260.85211
296.0 0.003378 256.57053 260.52625
257.0 0.00389 256.45663 260.19986
291.0 0.003436 256.34286 259.88629
252.0 0.00397 256.22919 259.54651
260.0 0.00385 256.11548 259.18796
282.0 0.00355 256.00192 258.80518
218.0 0.00459 255.88837 258.40091
266.0 0.00376 255.77498 257.98624
267.0 0.00375 255.66179 257.57330
290.0 0.003448 255.54868 257.17307
230.0 0.00435 255.43584 256.79587
285.0 0.00351 255.32310 256.44852
258.0 0.00388 255.21063 256.12903
229.0 0.00437 255.09853 255.85252
259.0 0.00386 254.98650 255.60558
241.0 0.00415 254.87491 255.39616
246.0 0.00407 254.76353 255.21518
242.0 0.00413 254.65251 255.05916
272.0 0.00368 254.54199 254.92506
247.0 0.00405 254.43164 254.81087
270.0 0.00370 254.32185 254.71715
236.0 0.00424 254.21239 254.64612
275.0 0.00364 254.10339 254.60301
303.0 0.003300 253.99501 254.59592
259.0 0.00386 253.88695 254.63548
248.0 0.00403 253.77948 254.73494
228.0 0.00439 253.67249 254.90912
248.0 0.00403 253.56609 255.17235
253.0 0.00395 253.46037 255.53667
233.0 0.00429 253.35512 256.01038
263.0 0.00380 253.25058 256.59235
266.0 0.00376 253.14661 257.27350
261.0 0.00383 253.04335 258.03101
266.0 0.00376 252.94087 258.83051
240.0 0.00417 252.83899 259.62830
274.0 0.00365 252.73788 260.36813
288.0 0.003472 252.63748 260.99207
288.0 0.003472 252.53790 261.44287
267.0 0.00375 252.43919 261.68445
262.0 0.00382 252.34120 261.69119
264.0 0.00379 252.24409 261.48605
288.0 0.003472 252.14777 261.11319
233.0 0.00429 252.05237 260.63116
254.0 0.00394 251.95795 260.09747
258.0 0.00388 251.86433 259.55817
261.0 0.00383 251.77170 259.04572
246.0 0.00407 251.67996 258.57346
263.0 0.00380 251.58922 258.13882
287.0 0.003484 251.49954 257.72531
261.0 0.00383 251.41077 257.30859
267.0 0.00375 251.32306 256.86984
255.0 0.00392 251.23633 256.39056
238.0 0.00420 251.15068 255.87465
263.0 0.00380 251.06618 255.33420
268.0 0.00373 250.98264 254.78571
241.0 0.00415 250.90024 254.24928
264.0 0.00379 250.81889 253.74112
236.0 0.00424 250.73872 253.27519
267.0 0.00375 250.65971 252.85997
221.0 0.00452 250.58176 252.49751
241.0 0.00415 250.50504 252.18718
249.0 0.00402 250.42937 251.92220
246.0 0.00407 250.35495 251.69478
276.0 0.00362 250.28174 251.49608
227.0 0.00441 250.20963 251.31807
268.0 0.00373 250.13878 251.15570
260.0 0.00385 250.06908 251.00548
222.0 0.00450 250.00060 250.86598
255.0 0.00392 249.93336 250.73645
257.0 0.00389 249.86726 250.61603
234.0 0.00427 249.80246 250.50420
246.0 0.00407 249.73882 250.39951
255.0 0.00392 249.67641 250.30045
243.0 0.00412 249.61526 250.20491
230.0 0.00435 249.55527 250.11053
236.0 0.00424 249.49655 250.01599
244.0 0.00410 249.43901 249.92023
271.0 0.00369 249.38269 249.82353
254.0 0.00394 249.32764 249.72672
244.0 0.00410 249.27367 249.63081
252.0 0.00397 249.22101 249.53745
265.0 0.00377 249.16945 249.44269
250.0 0.00400 249.11911 249.35736
247.0 0.00405 249.06999 249.27731
241.0 0.00415 249.02197 249.20265
272.0 0.00368 248.97513 249.13351
239.0 0.00418 248.92940 249.06964
209.0 0.00478 248.88481 249.01068
281.0 0.00356 248.84137 248.95602
254.0 0.00394 248.79898 248.90512
242.0 0.00413 248.75769 248.85741
254.0 0.00394 248.71742 248.81236
260.0 0.00385 248.67822 248.76727
236.0 0.00424 248.64009 248.72661
273.0 0.00366 248.60291 248.68761
274.0 0.00365 248.56673 248.65013
255.0 0.00392 248.53148 248.61398
233.0 0.00429 248.49719 248.57918
270.0 0.00370 248.46382 248.54555
259.0 0.00386 248.43132 248.51300
246.0 0.00407 248.39969 248.48161
263.0 0.00380 248.36885 248.45128
243.0 0.00412 248.33884 248.42194
265.0 0.00377 248.30963 248.39369
220.0 0.00455 248.28110 248.36632
238.0 0.00420 248.25330 248.33998
276.0 0.00362 248.22617 248.31456
232.0 0.00431 248.19966 248.29001
262.0 0.00382 248.17380 248.26645
235.0 0.00426 248.14845 248.24368
223.0 0.00448 248.12366 248.22182
242.0 0.00413 248.09935 248.20084
269.0 0.00372 248.07549 248.18073
243.0 0.00412 248.05206 248.16153
246.0 0.00407 248.02898 248.14322
216.0 0.00463 248.00624 248.12587
213.0 0.00469 247.98378 248.10953
275.0 0.00364 247.96155 248.09444
266.0 0.00376 247.93956 248.08080
255.0 0.00392 247.91768 248.06895
247.0 0.00405 247.89595 248.05968
244.0 0.00410 247.87425 248.05408
260.0 0.00385 247.85258 248.05376
218.0 0.00459 247.83090 248.06113
275.0 0.00364 247.80910 248.07982
252.0 0.00397 247.78722 248.11876
243.0 0.00412 247.76511 248.17635
247.0 0.00405 247.74281 248.26466
248.0 0.00403 247.72025 248.39314
299.0 0.003344 247.69733 248.57292
254.0 0.00394 247.67406 248.81441
253.0 0.00395 247.65033 249.12805
218.0 0.00459 247.62616 249.52060
256.0 0.00391 247.60146 249.99446
256.0 0.00391 247.57617 250.54721
254.0 0.00394 247.55028 251.16661
244.0 0.00410 247.52367 251.83554
243.0 0.00412 247.49635 252.52225
251.0 0.00398 247.46826 253.19461
239.0 0.00418 247.43933 253.80908
233.0 0.00429 247.40955 254.32346
264.0 0.00379 247.37878 254.69948
262.0 0.00382 247.34708 254.90952
270.0 0.00370 247.31438 254.94637
242.0 0.00413 247.28055 254.82530
259.0 0.00386 247.24564 254.57965
260.0 0.00385 247.20953 254.25073
249.0 0.00402 247.17223 253.87990
255.0 0.00392 247.13371 253.50189
253.0 0.00395 247.09384 253.13730
261.0 0.00383 247.05264 252.79828
251.0 0.00398 247.01006 252.48293
259.0 0.00386 246.96605 252.18022
217.0 0.00461 246.92064 251.87277
246.0 0.00407 246.87366 251.53400
239.0 0.00418 246.82518 251.16898
254.0 0.00394 246.77512 250.76573
253.0 0.00395 246.72345 250.33055
250.0 0.00400 246.67024 249.87535
236.0 0.00424 246.61528 249.41318
263.0 0.00380 246.55869 248.95926
265.0 0.00377 246.50034 248.52531
228.0 0.00439 246.44028 248.12190
278.0 0.00360 246.37856 247.75575
241.0 0.00415 246.31497 247.42958
229.0 0.00437 246.24966 247.14439
265.0 0.00377 246.18253 246.89758
230.0 0.00435 246.11360 246.68504
246.0 0.00407 246.04295 246.50262
229.0 0.00437 245.97038 246.34421
248.0 0.00403 245.89607 246.20494
250.0 0.00400 245.81990 246.08229
260.0 0.00385 245.74197 245.96783
244.0 0.00410 245.66232 245.86079
301.0 0.003322 245.58080 245.75854
218.0 0.00459 245.49756 245.65944
273.0 0.00366 245.41254 245.56221
260.0 0.00385 245.32584 245.46599
268.0 0.00373 245.23753 245.37022
246.0 0.00407 245.14746 245.27419
240.0 0.00417 245.05583 245.17821
270.0 0.00370 244.96255 245.08177
248.0 0.00403 244.86783 244.98514
250.0 0.00400 244.77164 244.88931
250.0 0.00400 244.67393 244.79204
261.0 0.00383 244.57495 244.69470
255.0 0.00392 244.47453 244.59709
261.0 0.00383 244.37296 244.49954
238.0 0.00420 244.27025 244.40193
216.0 0.00463 244.16637 244.30409
249.0 0.00402 244.06155 244.20612
247.0 0.00405 243.95572 244.10748
253.0 0.00395 243.84906 244.01131
245.0 0.00408 243.74174 243.91103
242.0 0.00413 243.63370 243.80925
234.0 0.00427 243.52521 243.70596
245.0 0.00408 243.41620 243.60081
255.0 0.00392 243.30690 243.49397
243.0 0.00412 243.19751 243.38588
237.0 0.00422 243.08794 243.27679
274.0 0.00365 242.97856 243.16754
258.0 0.00388 242.86928 243.05846
249.0 0.00402 242.76036 242.95021
278.0 0.00360 242.65207 242.84351
253.0 0.00395 242.54424 242.73833
249.0 0.00402 242.43735 242.63721
258.0 0.00388 242.33133 242.53703
241.0 0.00415 242.22647 242.44032
229.0 0.00437 242.12302 242.34798
265.0 0.00377 242.02090 242.26140
214.0 0.00467 241.92050 242.18280
216.0 0.00463 241.82190 242.11523
241.0 0.00415 241.72534 242.06268
247.0 0.00405 241.63110 242.03029
251.0 0.00398 241.53915 242.02406
258.0 0.00388 241.44987 242.05101
244.0 0.00410 241.36336 242.11858
247.0 0.00405 241.27992 242.23404
226.0 0.00442 241.19977 242.40340
221.0 0.00452 241.12297 242.63147
246.0 0.00407 241.04988 242.91901
236.0 0.00424 240.98062 243.26387
238.0 0.00420 240.91548 243.65831
244.0 0.00410 240.85472 244.08980
240.0 0.00417 240.79842 244.54239
246.0 0.00407 240.74689 244.99390
226.0 0.00442 240.70032 245.42145
223.0 0.00448 240.65897 245.79967
216.0 0.00463 240.62306 246.10666
235.0 0.00426 240.59276 246.32832
214.0 0.00467 240.56833 246.46104
253.0 0.00395 240.54993 246.51462
262.0 0.00382 240.53784 246.50841
243.0 0.00412 240.53223 246.46584
246.0 0.00407 240.53333 246.40843
249.0 0.00402 240.54129 246.35223
239.0 0.00418 240.55634 246.30508
259.0 0.00386 240.57866 246.26669
242.0 0.00413 240.60840 246.22894
242.0 0.00413 240.64578 246.17816
266.0 0.00376 240.69092 246.09903
228.0 0.00439 240.74402 245.97891
239.0 0.00418 240.80516 245.81241
243.0 0.00412 240.87442 245.60277
236.0 0.00424 240.95209 245.36015
236.0 0.00424 241.03806 245.10014
262.0 0.00382 241.13264 244.83298
248.0 0.00403 241.23567 244.58463
243.0 0.00412 241.34726 244.36143
242.0 0.00413 241.46759 244.17044
272.0 0.00368 241.59641 244.01605
248.0 0.00403 241.73404 243.89833
236.0 0.00424 241.88010 243.81516
263.0 0.00380 242.03461 243.76355
242.0 0.00413 242.19768 243.74072
233.0 0.00429 242.36887 243.74545
255.0 0.00392 242.54837 243.77751
274.0 0.00365 242.73576 243.83809
263.0 0.00380 242.93076 243.92628
232.0 0.00431 243.13339 244.05028
260.0 0.00385 243.34300 244.21014
211.0 0.00474 243.55966 244.40955
241.0 0.00415 243.78268 244.65126
251.0 0.00398 244.01149 244.93730
228.0 0.00439 244.24622 245.26953
223.0 0.00448 244.48564 245.64642
231.0 0.00433 244.72974 246.06589
258.0 0.00388 244.97755 246.52191
273.0 0.00366 245.22816 247.00612
241.0 0.00415 245.48158 247.50900
254.0 0.00394 245.73613 248.01599
243.0 0.00412 245.99156 248.51331
237.0 0.00422 246.24657 248.98431
255.0 0.00392 246.49989 249.41350
257.0 0.00389 246.75110 249.78926
248.0 0.00403 246.99840 250.10396
289.0 0.003460 247.24089 250.35756
244.0 0.00410 247.47691 250.55768
259.0 0.00386 247.70488 250.71722
269.0 0.00372 247.92375 250.85197
267.0 0.00375 248.13142 250.97679
266.0 0.00376 248.32637 251.10519
248.0 0.00403 248.50653 251.24725
251.0 0.00398 248.66982 251.40927
265.0 0.00377 248.81447 251.59410
272.0 0.00368 248.93794 251.79994
241.0 0.00415 249.03804 252.02080
246.0 0.00407 249.11211 252.24878
282.0 0.00355 249.15753 252.47417
249.0 0.00402 249.17160 252.68672
244.0 0.00410 249.15129 252.87488
244.0 0.00410 249.09348 253.02628
253.0 0.00395 248.99493 253.12605
264.0 0.00379 248.85237 253.15752
234.0 0.00427 248.66180 253.10252
272.0 0.00368 248.41977 252.94304
264.0 0.00379 248.12195 252.66446
218.0 0.00459 247.76442 252.25879
264.0 0.00379 247.34320 251.72679
252.0 0.00397 246.85257 251.07404
261.0 0.00383 246.28870 250.31384
249.0 0.00402 245.64575 249.45772
239.0 0.00418 244.91904 248.51669
231.0 0.00433 244.10370 247.49765
260.0 0.00385 243.19194 246.39946
243.0 0.00412 242.17952 245.22012
251.0 0.00398 241.05872 243.94894
215.0 0.00465 239.82445 242.57466
222.0 0.00450 238.46959 241.08122
224.0 0.00446 236.98497 239.45071
224.0 0.00446 235.36620 237.67287
224.0 0.00446 233.60139 235.73315
244.0 0.00410 231.68665 233.62944
263.0 0.00380 229.61241 231.35666
225.0 0.00444 227.36687 228.90828
232.0 0.00431 224.94543 226.28648
232.0 0.00431 222.33350 223.48201
234.0 0.00427 219.52451 220.49362
252.0 . . .
loop_
_refln_index_h
_refln_index_k
_refln_index_l
_pd_refln_wavelength_id
_refln_observed_status
_refln_F_squared_meas
_refln_F_squared_calc
_refln_phase_calc
_refln_d_spacing
_gsas_i100_meas
0 0 1 1 o 403.374 409.965 0.00 7.39974 32.07
0 0 1 2 o 392.171 409.965 0.00 7.39974 15.54
1 0 1 1 o 159.527 157.363 180.00 4.77903 29.54
1 0 1 2 o 164.578 157.363 180.00 4.77903 15.15
1 1 0 1 o 101.882 87.683 180.00 4.42619 7.54
1 1 0 2 o 96.123 87.683 180.00 4.42619 3.52
1 1 1 1 o 933.733 928.074 0.00 3.79851 100.00
1 1 1 2 o 950.491 928.074 0.00 3.79851 50.60
0 0 2 1 o 673.095 588.140 0.00 3.69987 12.44
0 0 2 2 o 603.558 588.140 0.00 3.69987 5.58
1 0 2 1 o 73.085 61.765 180.00 3.18509 4.62
1 0 2 2 o 73.569 61.765 180.00 3.18509 2.31
2 0 0 1 o 2352.201 2273.133 180.00 3.12979 58.93
2 0 0 2 o 2272.344 2273.133 180.00 3.12979 28.34
2 0 1 1 o 264.781 252.327 180.00 2.88255 18.91
2 0 1 2 o 250.645 252.327 180.00 2.88255 8.93
1 1 2 1 o 376.630 360.743 0.00 2.83873 18.02
1 1 2 2 o 366.455 360.743 0.00 2.83873 8.73
2 1 1 1 o 27.067 35.696 0.00 2.61827 2.65
2 1 1 2 o 23.012 35.696 0.00 2.61827 1.12
0 0 3 1 o 702.019 377.151 0.00 2.46658 5.25
0 0 3 2 o 590.339 377.151 0.00 2.46658 2.21
2 0 2 1 o 221.422 252.219 180.00 2.38951 9.77
2 0 2 2 o 206.332 252.219 180.00 2.38951 4.55
1 0 3 1 o 25.947 12.683 180.00 2.29484 0.75
1 0 3 2 o 34.411 12.683 180.00 2.29484 0.50
2 1 2 1 o 64.367 55.485 0.00 2.23239 4.06
2 1 2 2 o 58.486 55.485 0.00 2.23239 1.84
2 2 0 1 o 814.729 867.162 0.00 2.21309 14.93
2 2 0 2 o 746.493 867.162 0.00 2.21309 6.82
1 1 3 1 o 99.945 126.643 0.00 2.15461 2.74
1 1 3 2 o 102.625 126.643 0.00 2.15461 1.39
2 2 1 1 o 234.646 160.441 0.00 2.12030 7.87
2 2 1 2 o 195.686 160.441 0.00 2.12030 3.30
3 0 1 1 o -0.165 9.825 0.00 2.00822 0.00
3 0 1 2 o -0.165 9.825 0.00 2.00822 0.00
3 1 0 1 o 24.579 0.414 0.00 1.97945 0.45
3 1 0 2 o 18.827 0.414 0.00 1.97945 0.17
2 0 3 1 o 222.009 174.876 180.00 1.93727 4.97
2 0 3 2 o 217.482 174.876 180.00 1.93727 2.42
3 1 1 1 o 131.046 128.427 180.00 1.91222 5.93
3 1 1 2 o 119.771 128.427 180.00 1.91222 2.71
2 2 2 1 o 141.483 120.859 0.00 1.89926 3.27
2 2 2 2 o 132.733 120.859 0.00 1.89926 1.53
2 1 3 1 o -0.007 3.902 0.00 1.85067 0.00
0 0 4 1 o -1.825 11.694 0.00 1.84993 0.00
2 1 3 2 o -0.088 3.902 0.00 1.85067 0.00
0 0 4 2 o -2.758 11.694 0.00 1.84993 0.00
3 0 2 1 o 12.125 40.704 0.00 1.81744 0.31
3 0 2 2 o 15.860 40.704 0.00 1.81744 0.20
1 0 4 1 o 15.085 1.698 180.00 1.77408 0.23
1 0 4 2 o 6.582 1.698 180.00 1.77408 0.05
3 1 2 1 o 111.779 85.840 180.00 1.74536 4.66
3 1 2 2 o 99.790 85.840 180.00 1.74536 2.08
1 1 4 1 o 221.023 228.966 0.00 1.70685 3.29
1 1 4 2 o 199.349 228.966 0.00 1.70685 1.48
3 2 1 1 o 3.915 1.261 180.00 1.69020 0.14
3 2 1 2 o 7.710 1.261 180.00 1.69020 0.13
2 2 3 1 o 102.169 88.152 0.00 1.64725 1.43
2 2 3 2 o 90.158 88.152 0.00 1.64725 0.63
3 0 3 1 o -0.044 1.543 0.00 1.59301 0.00
2 0 4 1 o -1.366 4.198 180.00 1.59254 0.00
3 0 3 2 o 0.298 1.543 0.00 1.59301 0.00
2 0 4 2 o 0.962 4.198 180.00 1.59254 0.01
3 2 2 1 o 17.422 35.346 180.00 1.57167 0.52
4 0 0 1 o 198.831 212.228 0.00 1.56489 1.02
3 2 2 2 o 23.842 35.346 180.00 1.57167 0.35
4 0 0 2 o 241.531 212.228 0.00 1.56489 0.61
3 1 3 1 o 63.830 37.299 180.00 1.54380 1.81
2 1 4 1 o 2.941 1.727 0.00 1.54338 0.07
3 1 3 2 o 63.370 37.299 180.00 1.54380 0.90
2 1 4 2 o 2.816 1.727 0.00 1.54338 0.03
4 0 1 1 o 108.365 52.638 0.00 1.53103 1.32
4 0 1 2 o 104.479 52.638 0.00 1.53103 0.63
4 1 1 1 o -0.016 0.477 180.00 1.48719 0.00
4 1 1 2 o -0.016 0.477 180.00 1.48719 0.00
0 0 5 1 o -1.975 13.766 0.00 1.47995 0.00
0 0 5 2 o 60.599 13.766 0.00 1.47995 0.07
3 3 0 1 o 9.997 2.166 0.00 1.47540 0.07
3 3 0 2 o -0.875 2.166 0.00 1.47540 0.00
3 3 1 1 o 22.867 21.420 0.00 1.44692 0.32
3 3 1 2 o 21.175 21.420 0.00 1.44692 0.15
4 0 2 1 o 35.411 36.554 0.00 1.44128 0.50
1 0 5 1 o 8.298 8.640 180.00 1.44024 0.07
4 0 2 2 o 18.047 36.554 0.00 1.44128 0.14
1 0 5 2 o 2.147 8.640 180.00 1.44024 0.01
3 2 3 1 o 0.225 0.320 180.00 1.41969 0.00
2 2 4 1 o 0.738 1.282 0.00 1.41936 0.01
3 2 3 2 o 0.489 0.320 180.00 1.41969 0.01
2 2 4 2 o 1.820 1.282 0.00 1.41936 0.01
4 1 2 1 o 10.367 22.519 180.00 1.40453 0.25
1 1 5 1 o 37.628 59.464 0.00 1.40357 0.36
4 1 2 2 o 25.462 22.519 180.00 1.40453 0.30
1 1 5 2 o 78.849 59.464 0.00 1.40357 0.35
4 2 0 1 o 134.363 97.019 180.00 1.39968 1.25
4 2 0 2 o 128.077 97.019 180.00 1.39968 0.59
3 0 4 1 o 4.831 1.277 0.00 1.38422 0.05
3 0 4 2 o 8.169 1.277 0.00 1.38422 0.04
4 2 1 1 o 89.539 38.785 180.00 1.37530 1.73
4 2 1 2 o 73.394 38.785 180.00 1.37530 0.71
3 3 2 1 o 48.923 26.367 0.00 1.37045 0.55
3 3 2 2 o 50.100 26.367 0.00 1.37045 0.28
3 1 4 1 o 50.583 80.860 180.00 1.35157 0.98
3 1 4 2 o 35.979 80.860 180.00 1.35157 0.36
2 0 5 1 o -1.204 8.156 180.00 1.33791 0.00
2 0 5 2 o -1.204 8.156 180.00 1.33791 0.00
4 0 3 1 o 19.721 26.195 0.00 1.32139 0.24
4 0 3 2 o 31.791 26.195 0.00 1.32139 0.18
4 2 2 1 o 46.012 20.240 180.00 1.30914 0.89
2 1 5 1 o 6.611 3.051 0.00 1.30836 0.10
4 2 2 2 o 48.561 20.240 180.00 1.30914 0.47
2 1 5 2 o 8.448 3.051 0.00 1.30836 0.06
4 1 3 1 o 9.357 0.254 180.00 1.29290 0.18
4 1 3 2 o -0.012 0.254 180.00 1.29290 0.00
3 3 3 1 o 3.047 12.796 0.00 1.26617 0.04
3 2 4 1 o 0.699 1.242 180.00 1.26594 0.01
3 3 3 2 o 19.117 12.796 0.00 1.26617 0.08
3 2 4 2 o 1.867 1.242 180.00 1.26594 0.01
4 3 1 1 o -0.002 0.417 180.00 1.23437 0.00
5 0 1 1 o -0.003 0.049 180.00 1.23437 0.00
0 0 6 1 o -0.580 2.773 0.00 1.23329 0.00
4 3 1 2 o -0.002 0.417 180.00 1.23437 0.00
5 0 1 2 o -0.003 0.049 180.00 1.23437 0.00
0 0 6 2 o 0.400 2.773 0.00 1.23329 0.00
2 2 5 1 o 1.217 4.962 0.00 1.23022 0.01
5 1 0 1 o 0.753 0.017 0.00 1.22760 0.00
2 2 5 2 o 38.604 4.962 0.00 1.23022 0.13
5 1 0 2 o 1.417 0.017 0.00 1.22760 0.00
4 2 3 1 o 22.598 14.632 180.00 1.21734 0.38
4 2 3 2 o 24.311 14.632 180.00 1.21734 0.20
5 1 1 1 o 15.915 8.417 0.00 1.21105 0.21
1 0 6 1 o 47.258 30.382 0.00 1.21003 0.28
5 1 1 2 o 7.195 8.417 0.00 1.21105 0.05
3 0 5 1 o 0.427 1.254 0.00 1.20713 0.00
1 0 6 2 o 8.864 30.382 0.00 1.21003 0.03
3 0 5 2 o 4.521 1.254 0.00 1.20713 0.02
4 0 4 1 o 1.592 0.026 0.00 1.19476 0.01
4 0 4 2 o 0.961 0.026 0.00 1.19476 0.00
1 1 6 1 o 27.242 22.819 0.00 1.18803 0.17
5 0 2 1 o 9.729 10.267 180.00 1.18587 0.08
4 3 2 1 o 15.748 16.617 0.00 1.18587 0.25
3 1 5 1 o 17.453 18.809 180.00 1.18529 0.24
1 1 6 2 o 20.985 22.819 0.00 1.18803 0.07
5 0 2 2 o 6.723 10.267 180.00 1.18587 0.03
4 3 2 2 o 10.887 16.617 0.00 1.18587 0.09
3 1 5 2 o 8.582 18.809 180.00 1.18529 0.06
4 1 4 1 o 2.171 0.668 180.00 1.17357 0.03
4 1 4 2 o 4.051 0.668 180.00 1.17357 0.03
5 1 2 1 o 22.530 7.660 0.00 1.16514 0.34
5 1 2 2 o 24.609 7.660 0.00 1.16514 0.19
3 3 4 2 o 36.668 32.991 0.00 1.15347 0.12
3 3 4 1 o 53.068 32.991 0.00 1.15347 0.34
5 2 1 1 o 0.001 0.125 180.00 1.14829 0.00
2 0 6 1 o -0.404 2.179 180.00 1.14742 0.00
5 2 1 2 o 0.001 0.125 180.00 1.14829 0.00
2 0 6 2 o -0.404 2.179 180.00 1.14742 0.00
2 1 6 1 o 24.459 15.745 180.00 1.12862 0.28
3 2 5 1 o 0.406 0.253 180.00 1.12626 0.00
2 1 6 2 o 27.645 15.745 180.00 1.12862 0.16
3 2 5 2 o 2.120 0.253 180.00 1.12626 0.01
4 3 3 1 o 0.010 0.001 180.00 1.11635 0.00
5 0 3 1 o 4.183 0.155 180.00 1.11635 0.03
4 2 4 1 o 1.302 0.026 0.00 1.11619 0.02
4 3 3 2 o 0.007 0.001 180.00 1.11635 0.00
5 0 3 2 o 3.033 0.155 180.00 1.11635 0.01
4 2 4 2 o 0.767 0.026 0.00 1.11619 0.01
5 2 2 1 o 0.662 9.853 0.00 1.10894 0.01
4 4 0 1 o 16.229 12.137 0.00 1.10655 0.06
5 2 2 2 o 14.779 9.853 0.00 1.10894 0.10
4 4 0 2 o 40.325 12.137 0.00 1.10655 0.08
5 1 3 1 o 11.133 4.449 0.00 1.09901 0.17
5 1 3 2 o 10.739 4.449 0.00 1.09901 0.08
4 4 1 1 o 11.690 13.025 0.00 1.09438 0.09
4 4 1 2 o 11.263 13.025 0.00 1.09438 0.04
