#------------------------------------------------------------------------------
#$Date: 2016-02-14 16:26:36 +0200 (Sun, 14 Feb 2016) $
#$Revision: 176435 $
#$URL: svn://www.crystallography.net/cod/cif/1/51/62/1516212.cif $
#------------------------------------------------------------------------------
#
# This file is available in the Crystallography Open Database (COD),
# http://www.crystallography.net/
#
# All data on this site have been placed in the public domain by the
# contributors.
#
data_1516212
loop_
_publ_author_name
'Migliorati, Valentina'
'Ballirano, Paolo'
'Gontrani, Lorenzo'
'Russina, Olga'
'Caminiti, Ruggero'
_publ_section_title
;
 Crystal polymorphism of propylammonium chloride and structural properties
 of its mixture with water.
;
_journal_issue                   41
_journal_name_full               'The journal of physical chemistry. B'
_journal_page_first              11805
_journal_page_last               11815
_journal_paper_doi               10.1021/jp206831d
_journal_volume                  115
_journal_year                    2011
_chemical_formula_sum            'C3 Cl N'
_chemical_formula_weight         85.49
_chemical_name_systematic        ' ?'
_space_group_IT_number           129
_symmetry_cell_setting           tetragonal
_symmetry_space_group_name_Hall  '-P 4a 2a'
_symmetry_space_group_name_H-M   'P 4/n m m :2'
_audit_creation_date             2011-07-21T08:54
_audit_creation_method           'from EXP file using GSAS2CIF'
_audit_update_record
' 2011-07-21T08:54  Initial CIF as created by GSAS2CIF'
_cell_angle_alpha                90.0
_cell_angle_beta                 90.0
_cell_angle_gamma                90.0
_cell_formula_units_Z            2
_cell_length_a                   6.25254(7)
_cell_length_b                   6.25254
_cell_length_c                   7.39233(19)
_cell_volume                     288.998(8)
_computing_structure_refinement  GSAS
_diffrn_radiation_probe          x-ray
_exptl_absorpt_correction_T_max  0.81794
_exptl_absorpt_correction_T_min  0.81483
_exptl_absorpt_process_details
;   GSAS Absorption/surface roughness correction: function number 0
 Debye-Scherrer absorption correction
Term (= MU.r/wave) =     0.78580E-01
Correction is not refined.
;
_pd_block_id                     2011-07-21T08:54|50|paolo|Bruker_AXS_D8_Advance
_pd_calc_method                  'Rietveld Refinement'
_pd_instr_location               ' ?'
_pd_meas_2theta_range_inc        0.022
_pd_meas_2theta_range_max        89.988
_pd_meas_2theta_range_min        3.0
_pd_meas_number_of_points        3955
_pd_phase_name                   'Propylammonium chloride'
_pd_proc_2theta_range_inc        0.022
_pd_proc_2theta_range_max        89.988
_pd_proc_2theta_range_min        3.0
_pd_proc_info_datetime           2011-07-21T08:54:51
_pd_proc_info_excluded_regions   ' ?'
_pd_proc_ls_background_function
;   GSAS Background function number 1 with 30 terms.
 Shifted Chebyshev function of 1st kind
      1:    513.445     2:   -355.679     3:    49.7382     4:    76.8194    
      5:   -70.5115     6:  -0.218259     7:    66.8272     8:   -74.6795    
      9:    35.3108    10:    11.0861    11:   -28.4690    12:    25.2144    
     13:   -5.51585    14:   -7.73171    15:    2.33773    16:    2.20915    
     17:   -2.44353    18:  -0.359373    19:    1.58900    20:    1.58648    
     21:   -4.41397    22:    4.03400    23:  -0.930655    24:   -1.42906    
     25:    2.74293    26:   -2.29573    27:   -1.89534    28:    3.80734    
     29:   -2.41651    30:    1.59449    
;
_pd_proc_ls_peak_cutoff          0.00100
_pd_proc_ls_profile_function
;
 CW Profile function number 3 with  19 terms
 Pseudovoigt profile coefficients as parameterized in
 P. Thompson, D.E. Cox & J.B. Hastings (1987). J. Appl. Cryst.,20,79-83.
 Asymmetry correction of L.W. Finger, D.E. Cox & A. P. Jephcoat (1994).
 J. Appl. Cryst.,27,892-900.
 Peak tails are ignored  where the intensity is below 0.0010 times the peak
   Aniso. broadening axis   0.0   1.0   0.0
;
_pd_proc_ls_prof_R_factor        0.0451
_pd_proc_ls_prof_wR_expected     0.0412
_pd_proc_ls_prof_wR_factor       0.0598
_pd_proc_number_of_points        3955
_pd_spec_mounting                ' ?'
_refine_ls_goodness_of_fit_all   1.47
_refine_ls_matrix_type           full
_refine_ls_number_parameters     47
_refine_ls_number_restraints     8
_refine_ls_R_Fsqd_factor         0.14363
_refine_ls_shift/su_max          0.07
_refine_ls_shift/su_mean         0.00
_reflns_d_resolution_high        1.093
_reflns_d_resolution_low         7.392
_reflns_limit_h_max              5
_reflns_limit_h_min              0
_reflns_limit_k_max              4
_reflns_limit_k_min              0
_reflns_limit_l_max              6
_reflns_limit_l_min              0
_reflns_number_total             174
_cod_data_source_file            323K.cif
_cod_data_source_block           50_publ
_cod_depositor_comments
;
The following automatic conversions were performed:

'_geom_bond_publ_flag' value 'N' changed to 'n' according to
/usr/data/users/saulius/automatic-downloads/retrospective/ACS/lib/dictionaries/cif_core.dic
dictionary named 'cif_core.dic' version 2.4.2 from 2011-04-26 (24
times).

'_geom_angle_publ_flag' value 'N' changed to 'n' according
to
/usr/data/users/saulius/automatic-downloads/retrospective/ACS/lib/dictionaries/cif_core.dic
dictionary named 'cif_core.dic' version 2.4.2 from 2011-04-26 (68
times).

Automatic conversion script
Id: cif_fix_values 2281 2013-09-26 08:29:07Z andrius 
;
_cod_original_cell_volume        288.998(10)
_cod_original_sg_symbol_H-M      'p 4/n m m'
_cod_original_formula_sum        'C3.00 Cl N'
_cod_database_code               1516212
#BEGIN Tags that were not found in dictionaries:
_gsas_exptl_extinct_corr_t_min   1.00000
_gsas_exptl_extinct_corr_t_max   1.00000
#END Tags that were not found in dictionaries
loop_
_symmetry_equiv_pos_site_id
_symmetry_equiv_pos_as_xyz
1 +x,+y,+z
2 -y+1/2,+x,+z
3 -x+1/2,-y+1/2,+z
4 +y,-x+1/2,+z
5 -x+1/2,+y,+z
6 -y+1/2,-x+1/2,+z
7 +x,-y+1/2,+z
8 +y,+x,+z
-1 -x,-y,-z
-2 +y+1/2,-x,-z
-3 +x+1/2,+y+1/2,-z
-4 -y,+x+1/2,-z
-5 +x+1/2,-y,-z
-6 +y+1/2,+x+1/2,-z
-7 -x,+y+1/2,-z
-8 -y,-x,-z
loop_
_atom_site_type_symbol
_atom_site_label
_atom_site_fract_x
_atom_site_fract_y
_atom_site_fract_z
_atom_site_occupancy
_atom_site_thermal_displace_type
_atom_site_U_iso_or_equiv
_atom_site_symmetry_multiplicity
Cl CL1 0.25 -0.25 0.0 1.0 Uiso 0.1109(9) 2
C C(1) 0.25 0.3341(6) 0.29734(33) 0.25 Uiso 0.0643(16) 8
N N 0.25 0.25 0.11184(29) 1.0 Uiso 0.0643(16) 2
C C(2) 0.25 0.1496(5) 0.43579(29) 0.25 Uiso 0.0643(16) 8
C C(3) 0.25 0.25 0.6279(4) 1.0 Uiso 0.0643(16) 2
loop_
_atom_type_symbol
_atom_type_number_in_cell
_atom_type_scat_dispersion_real
_atom_type_scat_dispersion_imag
_atom_type_scat_Cromer_Mann_a1
_atom_type_scat_Cromer_Mann_a2
_atom_type_scat_Cromer_Mann_a3
_atom_type_scat_Cromer_Mann_a4
_atom_type_scat_Cromer_Mann_b1
_atom_type_scat_Cromer_Mann_b2
_atom_type_scat_Cromer_Mann_b3
_atom_type_scat_Cromer_Mann_b4
_atom_type_scat_Cromer_Mann_c
_atom_type_scat_source
Cl 2.0 0.000 0.000 11.4604 0.01040 7.19640 1.16620 6.25560 18.5194 1.64550
47.7784 -9.5574 International_Tables_Vol_C
C 6.0 0.000 0.000 2.31000 20.8439 1.02000 10.2075 1.58860 0.56870 0.86500
51.6512 0.21560 International_Tables_Vol_C
N 2.0 0.000 0.000 12.2126 0.00570 3.13220 9.89330 2.01250 28.9975 1.16630
0.58260 -11.529 International_Tables_Vol_C
loop_
_diffrn_radiation_wavelength
_diffrn_radiation_wavelength_wt
_diffrn_radiation_type
_diffrn_radiation_wavelength_id
1.540598 1.000 K\a~1~ 1
1.544390 0.500 K\a~2~ 2
loop_
_geom_angle_atom_site_label_1
_geom_angle_atom_site_label_2
_geom_angle_atom_site_label_3
_geom_angle
_geom_angle_site_symmetry_1
_geom_angle_site_symmetry_3
_geom_angle_publ_flag
C(1) C(1) C(1) 45.0 2_555 3_555 n
C(1) C(1) C(1) 90.0 2_555 4_555 n
C(1) C(1) N 75.34(10) 2_555 1_555 n
C(1) C(1) C(2) 58.07(8) 2_555 1_555 n
C(1) C(1) C(2) 93.15(16) 2_555 2_555 n
C(1) C(1) C(2) 94.02(20) 2_555 3_555 n
C(1) C(1) C(2) 51.52(15) 2_555 4_555 n
C(1) C(1) C(1) 45.0 3_555 4_555 n
C(1) C(1) N 69.03(14) 3_555 1_555 n
C(1) C(1) C(2) 41.59(15) 3_555 1_555 n
C(1) C(1) C(2) 66.36(16) 3_555 2_555 n
C(1) C(1) C(2) 95.69(28) 3_555 3_555 n
C(1) C(1) C(2) 66.36(16) 3_555 4_555 n
C(1) C(1) N 75.34(10) 4_555 1_555 n
C(1) C(1) C(2) 58.07(8) 4_555 1_555 n
C(1) C(1) C(2) 51.52(15) 4_555 2_555 n
C(1) C(1) C(2) 94.02(20) 4_555 3_555 n
C(1) C(1) C(2) 93.15(16) 4_555 4_555 n
N C(1) C(2) 110.62(25) 1_555 1_555 n
N C(1) C(2) 125.85(24) 1_555 2_555 n
N C(1) C(2) 164.7(4) 1_555 3_555 n
N C(1) C(2) 125.85(24) 1_555 4_555 n
C(2) C(1) C(2) 35.08(17) 1_555 2_555 n
C(2) C(1) C(2) 54.10(31) 1_555 3_555 n
C(2) C(1) C(2) 35.08(17) 1_555 4_555 n
C(2) C(1) C(2) 42.50(24) 2_555 3_555 n
C(2) C(1) C(2) 57.22(29) 2_555 4_555 n
C(2) C(1) C(2) 42.50(24) 3_555 4_555 n
C(1) N C(1) 29.32(19) 1_555 2_555 n
C(1) N C(1) 41.94(28) 1_555 3_555 n
C(1) N C(1) 29.32(19) 1_555 4_555 n
C(1) N C(1) 29.32(19) 2_555 3_555 n
C(1) N C(1) 41.94(28) 2_555 4_555 n
C(1) N C(1) 29.32(19) 3_555 4_555 n
C(1) C(2) C(1) 28.77(18) 1_555 2_555 n
C(1) C(2) C(1) 42.72(32) 1_555 3_555 n
C(1) C(2) C(1) 28.77(18) 1_555 4_555 n
C(1) C(2) C(2) 58.07(8) 1_555 2_555 n
C(1) C(2) C(2) 41.59(15) 1_555 3_555 n
C(1) C(2) C(2) 58.07(8) 1_555 4_555 n
C(1) C(2) C(3) 107.75(23) 1_555 1_555 n
C(1) C(2) C(1) 34.46(26) 2_555 3_555 n
C(1) C(2) C(1) 47.29(32) 2_555 4_555 n
C(1) C(2) C(2) 86.85(16) 2_555 2_555 n
C(1) C(2) C(2) 61.39(15) 2_555 3_555 n
C(1) C(2) C(2) 51.52(15) 2_555 4_555 n
C(1) C(2) C(3) 121.39(23) 2_555 1_555 n
C(1) C(2) C(1) 34.46(26) 3_555 4_555 n
C(1) C(2) C(2) 85.98(20) 3_555 2_555 n
C(1) C(2) C(2) 84.31(28) 3_555 3_555 n
C(1) C(2) C(2) 85.98(20) 3_555 4_555 n
C(1) C(2) C(3) 150.5(4) 3_555 1_555 n
C(1) C(2) C(2) 51.52(15) 4_555 2_555 n
C(1) C(2) C(2) 61.39(15) 4_555 3_555 n
C(1) C(2) C(2) 86.85(16) 4_555 4_555 n
C(1) C(2) C(3) 121.39(23) 4_555 1_555 n
C(2) C(2) C(2) 45.0 2_555 3_555 n
C(2) C(2) C(2) 90.0 2_555 4_555 n
C(2) C(2) C(3) 73.39(8) 2_555 1_555 n
C(2) C(2) C(2) 45.0 3_555 4_555 n
C(2) C(2) C(3) 66.16(13) 3_555 1_555 n
C(2) C(2) C(3) 73.39(8) 4_555 1_555 n
C(2) C(3) C(2) 33.21(17) 1_555 2_555 n
C(2) C(3) C(2) 47.68(25) 1_555 3_555 n
C(2) C(3) C(2) 33.21(17) 1_555 4_555 n
C(2) C(3) C(2) 33.21(17) 2_555 3_555 n
C(2) C(3) C(2) 47.68(25) 2_555 4_555 n
C(2) C(3) C(2) 33.21(17) 3_555 4_555 n
loop_
_geom_bond_atom_site_label_1
_geom_bond_atom_site_label_2
_geom_bond_distance
_geom_bond_site_symmetry_2
_geom_bond_publ_flag
C(1) C(1) 0.743(5) 2_555 n
C(1) C(1) 1.051(7) 3_555 n
C(1) C(1) 0.743(5) 4_555 n
C(1) N 1.4685(33) 1_555 n
C(1) C(2) 1.542(4) 1_555 n
C(1) C(2) 1.3105(33) 2_555 n
C(1) C(2) 1.0285(33) 3_555 n
C(1) C(2) 1.3105(33) 4_555 n
N C(1) 1.4685(33) 1_555 n
N C(1) 1.4685(33) 2_555 n
N C(1) 1.4685(33) 3_555 n
N C(1) 1.4685(33) 4_555 n
C(2) C(1) 1.542(4) 1_555 n
C(2) C(1) 1.3105(33) 2_555 n
C(2) C(1) 1.0285(33) 3_555 n
C(2) C(1) 1.3105(33) 4_555 n
C(2) C(2) 0.887(5) 2_555 n
C(2) C(2) 1.255(7) 3_555 n
C(2) C(2) 0.887(5) 4_555 n
C(2) C(3) 1.5528(34) 1_555 n
C(3) C(2) 1.5528(34) 1_555 n
C(3) C(2) 1.5528(34) 2_555 n
C(3) C(2) 1.5528(34) 3_555 n
C(3) C(2) 1.5528(34) 4_555 n
loop_
_pd_meas_counts_total
_pd_proc_ls_weight
_pd_proc_intensity_bkg_calc
_pd_calc_intensity_total
21840.0 0.0 -45715448.00000 .
20802.0 0.0 -44580720.00000 .
20063.0 0.0 -43472340.00000 .
19411.0 0.0 -42389688.00000 .
18944.0 0.0 -41332236.00000 .
18234.0 0.0 -40299428.00000 .
17543.0 0.0 -39290752.00000 .
16874.0 0.0 -38305656.00000 .
16453.0 0.0 -37343624.00000 .
15915.0 0.0 -36404180.00000 .
15520.0 0.0 -35486808.00000 .
14748.0 0.0 -34591008.00000 .
14282.0 0.0 -33716340.00000 .
13665.0 0.0 -32862338.00000 .
13437.0 0.0 -32028506.00000 .
13099.0 0.0 -31214440.00000 .
12646.0 0.0 -30419674.00000 .
12306.0 0.0 -29643840.00000 .
12020.0 0.0 -28886450.00000 .
11524.0 0.0 -28147122.00000 .
11197.0 0.0 -27425450.00000 .
10935.0 0.0 -26721044.00000 .
10712.0 0.0 -26033526.00000 .
10458.0 0.0 -25362500.00000 .
10007.0 0.0 -24707616.00000 .
9830.0 0.0 -24068514.00000 .
9723.0 0.0 -23444810.00000 .
9356.0 0.0 -22836192.00000 .
9171.0 0.0 -22242312.00000 .
8855.0 0.0 -21662832.00000 .
8680.0 0.0 -21097428.00000 .
8475.0 0.0 -20545768.00000 .
8232.0 0.0 -20007574.00000 .
8053.0 0.0 -19482516.00000 .
7967.0 0.0 -18970296.00000 .
7573.0 0.0 -18470634.00000 .
7586.0 0.0 -17983226.00000 .
7470.0 0.0 -17507806.00000 .
7315.0 0.0 -17044096.00000 .
7068.0 0.0 -16591828.00000 .
6843.0 0.0 -16150729.00000 .
6769.0 0.0 -15720559.00000 .
6714.0 0.0 -15301058.00000 .
6345.0 0.0 -14891979.00000 .
6242.0 0.0 -14493091.00000 .
6147.0 0.0 -14104141.00000 .
6202.0 0.0 -13724915.00000 .
6019.0 0.0 -13355177.00000 .
5723.0 0.0 -12994704.00000 .
5792.0 0.0 -12643290.00000 .
5615.0 0.0 -12300723.00000 .
5539.0 0.0 -11966779.00000 .
5501.0 0.0 -11641276.00000 .
5444.0 0.0 -11324018.00000 .
5386.0 0.0 -11014794.00000 .
5211.0 0.0 -10713417.00000 .
5150.0 0.0 -10419709.00000 .
5118.0 0.0 -10133501.00000 .
5054.0 0.0 -9854585.00000 .
5057.0 0.0 -9582814.00000 .
4927.0 0.0 -9318005.00000 .
4850.0 0.0 -9060003.00000 .
4776.0 0.0 -8808634.00000 .
4634.0 0.0 -8563745.00000 .
4627.0 0.0 -8325182.50000 .
4449.0 0.0 -8092797.50000 .
4467.0 0.0 -7866431.50000 .
4527.0 0.0 -7645948.00000 .
4395.0 0.0 -7431201.00000 .
4197.0 0.0 -7222062.00000 .
4189.0 0.0 -7018375.50000 .
4155.0 0.0 -6820025.50000 .
4167.0 0.0 -6626880.50000 .
4061.0 0.0 -6438816.00000 .
3992.0 0.0 -6255701.50000 .
4033.0 0.0 -6077415.50000 .
3896.0 0.0 -5903845.00000 .
4044.0 0.0 -5734873.00000 .
3768.0 0.0 -5570382.50000 .
3865.0 0.0 -5410270.50000 .
3818.0 0.0 -5254425.50000 .
3691.0 0.0 -5102741.00000 .
3754.0 0.0 -4955118.50000 .
3637.0 0.0 -4811451.00000 .
3677.0 0.0 -4671645.00000 .
3482.0 0.0 -4535604.00000 .
3692.0 0.0 -4403230.00000 .
3512.0 0.0 -4274440.00000 .
3522.0 0.0 -4149137.75000 .
3413.0 0.0 -4027235.75000 .
3380.0 0.0 -3908648.50000 .
3342.0 0.0 -3793293.25000 .
3374.0 0.0 -3681094.50000 .
3349.0 0.0 -3571967.25000 .
3231.0 0.0 -3465830.75000 .
3257.0 0.0 -3362611.75000 .
3231.0 0.0 -3262240.50000 .
3283.0 0.0 -3164636.00000 .
3165.0 0.0 -3069735.25000 .
3218.0 0.0 -2977468.75000 .
3166.0 0.0 -2887762.50000 .
3085.0 0.0 -2800556.75000 .
3056.0 0.0 -2715780.75000 .
3003.0 0.0 -2633382.00000 .
2951.0 0.0 -2553296.25000 .
2974.0 0.0 -2475452.50000 .
2897.0 0.0 -2399806.50000 .
3006.0 0.0 -2326291.00000 .
2955.0 0.0 -2254857.75000 .
2877.0 0.0 -2185451.50000 .
2872.0 0.0 -2118014.50000 .
2893.0 0.0 -2052501.25000 .
2893.0 0.0 -1988853.87500 .
2807.0 0.0 -1927029.62500 .
2672.0 0.0 -1866981.87500 .
2812.0 0.0 -1808654.37500 .
2822.0 0.0 -1752011.12500 .
2699.0 0.0 -1697000.37500 .
2712.0 0.0 -1643584.37500 .
2632.0 0.0 -1591720.25000 .
2693.0 0.0 -1541359.00000 .
2705.0 0.0 -1492469.50000 .
2603.0 0.0 -1445007.12500 .
2517.0 0.0 -1398935.12500 .
2578.0 0.0 -1354217.75000 .
2523.0 0.0 -1310813.12500 .
2499.0 0.0 -1268692.12500 .
2517.0 0.0 -1227814.00000 .
2427.0 0.0 -1188148.50000 .
2403.0 0.0 -1149664.62500 .
2443.0 0.0 -1112323.87500 .
2470.0 0.0 -1076100.87500 .
2441.0 0.0 -1040959.68750 .
2385.0 0.0 -1006874.75000 .
2294.0 0.0 -973817.43750 .
2303.0 0.0 -941754.68750 .
2370.0 0.0 -910663.06250 .
2333.0 0.0 -880512.87500 .
2393.0 0.0 -851280.00000 .
2309.0 0.0 -822939.75000 .
2348.0 0.0 -795463.18750 .
2305.0 0.0 -768829.75000 .
2307.0 0.0 -743012.12500 .
2159.0 0.0 -717990.87500 .
2216.0 0.0 -693744.00000 .
2244.0 0.0 -670245.37500 .
2250.0 0.0 -647478.25000 .
2204.0 0.0 -625418.00000 .
2189.0 0.0 -604046.43750 .
2211.0 0.0 -583345.31250 .
2078.0 0.0 -563291.68750 .
2077.0 0.0 -543870.56250 .
2126.0 0.0 -525060.75000 .
2153.0 0.0 -506847.21875 .
2140.0 0.0 -489212.06250 .
2114.0 0.0 -472136.34375 .
2083.0 0.0 -455606.09375 .
2011.0 0.0 -439604.09375 .
2074.0 0.0 -424116.31250 .
2090.0 0.0 -409127.12500 .
1991.0 0.0 -394620.75000 .
1981.0 0.0 -380584.40625 .
2070.0 0.0 -367002.96875 .
1955.0 0.0 -353863.59375 .
1903.0 0.0 -341154.31250 .
1882.0 0.0 -328859.68750 .
1993.0 0.0 -316969.68750 .
1920.0 0.0 -305470.50000 .
1922.0 0.0 -294351.25000 .
1903.0 0.0 -283601.21875 .
1862.0 0.0 -273207.78125 .
1888.0 0.0 -263161.00000 .
1872.0 0.0 -253449.71875 .
1890.0 0.0 -244064.45313 .
1728.0 0.0 -234995.35938 .
1791.0 0.0 -226231.60938 .
1691.0 0.0 -217764.75000 .
1726.0 0.0 -209585.42188 .
1823.0 0.0 -201684.56250 .
1814.0 0.0 -194054.39063 .
1726.0 0.0 -186684.95313 .
1747.0 0.0 -179569.60938 .
1708.0 0.0 -172699.23438 .
1630.0 0.0 -166066.95313 .
1762.0 0.0 -159665.40625 .
1631.0 0.0 -153486.32813 .
1696.0 0.0 -147523.78125 .
1656.0 0.0 -141769.90625 .
1686.0 0.0 -136218.93750 .
1654.0 0.0 -130864.13281 .
1615.0 0.0 -125698.72656 .
1620.0 0.0 -120717.17188 .
1626.0 0.0 -115913.20313 .
1597.0 0.0 -111281.48438 .
1576.0 0.0 -106816.38281 .
1628.0 0.0 -102511.88281 .
1570.0 0.0 -98363.37500 .
1600.0 0.0 -94365.28906 .
1639.0 0.0 -90513.08594 .
1551.0 0.0 -86802.07031 .
1516.0 0.0 -83226.92188 .
1513.0 0.0 -79783.71875 .
1475.0 0.0 -76467.71094 .
1503.0 0.0 -73274.78906 .
1555.0 0.0 -70201.08594 .
1567.0 0.0 -67242.12500 .
1456.0 0.0 -64394.43750 .
1467.0 0.0 -61653.92578 .
1473.0 0.0 -59017.18750 .
1482.0 0.0 -56480.73047 .
1427.0 0.0 -54040.75000 .
1467.0 0.0 -51694.33984 .
1412.0 0.0 -49438.05469 .
1369.0 0.0 -47268.84375 .
1454.0 0.0 -45183.77734 .
1378.0 0.0 -43179.72266 .
1378.0 0.0 -41254.05469 .
1448.0 0.0 -39403.79688 .
1430.0 0.0 -37626.48438 .
1414.0 0.0 -35919.60156 .
1427.0 0.0 -34280.37500 .
1359.0 0.0 -32706.64648 .
1350.0 0.0 -31195.91211 .
1288.0 0.0 -29746.00195 .
1336.0 0.0 -28354.73242 .
1406.0 0.0 -27019.91211 .
1294.0 0.0 -25739.55664 .
1288.0 0.0 -24511.58008 .
1266.0 0.0 -23334.18750 .
1237.0 0.0 -22205.57617 .
1281.0 0.0 -21123.69141 .
1203.0 0.0 -20087.05078 .
1245.0 0.0 -19093.82227 .
1186.0 0.0 -18142.43750 .
1220.0 0.0 -17231.40430 .
1158.0 0.0 -16359.02051 .
1208.0 0.0 -15523.99414 .
1241.0 0.0 -14724.77441 .
1172.0 0.0 -13960.12207 .
1107.0 0.0 -13228.64551 .
1165.0 0.0 -12529.05273 .
1169.0 0.0 -11860.16406 .
1157.0 0.0 -11220.68555 .
1183.0 0.0 -10609.58008 .
1132.0 0.0 -10025.73242 .
1116.0 0.0 -9467.95898 .
1124.0 0.0 -8935.34375 .
1118.0 0.0 -8426.82227 .
1092.0 0.0 -7941.45313 .
1116.0 0.0 -7478.31836 .
1056.0 0.0 -7036.49854 .
1025.0 0.0 -6615.15771 .
1051.0 0.0 -6213.41113 .
1052.0 0.0 -5830.51367 .
1083.0 0.0 -5465.67676 .
1080.0 0.0 -5118.12207 .
1014.0 0.0 -4787.15771 .
1068.0 0.0 -4472.07910 .
1076.0 0.0 -4172.23145 .
1005.0 0.0 -3886.98828 .
1008.0 0.0 -3615.67114 .
1063.0 0.0 -3357.74390 .
1056.0 0.0 -3112.60059 .
1022.0 0.0 -2879.69434 .
995.0 0.0 -2658.51196 .
956.0 0.0 -2448.51978 .
1012.0 0.0 -2249.23999 .
1038.0 0.0 -2060.18262 .
967.0 0.0 -1880.91687 .
1062.0 0.0 -1710.99805 .
1011.0 0.0 -1549.99304 .
991.0 0.0 -1397.50720 .
975.0 0.0 -1253.15393 .
997.0 0.0 -1116.56177 .
946.0 0.0 -987.38165 .
964.0 0.0 -865.24493 .
1002.0 0.0 -749.84760 .
974.0 0.0 -640.85840 .
1025.0 0.0 -537.97961 .
1005.0 0.0 -440.92105 .
916.0 0.0 -349.40173 .
965.0 0.0 -263.15585 .
980.0 0.0 -181.92014 .
989.0 0.0 -105.45756 .
952.0 0.0 -33.53561 .
960.0 0.0 34.08517 .
974.0 0.0 97.60683 .
954.0 0.0 157.24510 .
980.0 0.0 213.19339 .
898.0 0.0 265.63693 .
999.0 0.0 314.76807 .
926.0 0.0 360.74841 .
939.0 0.0 403.75021 .
982.0 0.0 443.92877 .
978.0 0.0 481.43381 .
989.0 0.0 516.41168 .
881.0 0.0 548.99780 .
898.0 0.0 579.32697 .
978.0 0.0 607.52032 .
949.0 0.0 633.69684 .
940.0 0.0 657.97510 .
936.0 0.0 680.45880 .
989.0 0.0 701.25391 .
910.0 0.0 720.45764 .
866.0 0.0 738.16333 .
965.0 0.0 754.46094 .
888.0 0.0 769.43408 .
915.0 0.0 783.16479 .
978.0 0.0 795.72754 .
952.0 0.0 807.19574 .
921.0 0.0 817.63885 .
886.0 0.0 827.12170 .
950.0 0.0 835.70691 .
910.0 0.0 843.45239 .
843.0 0.0 850.41345 .
894.0 0.0 856.64465 .
854.0 0.0 862.19403 .
901.0 0.0 867.10968 .
898.0 0.001114 871.43579 871.43561
920.0 0.001087 875.21448 875.21436
873.0 0.001145 878.48578 878.48566
906.0 0.001104 881.28680 881.28668
852.0 0.001174 883.65326 883.65320
955.0 0.001047 885.61798 885.61792
866.0 0.001155 887.21252 887.21252
874.0 0.001144 888.46637 888.46637
871.0 0.001148 889.40717 889.40717
855.0 0.001170 890.06085 890.06085
900.0 0.001111 890.45178 890.45178
897.0 0.001115 890.60278 890.60278
863.0 0.001159 890.53534 890.53534
910.0 0.001099 890.26935 890.26935
840.0 0.001190 889.82355 889.82355
847.0 0.001181 889.21533 889.21539
908.0 0.001101 888.46100 888.46106
942.0 0.001062 887.57574 887.57581
885.0 0.001130 886.57343 886.57349
870.0 0.001149 885.46735 885.46741
900.0 0.001111 884.26941 884.26947
868.0 0.001152 882.99103 882.99109
879.0 0.001138 881.64233 881.64240
839.0 0.001192 880.23291 880.23291
899.0 0.001112 878.77173 878.77179
843.0 0.001186 877.26654 877.26660
827.0 0.001209 875.72516 875.72516
842.0 0.001188 874.15405 874.15405
825.0 0.001212 872.55939 872.55939
887.0 0.001127 870.94690 870.94690
902.0 0.001109 869.32147 869.32147
814.0 0.001229 867.68793 867.68793
850.0 0.001176 866.05023 866.05023
838.0 0.001193 864.41199 864.41199
925.0 0.001081 862.77667 862.77667
824.0 0.001214 861.14709 861.14716
865.0 0.001156 859.52594 859.52594
938.0 0.001066 857.91516 857.91516
872.0 0.001147 856.31677 856.31683
851.0 0.001175 854.73267 854.73273
893.0 0.001120 853.16382 853.16388
891.0 0.001122 851.61182 851.61182
852.0 0.001174 850.07721 850.07727
855.0 0.001170 848.56085 848.56091
892.0 0.001121 847.06329 847.06329
878.0 0.001139 845.58484 845.58484
834.0 0.001199 844.12573 844.12579
859.0 0.001164 842.68616 842.68616
919.0 0.001088 841.26563 841.26569
885.0 0.001130 839.86444 842.78717
835.0 0.001198 838.48206 841.55298
848.0 0.001179 837.11829 841.85071
769.0 0.001300 835.77246 840.75488
835.0 0.001198 834.44409 839.69702
822.0 0.001217 833.13275 838.67883
821.0 0.001218 831.83752 837.70209
857.0 0.001167 830.55804 836.76935
840.0 0.001190 829.29333 835.88318
852.0 0.001174 828.04279 835.04688
844.0 0.001185 826.80548 834.26440
849.0 0.001178 825.58075 833.54028
801.0 0.001248 824.36780 832.88043
794.0 0.001259 823.16577 832.29138
813.0 0.001230 821.97363 831.78131
815.0 0.001227 820.79089 831.36029
802.0 0.001247 819.61664 831.04065
807.0 0.001239 818.45001 830.83716
804.0 0.001244 817.29034 830.76868
904.0 0.001106 816.13672 830.85809
851.0 0.001175 814.98846 831.13458
891.0 0.001122 813.84479 831.63507
835.0 0.001198 812.70514 832.40674
852.0 0.001174 811.56879 833.51111
859.0 0.001164 810.43494 835.02905
869.0 0.001151 809.30316 837.06879
907.0 0.001103 808.17279 839.77856
877.0 0.001140 807.04327 843.36517
959.0 0.001043 805.91412 848.13037
933.0 0.001072 804.78473 854.55853
964.0 0.001037 803.65485 863.60468
960.0 0.001042 802.52386 877.58826
948.0 0.001055 801.39142 902.15637
997.0 0.001003 800.25739 948.85962
1028.0 0.000973 799.12115 1035.87085
1141.0 0.000876 797.98260 1183.89990
1430.0 0.000699 796.84137 1412.29382
1630.0 0.000613 795.69745 1742.88220
2109.0 0.000474 794.55048 2215.42749
2752.0 0.000363 793.40039 2890.85474
3643.0 0.0002745 792.24707 3787.65869
4735.0 0.0002112 791.09039 4726.89502
5083.0 0.0001967 789.93042 5232.43555
4526.0 0.0002209 788.76703 4828.71826
3522.0 0.0002839 787.60028 3695.92236
2368.0 0.000422 786.43024 2471.97217
1483.0 0.000674 785.25684 1621.45764
1137.0 0.000880 784.08038 1185.44458
959.0 0.001043 782.90088 1001.71643
881.0 0.001135 781.71844 926.23181
873.0 0.001145 780.53339 888.59424
800.0 0.001250 779.34576 864.75629
799.0 0.001252 778.15588 847.60559
767.0 0.001304 776.96393 834.56989
798.0 0.001253 775.77014 824.32751
788.0 0.001269 774.57489 816.06342
777.0 0.001287 773.37842 809.23889
762.0 0.001312 772.18109 803.48810
835.0 0.001198 770.98309 798.55353
829.0 0.001206 769.78485 794.25110
779.0 0.001284 768.58685 790.44604
771.0 0.001297 767.38922 787.03772
746.0 0.001340 766.19257 783.95020
767.0 0.001304 764.99713 781.12476
810.0 0.001235 763.80334 778.51581
774.0 0.001292 762.61157 776.08765
775.0 0.001290 761.42230 773.81171
783.0 0.001277 760.23596 771.66528
739.0 0.001353 759.05292 769.62976
786.0 0.001272 757.87360 767.68994
735.0 0.001361 756.69849 765.83362
767.0 0.001304 755.52795 764.05054
790.0 0.001266 754.36249 762.33221
740.0 0.001351 753.20258 760.67151
734.0 0.001362 752.04846 759.06250
774.0 0.001292 750.90076 757.50031
763.0 0.001311 749.75970 755.98041
774.0 0.001292 748.62604 754.49963
780.0 0.001282 747.49994 753.05481
773.0 0.001294 746.38190 751.64319
715.0 0.001399 745.27228 750.26282
720.0 0.001389 744.17157 748.91162
781.0 0.001280 743.08020 747.58826
753.0 0.001328 741.99854 743.48792
750.0 0.001333 740.92682 742.34528
738.0 0.001355 739.86566 739.86584
757.0 0.001321 738.81537 738.81549
687.0 0.001456 737.77618 737.77637
729.0 0.001372 736.74872 736.74890
715.0 0.001399 735.73309 735.73322
744.0 0.001344 734.72974 734.72986
727.0 0.001376 733.73889 733.73901
742.0 0.001348 732.76105 732.76117
742.0 0.001348 731.79639 731.79657
714.0 0.001401 730.84521 730.84534
748.0 0.001337 729.90790 729.90802
728.0 0.001374 728.98456 728.98468
795.0 0.001258 728.07562 728.07574
773.0 0.001294 727.18134 727.18146
792.0 0.001263 726.30176 726.30188
702.0 0.001425 725.43726 725.43738
703.0 0.001422 724.58801 724.58807
740.0 0.001351 723.75427 723.75433
703.0 0.001422 722.93616 722.93628
738.0 0.001355 722.13391 722.13397
717.0 0.001395 721.34760 721.34772
765.0 0.001307 720.57745 720.57751
786.0 0.001272 719.82355 719.82367
766.0 0.001305 719.08612 719.08618
724.0 0.001381 718.36517 718.36523
708.0 0.001412 717.66083 717.66089
655.0 0.001527 716.97327 716.97333
698.0 0.001433 716.30243 716.30249
742.0 0.001348 715.64844 715.64850
752.0 0.001330 715.01141 715.01141
683.0 0.001464 714.39130 714.39136
693.0 0.001443 713.78809 713.78815
714.0 0.001401 713.20190 713.20190
712.0 0.001404 712.63275 712.63281
776.0 0.001289 712.08057 712.08057
710.0 0.001408 711.54535 711.54535
718.0 0.001393 711.02704 711.02704
738.0 0.001355 710.52563 710.52563
748.0 0.001337 710.04114 710.04114
718.0 0.001393 709.57330 709.57330
735.0 0.001361 709.12231 709.12231
757.0 0.001321 708.68793 708.68787
713.0 0.001403 708.27008 708.27002
697.0 0.001435 707.86865 707.86865
748.0 0.001337 707.48364 707.48364
728.0 0.001374 707.11487 707.11481
678.0 0.001475 706.76215 706.76208
695.0 0.001439 706.42542 706.42542
713.0 0.001403 706.10455 706.10455
699.0 0.001431 705.79938 705.79932
733.0 0.001364 705.50970 705.50970
720.0 0.001389 705.23541 705.23541
679.0 0.001473 704.97638 704.97632
748.0 0.001337 704.73230 704.73230
711.0 0.001406 704.50317 704.50311
716.0 0.001397 704.28864 704.28857
719.0 0.001391 704.08862 704.08856
677.0 0.001477 703.90289 703.90283
707.0 0.001414 703.73120 703.73114
699.0 0.001431 703.57343 703.57336
747.0 0.001339 703.42932 703.42926
670.0 0.001493 703.29865 703.29858
751.0 0.001332 703.18121 703.18115
719.0 0.001391 703.07678 703.07672
677.0 0.001477 702.98517 702.98511
701.0 0.001427 702.90619 702.90607
702.0 0.001425 702.83942 702.83936
705.0 0.001418 702.78491 702.78479
751.0 0.001332 702.74219 702.74207
672.0 0.001488 702.71112 702.71106
667.0 0.001499 702.69153 702.69147
689.0 0.001451 702.68304 702.68298
653.0 0.001531 702.68555 702.68549
677.0 0.001477 702.69879 702.69873
795.0 0.001258 702.72247 702.72241
682.0 0.001466 702.75641 702.75635
729.0 0.001372 702.80035 702.80029
725.0 0.001379 702.85406 702.85400
681.0 0.001468 702.91730 702.91724
764.0 0.001309 702.98987 702.98981
703.0 0.001422 703.07153 703.07141
687.0 0.001456 703.16199 703.16193
705.0 0.001418 703.26105 703.26099
748.0 0.001337 703.36853 703.36847
688.0 0.001453 703.48425 703.48413
698.0 0.001433 703.60779 703.60773
702.0 0.001425 703.73920 703.73907
698.0 0.001433 703.87799 703.87793
696.0 0.001437 704.02417 704.02411
784.0 0.001276 704.17743 704.17731
672.0 0.001488 704.33759 704.33746
750.0 0.001333 704.50439 704.50433
690.0 0.001449 704.67773 704.67767
737.0 0.001357 704.85736 704.85724
764.0 0.001309 705.04309 705.04303
684.0 0.001462 705.23474 705.23462
668.0 0.001497 705.43213 705.43201
681.0 0.001468 705.63507 705.63501
663.0 0.001508 705.84338 705.84332
721.0 0.001387 706.05695 706.05688
673.0 0.001486 706.27557 706.27551
676.0 0.001479 706.49908 706.49902
691.0 0.001447 706.72736 706.72729
674.0 0.001484 706.96027 706.96014
756.0 0.001323 707.19757 707.19751
687.0 0.001456 707.43921 707.43915
684.0 0.001462 707.68506 707.68500
734.0 0.001362 707.93488 707.93481
733.0 0.001364 708.18872 708.18866
701.0 0.001427 708.44635 708.44629
672.0 0.001488 708.70770 708.70764
677.0 0.001477 708.97266 708.97260
699.0 0.001431 709.24115 709.24109
687.0 0.001456 709.51300 709.51294
721.0 0.001387 709.78815 709.78815
690.0 0.001449 710.06659 710.06653
711.0 0.001406 710.34821 710.34814
693.0 0.001443 710.63287 710.63281
728.0 0.001374 710.92059 710.92053
656.0 0.001524 711.21124 711.21124
701.0 0.001427 711.50482 711.50482
693.0 0.001443 711.80127 711.80121
703.0 0.001422 712.10052 712.10052
706.0 0.001416 712.40253 712.40253
667.0 0.001499 712.70734 712.70734
674.0 0.001484 713.01483 713.01483
742.0 0.001348 713.32501 713.32501
708.0 0.001412 713.63794 713.63788
654.0 0.001529 713.95349 713.95349
710.0 0.001408 714.27173 714.27167
707.0 0.001414 714.59259 714.59259
702.0 0.001425 714.91620 714.91620
687.0 0.001456 715.24243 715.24237
694.0 0.001441 715.57135 715.57135
712.0 0.001404 715.90302 715.90302
712.0 0.001404 716.23743 716.23737
708.0 0.001412 716.57458 716.57458
736.0 0.001359 716.91455 716.91455
696.0 0.001437 717.25732 717.25732
732.0 0.001366 717.60309 717.60309
765.0 0.001307 717.95172 717.95172
664.0 0.001506 718.30334 718.30341
731.0 0.001368 718.65808 718.65808
714.0 0.001401 719.01581 719.01587
675.0 0.001481 719.37683 719.37683
774.0 0.001292 719.74103 719.74103
694.0 0.001441 720.10858 720.10858
745.0 0.001342 720.47949 720.47949
699.0 0.001431 720.85382 720.85388
709.0 0.001410 721.23175 721.23181
762.0 0.001312 721.61334 721.61334
707.0 0.001414 721.99866 721.99872
761.0 0.001314 722.38776 722.38782
693.0 0.001443 722.78082 722.78088
731.0 0.001368 723.17792 723.17798
690.0 0.001449 723.57910 723.57916
727.0 0.001376 723.98456 723.98462
680.0 0.001471 724.39435 724.39435
744.0 0.001344 724.80847 724.80853
709.0 0.001410 725.22729 725.22729
729.0 0.001372 725.65070 725.65076
696.0 0.001437 726.07892 726.07898
699.0 0.001431 726.51202 726.51208
738.0 0.001355 726.95020 726.95020
711.0 0.001406 727.39343 727.39349
720.0 0.001389 727.84198 727.84204
717.0 0.001395 728.29590 728.29596
737.0 0.001357 728.75537 728.75543
722.0 0.001385 729.22046 729.22052
747.0 0.001339 729.69135 729.69141
744.0 0.001344 730.16809 730.16815
748.0 0.001337 730.65088 730.65100
757.0 0.001321 731.13983 731.13989
778.0 0.001285 731.63507 731.63513
737.0 0.001357 732.13672 732.13678
754.0 0.001326 732.64490 732.64496
747.0 0.001339 733.15979 733.15985
737.0 0.001357 733.68146 733.68152
754.0 0.001326 734.21002 734.21008
695.0 0.001439 734.74573 734.74579
776.0 0.001289 735.28857 735.28864
799.0 0.001252 735.83881 735.83887
766.0 0.001305 736.39648 736.39655
688.0 0.001453 736.96167 736.96179
721.0 0.001387 737.53467 737.53473
728.0 0.001374 738.11542 738.11548
732.0 0.001366 738.70422 738.70428
761.0 0.001314 739.30103 739.30115
756.0 0.001323 739.90607 739.90613
794.0 0.001259 740.51947 740.51959
698.0 0.001433 741.14124 741.14136
790.0 0.001266 741.77167 741.77179
783.0 0.001277 742.41071 742.41083
749.0 0.001335 743.05859 743.05865
743.0 0.001346 743.71533 743.71539
718.0 0.001393 744.38116 744.38123
767.0 0.001304 745.05603 745.05609
776.0 0.001289 745.74011 745.74023
717.0 0.001395 746.43359 746.43365
716.0 0.001397 747.13654 747.13660
751.0 0.001332 747.84894 747.84906
734.0 0.001362 748.57104 748.57111
742.0 0.001348 749.30280 749.30292
746.0 0.001340 750.04437 750.04449
720.0 0.001389 750.79596 750.79608
747.0 0.001339 751.55743 751.55750
763.0 0.001311 752.32904 752.32916
755.0 0.001325 753.11072 753.11084
791.0 0.001264 753.90265 753.90271
774.0 0.001292 754.70483 754.70496
818.0 0.001222 755.51752 755.51758
709.0 0.001410 756.34052 756.34064
807.0 0.001239 757.17407 757.17413
725.0 0.001379 758.01813 758.01819
769.0 0.001300 758.87286 758.87299
694.0 0.001441 759.73822 759.73828
800.0 0.001250 760.61432 763.31836
760.0 0.001316 761.50116 764.34204
772.0 0.001295 762.39880 766.72620
817.0 0.001224 763.30731 767.86182
747.0 0.001339 764.22668 769.02655
787.0 0.001271 765.15698 770.22272
771.0 0.001297 766.09814 771.45239
773.0 0.001294 767.05029 772.71844
792.0 0.001263 768.01349 774.02399
814.0 0.001229 768.98761 775.37244
807.0 0.001239 769.97272 776.76807
763.0 0.001311 770.96887 778.21558
750.0 0.001333 771.97601 779.72070
793.0 0.001261 772.99426 781.29028
783.0 0.001277 774.02344 782.93176
839.0 0.001192 775.06372 784.65485
803.0 0.001245 776.11487 786.47052
789.0 0.001267 777.17700 788.39252
841.0 0.001189 778.25024 790.43750
855.0 0.001170 779.33429 792.62555
799.0 0.001252 780.42932 794.98206
858.0 0.001166 781.53516 797.53809
813.0 0.001230 782.65179 800.33380
856.0 0.001168 783.77942 803.41998
839.0 0.001192 784.91760 806.86218
882.0 0.001134 786.06659 810.74750
853.0 0.001172 787.22614 815.19098
863.0 0.001159 788.39648 820.35040
843.0 0.001186 789.57721 826.44421
872.0 0.001147 790.76843 833.78345
838.0 0.001193 791.97021 842.82922
902.0 0.001109 793.18219 854.32251
842.0 0.001188 794.40442 869.70880
900.0 0.001111 795.63696 892.51056
969.0 0.001032 796.87952 931.86462
1057.0 0.000946 798.13226 1009.07965
1215.0 0.000823 799.39478 1165.97852
1543.0 0.000648 800.66711 1470.08557
2096.0 0.000477 801.94928 2005.36218
2881.0 0.0003471 803.24103 2821.92651
3726.0 0.0002684 804.54236 3818.91333
4420.0 0.0002262 805.85309 4642.16650
4731.0 0.0002114 807.17322 4811.19629
4647.0 0.0002152 808.50250 4242.24268
3534.0 0.0002830 809.84082 3302.02588
2569.0 0.000389 811.18823 2337.80957
1693.0 0.000591 812.54437 1626.24231
1183.0 0.000845 813.90924 1222.58691
935.0 0.001070 815.28284 1034.74768
900.0 0.001111 816.66473 955.71155
885.0 0.001130 818.05511 919.62915
806.0 0.001241 819.45349 899.21429
860.0 0.001163 820.85992 885.64044
813.0 0.001230 822.27435 875.99615
860.0 0.001163 823.69641 868.97516
824.0 0.001214 825.12604 863.80811
870.0 0.001149 826.56323 859.99353
880.0 0.001136 828.00763 857.18848
829.0 0.001206 829.45911 855.15283
833.0 0.001200 830.91754 853.71460
801.0 0.001248 832.38287 852.74731
805.0 0.001242 833.85468 852.15656
845.0 0.001183 835.33301 851.87079
788.0 0.001269 836.81769 851.83490
840.0 0.001190 838.30841 852.00568
816.0 0.001225 839.80511 852.34918
804.0 0.001244 841.30750 852.83832
796.0 0.001256 842.81543 853.45111
840.0 0.001190 844.32892 854.76050
837.0 0.001195 845.84747 855.60004
868.0 0.001152 847.37103 856.81091
817.0 0.001224 848.89960 857.81799
865.0 0.001156 850.43268 858.88910
799.0 0.001252 851.97015 860.01782
851.0 0.001175 853.51196 861.19836
858.0 0.001166 855.05792 862.42627
831.0 0.001203 856.60767 863.69751
813.0 0.001230 858.16107 865.00885
817.0 0.001224 859.71808 866.35791
861.0 0.001161 861.27826 867.74274
885.0 0.001130 862.84167 869.16187
819.0 0.001221 864.40778 870.61414
871.0 0.001148 865.97656 872.09949
855.0 0.001170 867.54803 871.04791
857.0 0.001167 869.12158 872.71826
903.0 0.001107 870.69733 873.13141
881.0 0.001135 872.27484 874.91858
876.0 0.001142 873.85400 876.73578
918.0 0.001089 875.43469 878.58820
876.0 0.001142 877.01654 880.48224
865.0 0.001156 878.59961 882.42633
833.0 0.001200 880.18335 884.43079
898.0 0.001114 881.76776 886.50934
881.0 0.001135 883.35266 888.68036
868.0 0.001152 884.93768 890.96747
853.0 0.001172 886.52283 893.40393
943.0 0.001060 888.10767 896.03455
840.0 0.001190 889.69208 898.92389
926.0 0.001080 891.27600 902.16638
871.0 0.001148 892.85901 905.90894
968.0 0.001033 894.44110 910.42303
980.0 0.001020 896.02185 916.33978
857.0 0.001167 897.60114 925.33130
921.0 0.001086 899.17877 941.55292
1013.0 0.000987 900.75470 973.83044
1095.0 0.000913 902.32843 1037.54651
1267.0 0.000789 903.89996 1152.34033
1546.0 0.000647 905.46899 1329.93701
1846.0 0.000542 907.03552 1547.41235
2218.0 0.000451 908.59900 1728.00659
2330.0 0.000429 910.15961 1770.78552
2258.0 0.000443 911.71686 1660.67163
1964.0 0.000509 913.27063 1473.43652
1549.0 0.000646 914.82086 1272.53076
1273.0 0.000786 916.36719 1114.31104
1060.0 0.000943 917.90955 1019.00415
934.0 0.001071 919.44757 972.72552
897.0 0.001115 920.98120 953.47992
929.0 0.001076 922.51019 945.64874
943.0 0.001060 924.03455 942.01624
936.0 0.001068 925.55377 940.09821
865.0 0.001156 927.06787 939.10071
908.0 0.001101 928.57660 938.69958
889.0 0.001125 930.07996 938.71478
872.0 0.001147 931.57745 939.03009
928.0 0.001078 933.06921 939.56714
895.0 0.001117 934.55475 940.27057
904.0 0.001106 936.03406 941.10107
893.0 0.001120 937.50702 942.02985
934.0 0.001071 938.97375 943.03564
850.0 0.001176 940.43323 944.10138
918.0 0.001089 941.88605 945.21509
848.0 0.001179 943.33160 946.36652
919.0 0.001088 944.77002 947.54816
905.0 0.001105 946.20142 948.75409
897.0 0.001115 947.62469 949.97821
882.0 0.001134 949.04071 951.21759
888.0 0.001126 950.44836 952.46790
871.0 0.001148 951.84845 953.72699
935.0 0.001070 953.24048 954.99231
901.0 0.001110 954.62390 956.26135
906.0 0.001104 955.99908 957.53308
921.0 0.001086 957.36548 958.80554
891.0 0.001122 958.72321 960.07776
887.0 0.001127 960.07251 961.34888
941.0 0.001063 961.41235 962.61713
928.0 0.001078 962.74329 963.88239
942.0 0.001062 964.06482 965.14343
953.0 0.001049 965.37708 966.39990
920.0 0.001087 966.68018 967.65143
909.0 0.001100 967.97308 968.89661
917.0 0.001091 969.25677 969.57104
961.0 0.001041 970.53033 970.82935
936.0 0.001068 971.79395 971.79413
920.0 0.001087 973.04785 973.04803
1027.0 0.000974 974.29120 974.29138
977.0 0.001024 975.52454 975.52472
1006.0 0.000994 976.74731 976.74750
1052.0 0.000951 977.95972 977.95990
1016.0 0.000984 979.16187 979.16205
1017.0 0.000983 980.35303 980.35321
1023.0 0.000978 981.53357 981.53375
947.0 0.001056 982.70319 982.70337
1038.0 0.000963 983.86194 983.86212
1019.0 0.000981 985.01007 985.01025
961.0 0.001041 986.14661 986.14679
1019.0 0.000981 987.27240 987.27258
1021.0 0.000979 988.38672 988.38696
1003.0 0.000997 989.48987 989.49011
1026.0 0.000975 990.58191 990.58209
1019.0 0.000981 991.66223 991.66241
965.0 0.001036 992.73132 992.73151
929.0 0.001076 993.78864 993.78888
960.0 0.001042 994.83453 994.83478
1017.0 0.000983 995.86908 995.86926
921.0 0.001086 996.89160 996.89178
1015.0 0.000985 997.90259 997.90277
952.0 0.001050 998.90161 998.90186
1001.0 0.000999 999.88892 999.88916
912.0 0.001096 1000.86469 1000.86493
990.0 0.001010 1001.82813 1001.82837
986.0 0.001014 1002.78003 1002.78027
1018.0 0.000982 1003.71979 1003.72003
936.0 0.001068 1004.64764 1004.64783
981.0 0.001019 1005.56366 1005.56390
1045.0 0.000957 1006.46741 1006.46765
1014.0 0.000986 1007.35938 1007.35962
998.0 0.001002 1008.23914 1008.23938
961.0 0.001041 1009.10687 1009.10718
978.0 0.001022 1009.96283 1009.96307
921.0 0.001086 1010.80646 1010.80670
939.0 0.001065 1011.63812 1011.63837
926.0 0.001080 1012.45758 1012.45782
1015.0 0.000985 1013.26501 1013.26526
1020.0 0.000980 1014.06061 1014.06091
991.0 0.001009 1014.84381 1014.84412
975.0 0.001026 1015.61523 1015.61548
1027.0 0.000974 1016.37445 1016.37469
935.0 0.001070 1017.12164 1017.12195
965.0 0.001036 1017.85699 1017.85724
980.0 0.001020 1018.58014 1018.58044
968.0 0.001033 1019.29150 1019.29181
1046.0 0.000956 1019.99066 1019.99097
1032.0 0.000969 1020.67804 1020.67828
977.0 0.001024 1021.35370 1021.35394
968.0 0.001033 1022.01721 1022.01752
1001.0 0.000999 1022.66907 1022.66931
994.0 0.001006 1023.30896 1023.30920
1023.0 0.000978 1023.93713 1023.93744
985.0 0.001015 1024.55383 1024.55408
1017.0 0.000983 1025.15845 1025.15881
1051.0 0.000951 1025.75171 1025.75195
1015.0 0.000985 1026.33313 1026.33337
1053.0 0.000950 1026.90308 1026.90344
1054.0 0.000949 1027.46167 1027.46191
1013.0 0.000987 1028.00867 1028.00891
1089.0 0.000918 1028.54431 1028.54468
1024.0 0.000977 1029.06848 1029.06885
1065.0 0.000939 1029.58142 1029.58179
1068.0 0.000936 1030.08337 1030.08362
1008.0 0.000992 1030.57385 1030.57410
1101.0 0.000908 1031.05334 1040.82043
1113.0 0.000898 1031.52161 1041.78430
1093.0 0.000915 1031.97900 1047.48254
1073.0 0.000932 1032.42566 1048.74133
1099.0 0.000910 1032.86121 1050.05432
1106.0 0.000904 1033.28601 1051.42969
1092.0 0.000916 1033.70007 1052.87524
1099.0 0.000910 1034.10364 1054.40076
1151.0 0.000869 1034.49658 1056.01746
1114.0 0.000898 1034.87903 1057.73755
1097.0 0.000912 1035.25110 1059.57617
1130.0 0.000885 1035.61267 1061.54993
1098.0 0.000911 1035.96399 1063.67969
1129.0 0.000886 1036.30530 1065.98914
1155.0 0.000866 1036.63647 1068.50537
1108.0 0.000903 1036.95752 1071.26270
1189.0 0.000841 1037.26868 1074.30005
1260.0 0.000794 1037.57007 1077.66663
1186.0 0.000843 1037.86169 1081.42163
1169.0 0.000855 1038.14355 1085.63513
1118.0 0.000894 1038.41577 1090.39807
1200.0 0.000833 1038.67859 1095.81921
1165.0 0.000858 1038.93201 1102.04077
1170.0 0.000855 1039.17603 1109.24219
1157.0 0.000864 1039.41089 1117.65076
1224.0 0.000817 1039.63660 1127.57312
1243.0 0.000805 1039.85327 1139.40808
1205.0 0.000830 1040.06091 1153.70483
1233.0 0.000811 1040.25989 1172.24829
1238.0 0.000808 1040.44983 1194.08936
1310.0 0.000763 1040.63135 1221.77673
1304.0 0.000767 1040.80408 1258.24133
1370.0 0.000730 1040.96838 1306.89587
1380.0 0.000725 1041.12451 1378.50330
1659.0 0.000603 1041.27209 1500.93079
1846.0 0.000542 1041.41162 1747.90857
2335.0 0.000428 1041.54297 2285.37524
3293.0 0.0003037 1041.66638 3405.90527
5145.0 0.0001944 1041.78186 5443.80420
7909.0 0.0001264 1041.88965 8454.62305
11143.0 0.0000897 1041.98962 11798.45215
13931.0 0.0000718 1042.08203 14078.97070
14217.0 0.0000703 1042.16687 14074.83496
13198.0 0.0000758 1042.24438 12229.56348
9822.0 0.0001018 1042.31458 9608.66992
6732.0 0.0001485 1042.37744 6775.94238
4472.0 0.0002236 1042.43335 4390.45605
2862.0 0.0003494 1042.48218 2822.71753
1883.0 0.000531 1042.52417 1984.68872
1443.0 0.000693 1042.55920 1601.20825
1416.0 0.000706 1042.58752 1430.52405
1321.0 0.000757 1042.60938 1342.41504
1253.0 0.000798 1042.62451 1286.61414
1180.0 0.000847 1042.63342 1246.77820
1165.0 0.000858 1042.63586 1216.96631
1153.0 0.000867 1042.63208 1194.19116
1199.0 0.000834 1042.62219 1176.64880
1158.0 0.000864 1042.60620 1163.15503
1174.0 0.000852 1042.58423 1152.95288
1118.0 0.000894 1042.55652 1145.60291
1121.0 0.000892 1042.52295 1140.94250
1151.0 0.000869 1042.48376 1139.22339
1151.0 0.000869 1042.43896 1141.66663
1182.0 0.000846 1042.38879 1152.17700
1239.0 0.000807 1042.33301 1181.05933
1321.0 0.000757 1042.27209 1250.34509
1469.0 0.000681 1042.20593 1394.93054
1763.0 0.000567 1042.13464 1645.79065
2192.0 0.000456 1042.05835 1989.05420
2562.0 0.000390 1041.97705 2326.86060
2562.0 0.000390 1041.89087 2499.53101
2386.0 0.000419 1041.80005 2424.68774
2336.0 0.000428 1041.70447 2196.86792
1907.0 0.000524 1041.60425 1909.08130
1539.0 0.000650 1041.49951 1613.79443
1438.0 0.000695 1041.39026 1377.64343
1279.0 0.000782 1041.27673 1228.09131
1149.0 0.000870 1041.15906 1149.97620
1101.0 0.000908 1041.03699 1114.02393
1059.0 0.000944 1040.91089 1097.10181
1079.0 0.000927 1040.78076 1087.50500
1069.0 0.000935 1040.64661 1080.90332
998.0 0.001002 1040.50867 1066.25659
1055.0 0.000948 1040.36682 1062.69727
1080.0 0.000926 1040.22131 1059.83557
1053.0 0.000950 1040.07202 1052.77710
1038.0 0.000963 1039.91931 1051.02881
1093.0 0.000915 1039.76294 1049.56006
1026.0 0.000975 1039.60315 1048.30762
1065.0 0.000939 1039.43994 1047.22546
1004.0 0.000996 1039.27344 1046.27820
1065.0 0.000939 1039.10376 1045.43994
988.0 0.001012 1038.93079 1044.68970
1029.0 0.000972 1038.75464 1044.01184
1010.0 0.000990 1038.57544 1043.39404
1075.0 0.000930 1038.39331 1042.82581
1021.0 0.000979 1038.20825 1042.29944
1005.0 0.000995 1038.02014 1041.80811
1054.0 0.000949 1037.82935 1041.34631
1071.0 0.000934 1037.63574 1040.91003
1069.0 0.000935 1037.43933 1040.49524
1051.0 0.000951 1037.24036 1040.09900
1006.0 0.000994 1037.03870 1039.71863
981.0 0.001019 1036.83435 1039.35181
1015.0 0.000985 1036.62769 1038.99707
1049.0 0.000953 1036.41833 1038.65222
990.0 0.001010 1036.20679 1038.31665
1013.0 0.000987 1035.99268 1037.98840
1015.0 0.000985 1035.77612 1037.66687
1010.0 0.000990 1035.55750 1037.35120
990.0 0.001010 1035.33643 1037.04053
1021.0 0.000979 1035.11328 1035.70203
1011.0 0.000989 1034.88782 1035.44739
1006.0 0.000994 1034.66016 1035.19263
981.0 0.001019 1034.43054 1034.43079
1025.0 0.000976 1034.19873 1034.19897
1007.0 0.000993 1033.96484 1033.96509
985.0 0.001015 1033.72900 1033.72925
1048.0 0.000954 1033.49109 1033.49133
1002.0 0.000998 1033.25122 1033.25146
1054.0 0.000949 1033.00940 1033.00964
1041.0 0.000961 1032.76575 1032.76599
962.0 0.001040 1032.52014 1032.52039
1031.0 0.000970 1032.27258 1032.27283
1060.0 0.000943 1032.02319 1032.02344
993.0 0.001007 1031.77197 1031.77222
1021.0 0.000979 1031.51904 1031.51929
1022.0 0.000978 1031.26416 1031.26440
1012.0 0.000988 1031.00745 1031.00769
1043.0 0.000959 1030.74915 1030.74939
989.0 0.001011 1030.48889 1030.48914
1081.0 0.000925 1030.22705 1030.22729
989.0 0.001011 1029.96338 1029.96362
993.0 0.001007 1029.69800 1029.69812
1055.0 0.000948 1029.43079 1029.43103
958.0 0.001044 1029.16199 1029.16211
1040.0 0.000962 1028.89136 1028.89160
992.0 0.001008 1028.61902 1028.61926
1049.0 0.000953 1028.34497 1028.34509
1020.0 0.000980 1028.06921 1028.06946
1055.0 0.000948 1027.79175 1027.79187
992.0 0.001008 1027.51257 1027.51270
1013.0 0.000987 1027.23157 1027.23181
1086.0 0.000921 1026.94885 1026.94897
1075.0 0.000930 1026.66443 1026.66467
1064.0 0.000940 1026.37817 1026.37842
1071.0 0.000934 1026.09033 1026.09058
1082.0 0.000924 1025.80066 1025.80078
1058.0 0.000945 1025.50903 1025.50928
1028.0 0.000973 1025.21582 1025.21606
1057.0 0.000946 1024.92065 1024.92090
1019.0 0.000981 1024.62378 1024.62402
1044.0 0.000958 1024.32507 1024.32520
1028.0 0.000973 1024.02441 1024.02454
1017.0 0.000983 1023.72192 1023.72211
1057.0 0.000946 1023.41754 1023.41772
961.0 0.001041 1023.11121 1023.11139
1002.0 0.000998 1022.80298 1022.80316
1059.0 0.000944 1022.49268 1022.49286
1043.0 0.000959 1022.18048 1022.18066
987.0 0.001013 1021.86627 1021.86646
989.0 0.001011 1021.55005 1021.55023
1042.0 0.000960 1021.23181 1021.23199
952.0 0.001050 1020.91132 1020.91144
961.0 0.001041 1020.58881 1020.58899
965.0 0.001036 1020.26410 1020.26428
1002.0 0.000998 1019.93732 1019.93750
984.0 0.001016 1019.60822 1019.60840
962.0 0.001040 1019.27686 1019.27704
962.0 0.001040 1018.94330 1018.94348
1010.0 0.000990 1018.60736 1018.60754
996.0 0.001004 1018.26917 1018.26929
984.0 0.001016 1017.92853 1017.92871
1014.0 0.000986 1017.58539 1017.58551
1012.0 0.000988 1017.23987 1017.24005
1032.0 0.000969 1016.89185 1016.89197
1012.0 0.000988 1016.54126 1016.54144
1034.0 0.000967 1016.18817 1016.18835
933.0 0.001072 1015.83234 1015.83252
938.0 0.001066 1015.47400 1015.47412
1058.0 0.000945 1015.11285 1015.11298
993.0 0.001007 1014.74896 1014.74915
1045.0 0.000957 1014.38239 1014.38257
1012.0 0.000988 1014.01282 1014.01300
965.0 0.001036 1013.64056 1013.64069
1011.0 0.000989 1013.26526 1013.26544
934.0 0.001071 1012.88708 1012.88721
987.0 0.001013 1012.50586 1012.50604
999.0 0.001001 1012.12152 1012.12164
941.0 0.001063 1011.73413 1011.73425
984.0 0.001016 1011.34351 1011.34369
984.0 0.001016 1010.94983 1010.94995
980.0 0.001020 1010.55286 1010.55304
944.0 0.001059 1010.15247 1010.15265
1013.0 0.000987 1009.74896 1009.74908
979.0 0.001021 1009.34186 1009.34198
958.0 0.001044 1008.93140 1008.93158
936.0 0.001068 1008.51752 1008.51764
1054.0 0.000949 1008.09998 1008.10010
1042.0 0.000960 1007.67889 1007.67908
1011.0 0.000989 1007.25415 1007.25427
930.0 0.001075 1006.82574 1006.82593
990.0 0.001010 1006.39362 1006.39380
992.0 0.001008 1005.95758 1005.95770
1029.0 0.000972 1005.51782 1005.51794
988.0 0.001012 1005.07404 1005.07422
965.0 0.001036 1004.62646 1004.62659
1004.0 0.000996 1004.17480 1004.17499
1023.0 0.000978 1003.71906 1004.09149
1001.0 0.000999 1003.25934 1003.65021
1007.0 0.000993 1002.79523 1003.20599
1000.0 0.001000 1002.32715 1002.75928
960.0 0.001042 1001.85474 1002.50250
1001.0 0.000999 1001.37793 1002.06042
986.0 0.001014 1000.89685 1001.61707
1021.0 0.000979 1000.41125 1001.17218
973.0 0.001028 999.92139 1000.72675
961.0 0.001041 999.42688 1000.28058
984.0 0.001016 998.92767 999.83429
1007.0 0.000993 998.42401 999.38861
1007.0 0.000993 997.91559 998.94385
993.0 0.001007 997.40259 998.50116
1039.0 0.000962 996.88477 998.06104
972.0 0.001029 996.36194 997.62445
1005.0 0.000995 995.83447 997.19318
1018.0 0.000982 995.30188 996.76813
1045.0 0.000957 994.76453 996.35156
1005.0 0.000995 994.22205 995.94562
1014.0 0.000986 993.67444 995.55286
990.0 0.001010 993.12183 995.17694
1066.0 0.000938 992.56396 994.82196
1070.0 0.000935 992.00098 999.94452
1058.0 0.000945 991.43274 999.91858
991.0 0.001009 990.85901 999.95526
1061.0 0.000943 990.28009 1000.06848
1031.0 0.000970 989.69568 1003.08624
1015.0 0.000985 989.10596 1003.55322
999.0 0.001001 988.51068 1004.18109
1045.0 0.000957 987.90967 1005.01556
960.0 0.001042 987.30334 1006.12067
1016.0 0.000984 986.69128 1007.59662
1061.0 0.000943 986.07361 1009.62469
1084.0 0.000923 985.45026 1012.63855
1078.0 0.000928 984.82098 1017.84528
1061.0 0.000943 984.18610 1028.45398
1131.0 0.000884 983.54523 1051.55676
1158.0 0.000864 982.89868 1098.67737
1260.0 0.000794 982.24615 1180.63342
1310.0 0.000763 981.58746 1294.18115
1421.0 0.000704 980.92303 1409.70740
1476.0 0.000678 980.25250 1477.87781
1543.0 0.000648 979.57593 1469.88354
1434.0 0.000697 978.89325 1412.93738
1394.0 0.000717 978.20428 1339.43433
1242.0 0.000805 977.50934 1256.20801
1192.0 0.000839 976.80811 1174.71875
1134.0 0.000882 976.10077 1112.38770
1144.0 0.000874 975.38715 1075.20923
1090.0 0.000917 974.66705 1058.96179
1124.0 0.000890 973.94080 1055.88721
1153.0 0.000867 973.20801 1060.02319
1072.0 0.000933 972.46912 1068.65710
1118.0 0.000894 971.72363 1081.35437
1087.0 0.000920 970.97156 1098.98120
1144.0 0.000874 970.21326 1123.74341
1205.0 0.000830 969.44836 1161.24292
1365.0 0.000733 968.67700 1227.33716
1467.0 0.000682 967.89911 1365.09424
1730.0 0.000578 967.11444 1671.58911
2410.0 0.000415 966.32343 2309.08081
3460.0 0.0002890 965.52570 3440.21899
5341.0 0.0001872 964.72144 5042.68457
7044.0 0.0001420 963.91046 6724.99023
7157.0 0.0001397 963.09271 7785.58301
7309.0 0.0001368 962.26849 7750.35010
7636.0 0.0001310 961.43738 6952.47314
5949.0 0.0001681 960.59979 5895.59277
4171.0 0.0002398 959.75525 4688.44727
3337.0 0.0002997 958.90393 3450.56519
2527.0 0.000396 958.04608 2437.46997
1680.0 0.000595 957.18134 1768.07178
1357.0 0.000737 956.30988 1402.06836
1187.0 0.000842 955.43158 1227.82837
1142.0 0.000876 954.54633 1146.56079
1035.0 0.000966 953.65448 1103.08496
1033.0 0.000968 952.75574 1074.82263
1028.0 0.000973 951.85034 1054.02197
1038.0 0.000963 950.93799 1037.82043
1060.0 0.000943 950.01862 1024.83057
1014.0 0.000986 949.09283 1014.20386
1040.0 0.000962 948.15985 1005.35089
1017.0 0.000983 947.22046 997.48071
1015.0 0.000985 946.27386 991.07318
978.0 0.001022 945.32043 985.50500
1028.0 0.000973 944.36041 980.61176
982.0 0.001018 943.39343 976.08026
964.0 0.001037 942.41974 972.18762
957.0 0.001045 941.43915 968.66272
895.0 0.001117 940.45154 965.44366
937.0 0.001067 939.45752 962.48267
1007.0 0.000993 938.45648 959.73822
963.0 0.001038 937.44885 957.17847
964.0 0.001037 936.43433 954.77570
970.0 0.001031 935.41284 952.50745
966.0 0.001035 934.38507 950.35626
970.0 0.001031 933.35016 948.30524
948.0 0.001055 932.30884 946.34186
891.0 0.001122 931.26068 944.45447
927.0 0.001079 930.20569 942.63324
935.0 0.001070 929.14435 940.87079
932.0 0.001073 928.07617 939.15912
935.0 0.001070 927.00146 937.49268
907.0 0.001103 925.92010 935.86572
948.0 0.001055 924.83191 934.27325
933.0 0.001072 923.73755 927.05621
934.0 0.001071 922.63647 925.78699
862.0 0.001160 921.52905 924.52380
927.0 0.001079 920.41498 923.26538
912.0 0.001096 919.29425 919.29443
902.0 0.001109 918.16754 918.16772
855.0 0.001170 917.03406 917.03424
948.0 0.001055 915.89453 915.89465
910.0 0.001099 914.74854 914.74872
909.0 0.001100 913.59601 913.59619
933.0 0.001072 912.43750 912.43768
914.0 0.001094 911.27258 911.27277
898.0 0.001114 910.10168 910.10187
857.0 0.001167 908.92444 908.92462
874.0 0.001144 907.74084 907.74103
915.0 0.001093 906.55151 906.55164
851.0 0.001175 905.35590 905.35608
970.0 0.001031 904.15448 904.15466
934.0 0.001071 902.94702 902.94720
902.0 0.001109 901.73328 901.73346
944.0 0.001059 900.51416 900.51434
874.0 0.001144 899.28876 900.44519
806.0 0.001241 898.05792 899.26025
918.0 0.001089 896.82123 898.07220
871.0 0.001148 895.57849 896.88129
920.0 0.001087 894.33044 896.27332
907.0 0.001103 893.07660 895.10150
935.0 0.001070 891.81738 893.92957
928.0 0.001078 890.55249 892.75775
924.0 0.001082 889.28186 891.58643
880.0 0.001136 888.00616 890.41693
879.0 0.001138 886.72491 889.24939
862.0 0.001160 885.43854 888.08508
886.0 0.001129 884.14679 886.92438
888.0 0.001126 882.84949 885.76813
875.0 0.001143 881.54761 884.61829
877.0 0.001140 880.24011 883.47510
864.0 0.001157 878.92792 882.34070
890.0 0.001124 877.61060 881.21625
881.0 0.001135 876.28815 880.10364
866.0 0.001155 874.96112 879.00519
853.0 0.001172 873.62897 877.92291
876.0 0.001142 872.29248 876.86011
942.0 0.001062 870.95105 876.93768
923.0 0.001083 869.60461 875.96704
868.0 0.001152 868.25409 875.02985
871.0 0.001148 866.89880 874.13123
901.0 0.001110 865.53931 873.84222
915.0 0.001093 864.17523 873.06372
836.0 0.001196 862.80652 872.34814
865.0 0.001156 861.43402 871.70721
868.0 0.001152 860.05707 871.15436
843.0 0.001186 858.67621 870.70642
828.0 0.001208 857.29114 870.38403
882.0 0.001134 855.90179 870.21368
843.0 0.001186 854.50891 870.22809
864.0 0.001157 853.11182 870.47015
888.0 0.001126 851.71136 870.99506
870.0 0.001149 850.30695 871.87592
848.0 0.001179 848.89844 873.21149
880.0 0.001136 847.48688 875.13556
883.0 0.001133 846.07153 877.83826
907.0 0.001103 844.65295 881.59448
930.0 0.001075 843.23090 886.84985
910.0 0.001099 841.80511 894.48956
944.0 0.001059 840.37659 906.76868
964.0 0.001037 838.94464 930.07104
941.0 0.001063 837.50983 980.76874
1122.0 0.000891 836.07184 1092.70959
1281.0 0.000781 834.63068 1316.03979
1790.0 0.000559 833.18695 1689.64172
2395.0 0.000418 831.74011 2185.53101
2769.0 0.000361 830.29102 2666.79639
2966.0 0.0003372 828.83893 2929.44946
2934.0 0.0003408 827.38397 2875.95557
2756.0 0.000363 825.92694 2635.56567
2342.0 0.000427 824.46722 2346.05225
1959.0 0.000510 823.00537 2020.09583
1570.0 0.000637 821.54114 1667.04871
1367.0 0.000732 820.07428 1354.63916
1203.0 0.000831 818.60577 1131.42712
1010.0 0.000990 817.13501 999.88416
884.0 0.001131 815.66241 934.36389
850.0 0.001176 814.18787 905.08691
898.0 0.001114 812.71118 892.40961
828.0 0.001208 811.23309 887.35791
935.0 0.001070 809.75299 887.12964
922.0 0.001085 808.27173 892.20178
967.0 0.001034 806.78857 906.86285
984.0 0.001016 805.30383 943.60828
1007.0 0.000993 803.81805 1030.16858
1108.0 0.000903 802.33081 1211.72437
1563.0 0.000640 800.84247 1531.95081
2192.0 0.000456 799.35297 1985.15662
2732.0 0.000366 797.86194 2467.27271
2804.0 0.000357 796.37042 2789.40015
2757.0 0.000363 794.87775 2811.80078
2956.0 0.0003383 793.38446 2610.88403
2616.0 0.000382 791.89032 2342.38721
1963.0 0.000509 790.39508 2045.39392
1590.0 0.000629 788.89984 1710.97864
1448.0 0.000691 787.40356 1390.14539
1229.0 0.000814 785.90735 1142.18323
937.0 0.001067 784.41034 984.14648
909.0 0.001100 782.91290 898.83173
825.0 0.001212 781.41559 857.17047
835.0 0.001198 779.91791 836.19055
840.0 0.001190 778.42035 823.73761
809.0 0.001236 776.92267 814.88324
808.0 0.001238 775.42468 807.88434
762.0 0.001312 773.92731 802.07288
791.0 0.001264 772.42993 797.10657
773.0 0.001294 770.93311 792.77380
789.0 0.001267 769.43652 788.92529
796.0 0.001256 767.93994 785.45435
795.0 0.001258 766.44458 782.28436
742.0 0.001348 764.94934 779.35455
787.0 0.001271 763.45496 776.62128
746.0 0.001340 761.96124 774.04913
764.0 0.001309 760.46814 771.61078
787.0 0.001271 758.97614 769.28534
748.0 0.001337 757.48511 767.05499
716.0 0.001397 755.99506 764.90619
747.0 0.001339 754.50616 762.82703
783.0 0.001277 753.01813 760.80780
741.0 0.001350 751.53180 757.70593
703.0 0.001422 750.04633 755.82770
730.0 0.001370 748.56274 753.98846
730.0 0.001370 747.08032 751.60516
730.0 0.001370 745.59888 749.85052
782.0 0.001279 744.11981 748.12238
749.0 0.001335 742.64191 746.41669
724.0 0.001381 741.16614 744.73212
704.0 0.001420 739.69202 743.06598
741.0 0.001350 738.21918 741.41620
765.0 0.001307 736.74902 739.78284
756.0 0.001323 735.28033 738.16309
711.0 0.001406 733.81427 736.55688
719.0 0.001391 732.34998 734.96252
760.0 0.001316 730.88770 733.37915
752.0 0.001330 729.42780 731.80646
724.0 0.001381 727.97003 730.24335
705.0 0.001418 726.51514 728.69000
751.0 0.001332 725.06244 727.14508
704.0 0.001420 723.61200 725.60822
741.0 0.001350 722.16431 724.07941
763.0 0.001311 720.71924 722.55798
724.0 0.001381 719.27692 719.92181
758.0 0.001319 717.83728 718.45636
691.0 0.001447 716.40021 716.99500
725.0 0.001379 714.96625 714.96637
671.0 0.001490 713.53522 713.53534
701.0 0.001427 712.10712 712.10724
754.0 0.001326 710.68207 710.68219
730.0 0.001370 709.25989 709.26001
705.0 0.001418 707.84131 707.84143
749.0 0.001335 706.42542 706.42554
761.0 0.001314 705.01331 705.01343
714.0 0.001401 703.60400 703.60413
736.0 0.001359 702.19806 702.19818
690.0 0.001449 700.79602 700.79614
757.0 0.001321 699.39697 699.39709
655.0 0.001527 698.00189 698.00201
671.0 0.001490 696.61017 696.61029
696.0 0.001437 695.22156 695.22168
700.0 0.001429 693.83740 693.83746
729.0 0.001372 692.45636 692.45648
704.0 0.001420 691.07965 691.07977
714.0 0.001401 689.70654 689.93213
699.0 0.001431 688.33673 688.57141
645.0 0.001550 686.97162 687.21582
710.0 0.001408 685.60992 685.86426
673.0 0.001486 684.25269 684.63037
694.0 0.001441 682.89929 683.29297
653.0 0.001531 681.54974 681.96051
680.0 0.001471 680.20459 680.63348
692.0 0.001445 678.86359 679.31189
685.0 0.001460 677.52673 677.99585
615.0 0.001626 676.19415 676.68555
681.0 0.001468 674.86566 675.38098
658.0 0.001520 673.54175 674.08264
649.0 0.001541 672.22217 672.79083
673.0 0.001486 670.90704 671.50543
659.0 0.001517 669.59631 670.22699
641.0 0.001560 668.28986 668.95544
646.0 0.001548 666.98840 667.69189
651.0 0.001536 665.69098 666.43573
673.0 0.001486 664.39844 665.18817
640.0 0.001563 663.11041 663.94934
666.0 0.001502 661.82690 662.71979
608.0 0.001645 660.54852 661.50073
640.0 0.001563 659.27441 660.29199
676.0 0.001479 658.00549 659.09546
651.0 0.001536 656.74115 657.91156
652.0 0.001534 655.48114 656.74133
618.0 0.001618 654.22662 655.58722
634.0 0.001577 652.97656 654.45013
649.0 0.001541 651.73181 653.33301
628.0 0.001592 650.49176 652.23798
679.0 0.001473 649.25623 651.16809
643.0 0.001555 648.02631 650.12860
632.0 0.001582 646.80096 649.12366
609.0 0.001642 645.58105 648.16071
683.0 0.001464 644.36597 647.24780
658.0 0.001520 643.15576 646.39612
661.0 0.001513 641.95087 645.62103
684.0 0.001462 640.75104 644.94275
678.0 0.001475 639.55634 644.38892
652.0 0.001534 638.36682 643.99976
654.0 0.001529 637.18219 643.83722
661.0 0.001513 636.00299 644.01605
713.0 0.001403 634.82898 644.81238
623.0 0.001605 633.66022 646.98615
653.0 0.001531 632.49670 652.54358
682.0 0.001466 631.33820 665.90143
688.0 0.001453 630.18536 694.40338
699.0 0.001431 629.03741 745.92303
854.0 0.001171 627.89490 821.83270
920.0 0.001087 626.75775 908.66125
871.0 0.001148 625.62573 976.85553
868.0 0.001152 624.49939 996.86896
929.0 0.001076 623.37805 970.43347
877.0 0.001140 622.26239 926.07422
823.0 0.001215 621.15192 879.63171
750.0 0.001333 620.04639 827.70825
721.0 0.001387 618.94684 769.68835
685.0 0.001460 617.85229 715.77478
718.0 0.001393 616.76349 674.68890
620.0 0.001613 615.67993 648.36969
611.0 0.001637 614.60138 633.70172
629.0 0.001590 613.52875 626.00970
645.0 0.001550 612.46118 621.67694
621.0 0.001610 611.39948 618.76978
599.0 0.001669 610.34290 616.47778
588.0 0.001701 609.29156 614.50488
626.0 0.001597 608.24585 612.73676
681.0 0.001468 607.20538 611.11542
607.0 0.001647 606.17072 609.60645
632.0 0.001582 605.14124 608.18427
559.0 0.001789 604.11700 606.83130
641.0 0.001560 603.09839 605.53473
596.0 0.001678 602.08514 604.28430
591.0 0.001692 601.07739 603.07245
591.0 0.001692 600.07501 601.89319
600.0 0.001667 599.07782 600.74182
577.0 0.001733 598.08630 599.61487
574.0 0.001742 597.10010 598.50922
602.0 0.001661 596.11926 597.42236
596.0 0.001678 595.14392 596.35266
607.0 0.001647 594.17371 595.29791
579.0 0.001727 593.20923 594.25757
539.0 0.001855 592.24976 593.22961
600.0 0.001667 591.29602 592.21393
582.0 0.001718 590.34741 591.20905
570.0 0.001754 589.40387 590.21429
598.0 0.001672 588.46613 589.22980
599.0 0.001669 587.53339 588.25415
560.0 0.001786 586.60626 587.28778
562.0 0.001779 585.68427 586.32959
603.0 0.001658 584.76727 585.37915
536.0 0.001866 583.85602 584.43713
566.0 0.001767 582.94965 583.50214
590.0 0.001695 582.04895 582.57483
563.0 0.001776 581.15326 581.65454
602.0 0.001661 580.26263 580.74103
537.0 0.001862 579.37744 579.83435
556.0 0.001799 578.49719 578.93414
522.0 0.001916 577.62250 578.23682
606.0 0.001650 576.75281 577.35742
539.0 0.001855 575.88806 576.48456
592.0 0.001689 575.02869 575.61853
577.0 0.001733 574.17438 574.63214
556.0 0.001799 573.32513 573.79156
543.0 0.001842 572.48102 572.95734
590.0 0.001695 571.64185 572.12921
565.0 0.001770 570.80780 571.19659
585.0 0.001709 569.97882 570.38568
550.0 0.001818 569.15485 569.58112
566.0 0.001767 568.33582 568.78296
532.0 0.001880 567.52161 567.99103
550.0 0.001818 566.71271 567.20624
553.0 0.001808 565.90839 566.42786
554.0 0.001805 565.10925 565.65692
571.0 0.001751 564.31476 564.89282
552.0 0.001812 563.52515 564.13623
566.0 0.001767 562.74060 563.38763
562.0 0.001779 561.96063 562.64697
591.0 0.001692 561.18567 561.91498
568.0 0.001761 560.41547 561.19183
579.0 0.001727 559.64966 560.47791
546.0 0.001832 558.88898 559.77448
539.0 0.001855 558.13281 559.08154
579.0 0.001727 557.38153 558.40070
571.0 0.001751 556.63483 557.73254
534.0 0.001873 555.89246 557.07819
577.0 0.001733 555.15509 556.43982
534.0 0.001873 554.42206 555.81885
548.0 0.001825 553.69385 555.21796
536.0 0.001866 552.97003 554.63965
593.0 0.001686 552.25061 554.08789
521.0 0.001919 551.53583 553.56708
562.0 0.001779 550.82550 553.08331
534.0 0.001873 550.11957 552.64404
568.0 0.001761 549.41803 552.25946
586.0 0.001706 548.72083 551.94281
545.0 0.001835 548.02808 551.71234
586.0 0.001706 547.33960 551.59363
572.0 0.001748 546.65552 551.62341
584.0 0.001712 545.97565 551.86414
539.0 0.001855 545.29993 552.44720
530.0 0.001887 544.62866 553.71509
594.0 0.001684 543.96136 556.59698
564.0 0.001773 543.29834 563.32373
629.0 0.001590 542.63947 578.21161
672.0 0.001488 541.98462 607.34894
715.0 0.001399 541.33405 655.52985
893.0 0.001120 540.68732 720.54376
1074.0 0.000931 540.04486 788.00647
980.0 0.001020 539.40625 833.84351
891.0 0.001122 538.77142 839.96973
963.0 0.001038 538.14087 814.38599
997.0 0.001003 537.51398 779.51587
901.0 0.001110 536.89124 745.72906
746.0 0.001340 536.27222 707.45428
723.0 0.001383 535.65686 663.49164
691.0 0.001447 535.04559 621.04108
641.0 0.001560 534.43787 587.63055
599.0 0.001669 533.83417 565.04297
558.0 0.001792 533.23401 552.00555
578.0 0.001730 532.63751 545.14874
562.0 0.001779 532.04474 541.50336
525.0 0.001905 531.45557 539.28979
548.0 0.001825 530.87006 537.69446
577.0 0.001733 530.28809 536.40186
577.0 0.001733 529.70959 535.29291
533.0 0.001876 529.13470 534.31494
522.0 0.001916 528.56329 533.43719
572.0 0.001748 527.99536 532.63989
615.0 0.001626 527.43085 531.90839
555.0 0.001802 526.86963 531.23267
529.0 0.001890 526.31201 530.60571
561.0 0.001783 525.75757 530.02167
569.0 0.001757 525.20648 529.47766
534.0 0.001873 524.65875 528.97089
541.0 0.001848 524.11414 528.50031
508.0 0.001969 523.57300 528.06592
546.0 0.001832 523.03485 527.66809
542.0 0.001845 522.50006 527.30853
519.0 0.001927 521.96832 526.98932
543.0 0.001842 521.43951 526.71387
567.0 0.001764 520.91412 526.48718
528.0 0.001894 520.39160 526.31445
541.0 0.001848 519.87225 526.20343
504.0 0.001984 519.35590 526.16357
538.0 0.001859 518.84229 526.20648
494.0 0.002024 518.33197 526.34747
504.0 0.001984 517.82434 526.60602
530.0 0.001887 517.31982 527.00732
507.0 0.001972 516.81812 527.58429
543.0 0.001842 516.31915 528.38062
496.0 0.002016 515.82312 529.45435
528.0 0.001894 515.32977 530.88690
514.0 0.001946 514.83936 532.79297
566.0 0.001767 514.35156 535.35504
589.0 0.001698 513.86652 538.92548
553.0 0.001808 513.38416 544.36151
566.0 0.001767 512.90448 553.98694
561.0 0.001783 512.42743 573.63184
581.0 0.001721 511.95303 615.55469
665.0 0.001504 511.48114 699.53656
827.0 0.001209 511.01187 846.48126
1088.0 0.000919 510.54514 1062.79065
1300.0 0.000769 510.08093 1318.20557
1459.0 0.000685 509.61923 1539.64636
1540.0 0.000649 509.15988 1641.34705
1498.0 0.000668 508.70316 1599.90857
1606.0 0.000623 508.24866 1483.19995
1389.0 0.000720 507.79672 1359.23694
1102.0 0.000907 507.34708 1236.46423
872.0 0.001147 506.89963 1093.28638
898.0 0.001114 506.45474 933.90948
763.0 0.001311 506.01199 787.44183
700.0 0.001429 505.57166 675.68469
598.0 0.001672 505.13351 603.53204
583.0 0.001715 504.69742 563.19592
518.0 0.001931 504.26376 542.63196
542.0 0.001845 503.83218 532.08459
507.0 0.001972 503.40286 525.98810
550.0 0.001818 502.97562 521.83435
508.0 0.001969 502.55045 518.65100
471.0 0.002123 502.12738 516.06226
510.0 0.001961 501.70636 513.89117
474.0 0.002110 501.28754 512.03503
505.0 0.001980 500.87067 510.42215
502.0 0.001992 500.45575 509.00107
535.0 0.001869 500.04288 507.75977
472.0 0.002119 499.63199 506.61807
488.0 0.002049 499.22305 505.57861
466.0 0.002146 498.81604 504.62369
453.0 0.002208 498.41086 503.73929
473.0 0.002114 498.00763 502.92783
476.0 0.002101 497.60629 502.15445
509.0 0.001965 497.20679 501.42471
512.0 0.001953 496.80914 500.73248
481.0 0.002079 496.41324 500.07272
489.0 0.002045 496.01926 499.44174
460.0 0.002174 495.62692 498.83572
526.0 0.001901 495.23648 498.25204
482.0 0.002075 494.84766 497.68793
455.0 0.002198 494.46057 497.14148
458.0 0.002183 494.07529 496.61105
499.0 0.002004 493.69159 496.09482
471.0 0.002123 493.30969 495.59180
462.0 0.002165 492.92938 495.10046
459.0 0.002179 492.55060 494.62000
527.0 0.001898 492.17361 494.14978
496.0 0.002016 491.79813 493.68869
452.0 0.002212 491.42435 493.23639
497.0 0.002012 491.05206 492.79221
492.0 0.002033 490.68124 492.35556
480.0 0.002083 490.31216 491.92630
453.0 0.002208 489.94446 491.50397
477.0 0.002096 489.57843 491.08847
503.0 0.001988 489.21384 490.67941
454.0 0.002203 488.85065 490.27673
454.0 0.002203 488.48901 489.12717
498.0 0.002008 488.12885 488.76593
491.0 0.002037 487.77014 488.40976
464.0 0.002155 487.41284 488.05905
508.0 0.001969 487.05688 487.71426
478.0 0.002092 486.70245 487.01038
463.0 0.002160 486.34940 486.69373
484.0 0.002066 485.99771 486.38528
460.0 0.002174 485.64740 486.08691
505.0 0.001980 485.29837 485.80109
457.0 0.002188 484.95084 485.53143
491.0 0.002037 484.60452 485.28317
472.0 0.002119 484.25958 485.06674
452.0 0.002212 483.91592 484.90652
454.0 0.002203 483.57355 484.86716
501.0 0.001996 483.23257 485.11096
515.0 0.001942 482.89273 485.98541
501.0 0.001996 482.55432 488.07559
494.0 0.002024 482.21707 492.07571
508.0 0.001969 481.88098 498.35196
599.0 0.001669 481.54630 506.30615
569.0 0.001757 481.21274 513.99402
559.0 0.001789 480.88049 518.60394
567.0 0.001764 480.54941 518.68506
562.0 0.001779 480.21942 515.08954
566.0 0.001767 479.89081 510.66031
539.0 0.001855 479.56326 506.50354
529.0 0.001890 479.23700 502.20142
480.0 0.002083 478.91183 496.97986
480.0 0.002083 478.58780 491.53369
527.0 0.001898 478.26495 486.79022
463.0 0.002160 477.94327 483.25964
496.0 0.002016 477.62271 480.95392
482.0 0.002075 477.30325 479.56277
522.0 0.001916 476.98489 478.71515
453.0 0.002208 476.66769 478.13867
449.0 0.002227 476.35162 477.68463
491.0 0.002037 476.03665 477.28769
489.0 0.002045 475.72275 476.92233
469.0 0.002132 475.40988 477.65378
498.0 0.002008 475.09824 477.36942
471.0 0.002123 474.78751 477.10168
453.0 0.002208 474.47794 476.84930
474.0 0.002110 474.16943 476.61139
499.0 0.002004 473.86194 476.92731
500.0 0.002000 473.55557 476.73911
498.0 0.002008 473.25018 476.56671
481.0 0.002079 472.94589 476.41101
481.0 0.002079 472.64264 476.27322
488.0 0.002049 472.34027 476.15472
492.0 0.002033 472.03909 476.05762
497.0 0.002012 471.73886 475.98407
492.0 0.002033 471.43976 475.93719
463.0 0.002160 471.14157 475.92035
460.0 0.002174 470.84430 475.93796
501.0 0.001996 470.54819 475.99548
501.0 0.001996 470.25299 476.09955
486.0 0.002058 469.95889 476.25851
453.0 0.002208 469.66571 476.48300
471.0 0.002123 469.37350 476.78699
468.0 0.002137 469.08228 477.18790
522.0 0.001916 468.79205 477.70984
474.0 0.002110 468.50287 478.38556
478.0 0.002092 468.21460 479.26495
498.0 0.002008 467.92725 480.43903
487.0 0.002053 467.64093 482.11447
515.0 0.001942 467.35556 484.82776
509.0 0.001965 467.07120 489.90298
506.0 0.001976 466.78775 500.16745
541.0 0.001848 466.50522 520.43890
585.0 0.001709 466.22369 556.61688
631.0 0.001585 465.94312 612.39740
739.0 0.001353 465.66351 684.10950
826.0 0.001211 465.38483 757.08008
835.0 0.001198 465.10706 807.92706
786.0 0.001272 464.83029 818.82324
796.0 0.001256 464.55438 796.02698
855.0 0.001170 464.27951 762.09912
781.0 0.001280 464.00552 730.85638
711.0 0.001406 463.73239 700.58307
619.0 0.001616 463.46030 664.66156
625.0 0.001600 463.18909 625.04736
638.0 0.001567 462.91885 590.75214
580.0 0.001724 462.64951 570.82190
606.0 0.001650 462.38101 574.24396
602.0 0.001661 462.11356 613.83887
619.0 0.001616 461.84692 709.60602
745.0 0.001342 461.58130 884.38452
1059.0 0.000944 461.31656 1147.70422
1484.0 0.000674 461.05270 1473.10034
1781.0 0.000561 460.78979 1784.75098
1664.0 0.000601 460.52774 1976.73389
1660.0 0.000602 460.26669 1985.23633
1835.0 0.000545 460.00650 1858.46582
1774.0 0.000564 459.74716 1696.72302
1367.0 0.000732 459.48880 1548.93994
1155.0 0.000866 459.23132 1398.20996
997.0 0.001003 458.97476 1216.40723
935.0 0.001070 458.71909 1015.76013
817.0 0.001224 458.46429 831.93256
635.0 0.001575 458.21039 689.89337
567.0 0.001764 457.95746 595.94104
546.0 0.001832 457.70535 541.61914
544.0 0.001838 457.45416 513.02332
473.0 0.002114 457.20389 498.22409
510.0 0.001961 456.95447 489.88617
497.0 0.002012 456.70596 484.44629
480.0 0.002083 456.45834 480.41818
509.0 0.001965 456.21158 477.21606
501.0 0.001996 455.96570 474.58173
496.0 0.002016 455.72076 472.37177
485.0 0.002062 455.47665 470.49332
480.0 0.002083 455.23349 468.87823
443.0 0.002257 454.99112 467.47656
496.0 0.002016 454.74973 466.25031
525.0 0.001905 454.50912 465.16949
464.0 0.002155 454.26947 464.21210
461.0 0.002169 454.03061 463.35965
460.0 0.002174 453.79266 462.59872
452.0 0.002212 453.55563 461.91876
448.0 0.002232 453.31937 461.31119
450.0 0.002222 453.08408 460.77026
443.0 0.002257 452.84958 460.29150
472.0 0.002119 452.61594 459.87271
508.0 0.001969 452.38324 459.89676
460.0 0.002174 452.15131 459.61252
467.0 0.002141 451.92035 459.15302
469.0 0.002132 451.69012 459.01163
446.0 0.002242 451.46078 458.94791
493.0 0.002028 451.23236 459.16489
496.0 0.002016 451.00470 459.30597
472.0 0.002119 450.77802 459.46271
462.0 0.002165 450.55206 459.91589
456.0 0.002193 450.32700 460.61948
483.0 0.002070 450.10275 461.75122
473.0 0.002114 449.87939 463.76981
478.0 0.002092 449.65683 467.80322
484.0 0.002066 449.43509 476.26700
483.0 0.002070 449.21420 493.34286
503.0 0.001988 448.99414 524.41010
513.0 0.001949 448.77493 573.48248
564.0 0.001773 448.55655 638.82379
698.0 0.001433 448.33896 709.30573
683.0 0.001464 448.12216 763.62671
676.0 0.001479 447.90628 784.24054
669.0 0.001495 447.69110 768.58203
630.0 0.001587 447.47678 735.41956
633.0 0.001580 447.26328 702.17358
635.0 0.001575 447.05054 671.60028
544.0 0.001838 446.83868 638.14374
553.0 0.001808 446.62753 597.74640
523.0 0.001912 446.41727 555.64655
478.0 0.002092 446.20770 518.94904
487.0 0.002053 445.99893 491.72644
479.0 0.002088 445.79105 474.30508
453.0 0.002208 445.58383 464.48224
501.0 0.001996 445.37744 459.40973
453.0 0.002208 445.17181 456.84637
461.0 0.002169 444.96692 455.48532
443.0 0.002257 444.76288 454.71194
465.0 0.002151 444.55954 454.28116
438.0 0.002283 444.35699 454.10818
474.0 0.002110 444.15515 454.17114
484.0 0.002066 443.95410 454.47885
468.0 0.002137 443.75375 455.06570
451.0 0.002217 443.55420 456.00882
516.0 0.001938 443.35535 457.48932
497.0 0.002012 443.15720 459.97696
485.0 0.002062 442.95981 464.66687
512.0 0.001953 442.76318 474.27377
481.0 0.002079 442.56720 493.95663
518.0 0.001931 442.37198 531.33661
617.0 0.001621 442.17746 594.13135
794.0 0.001259 441.98358 684.59485
991.0 0.001009 441.79050 793.02771
1134.0 0.000882 441.59802 894.82910
1082.0 0.000924 441.40628 956.72473
1109.0 0.000902 441.21521 959.28790
1221.0 0.000819 441.02478 917.80853
1114.0 0.000898 440.83508 864.20898
919.0 0.001088 440.64600 815.99219
744.0 0.001344 440.45761 769.57745
766.0 0.001305 440.26987 714.01941
697.0 0.001435 440.08270 649.44812
629.0 0.001590 439.89627 586.29346
567.0 0.001764 439.71042 534.09808
499.0 0.002004 439.52527 497.05704
501.0 0.001996 439.34064 474.11194
502.0 0.001992 439.15668 461.35025
465.0 0.002151 438.97336 454.60870
481.0 0.002079 438.79059 450.91241
444.0 0.002252 438.60846 448.62317
479.0 0.002088 438.42688 446.98831
425.0 0.002353 438.24594 445.70016
412.0 0.002427 438.06552 444.63129
462.0 0.002165 437.88568 443.47238
452.0 0.002212 437.70645 442.69077
410.0 0.002439 437.52774 442.00348
457.0 0.002188 437.34958 441.39200
428.0 0.002336 437.17197 440.84213
456.0 0.002193 436.99490 440.22012
465.0 0.002151 436.81836 439.76718
461.0 0.002169 436.64236 439.34891
410.0 0.002439 436.46683 438.95999
459.0 0.002179 436.29184 438.59598
441.0 0.002268 436.11734 438.25327
432.0 0.002315 435.94333 437.92883
452.0 0.002212 435.76984 437.62033
449.0 0.002227 435.59674 437.32562
448.0 0.002232 435.42419 437.04309
439.0 0.002278 435.25208 436.77115
429.0 0.002331 435.08044 436.50870
433.0 0.002309 434.90918 436.25458
474.0 0.002110 434.73837 436.00793
418.0 0.002392 434.56808 435.76801
415.0 0.002410 434.39813 435.53403
460.0 0.002174 434.22864 435.30551
422.0 0.002370 434.05951 435.08182
475.0 0.002105 433.89078 434.86261
456.0 0.002193 433.72247 434.64749
434.0 0.002304 433.55450 434.43604
462.0 0.002165 433.38699 434.22800
415.0 0.002410 433.21976 434.02298
431.0 0.002320 433.05292 433.82083
404.0 0.002475 432.88641 433.62134
428.0 0.002336 432.72021 433.42422
406.0 0.002463 432.55441 433.22943
419.0 0.002387 432.38889 433.03662
407.0 0.002457 432.22369 432.45908
444.0 0.002252 432.05881 432.28448
424.0 0.002358 431.89420 432.11078
399.0 0.002506 431.72989 431.93790
458.0 0.002183 431.56586 431.76578
408.0 0.002451 431.40207 431.40192
414.0 0.002415 431.23856 431.23840
393.0 0.002545 431.07529 431.07516
427.0 0.002342 430.91229 430.91214
407.0 0.002457 430.74951 430.74936
450.0 0.002222 430.58691 430.60394
410.0 0.002439 430.42462 430.44229
424.0 0.002358 430.26245 430.28082
447.0 0.002237 430.10052 430.11969
394.0 0.002538 429.93878 429.95871
423.0 0.002364 429.77716 429.79797
456.0 0.002193 429.61581 429.64630
419.0 0.002387 429.45453 429.48630
441.0 0.002268 429.29346 429.32669
408.0 0.002451 429.13248 429.16721
435.0 0.002299 428.97165 429.00797
406.0 0.002463 428.81100 428.84903
417.0 0.002398 428.65039 428.69028
376.0 0.002660 428.48996 428.53186
455.0 0.002198 428.32956 428.37360
406.0 0.002463 428.16925 428.21558
397.0 0.002519 428.00906 428.05792
418.0 0.002392 427.84891 427.90045
414.0 0.002415 427.68887 427.74335
423.0 0.002364 427.52884 427.58652
430.0 0.002326 427.36884 427.42999
378.0 0.002646 427.20889 427.27386
444.0 0.002252 427.04895 427.11807
424.0 0.002358 426.88904 426.96277
460.0 0.002174 426.72913 426.80792
421.0 0.002375 426.56924 426.65359
421.0 0.002375 426.40930 426.49991
420.0 0.002381 426.24936 426.34692
440.0 0.002273 426.08942 426.19470
441.0 0.002268 425.92938 426.04340
376.0 0.002660 425.76932 425.89316
426.0 0.002347 425.60922 425.74426
413.0 0.002421 425.44901 425.59760
384.0 0.002604 425.28876 425.45203
400.0 0.002500 425.12842 425.30869
411.0 0.002433 424.96796 425.16806
409.0 0.002445 424.80746 425.03079
385.0 0.002597 424.64679 424.89807
401.0 0.002494 424.48605 424.77036
411.0 0.002433 424.32513 424.64954
410.0 0.002439 424.16409 424.53806
400.0 0.002500 424.00296 424.44073
418.0 0.002392 423.84161 424.36804
375.0 0.002667 423.68015 424.34631
413.0 0.002421 423.51846 424.43756
416.0 0.002404 423.35663 424.77090
426.0 0.002347 423.19464 425.56918
427.0 0.002342 423.03241 427.13144
431.0 0.002320 422.87003 429.71930
402.0 0.002488 422.70737 433.35303
436.0 0.002294 422.54453 437.59561
421.0 0.002375 422.38144 441.48132
433.0 0.002309 422.21814 443.77173
429.0 0.002331 422.05460 443.75217
421.0 0.002375 421.89078 441.97385
439.0 0.002278 421.72672 439.64664
420.0 0.002381 421.56241 437.54153
427.0 0.002342 421.39780 435.64368
455.0 0.002198 421.23291 433.50006
437.0 0.002288 421.06775 430.91159
399.0 0.002506 420.90228 428.16785
426.0 0.002347 420.73654 425.68024
445.0 0.002247 420.57043 423.71231
420.0 0.002381 420.40402 422.32678
430.0 0.002326 420.23730 421.42831
413.0 0.002421 420.07025 420.85977
427.0 0.002342 419.90286 420.47964
394.0 0.002538 419.73511 420.19382
433.0 0.002309 419.56705 419.95233
410.0 0.002439 419.39856 419.73215
387.0 0.002584 419.22974 419.52377
415.0 0.002410 419.06058 419.32321
431.0 0.002320 418.89099 419.12839
404.0 0.002475 418.72107 418.93842
405.0 0.002469 418.55069 418.75293
425.0 0.002353 418.37991 418.57321
432.0 0.002315 418.20880 418.40250
391.0 0.002558 418.03723 418.24744
438.0 0.002283 417.86530 418.11887
405.0 0.002469 417.69287 418.02832
430.0 0.002326 417.52005 418.27225
443.0 0.002257 417.34680 418.27444
483.0 0.002070 417.17310 418.28561
460.0 0.002174 416.99899 418.25943
477.0 0.002096 416.82440 418.15054
494.0 0.002024 416.64935 418.09384
473.0 0.002114 416.47388 417.85300
438.0 0.002283 416.29791 417.60870
471.0 0.002123 416.12149 417.37891
444.0 0.002252 415.94461 417.15274
416.0 0.002404 415.76721 416.91263
436.0 0.002294 415.58936 416.65851
437.0 0.002288 415.41101 416.40570
436.0 0.002294 415.23221 416.16965
417.0 0.002398 415.05286 415.95853
413.0 0.002421 414.87302 415.77289
398.0 0.002513 414.69272 415.60815
390.0 0.002564 414.51184 415.45825
403.0 0.002481 414.33054 415.31842
408.0 0.002451 414.14865 415.18585
396.0 0.002525 413.96625 415.05948
424.0 0.002358 413.78339 414.93909
377.0 0.002653 413.59995 414.82510
413.0 0.002421 413.41605 414.71838
406.0 0.002463 413.23154 414.60239
440.0 0.002273 413.04648 414.51355
403.0 0.002481 412.86099 414.43539
436.0 0.002294 412.67487 414.36954
425.0 0.002353 412.48828 414.31796
405.0 0.002469 412.30109 414.27448
430.0 0.002326 412.11337 414.69836
400.0 0.002500 411.92511 414.72476
423.0 0.002364 411.73630 414.78043
413.0 0.002421 411.54697 414.87122
414.0 0.002415 411.35703 415.00467
427.0 0.002342 411.16656 415.40305
417.0 0.002398 410.97556 415.66156
392.0 0.002551 410.78397 416.00168
414.0 0.002415 410.59183 416.44598
464.0 0.002155 410.39914 417.02994
444.0 0.002252 410.20584 417.81747
407.0 0.002457 410.01202 418.95016
447.0 0.002237 409.81766 420.77087
444.0 0.002252 409.62271 424.07870
452.0 0.002212 409.42722 430.54611
467.0 0.002141 409.23111 443.33118
457.0 0.002188 409.03452 466.20203
503.0 0.001988 408.83731 503.56613
583.0 0.001715 408.63959 557.05670
707.0 0.001414 408.44122 622.71838
822.0 0.001217 408.24231 689.12500
845.0 0.001183 408.04291 738.96918
818.0 0.001222 407.84286 756.65790
793.0 0.001261 407.64233 741.97687
888.0 0.001126 407.44116 710.40033
746.0 0.001340 407.23944 677.93616
650.0 0.001538 407.03723 650.63251
613.0 0.001631 406.83438 624.39551
549.0 0.001821 406.63107 592.52856
576.0 0.001736 406.42712 554.50232
559.0 0.001789 406.22263 515.66290
473.0 0.002114 406.01764 481.70883
437.0 0.002288 405.81204 455.90359
421.0 0.002375 405.60596 438.70618
439.0 0.002278 405.39926 428.53473
421.0 0.002375 405.19208 423.11224
421.0 0.002375 404.98431 420.46411
431.0 0.002320 404.77606 419.30276
420.0 0.002381 404.56723 418.95819
446.0 0.002242 404.35785 419.16064
449.0 0.002227 404.14798 419.88629
459.0 0.002179 403.93756 421.34229
443.0 0.002257 403.72665 424.14346
425.0 0.002353 403.51520 429.72339
432.0 0.002315 403.30322 440.95322
448.0 0.002232 403.09073 462.60397
481.0 0.002079 402.87778 500.89410
535.0 0.001869 402.66425 561.30640
671.0 0.001490 402.45026 644.53723
861.0 0.001161 402.23575 742.50000
951.0 0.001052 402.02072 836.50439
884.0 0.001131 401.80530 900.90424
808.0 0.001238 401.58929 916.67566
874.0 0.001144 401.37286 888.71222
807.0 0.001239 401.15591 841.14380
802.0 0.001247 400.93848 795.14722
745.0 0.001342 400.72067 756.96393
567.0 0.001764 400.50229 719.47803
577.0 0.001733 400.28357 673.92725
619.0 0.001616 400.06427 621.57599
566.0 0.001767 399.84457 572.11383
548.0 0.001825 399.62448 536.08472
455.0 0.002198 399.40387 520.83893
515.0 0.001942 399.18292 528.72003
588.0 0.001701 398.96146 556.24396
677.0 0.001477 398.73962 594.36841
745.0 0.001342 398.51740 629.87653
693.0 0.001443 398.29474 649.13043
718.0 0.001393 398.07166 645.86005
728.0 0.001374 397.84818 626.28143
695.0 0.001439 397.62433 602.04358
642.0 0.001558 397.40012 580.63684
590.0 0.001695 397.17551 562.29370
515.0 0.001942 396.95053 542.19153
542.0 0.001845 396.72519 517.73376
528.0 0.001894 396.49945 490.32803
490.0 0.002041 396.27344 464.00778
447.0 0.002237 396.04703 442.01215
388.0 0.002577 395.82031 425.82199
402.0 0.002488 395.59323 415.02362
424.0 0.002358 395.36584 408.60358
408.0 0.002451 395.13818 404.89700
393.0 0.002545 394.91016 402.70834
380.0 0.002632 394.68192 401.28290
422.0 0.002370 394.45328 400.23096
381.0 0.002625 394.22437 399.37515
387.0 0.002584 393.99524 398.63699
381.0 0.002625 393.76581 397.98013
340.0 0.002941 393.53616 397.38556
417.0 0.002398 393.30618 396.84030
400.0 0.002500 393.07599 396.33554
392.0 0.002551 392.84561 395.86438
392.0 0.002551 392.61493 395.42123
387.0 0.002584 392.38409 395.00195
406.0 0.002463 392.15298 394.60263
388.0 0.002577 391.92169 394.22083
393.0 0.002545 391.69022 393.85400
421.0 0.002375 391.45853 393.50027
374.0 0.002674 391.22672 393.15817
395.0 0.002532 390.99466 392.82620
371.0 0.002695 390.76251 392.50320
368.0 0.002717 390.53018 392.18845
378.0 0.002646 390.29770 391.88098
419.0 0.002387 390.06509 391.14563
392.0 0.002551 389.83237 390.86740
374.0 0.002674 389.59949 390.59390
381.0 0.002625 389.36652 390.32510
395.0 0.002532 389.13348 390.06070
384.0 0.002604 388.90033 389.84912
374.0 0.002674 388.66708 389.38159
414.0 0.002415 388.43378 389.13980
411.0 0.002433 388.20044 388.90244
384.0 0.002604 387.96698 388.66980
380.0 0.002632 387.73358 388.44266
366.0 0.002732 387.50003 388.24603
343.0 0.002915 387.26648 388.03421
388.0 0.002577 387.03299 387.83408
403.0 0.002481 386.79941 387.65323
420.0 0.002381 386.56592 387.51013
418.0 0.002392 386.33234 387.24136
389.0 0.002571 386.09879 387.34537
369.0 0.002710 385.86536 387.74701
340.0 0.002941 385.63190 388.63297
397.0 0.002519 385.39856 390.18445
390.0 0.002564 385.16519 392.36673
366.0 0.002732 384.93195 395.22607
393.0 0.002545 384.69879 398.17575
438.0 0.002283 384.46567 400.47256
379.0 0.002639 384.23273 401.39038
424.0 0.002358 383.99982 400.77112
373.0 0.002681 383.76706 399.18185
451.0 0.002217 383.53442 397.37943
411.0 0.002433 383.30194 395.79382
376.0 0.002660 383.06961 394.39240
376.0 0.002660 382.83743 392.86386
379.0 0.002639 382.60538 391.01639
416.0 0.002404 382.37354 388.96616
372.0 0.002688 382.14191 386.97266
374.0 0.002674 381.91046 385.25607
384.0 0.002604 381.67920 383.92212
386.0 0.002591 381.44815 382.96417
382.0 0.002618 381.21738 382.30280
399.0 0.002506 380.98679 381.83850
356.0 0.002809 380.75650 381.48923
395.0 0.002532 380.52640 381.20074
358.0 0.002793 380.29657 380.94379
372.0 0.002688 380.06708 380.70453
374.0 0.002674 379.83780 380.47687
387.0 0.002584 379.60889 380.25867
361.0 0.002770 379.38022 380.04895
376.0 0.002660 379.15186 379.84778
377.0 0.002653 378.92392 379.65555
396.0 0.002525 378.69620 379.47278
358.0 0.002793 378.46890 379.30090
363.0 0.002755 378.24191 379.14124
379.0 0.002639 378.01526 378.99625
376.0 0.002660 377.78906 378.86880
365.0 0.002740 377.56317 378.76300
365.0 0.002740 377.33774 378.68546
326.0 0.003067 377.11264 378.64709
372.0 0.002688 376.88797 378.67209
350.0 0.002857 376.66373 378.81586
359.0 0.002786 376.43991 379.20618
381.0 0.002625 376.21655 380.11124
390.0 0.002564 375.99359 382.02307
387.0 0.002584 375.77112 385.69202
391.0 0.002558 375.54910 392.00873
363.0 0.002755 375.32758 401.65182
397.0 0.002519 375.10654 414.52975
391.0 0.002558 374.88599 429.30237
448.0 0.002232 374.66589 443.22189
419.0 0.002387 374.44638 452.63974
402.0 0.002488 374.22729 454.84174
417.0 0.002398 374.00879 450.48782
438.0 0.002283 373.79083 443.00327
414.0 0.002415 373.57339 435.58566
395.0 0.002532 373.35657 429.51028
403.0 0.002481 373.14023 424.02637
405.0 0.002469 372.92453 417.54980
362.0 0.002762 372.70932 409.48941
369.0 0.002710 372.49472 400.70087
363.0 0.002755 372.28079 392.41531
390.0 0.002564 372.06738 385.54144
347.0 0.002882 371.85468 380.46454
380.0 0.002632 371.64252 377.07059
383.0 0.002611 371.43097 374.95682
363.0 0.002755 371.22015 373.68021
378.0 0.002646 371.00989 372.87854
361.0 0.002770 370.80035 372.32089
372.0 0.002688 370.59143 371.88373
377.0 0.002653 370.38318 371.50854
366.0 0.002732 370.17563 371.16940
390.0 0.002564 369.96872 370.85428
383.0 0.002611 369.76254 370.55725
370.0 0.002703 369.55701 370.27444
362.0 0.002762 369.35223 370.00327
391.0 0.002558 369.14816 369.74182
344.0 0.002907 368.94479 369.48849
415.0 0.002410 368.74219 369.24213
386.0 0.002591 368.54028 369.00168
344.0 0.002907 368.33908 368.76639
363.0 0.002755 368.13873 368.53568
361.0 0.002770 367.93906 368.30896
349.0 0.002865 367.74014 368.08585
362.0 0.002762 367.54205 367.86597
370.0 0.002703 367.34467 367.64896
361.0 0.002770 367.14813 367.43472
325.0 0.003077 366.95230 367.22293
370.0 0.002703 366.75739 367.01349
357.0 0.002801 366.56314 366.80609
357.0 0.002801 366.36972 366.79645
329.0 0.003040 366.17719 366.59952
347.0 0.002882 365.98541 366.40472
336.0 0.002976 365.79449 366.21210
368.0 0.002717 365.60437 366.02161
401.0 0.002494 365.41507 365.83322
369.0 0.002710 365.22668 365.74347
375.0 0.002667 365.03906 365.56262
380.0 0.002632 364.85236 365.38440
360.0 0.002778 364.66644 365.20895
357.0 0.002801 364.48141 365.03717
363.0 0.002755 364.29727 364.87051
386.0 0.002591 364.11395 364.71249
416.0 0.002404 363.93158 364.49640
343.0 0.002915 363.75003 364.38217
380.0 0.002632 363.56937 364.30783
377.0 0.002653 363.38962 364.28735
380.0 0.002632 363.21075 364.32675
373.0 0.002681 363.03278 364.41519
367.0 0.002725 362.85571 364.51971
385.0 0.002597 362.67953 364.58667
393.0 0.002545 362.50427 364.55728
336.0 0.002976 362.32993 364.40543
378.0 0.002646 362.15649 364.16373
414.0 0.002415 361.98398 363.89297
358.0 0.002793 361.81238 363.63791
361.0 0.002770 361.64175 363.40976
344.0 0.002907 361.47198 363.18982
355.0 0.002817 361.30322 362.95337
383.0 0.002611 361.13535 362.69598
368.0 0.002717 360.96838 362.43414
402.0 0.002488 360.80246 362.16479
383.0 0.002611 360.63739 361.95129
367.0 0.002725 360.47333 361.77527
360.0 0.002778 360.31015 361.63522
392.0 0.002551 360.14795 361.52554
381.0 0.002625 359.98676 361.43994
339.0 0.002950 359.82645 361.37375
368.0 0.002717 359.66714 361.32471
363.0 0.002755 359.50879 361.29272
395.0 0.002532 359.35138 361.27911
361.0 0.002770 359.19495 361.28619
376.0 0.002660 359.03946 361.31729
380.0 0.002632 358.88498 361.37650
367.0 0.002725 358.73141 361.46918
363.0 0.002755 358.57886 361.60211
412.0 0.002427 358.42728 361.78372
400.0 0.002500 358.27664 362.02560
348.0 0.002874 358.12701 362.34323
358.0 0.002793 357.97833 362.76132
405.0 0.002469 357.83060 363.32437
362.0 0.002762 357.68387 364.12717
387.0 0.002584 357.53812 365.38614
426.0 0.002347 357.39334 367.57657
374.0 0.002674 357.24954 371.65875
397.0 0.002519 357.10669 379.32352
366.0 0.002732 356.96484 393.08011
382.0 0.002618 356.82394 416.06613
428.0 0.002336 356.68408 450.22687
493.0 0.002028 356.54514 495.73068
635.0 0.001575 356.40714 548.67126
686.0 0.001458 356.27020 600.66382
729.0 0.001372 356.13416 639.99542
669.0 0.001495 355.99915 656.09479
635.0 0.001575 355.86508 647.63824
692.0 0.001445 355.73196 623.84552
645.0 0.001550 355.59985 596.73120
595.0 0.001681 355.46869 573.48547
536.0 0.001866 355.33850 554.54462
509.0 0.001965 355.20926 535.23590
508.0 0.001969 355.08099 510.97021
485.0 0.002062 354.95370 481.80243
479.0 0.002088 354.82736 451.32001
404.0 0.002475 354.70203 423.47629
409.0 0.002445 354.57758 400.90945
400.0 0.002500 354.45410 384.53632
398.0 0.002513 354.33160 373.78162
398.0 0.002513 354.21005 367.26239
365.0 0.002740 354.08945 363.50162
371.0 0.002695 353.96976 361.33002
367.0 0.002725 353.85101 359.99750
351.0 0.002849 353.73325 359.09033
364.0 0.002747 353.61639 358.40524
353.0 0.002833 353.50049 357.84976
356.0 0.002809 353.38553 357.38226
382.0 0.002618 353.27145 356.97845
391.0 0.002558 353.15836 356.62686
361.0 0.002770 353.04611 356.31845
324.0 0.003086 352.93484 356.04691
397.0 0.002519 352.82449 355.80719
362.0 0.002762 352.71503 355.59631
365.0 0.002740 352.60648 355.41031
369.0 0.002710 352.49884 355.24762
373.0 0.002681 352.39212 355.10709
341.0 0.002933 352.28625 354.98761
363.0 0.002755 352.18127 354.88904
332.0 0.003012 352.07724 354.81158
404.0 0.002475 351.97406 354.75589
378.0 0.002646 351.87180 354.72327
348.0 0.002874 351.77036 354.71555
357.0 0.002801 351.66980 354.73532
345.0 0.002899 351.57013 354.78607
356.0 0.002809 351.47131 354.87234
347.0 0.002882 351.37338 355.00021
353.0 0.002833 351.27625 355.17749
360.0 0.002778 351.17999 355.41501
375.0 0.002667 351.08459 355.72830
348.0 0.002874 350.99002 356.14404
361.0 0.002770 350.89627 356.71417
387.0 0.002584 350.80334 357.55319
372.0 0.002688 350.71127 358.91611
400.0 0.002500 350.62000 361.33896
372.0 0.002688 350.52954 365.83844
348.0 0.002874 350.43988 374.08292
385.0 0.002597 350.35104 388.37070
363.0 0.002755 350.26297 411.13547
379.0 0.002639 350.17572 443.88675
440.0 0.002273 350.08923 485.85178
543.0 0.001842 350.00354 532.81836
612.0 0.001634 349.91861 577.01556
560.0 0.001786 349.83444 608.37695
551.0 0.001815 349.75104 618.93134
525.0 0.001905 349.66840 609.05176
529.0 0.001890 349.58652 587.37006
546.0 0.001832 349.50534 563.67480
520.0 0.001923 349.42490 543.60614
511.0 0.001957 349.34521 527.06671
458.0 0.002183 349.26624 510.43930
443.0 0.002257 349.18799 489.60083
403.0 0.002481 349.11044 464.39972
459.0 0.002179 349.03360 437.75455
435.0 0.002299 348.95746 413.03104
360.0 0.002778 348.88199 392.50778
364.0 0.002747 348.80722 377.35861
395.0 0.002532 348.73312 367.16245
353.0 0.002833 348.65970 360.84482
323.0 0.003096 348.58694 357.14868
367.0 0.002725 348.51483 355.02548
360.0 0.002778 348.44339 353.77414
361.0 0.002770 348.37256 352.99963
375.0 0.002667 348.30237 352.51648
357.0 0.002801 348.23279 352.25369
362.0 0.002762 348.16388 352.18631
343.0 0.002915 348.09555 352.28995
370.0 0.002703 348.02783 352.51315
370.0 0.002703 347.96069 352.76691
352.0 0.002841 347.89417 352.93201
330.0 0.003030 347.82822 352.89746
341.0 0.002933 347.76285 352.63101
387.0 0.002584 347.69806 352.20819
398.0 0.002513 347.63379 351.74487
359.0 0.002786 347.57013 351.32333
379.0 0.002639 347.50696 350.96365
331.0 0.003021 347.44440 350.63034
370.0 0.002703 347.38229 350.33655
379.0 0.002639 347.32074 349.92886
352.0 0.002841 347.25970 349.49564
360.0 0.002778 347.19919 349.07568
344.0 0.002907 347.13916 348.70200
344.0 0.002907 347.07962 348.39209
339.0 0.002950 347.02054 348.18045
372.0 0.002688 346.96198 347.99280
337.0 0.002967 346.90387 347.84607
374.0 0.002674 346.84622 347.72632
370.0 0.002703 346.78903 347.62317
365.0 0.002740 346.73230 347.53003
356.0 0.002809 346.67599 347.44339
345.0 0.002899 346.62009 347.36133
353.0 0.002833 346.56464 347.28287
341.0 0.002933 346.50958 347.20755
366.0 0.002732 346.45496 347.13504
400.0 0.002500 346.40070 347.06516
345.0 0.002899 346.34686 346.99771
354.0 0.002825 346.29340 346.93250
344.0 0.002907 346.24030 346.86957
330.0 0.003030 346.18753 346.80878
354.0 0.002825 346.13516 346.75009
363.0 0.002755 346.08316 346.69336
355.0 0.002817 346.03146 346.63873
349.0 0.002865 345.98013 346.58609
356.0 0.002809 345.92908 346.53549
324.0 0.003086 345.87839 346.48703
364.0 0.002747 345.82800 346.44064
335.0 0.002985 345.77792 346.39651
364.0 0.002747 345.72812 346.17761
351.0 0.002849 345.67859 346.14374
356.0 0.002809 345.62936 346.11224
374.0 0.002674 345.58038 346.08331
345.0 0.002899 345.53171 346.05722
349.0 0.002865 345.48325 346.03436
353.0 0.002833 345.43503 345.92548
371.0 0.002695 345.38708 345.91284
343.0 0.002915 345.33936 345.90454
334.0 0.002994 345.29187 345.90137
340.0 0.002941 345.24457 345.90390
377.0 0.002653 345.19748 345.91324
337.0 0.002967 345.15060 345.93051
354.0 0.002825 345.10388 345.95715
356.0 0.002809 345.05740 345.99506
364.0 0.002747 345.01105 346.04645
357.0 0.002801 344.96490 346.11432
333.0 0.003003 344.91888 346.20291
358.0 0.002793 344.87305 346.31863
363.0 0.002755 344.82733 346.47275
374.0 0.002674 344.78177 346.68893
361.0 0.002770 344.73633 347.01819
350.0 0.002857 344.69101 347.56921
346.0 0.002890 344.64581 348.55786
329.0 0.003040 344.60074 350.36548
368.0 0.002717 344.55576 353.58035
356.0 0.002809 344.51086 358.95349
336.0 0.002976 344.46606 367.22311
327.0 0.003058 344.42133 378.76895
364.0 0.002747 344.37668 393.20026
383.0 0.002611 344.33206 409.08191
425.0 0.002353 344.28754 423.89954
415.0 0.002410 344.24304 434.49860
433.0 0.002309 344.19861 438.37622
420.0 0.002381 344.15421 435.49487
473.0 0.002114 344.10980 428.41467
424.0 0.002358 344.06546 420.29248
410.0 0.002439 344.02112 413.18771
390.0 0.002564 343.97678 407.49509
405.0 0.002469 343.93243 402.18942
400.0 0.002500 343.88809 395.83353
353.0 0.002833 343.84372 387.89346
357.0 0.002801 343.79938 379.00153
385.0 0.002597 343.75497 370.22916
369.0 0.002710 343.71054 362.51059
340.0 0.002941 343.66605 356.38684
369.0 0.002710 343.62155 351.97321
330.0 0.003030 343.57697 349.05161
395.0 0.002532 343.53235 347.24237
341.0 0.002933 343.48764 346.16394
357.0 0.002801 343.44287 345.51654
322.0 0.003106 343.39804 345.10422
322.0 0.003106 343.35309 344.81485
339.0 0.002950 343.30811 344.59079
330.0 0.003030 343.26297 344.40439
322.0 0.003106 343.21774 344.24243
356.0 0.002809 343.17242 344.09824
325.0 0.003077 343.12701 343.96793
365.0 0.002740 343.08142 343.84875
383.0 0.002611 343.03577 343.73880
373.0 0.002681 342.98993 343.63654
373.0 0.002681 342.94400 343.54071
341.0 0.002933 342.89789 343.45032
369.0 0.002710 342.85165 343.36456
338.0 0.002959 342.80527 343.28421
365.0 0.002740 342.75870 343.20987
359.0 0.002786 342.71198 343.13464
330.0 0.003030 342.66510 343.06189
344.0 0.002907 342.61804 342.99136
289.0 0.003460 342.57080 342.92279
353.0 0.002833 342.52338 342.85587
334.0 0.002994 342.47574 342.79114
343.0 0.002915 342.42795 342.72900
314.0 0.003185 342.37994 342.66602
346.0 0.002890 342.33173 342.60406
356.0 0.002809 342.28329 342.54297
287.0 0.003484 342.23468 342.48267
362.0 0.002762 342.18582 342.42297
355.0 0.002817 342.13675 342.36389
328.0 0.003049 342.08746 342.30539
336.0 0.002976 342.03793 342.24722
326.0 0.003067 341.98816 342.18948
358.0 0.002793 341.93814 342.13211
360.0 0.002778 341.88791 342.07498
333.0 0.003003 341.83740 342.01816
345.0 0.002899 341.78665 341.96152
363.0 0.002755 341.73563 341.90500
329.0 0.003040 341.68439 341.84872
355.0 0.002817 341.63287 341.79254
333.0 0.003003 341.58105 341.73651
356.0 0.002809 341.52899 341.68045
329.0 0.003040 341.47665 341.62457
330.0 0.003030 341.42404 341.56870
349.0 0.002865 341.37115 341.51282
347.0 0.002882 341.31799 341.45712
365.0 0.002740 341.26453 341.40131
327.0 0.003058 341.21075 341.27985
332.0 0.003012 341.15674 341.22620
337.0 0.002967 341.10239 341.17239
321.0 0.003115 341.04776 341.11868
329.0 0.003040 340.99280 341.06485
330.0 0.003030 340.93756 341.01108
356.0 0.002809 340.88202 340.95737
312.0 0.003205 340.82614 340.92657
334.0 0.002994 340.76999 340.87582
343.0 0.002915 340.71350 340.82526
337.0 0.002967 340.65671 340.77502
318.0 0.003145 340.59958 340.72519
370.0 0.002703 340.54214 340.67587
300.0 0.003333 340.48438 340.62720
348.0 0.002874 340.42630 340.60687
321.0 0.003115 340.36789 340.56116
301.0 0.003322 340.30914 340.51694
369.0 0.002710 340.25006 340.47501
331.0 0.003021 340.19067 340.43643
357.0 0.002801 340.13095 340.40387
372.0 0.002688 340.07086 340.44141
329.0 0.003040 340.01044 340.44415
356.0 0.002809 339.94971 340.48862
328.0 0.003049 339.88864 340.60690
357.0 0.002801 339.82721 340.84415
329.0 0.003040 339.76544 341.25336
322.0 0.003106 339.70334 341.87952
337.0 0.002967 339.64090 342.76581
353.0 0.002833 339.57813 343.81281
344.0 0.002907 339.51498 344.93558
327.0 0.003058 339.45151 345.95355
370.0 0.002703 339.38766 346.65387
342.0 0.002924 339.32349 346.87814
360.0 0.002778 339.25900 346.62949
328.0 0.003049 339.19412 346.07605
365.0 0.002740 339.12891 345.43228
341.0 0.002933 339.06335 344.84869
337.0 0.002967 338.99744 344.36896
358.0 0.002793 338.93121 343.93896
316.0 0.003165 338.86459 343.46085
366.0 0.002732 338.79764 342.87585
362.0 0.002762 338.73035 342.20401
330.0 0.003030 338.66269 341.51254
340.0 0.002941 338.59473 340.87244
319.0 0.003135 338.52640 340.33386
327.0 0.003058 338.45770 339.91919
356.0 0.002809 338.38870 339.62473
336.0 0.002976 338.31934 339.42990
348.0 0.002874 338.24960 339.30887
348.0 0.002874 338.17953 339.23785
344.0 0.002907 338.10916 339.20010
340.0 0.002941 338.03842 339.18552
333.0 0.003003 337.96735 339.18912
373.0 0.002681 337.89594 339.20990
322.0 0.003106 337.82416 339.24939
331.0 0.003021 337.75208 339.31143
343.0 0.002915 337.67966 339.40396
348.0 0.002874 337.60687 339.54303
331.0 0.003021 337.53378 339.76254
294.0 0.003401 337.46036 340.13232
336.0 0.002976 337.38663 340.84967
366.0 0.002732 337.31256 342.02725
324.0 0.003086 337.23813 344.08768
356.0 0.002809 337.16342 347.51505
344.0 0.002907 337.08835 352.82947
371.0 0.002695 337.01297 360.40594
347.0 0.002882 336.93729 370.23218
380.0 0.002632 336.86130 381.69733
335.0 0.002985 336.78497 393.51483
365.0 0.002740 336.70834 403.71851
401.0 0.002494 336.63138 410.27780
334.0 0.002994 336.55414 411.97025
343.0 0.002915 336.47659 409.39059
381.0 0.002625 336.39874 404.62955
358.0 0.002793 336.32059 400.01624
395.0 0.002532 336.24213 397.24539
355.0 0.002817 336.16336 397.06357
356.0 0.002809 336.08435 399.30637
338.0 0.002959 336.00500 403.28613
380.0 0.002632 335.92538 408.35471
458.0 0.002183 335.84549 413.98553
431.0 0.002320 335.76532 419.34378
421.0 0.002375 335.68484 423.04608
405.0 0.002469 335.60413 423.51260
430.0 0.002326 335.52310 419.99692
434.0 0.002304 335.44183 413.37762
484.0 0.002066 335.36029 405.60690
398.0 0.002513 335.27850 398.34119
402.0 0.002488 335.19644 392.48816
391.0 0.002558 335.11414 387.89258
358.0 0.002793 335.03156 383.61929
372.0 0.002688 334.94876 378.61630
391.0 0.002558 334.86566 372.48279
377.0 0.002653 334.78238 365.62671
353.0 0.002833 334.69882 358.73068
370.0 0.002703 334.61502 352.48578
332.0 0.003012 334.53104 347.34262
306.0 0.003268 334.44681 343.45453
323.0 0.003096 334.36237 340.73785
351.0 0.002849 334.27768 338.95947
361.0 0.002770 334.19278 337.84775
352.0 0.002841 334.10770 337.16345
355.0 0.002817 334.02237 336.73260
319.0 0.003135 333.93686 336.44931
326.0 0.003067 333.85114 336.25024
336.0 0.002976 333.76523 336.10495
331.0 0.003021 333.67914 335.99948
325.0 0.003077 333.59283 335.92917
349.0 0.002865 333.50638 335.89523
327.0 0.003058 333.41971 335.90509
339.0 0.002950 333.33286 335.97739
340.0 0.002941 333.24588 336.15332
334.0 0.002994 333.15872 336.51733
343.0 0.002915 333.07138 337.22849
329.0 0.003040 332.98389 338.55777
339.0 0.002950 332.89624 340.91202
338.0 0.002959 332.80844 344.81369
349.0 0.002865 332.72052 350.80597
358.0 0.002793 332.63245 359.25397
357.0 0.002801 332.54422 370.10596
409.0 0.002445 332.45587 382.66391
446.0 0.002242 332.36740 395.50137
534.0 0.001873 332.27881 406.58890
456.0 0.002193 332.19009 413.72330
506.0 0.001976 332.10129 415.52902
515.0 0.001942 332.01233 412.43811
478.0 0.002092 331.92331 406.42194
470.0 0.002128 331.83414 399.69281
429.0 0.002331 331.74490 393.73761
400.0 0.002500 331.65558 388.95810
369.0 0.002710 331.56616 384.76721
386.0 0.002591 331.47668 380.10654
410.0 0.002439 331.38708 374.27463
401.0 0.002494 331.29745 367.34036
391.0 0.002558 331.20773 360.08838
352.0 0.002841 331.11798 353.22775
337.0 0.002967 331.02814 347.36627
342.0 0.002924 330.93823 342.85519
325.0 0.003077 330.84833 339.81067
340.0 0.002941 330.75833 338.20090
330.0 0.003030 330.66830 337.97479
361.0 0.002770 330.57825 339.11798
300.0 0.003333 330.48819 341.77319
382.0 0.002618 330.39807 345.98541
342.0 0.002924 330.30795 351.67657
371.0 0.002695 330.21777 358.46829
410.0 0.002439 330.12762 365.54816
447.0 0.002237 330.03748 371.94550
423.0 0.002364 329.94730 376.35580
410.0 0.002439 329.85715 377.87280
475.0 0.002105 329.76697 376.51535
445.0 0.002247 329.67685 373.25247
398.0 0.002513 329.58670 369.34213
432.0 0.002315 329.49661 365.70001
357.0 0.002801 329.40652 362.75650
403.0 0.002481 329.31647 360.27518
383.0 0.002611 329.22647 357.69189
349.0 0.002865 329.13647 354.51468
389.0 0.002571 329.04657 350.68054
377.0 0.002653 328.95667 346.49744
355.0 0.002817 328.86682 342.39133
378.0 0.002646 328.77707 338.72681
329.0 0.003040 328.68735 335.72607
290.0 0.003448 328.59772 333.45657
357.0 0.002801 328.50812 331.85303
313.0 0.003195 328.41861 330.77792
308.0 0.003247 328.32922 330.07626
322.0 0.003106 328.23987 329.61353
322.0 0.003106 328.15063 329.29248
333.0 0.003003 328.06146 329.05066
322.0 0.003106 327.97241 328.85248
350.0 0.002857 327.88345 328.67908
305.0 0.003279 327.79462 328.52094
337.0 0.002967 327.70587 328.37323
324.0 0.003086 327.61725 328.23343
347.0 0.002882 327.52872 328.10046
326.0 0.003067 327.44034 327.97232
320.0 0.003125 327.35208 327.84860
327.0 0.003058 327.26392 327.72864
318.0 0.003145 327.17593 327.61209
346.0 0.002890 327.08804 327.49835
317.0 0.003155 327.00034 327.38724
327.0 0.003058 326.91275 327.27832
317.0 0.003155 326.82532 327.17172
315.0 0.003175 326.73804 327.06650
290.0 0.003448 326.65091 326.96295
328.0 0.003049 326.56396 326.79654
335.0 0.002985 326.47714 326.69620
304.0 0.003289 326.39053 326.59851
310.0 0.003226 326.30405 326.50192
325.0 0.003077 326.21777 326.40622
319.0 0.003135 326.13168 326.31332
321.0 0.003115 326.04572 326.21933
323.0 0.003096 325.95999 326.12619
330.0 0.003030 325.87442 326.00220
312.0 0.003205 325.78903 325.91055
329.0 0.003040 325.70389 325.82031
310.0 0.003226 325.61887 325.73050
377.0 0.002653 325.53412 325.64224
317.0 0.003155 325.44952 325.55356
314.0 0.003185 325.36514 325.46536
341.0 0.002933 325.28098 325.37900
309.0 0.003236 325.19702 325.29178
315.0 0.003175 325.11328 325.20499
331.0 0.003021 325.02972 325.11859
300.0 0.003333 324.94644 325.03262
299.0 0.003344 324.86334 324.94705
286.0 0.003497 324.78049 324.86194
303.0 0.003300 324.69785 324.77722
322.0 0.003106 324.61545 324.69354
328.0 0.003049 324.53323 324.60959
302.0 0.003311 324.45132 324.52606
319.0 0.003135 324.36960 324.40564
318.0 0.003145 324.28812 324.32407
342.0 0.002924 324.20688 324.24274
349.0 0.002865 324.12589 324.16180
282.0 0.00355 324.04514 324.08124
342.0 0.002924 323.96460 324.00101
309.0 0.003236 323.88437 323.92117
312.0 0.003205 323.80435 323.82288
305.0 0.003279 323.72455 323.74435
320.0 0.003125 323.64505 323.66629
364.0 0.002747 323.56580 323.58865
319.0 0.003135 323.48679 323.51157
327.0 0.003058 323.40802 323.43509
314.0 0.003185 323.32953 323.35934
324.0 0.003086 323.25128 323.28494
350.0 0.002857 323.17331 323.21249
316.0 0.003165 323.09561 323.14334
332.0 0.003012 323.01813 323.07962
312.0 0.003205 322.94092 323.02448
299.0 0.003344 322.86398 322.98141
323.0 0.003096 322.78729 322.95432
348.0 0.002874 322.71088 322.94531
296.0 0.003378 322.63470 322.95383
324.0 0.003086 322.55884 322.97501
309.0 0.003236 322.48322 322.99918
327.0 0.003058 322.40784 323.01285
338.0 0.002959 322.33273 323.00101
290.0 0.003448 322.25790 322.95328
338.0 0.002959 322.18332 322.87088
321.0 0.003115 322.10904 322.76669
314.0 0.003185 322.03497 322.65884
342.0 0.002924 321.96121 322.56412
310.0 0.003226 321.88770 322.49530
345.0 0.002899 321.81445 322.46106
294.0 0.003401 321.74146 322.46774
339.0 0.002950 321.66873 322.52090
333.0 0.003003 321.59628 322.62625
364.0 0.002747 321.52405 322.78516
339.0 0.002950 321.45212 322.98752
315.0 0.003175 321.38043 323.20715
296.0 0.003378 321.30899 323.40356
295.0 0.003390 321.23782 323.52954
311.0 0.003215 321.16690 323.55066
303.0 0.003300 321.09622 323.46912
323.0 0.003096 321.02585 323.32870
295.0 0.003390 320.95566 323.18951
314.0 0.003185 320.88577 323.10089
349.0 0.002865 320.81607 323.08466
330.0 0.003030 320.74667 323.12958
354.0 0.002825 320.67749 323.19437
342.0 0.002924 320.60855 323.22345
336.0 0.002976 320.53989 323.16830
343.0 0.002915 320.47144 323.02206
348.0 0.002874 320.40320 322.75739
340.0 0.002941 320.33524 322.43045
343.0 0.002915 320.26749 322.09131
345.0 0.002899 320.19995 321.78125
306.0 0.003268 320.13269 321.52078
336.0 0.002976 320.06558 321.30884
336.0 0.002976 319.99875 321.12726
316.0 0.003165 319.93213 320.96069
310.0 0.003226 319.86572 320.77460
334.0 0.002994 319.79953 320.57547
298.0 0.003356 319.73352 320.37137
332.0 0.003012 319.66776 320.17358
301.0 0.003322 319.60217 320.02203
317.0 0.003155 319.53680 319.86310
327.0 0.003058 319.47159 319.73154
312.0 0.003205 319.40662 319.61774
341.0 0.002933 319.34183 319.52130
344.0 0.002907 319.27719 319.43756
286.0 0.003497 319.21277 319.36246
285.0 0.00351 319.14853 319.29269
290.0 0.003448 319.08444 319.24118
300.0 0.003333 319.02054 319.17749
355.0 0.002817 318.95679 319.11716
326.0 0.003067 318.89325 319.05597
309.0 0.003236 318.82983 318.99579
297.0 0.003367 318.76654 318.93643
335.0 0.002985 318.70346 318.87793
325.0 0.003077 318.64050 318.82028
316.0 0.003165 318.57767 318.76343
297.0 0.003367 318.51498 318.70752
320.0 0.003125 318.45242 318.65244
326.0 0.003067 318.39001 318.59833
346.0 0.002890 318.32770 318.54532
320.0 0.003125 318.26553 318.49329
291.0 0.003436 318.20343 318.44244
300.0 0.003333 318.14148 318.39297
315.0 0.003175 318.07962 318.34485
312.0 0.003205 318.01785 318.29779
348.0 0.002874 317.95618 318.25305
339.0 0.002950 317.89459 318.21030
314.0 0.003185 317.83310 318.16983
334.0 0.002994 317.77170 318.13196
326.0 0.003067 317.71033 318.09708
301.0 0.003322 317.64905 318.06570
289.0 0.003460 317.58780 318.03830
296.0 0.003378 317.52664 318.01654
330.0 0.003030 317.46552 318.00174
310.0 0.003226 317.40442 317.99731
327.0 0.003058 317.34335 318.00943
318.0 0.003145 317.28235 318.05026
343.0 0.002915 317.22137 318.14227
321.0 0.003115 317.16037 318.32413
344.0 0.002907 317.09943 318.65485
306.0 0.003268 317.03845 319.22394
294.0 0.003401 316.97751 320.13489
301.0 0.003322 316.91653 321.49374
321.0 0.003115 316.85556 323.37390
327.0 0.003058 316.79456 325.77573
325.0 0.003077 316.73352 328.58676
329.0 0.003040 316.67249 331.56589
335.0 0.002985 316.61139 334.35361
374.0 0.002674 316.55026 336.53192
371.0 0.002695 316.48904 337.75012
354.0 0.002825 316.42783 337.92899
368.0 0.002717 316.36649 337.35767
354.0 0.002825 316.30508 336.57776
350.0 0.002857 316.24362 336.16232
323.0 0.003096 316.18207 336.56708
365.0 0.002740 316.12042 338.04715
353.0 0.002833 316.05865 340.61411
339.0 0.002950 315.99680 344.04074
356.0 0.002809 315.93484 347.93784
329.0 0.003040 315.87274 351.82834
353.0 0.002833 315.81052 355.15332
353.0 0.002833 315.74817 357.30069
333.0 0.003003 315.68564 357.77441
367.0 0.002725 315.62302 356.48651
385.0 0.002597 315.56018 353.85556
420.0 0.002381 315.49722 350.57904
358.0 0.002793 315.43408 347.31677
342.0 0.002924 315.37076 344.48981
339.0 0.002950 315.30725 342.19217
363.0 0.002755 315.24353 340.21451
343.0 0.002915 315.17963 338.19113
346.0 0.002890 315.11551 335.82571
322.0 0.003106 315.05118 333.05264
342.0 0.002924 314.98663 330.03549
347.0 0.002882 314.92184 326.96860
357.0 0.002801 314.85681 324.13528
308.0 0.003247 314.79153 321.66629
306.0 0.003268 314.72601 319.67532
325.0 0.003077 314.66022 318.16736
333.0 0.003003 314.59418 317.08401
328.0 0.003049 314.52786 316.33649
317.0 0.003155 314.46124 315.84079
326.0 0.003067 314.39432 315.49579
322.0 0.003106 314.32712 315.25116
294.0 0.003401 314.25961 315.07770
307.0 0.003257 314.19180 314.96490
272.0 0.00368 314.12363 314.83582
339.0 0.002950 314.05515 314.71921
335.0 0.002985 313.98636 314.61087
320.0 0.003125 313.91721 314.50851
298.0 0.003356 313.84769 314.41083
334.0 0.002994 313.77783 314.31699
302.0 0.003311 313.70761 314.22650
304.0 0.003289 313.63699 314.15714
322.0 0.003106 313.56601 314.07245
260.0 0.00385 313.49463 313.99008
331.0 0.003021 313.42285 313.90973
300.0 0.003333 313.35071 313.83160
297.0 0.003367 313.27811 313.75595
294.0 0.003401 313.20514 313.68344
290.0 0.003448 313.13168 313.61548
309.0 0.003236 313.05786 313.55453
291.0 0.003436 312.98352 313.50497
282.0 0.00355 312.90878 313.47260
301.0 0.003322 312.83359 313.46512
302.0 0.003311 312.75793 313.49066
306.0 0.003268 312.68182 313.55569
322.0 0.003106 312.60522 313.66245
254.0 0.00394 312.52814 313.80554
312.0 0.003205 312.45056 313.97052
309.0 0.003236 312.37250 314.13290
327.0 0.003058 312.29391 314.26181
323.0 0.003096 312.21484 314.30753
316.0 0.003165 312.13525 314.28653
336.0 0.002976 312.05511 314.18326
301.0 0.003322 311.97449 314.02289
321.0 0.003115 311.89328 313.83917
332.0 0.003012 311.81155 313.65976
300.0 0.003333 311.72928 313.50012
274.0 0.00365 311.64642 313.36069
278.0 0.00360 311.56305 313.22147
300.0 0.003333 311.47910 313.08536
267.0 0.00375 311.39453 312.93271
287.0 0.003484 311.30942 312.76501
312.0 0.003205 311.22369 312.59030
325.0 0.003077 311.13742 312.39108
293.0 0.003413 311.05051 312.23865
313.0 0.003195 310.96298 312.10596
299.0 0.003344 310.87488 312.00500
288.0 0.003472 310.78613 311.93243
288.0 0.003472 310.69681 311.88708
285.0 0.00351 310.60681 311.86688
306.0 0.003268 310.51620 311.87195
313.0 0.003195 310.42496 311.88980
323.0 0.003096 310.33304 311.96039
308.0 0.003247 310.24051 312.08661
312.0 0.003205 310.14731 312.31195
304.0 0.003289 310.05344 312.70465
311.0 0.003215 309.95892 313.37933
331.0 0.003021 309.86371 314.50900
306.0 0.003268 309.76785 316.32715
324.0 0.003086 309.67130 319.11481
296.0 0.003378 309.57407 323.15356
327.0 0.003058 309.47617 328.65045
303.0 0.003300 309.37753 335.64719
331.0 0.003021 309.27826 343.91879
335.0 0.002985 309.17825 352.96301
359.0 0.002786 309.07751 361.86697
333.0 0.003003 308.97614 369.62961
343.0 0.002915 308.87396 375.31433
341.0 0.002933 308.77115 378.43631
400.0 0.002500 308.66757 379.21329
359.0 0.002786 308.56326 378.54855
326.0 0.003067 308.45825 377.73804
342.0 0.002924 308.35251 377.98123
360.0 0.002778 308.24603 379.97568
393.0 0.002545 308.13882 383.64078
408.0 0.002451 308.03088 388.23343
456.0 0.002193 307.92215 392.50998
449.0 0.002227 307.81274 395.09970
433.0 0.002309 307.70255 394.82913
391.0 0.002558 307.59158 391.23529
444.0 0.002252 307.47992 384.78674
465.0 0.002151 307.36746 376.69781
393.0 0.002545 307.25427 368.35577
383.0 0.002611 307.14029 360.84818
356.0 0.002809 307.02557 354.72195
392.0 0.002551 306.91010 349.96811
376.0 0.002660 306.79385 346.10110
318.0 0.003145 306.67682 342.45392
354.0 0.002825 306.55902 338.50522
384.0 0.002604 306.44052 334.10452
350.0 0.002857 306.32117 329.42749
348.0 0.002874 306.20111 324.78949
314.0 0.003185 306.08026 320.50104
300.0 0.003333 305.95865 316.79681
311.0 0.003215 305.83621 313.79413
313.0 0.003195 305.71304 311.49814
308.0 0.003247 305.58911 309.82764
275.0 0.00364 305.46439 308.65424
302.0 0.003311 305.33893 307.84311
309.0 0.003236 305.21265 307.27579
331.0 0.003021 305.08560 306.86304
310.0 0.003226 304.95786 306.54364
326.0 0.003067 304.82925 306.27957
319.0 0.003135 304.69995 306.04901
298.0 0.003356 304.56982 305.84024
305.0 0.003279 304.43893 305.64755
318.0 0.003145 304.30731 305.46893
308.0 0.003247 304.17490 305.30408
300.0 0.003333 304.04175 305.15417
341.0 0.002933 303.90781 305.02078
312.0 0.003205 303.77310 304.90549
322.0 0.003106 303.63766 304.80829
341.0 0.002933 303.50146 304.72757
309.0 0.003236 303.36453 304.65884
278.0 0.00360 303.22681 304.59485
305.0 0.003279 303.08835 304.52509
302.0 0.003311 302.94916 304.44241
330.0 0.003030 302.80920 304.33832
295.0 0.003390 302.66858 304.21234
309.0 0.003236 302.52713 304.07147
297.0 0.003367 302.38495 303.92688
297.0 0.003367 302.24210 303.78946
319.0 0.003135 302.09848 303.66769
319.0 0.003135 301.95419 303.56781
304.0 0.003289 301.80914 303.49554
310.0 0.003226 301.66336 303.46130
320.0 0.003125 301.51694 303.55344
286.0 0.003497 301.36972 303.69189
314.0 0.003185 301.22189 304.02264
315.0 0.003175 301.07330 304.67239
289.0 0.003460 300.92404 305.81403
296.0 0.003378 300.77411 307.65552
291.0 0.003436 300.62347 310.41031
312.0 0.003205 300.47220 314.23901
338.0 0.002959 300.32022 319.18280
323.0 0.003096 300.16760 325.12149
370.0 0.002703 300.01431 331.60312
407.0 0.002457 299.86035 338.04214
386.0 0.002591 299.70578 343.64209
386.0 0.002591 299.55054 347.58420
407.0 0.002457 299.39471 349.29941
402.0 0.002488 299.23819 348.79147
405.0 0.002469 299.08112 346.66412
403.0 0.002481 298.92337 343.90048
369.0 0.002710 298.76508 341.33615
349.0 0.002865 298.60611 339.60910
351.0 0.002849 298.44656 338.89056
347.0 0.002882 298.28650 338.97238
360.0 0.002778 298.12579 339.34360
373.0 0.002681 297.96457 339.40729
374.0 0.002674 297.80273 338.70789
349.0 0.002865 297.64038 337.00668
368.0 0.002717 297.47745 334.29218
352.0 0.002841 297.31403 330.71201
343.0 0.002915 297.15002 326.62268
320.0 0.003125 296.98547 322.56015
334.0 0.002994 296.82050 318.89395
293.0 0.003413 296.65497 315.86267
305.0 0.003279 296.48898 313.51675
302.0 0.003311 296.32245 311.73587
334.0 0.002994 296.15546 310.28906
292.0 0.003425 295.98804 308.92020
333.0 0.003003 295.82010 307.44958
299.0 0.003344 295.65179 305.81506
339.0 0.002950 295.48297 304.10388
298.0 0.003356 295.31372 302.40292
298.0 0.003356 295.14413 300.81467
317.0 0.003155 294.97406 299.41623
301.0 0.003322 294.80365 298.25006
312.0 0.003205 294.63278 297.32114
299.0 0.003344 294.46155 296.60657
293.0 0.003413 294.29001 296.06717
324.0 0.003086 294.11801 295.66074
322.0 0.003106 293.94577 295.34506
285.0 0.00351 293.77313 295.09085
298.0 0.003356 293.60016 294.87659
303.0 0.003300 293.42694 294.68875
311.0 0.003215 293.25333 294.51917
291.0 0.003436 293.07953 294.36401
296.0 0.003378 292.90536 294.22131
301.0 0.003322 292.73093 294.09097
291.0 0.003436 292.55630 293.97360
296.0 0.003378 292.38138 293.87085
272.0 0.00368 292.20627 293.78564
304.0 0.003289 292.03085 293.72321
290.0 0.003448 291.85526 293.69308
292.0 0.003425 291.67953 293.71384
320.0 0.003125 291.50354 293.81985
298.0 0.003356 291.32742 294.07312
265.0 0.00377 291.15112 294.57938
283.0 0.00353 290.97464 295.50558
312.0 0.003205 290.79807 297.09485
284.0 0.00352 290.62134 299.66760
280.0 0.00357 290.44455 303.59387
281.0 0.00356 290.26758 309.23276
300.0 0.003333 290.09055 316.82697
323.0 0.003096 289.91348 326.38022
310.0 0.003226 289.73630 337.55380
308.0 0.003247 289.55914 349.58984
375.0 0.002667 289.38187 361.34500
387.0 0.002584 289.20462 371.38608
362.0 0.002762 289.02731 378.26132
346.0 0.002890 288.85010 380.98639
347.0 0.002882 288.67279 379.54584
376.0 0.002660 288.49554 374.94803
347.0 0.002882 288.31836 368.70444
343.0 0.002915 288.14120 362.22144
332.0 0.003012 287.96414 356.43033
343.0 0.002915 287.78711 351.65686
344.0 0.002907 287.61026 347.64853
332.0 0.003012 287.43344 343.71484
331.0 0.003021 287.25677 339.16098
306.0 0.003268 287.08020 333.61713
326.0 0.003067 286.90378 327.19443
329.0 0.003040 286.72757 320.31616
330.0 0.003030 286.55148 313.46747
297.0 0.003367 286.37561 307.17892
268.0 0.00373 286.19992 301.74088
287.0 0.003484 286.02448 297.31778
267.0 0.00375 285.84918 293.91946
294.0 0.003401 285.67416 291.42181
301.0 0.003322 285.49942 289.65701
295.0 0.003390 285.32489 288.43594
274.0 0.00365 285.15073 287.59213
280.0 0.00357 284.97678 286.97882
275.0 0.00364 284.80313 286.54025
299.0 0.003344 284.62985 286.20529
286.0 0.003497 284.45685 285.94601
262.0 0.00382 284.28427 285.74124
279.0 0.00358 284.11197 285.62250
257.0 0.00389 283.94003 285.58804
324.0 0.003086 283.76855 285.65024
280.0 0.00357 283.59741 285.81699
292.0 0.003425 283.42673 286.08411
276.0 0.00362 283.25641 286.43106
283.0 0.00353 283.08655 286.81775
296.0 0.003378 282.91718 287.17953
270.0 0.00370 282.74820 287.46085
288.0 0.003472 282.57977 287.58624
293.0 0.003413 282.41174 287.51236
277.0 0.00361 282.24426 287.24323
283.0 0.00353 282.07730 286.82944
272.0 0.00368 281.91086 286.34302
269.0 0.00372 281.74496 285.85013
290.0 0.003448 281.57956 285.39374
280.0 0.00357 281.41473 285.00714
282.0 0.00355 281.25055 284.64340
282.0 0.00355 281.08688 284.28491
292.0 0.003425 280.92386 283.89963
293.0 0.003413 280.76138 283.46866
288.0 0.003472 280.59955 282.99606
257.0 0.00389 280.43839 282.50143
270.0 0.00370 280.27783 282.00912
265.0 0.00377 280.11798 281.54178
269.0 0.00372 279.95871 281.12463
315.0 0.003175 279.80014 280.74890
277.0 0.00361 279.64233 280.42554
267.0 0.00375 279.48517 280.14816
255.0 0.00392 279.32877 279.90970
293.0 0.003413 279.17303 279.70120
273.0 0.00366 279.01804 279.51456
263.0 0.00380 278.86380 279.34326
271.0 0.00369 278.71030 279.18259
280.0 0.00357 278.55759 279.02966
282.0 0.00355 278.40564 278.88275
264.0 0.00379 278.25449 278.74121
273.0 0.00366 278.10410 278.60498
267.0 0.00375 277.95456 278.47516
259.0 0.00386 277.80579 278.35364
282.0 0.00355 277.65790 278.24438
295.0 0.003390 277.51080 278.15469
272.0 0.00368 277.36450 278.09760
280.0 0.00357 277.21915 278.09424
294.0 0.003401 277.07458 278.17725
266.0 0.00376 276.93094 278.39313
295.0 0.003390 276.78815 278.80096
285.0 0.00351 276.64627 279.46799
288.0 0.003472 276.50522 280.39301
287.0 0.003484 276.36517 281.75031
274.0 0.00365 276.22595 283.47391
294.0 0.003401 276.08765 285.50336
278.0 0.00360 275.95035 287.70615
287.0 0.003484 275.81390 289.88193
275.0 0.00364 275.67844 291.77643
310.0 0.003226 275.54391 293.12589
299.0 0.003344 275.41031 293.72961
294.0 0.003401 275.27774 293.51102
271.0 0.00369 275.14609 292.67780
291.0 0.003436 275.01544 291.45602
262.0 0.00382 274.88574 290.11343
280.0 0.00357 274.75702 288.85220
273.0 0.00366 274.62936 287.77356
272.0 0.00368 274.50262 286.87106
284.0 0.00352 274.37695 286.05075
296.0 0.003378 274.25226 285.17886
315.0 0.003175 274.12854 284.15076
250.0 0.00400 274.00592 282.94043
285.0 0.00351 273.88428 281.59586
303.0 0.003300 273.76370 280.20520
267.0 0.00375 273.64413 278.86017
263.0 0.00380 273.52554 277.63834
270.0 0.00370 273.40808 276.59149
291.0 0.003436 273.29163 275.74261
284.0 0.00352 273.17624 275.09000
292.0 0.003425 273.06189 274.61569
273.0 0.00366 272.94858 274.29709
273.0 0.00366 272.83636 274.11728
237.0 0.00422 272.72516 274.07413
251.0 0.00398 272.61508 274.18683
293.0 0.003413 272.50601 274.49936
266.0 0.00376 272.39798 275.07913
289.0 0.003460 272.29111 276.00946
278.0 0.00360 272.18524 277.37558
297.0 0.003367 272.08047 279.24008
272.0 0.00368 271.97675 281.61426
293.0 0.003413 271.87411 284.44287
290.0 0.003448 271.77255 287.56732
338.0 0.002959 271.67206 290.73956
327.0 0.003058 271.57266 293.63147
327.0 0.003058 271.47430 295.88409
318.0 0.003145 271.37704 297.19025
359.0 0.002786 271.28085 297.41562
346.0 0.002890 271.18570 296.66730
308.0 0.003247 271.09167 295.23996
302.0 0.003311 270.99869 293.49567
285.0 0.00351 270.90680 291.74469
298.0 0.003356 270.81595 290.18350
302.0 0.003311 270.72620 288.86740
307.0 0.003257 270.63745 287.72156
306.0 0.003268 270.54980 286.58609
291.0 0.003436 270.46323 285.29843
293.0 0.003413 270.37769 283.77292
286.0 0.003497 270.29324 282.02615
288.0 0.003472 270.20978 280.14993
278.0 0.00360 270.12741 278.26450
282.0 0.00355 270.04608 276.48566
263.0 0.00380 269.96579 274.90359
282.0 0.00355 269.88654 273.57040
276.0 0.00362 269.80832 272.50156
270.0 0.00370 269.73111 271.68051
301.0 0.003322 269.65494 271.07114
268.0 0.00373 269.57980 270.62839
277.0 0.00361 269.50565 270.30807
255.0 0.00392 269.43256 270.07251
278.0 0.00360 269.36041 269.89267
270.0 0.00370 269.28928 269.74820
266.0 0.00376 269.21915 269.62582
240.0 0.00417 269.14999 269.51730
270.0 0.00370 269.08185 269.41782
246.0 0.00407 269.01465 269.32458
292.0 0.003425 268.94843 269.23605
252.0 0.00397 268.88318 269.15149
255.0 0.00392 268.81885 269.07028
251.0 0.00398 268.75549 268.99228
276.0 0.00362 268.69308 268.91742
269.0 0.00372 268.63156 268.84586
264.0 0.00379 268.57101 268.77811
242.0 0.00413 268.51138 268.71484
270.0 0.00370 268.45264 268.65671
251.0 0.00398 268.39481 268.60489
275.0 0.00364 268.33786 268.54642
266.0 0.00376 268.28180 268.50940
261.0 0.00383 268.22659 268.47958
302.0 0.003311 268.17227 268.45563
297.0 0.003367 268.11880 268.43530
241.0 0.00415 268.06619 268.41522
287.0 0.003484 268.01443 268.39142
272.0 0.00368 267.96347 268.35962
257.0 0.00389 267.91336 268.31705
274.0 0.00365 267.86401 268.26273
297.0 0.003367 267.81549 268.19238
244.0 0.00410 267.76779 268.12338
274.0 0.00365 267.72083 268.05304
263.0 0.00380 267.67462 267.98474
276.0 0.00362 267.62921 267.92557
248.0 0.00403 267.58453 267.86554
308.0 0.003247 267.54059 267.80753
239.0 0.00418 267.49738 267.75006
253.0 0.00395 267.45486 267.69135
267.0 0.00375 267.41306 267.63043
278.0 0.00360 267.37195 267.56775
254.0 0.00394 267.33154 267.50449
283.0 0.00353 267.29178 267.44205
276.0 0.00362 267.25269 267.38171
259.0 0.00386 267.21423 267.32730
246.0 0.00407 267.17642 267.27423
298.0 0.003356 267.13922 267.22458
268.0 0.00373 267.10263 267.17850
294.0 0.003401 267.06665 267.13553
285.0 0.00351 267.03122 267.09509
227.0 0.00441 266.99640 267.05667
289.0 0.003460 266.96213 267.01984
297.0 0.003367 266.92841 266.98428
242.0 0.00413 266.89520 266.94968
271.0 0.00369 266.86255 266.91599
244.0 0.00410 266.83038 266.88290
274.0 0.00365 266.79874 266.83264
258.0 0.00388 266.76758 266.80142
257.0 0.00389 266.73688 266.76889
279.0 0.00358 266.70663 266.73877
270.0 0.00370 266.67685 266.70914
266.0 0.00376 266.64749 266.68002
290.0 0.003448 266.61856 266.65140
237.0 0.00422 266.59006 266.62323
277.0 0.00361 266.56192 266.59555
235.0 0.00426 266.53415 266.55936
267.0 0.00375 266.50677 266.53287
263.0 0.00380 266.47977 266.50583
265.0 0.00377 266.45306 266.48019
286.0 0.003497 266.42673 266.45496
284.0 0.00352 266.40070 266.43015
284.0 0.00352 266.37497 266.40570
262.0 0.00382 266.34952 266.38165
264.0 0.00379 266.32437 266.35803
252.0 0.00397 266.29947 266.33478
254.0 0.00394 266.27481 266.31189
267.0 0.00375 266.25043 266.28943
279.0 0.00358 266.22623 266.26740
273.0 0.00366 266.20227 266.24573
272.0 0.00368 266.17850 266.22449
254.0 0.00394 266.15491 266.20367
268.0 0.00373 266.13153 266.18332
274.0 0.00365 266.10828 266.16339
276.0 0.00362 266.08521 266.14401
269.0 0.00372 266.06223 266.12512
297.0 0.003367 266.03940 266.10684
257.0 0.00389 266.01669 266.08914
264.0 0.00379 265.99405 266.07227
237.0 0.00422 265.97153 266.05612
301.0 0.003322 265.94907 266.04095
259.0 0.00386 265.92667 266.02698
232.0 0.00431 265.90433 266.01462
275.0 0.00364 265.88205 266.00464
280.0 0.00357 265.85977 265.99829
298.0 0.003356 265.83749 265.99789
309.0 0.003236 265.81525 266.00742
279.0 0.00358 265.79297 266.03320
272.0 0.00368 265.77069 266.08499
266.0 0.00376 265.74838 266.17673
269.0 0.00372 265.72604 266.32684
260.0 0.00385 265.70361 266.55719
263.0 0.00380 265.68115 266.89084
267.0 0.00375 265.65863 267.34793
250.0 0.00400 265.63602 267.93906
276.0 0.00362 265.61328 268.66074
263.0 0.00380 265.59045 269.48767
280.0 0.00357 265.56750 270.37170
278.0 0.00360 265.54446 271.24329
271.0 0.00369 265.52127 272.01581
266.0 0.00376 265.49792 272.59924
290.0 0.003448 265.47443 272.92072
276.0 0.00362 265.45078 272.95276
284.0 0.00352 265.42694 272.72803
300.0 0.003333 265.40292 272.32523
284.0 0.00352 265.37875 271.83817
266.0 0.00376 265.35434 271.34805
281.0 0.00356 265.32974 270.90817
276.0 0.00362 265.30493 270.53745
280.0 0.00357 265.27988 270.22211
282.0 0.00355 265.25461 269.92416
304.0 0.003289 265.22913 269.59821
262.0 0.00382 265.20337 269.21191
274.0 0.00365 265.17737 268.75836
260.0 0.00385 265.15109 268.25464
278.0 0.00360 265.12457 267.72974
275.0 0.00364 265.09778 267.21533
247.0 0.00405 265.07071 266.73886
260.0 0.00385 265.04333 266.31970
274.0 0.00365 265.01569 265.96826
248.0 0.00403 264.98773 265.68573
289.0 0.003460 264.95947 265.46661
251.0 0.00398 264.93091 265.30081
276.0 0.00362 264.90204 265.17670
271.0 0.00369 264.87286 265.08316
263.0 0.00380 264.84335 265.01074
264.0 0.00379 264.81354 264.95218
303.0 0.003300 264.78339 264.90228
255.0 0.00392 264.75287 264.85770
230.0 0.00435 264.72208 264.81659
250.0 0.00400 264.69089 264.77692
248.0 0.00403 264.65939 264.73831
283.0 0.00353 264.62753 264.70047
261.0 0.00383 264.59534 264.66333
258.0 0.00388 264.56281 264.62607
291.0 0.003436 264.52991 264.58896
294.0 0.003401 264.49664 264.55197
246.0 0.00407 264.46304 264.51492
259.0 0.00386 264.42908 264.47791
261.0 0.00383 264.39478 264.44077
256.0 0.00391 264.36011 264.40363
244.0 0.00410 264.32504 264.36627
250.0 0.00400 264.28967 264.32877
258.0 0.00388 264.25394 264.29294
262.0 0.00382 264.21783 264.25507
248.0 0.00403 264.18137 264.21704
259.0 0.00386 264.14456 264.17874
257.0 0.00389 264.10739 264.14017
285.0 0.00351 264.06985 264.10138
257.0 0.00389 264.03201 264.06229
239.0 0.00418 263.99377 264.02304
298.0 0.003356 263.95520 263.98349
273.0 0.00366 263.91632 263.94373
265.0 0.00377 263.87704 263.90356
263.0 0.00380 263.83746 263.86417
283.0 0.00353 263.79752 263.82346
277.0 0.00361 263.75726 263.78259
265.0 0.00377 263.71667 263.74146
233.0 0.00429 263.67575 263.69995
230.0 0.00435 263.63452 263.65833
262.0 0.00382 263.59299 263.61633
256.0 0.00391 263.55112 263.57407
278.0 0.00360 263.50894 263.53159
267.0 0.00375 263.46646 263.48883
252.0 0.00397 263.42371 263.44589
265.0 0.00377 263.38065 263.40265
252.0 0.00397 263.33734 263.35916
232.0 0.00431 263.29370 263.31537
256.0 0.00391 263.24985 263.27142
250.0 0.00400 263.20566 263.22720
260.0 0.00385 263.16125 263.18286
299.0 0.003344 263.11661 263.13818
229.0 0.00437 263.07169 263.09344
269.0 0.00372 263.02655 263.04846
280.0 0.00357 262.98117 263.00327
275.0 0.00364 262.93558 262.95798
280.0 0.00357 262.88977 262.91238
258.0 0.00388 262.84378 262.86072
244.0 0.00410 262.79755 262.81519
244.0 0.00410 262.75119 262.76944
258.0 0.00388 262.70459 262.72360
249.0 0.00402 262.65784 262.67767
292.0 0.003425 262.61096 262.63165
261.0 0.00383 262.56390 262.58563
248.0 0.00403 262.51669 262.53958
262.0 0.00382 262.46939 262.49350
297.0 0.003367 262.42191 262.44766
265.0 0.00377 262.37436 262.39886
260.0 0.00385 262.32669 262.36548
277.0 0.00361 262.27896 262.32086
261.0 0.00383 262.23111 262.27716
268.0 0.00373 262.18323 262.23471
253.0 0.00395 262.13525 262.19449
235.0 0.00426 262.08725 262.15741
273.0 0.00366 262.03922 262.12488
276.0 0.00362 261.99115 262.09848
254.0 0.00394 261.94305 262.08008
239.0 0.00418 261.89496 262.07144
281.0 0.00356 261.84686 262.07971
290.0 0.003448 261.79883 262.09390
272.0 0.00368 261.75079 262.11914
260.0 0.00385 261.70282 262.15353
255.0 0.00392 261.65491 262.19391
239.0 0.00418 261.60703 262.23560
231.0 0.00433 261.55923 262.27390
262.0 0.00382 261.51157 262.30478
279.0 0.00358 261.46396 262.32663
265.0 0.00377 261.41650 262.34183
255.0 0.00392 261.36917 262.35602
281.0 0.00356 261.32196 262.37787
265.0 0.00377 261.27490 262.42334
273.0 0.00366 261.22803 262.49057
284.0 0.00352 261.18134 262.59033
233.0 0.00429 261.13480 262.73013
276.0 0.00362 261.08850 262.88525
242.0 0.00413 261.04239 263.04816
244.0 0.00410 260.99652 263.19806
263.0 0.00380 260.95090 263.31100
261.0 0.00383 260.90552 263.36557
268.0 0.00373 260.86041 263.34741
284.0 0.00352 260.81552 263.25604
248.0 0.00403 260.77097 263.10831
261.0 0.00383 260.72675 262.92154
256.0 0.00391 260.68280 262.72269
258.0 0.00388 260.63916 262.53586
280.0 0.00357 260.59589 262.36420
276.0 0.00362 260.55295 262.21555
310.0 0.003226 260.51038 262.08542
274.0 0.00365 260.46817 261.96353
276.0 0.00362 260.42636 261.83777
254.0 0.00394 260.38492 261.69952
252.0 0.00397 260.34390 261.54614
248.0 0.00403 260.30328 261.38092
263.0 0.00380 260.26312 261.21060
278.0 0.00360 260.22336 261.04294
294.0 0.003401 260.18408 260.88513
282.0 0.00355 260.14526 260.74210
298.0 0.003356 260.10690 260.61710
252.0 0.00397 260.06900 260.51096
246.0 0.00407 260.03162 260.42300
272.0 0.00368 259.99472 260.35120
280.0 0.00357 259.95834 260.29321
248.0 0.00403 259.92249 260.24680
273.0 0.00366 259.88715 260.21014
245.0 0.00408 259.85236 260.18274
270.0 0.00370 259.81812 260.16467
278.0 0.00360 259.78442 260.15817
244.0 0.00410 259.75131 260.16748
246.0 0.00407 259.71875 260.20032
238.0 0.00420 259.68677 260.26889
252.0 0.00397 259.65540 260.39053
256.0 0.00391 259.62460 260.58914
243.0 0.00412 259.59442 260.89465
257.0 0.00389 259.56485 261.34103
255.0 0.00392 259.53586 261.96191
240.0 0.00417 259.50754 262.78522
259.0 0.00386 259.47983 263.82388
269.0 0.00372 259.45276 265.06784
251.0 0.00398 259.42630 266.47836
247.0 0.00405 259.40054 267.98312
266.0 0.00376 259.37537 269.48032
291.0 0.003436 259.35089 270.84317
264.0 0.00379 259.32706 271.93668
242.0 0.00413 259.30389 272.64304
286.0 0.003497 259.28140 272.89761
266.0 0.00376 259.25955 272.71738
249.0 0.00402 259.23837 272.19669
280.0 0.00357 259.21790 271.47214
257.0 0.00389 259.19809 270.68002
276.0 0.00362 259.17896 269.93033
293.0 0.003413 259.16049 269.28925
247.0 0.00405 259.14273 268.77905
279.0 0.00358 259.12564 268.38058
264.0 0.00379 259.10922 268.04852
270.0 0.00370 259.09348 267.73599
266.0 0.00376 259.07843 267.42087
267.0 0.00375 259.06406 267.12201
261.0 0.00383 259.05035 266.89420
291.0 0.003436 259.03735 266.80887
277.0 0.00361 259.02499 266.93484
256.0 0.00391 259.01334 267.32608
284.0 0.00352 259.00232 267.99094
284.0 0.00352 258.99197 268.91119
289.0 0.003460 258.98230 270.02124
312.0 0.003205 258.97327 271.21555
284.0 0.00352 258.96490 272.36487
321.0 0.003115 258.95718 273.33530
294.0 0.003401 258.95010 274.01599
275.0 0.00364 258.94366 274.33856
283.0 0.00353 258.93784 274.29840
295.0 0.003390 258.93265 273.92099
275.0 0.00364 258.92807 273.29077
249.0 0.00402 258.92410 272.52554
262.0 0.00382 258.92075 271.73157
256.0 0.00391 258.91797 270.97952
279.0 0.00358 258.91577 270.30344
278.0 0.00360 258.91415 269.69281
275.0 0.00364 258.91309 269.11166
273.0 0.00366 258.91260 268.51212
261.0 0.00383 258.91260 267.85052
261.0 0.00383 258.91318 267.10553
287.0 0.003484 258.91428 266.26984
272.0 0.00368 258.91586 265.36670
270.0 0.00370 258.91797 264.44351
261.0 0.00383 258.92053 263.54678
287.0 0.003484 258.92358 262.71579
258.0 0.00388 258.92706 261.98190
249.0 0.00402 258.93103 261.36050
248.0 0.00403 258.93539 260.85455
251.0 0.00398 258.94019 260.45734
226.0 0.00442 258.94534 260.15433
278.0 0.00360 258.95090 259.92816
257.0 0.00389 258.95682 259.76157
268.0 0.00373 258.96310 259.63931
255.0 0.00392 258.96973 259.54907
260.0 0.00385 258.97665 259.48199
262.0 0.00382 258.98386 259.43152
263.0 0.00380 258.99133 259.39331
288.0 0.003472 258.99911 259.36462
260.0 0.00385 259.00711 259.34344
258.0 0.00388 259.01532 259.32852
256.0 0.00391 259.02374 259.31848
273.0 0.00366 259.03235 259.31256
257.0 0.00389 259.04111 259.31000
241.0 0.00415 259.05002 259.31015
279.0 0.00358 259.05905 259.31247
263.0 0.00380 259.06818 259.31653
248.0 0.00403 259.07736 259.32199
264.0 0.00379 259.08664 259.32870
278.0 0.00360 259.09595 259.33658
235.0 0.00426 259.10526 259.34549
271.0 0.00369 259.11456 259.35550
258.0 0.00388 259.12381 259.36676
286.0 0.003497 259.13300 259.37943
259.0 0.00386 259.14212 259.39352
284.0 0.00352 259.15115 259.40961
257.0 0.00389 259.16003 259.42719
259.0 0.00386 259.16876 259.44678
249.0 0.00402 259.17731 259.46793
262.0 0.00382 259.18567 259.47873
262.0 0.00382 259.19379 259.50293
269.0 0.00372 259.20166 259.52771
276.0 0.00362 259.20926 259.55237
283.0 0.00353 259.21655 259.57639
222.0 0.00450 259.22351 259.59894
294.0 0.003401 259.23010 259.62012
241.0 0.00415 259.23633 259.63983
263.0 0.00380 259.24213 259.65915
263.0 0.00380 259.24750 259.67886
266.0 0.00376 259.25241 259.70038
253.0 0.00395 259.25684 259.71951
242.0 0.00413 259.26074 259.75000
256.0 0.00391 259.26413 259.78836
286.0 0.003497 259.26694 259.83820
250.0 0.00400 259.26913 259.90475
250.0 0.00400 259.27072 259.99567
261.0 0.00383 259.27167 260.12140
261.0 0.00383 259.27194 260.29559
261.0 0.00383 259.27148 260.53510
286.0 0.003497 259.27036 260.85822
251.0 0.00398 259.26843 261.28452
268.0 0.00373 259.26572 261.82565
269.0 0.00372 259.26221 262.50821
261.0 0.00383 259.25787 263.33716
218.0 0.00459 259.25269 264.31891
266.0 0.00376 259.24658 265.44971
284.0 0.00352 259.23956 266.74927
282.0 0.00355 259.23163 268.21338
291.0 0.003436 259.22272 269.85526
261.0 0.00383 259.21283 271.67896
271.0 0.00369 259.20190 273.71298
257.0 0.00389 259.18994 275.98230
269.0 0.00372 259.17691 278.49210
261.0 0.00383 259.16278 281.21649
298.0 0.003356 259.14755 284.05688
256.0 0.00391 259.13116 286.84952
288.0 0.003472 259.11362 289.38651
285.0 0.00351 259.09491 291.41974
259.0 0.00386 259.07492 292.72992
281.0 0.00356 259.05374 293.17813
302.0 0.003311 259.03131 292.75436
259.0 0.00386 259.00757 291.57367
322.0 0.003106 258.98254 289.85672
269.0 0.00372 258.95618 287.85812
290.0 0.003448 258.92847 285.81168
308.0 0.003247 258.89938 283.88528
267.0 0.00375 258.86890 282.16348
271.0 0.00369 258.83704 280.64545
270.0 0.00370 258.80371 279.25961
279.0 0.00358 258.76895 277.89935
265.0 0.00377 258.73273 276.46140
286.0 0.003497 258.69501 274.88272
258.0 0.00388 258.65576 273.15506
296.0 0.003378 258.61502 271.31769
266.0 0.00376 258.57275 269.44193
273.0 0.00366 258.52887 267.60663
240.0 0.00417 258.48346 265.88589
244.0 0.00410 258.43646 264.33780
271.0 0.00369 258.38785 262.99750
273.0 0.00366 258.33765 261.87952
247.0 0.00405 258.28577 260.97736
282.0 0.00355 258.23227 260.27048
253.0 0.00395 258.17712 259.72925
238.0 0.00420 258.12030 259.32071
273.0 0.00366 258.06180 259.01328
266.0 0.00376 258.00162 258.77914
263.0 0.00380 257.93973 258.59622
257.0 0.00389 257.87616 258.44772
265.0 0.00377 257.81082 258.32162
282.0 0.00355 257.74384 258.20999
289.0 0.003460 257.67505 258.10809
267.0 0.00375 257.60458 258.01285
240.0 0.00417 257.53235 257.92288
279.0 0.00358 257.45834 257.83768
235.0 0.00426 257.38269 257.75729
266.0 0.00376 257.30518 257.68961
244.0 0.00410 257.22598 257.61923
251.0 0.00398 257.14493 257.55368
227.0 0.00441 257.06219 257.49243
258.0 0.00388 256.97775 257.43411
301.0 0.003322 256.89148 257.37650
282.0 0.00355 256.80350 257.31726
273.0 0.00366 256.71368 257.25339
264.0 0.00379 256.62216 257.18195
240.0 0.00417 256.52899 257.10022
243.0 0.00412 256.43396 257.00674
239.0 0.00418 256.33725 256.90204
252.0 0.00397 256.23877 256.79181
265.0 0.00377 256.13858 256.67123
258.0 0.00388 256.03680 256.54733
235.0 0.00426 255.93317 256.42255
218.0 0.00459 255.82791 256.29868
226.0 0.00442 255.72092 256.17639
273.0 0.00366 255.61227 256.05573
243.0 0.00412 255.50212 255.93582
253.0 0.00395 255.39014 255.81503
240.0 0.00417 255.27663 255.69261
259.0 0.00386 255.16142 255.56792
270.0 0.00370 255.04465 255.44193
299.0 0.003344 254.92642 255.31738
242.0 0.00413 254.80646 255.19580
260.0 0.00385 254.68506 255.08257
297.0 0.003367 254.56204 254.98352
249.0 0.00402 254.43756 254.90654
273.0 0.00366 254.31172 254.86151
259.0 0.00386 254.18425 254.85992
252.0 0.00397 254.05544 254.91498
258.0 0.00388 253.92511 255.04016
236.0 0.00424 253.79346 255.24696
254.0 0.00394 253.66055 255.54243
286.0 0.003497 253.52612 255.92781
248.0 0.00403 253.39049 256.39343
273.0 0.00366 253.25348 256.91901
263.0 0.00380 253.11526 257.47174
262.0 0.00382 252.97595 258.00867
275.0 0.00364 252.83527 258.48065
278.0 0.00360 252.69354 258.83405
258.0 0.00388 252.55049 259.02380
270.0 0.00370 252.40648 259.01895
269.0 0.00372 252.26144 258.83130
308.0 0.003247 252.11525 258.48764
261.0 0.00383 251.96817 258.03845
249.0 0.00402 251.81993 257.53732
271.0 0.00369 251.67090 257.03192
257.0 0.00389 251.52104 256.55542
263.0 0.00380 251.37016 256.12320
263.0 0.00380 251.21861 255.73502
265.0 0.00377 251.06610 255.36266
246.0 0.00407 250.91292 255.00522
281.0 0.00356 250.75911 254.61374
282.0 0.00355 250.60449 254.19258
264.0 0.00379 250.44939 253.72652
294.0 0.003401 250.29355 253.22263
252.0 0.00397 250.13719 252.69696
259.0 0.00386 249.98050 252.16833
263.0 0.00380 249.82307 251.65318
257.0 0.00389 249.66542 251.16762
246.0 0.00407 249.50725 250.72130
249.0 0.00402 249.34875 250.31490
261.0 0.00383 249.19016 249.96158
269.0 0.00372 249.03101 249.64754
219.0 0.00457 248.87187 249.37799
249.0 0.00402 248.71242 249.14157
247.0 0.00405 248.55287 248.93262
213.0 0.00469 248.39343 248.74626
247.0 0.00405 248.23370 248.57869
230.0 0.00435 248.07411 248.42932
251.0 0.00398 247.91447 248.29962
235.0 0.00426 247.75499 248.19472
246.0 0.00407 247.59579 248.12306
249.0 0.00402 247.43655 248.09686
275.0 0.00364 247.27768 248.13235
226.0 0.00442 247.11896 248.24881
238.0 0.00420 246.96062 248.46658
249.0 0.00402 246.80280 248.80481
263.0 0.00380 246.64517 249.27902
248.0 0.00403 246.48810 249.89389
229.0 0.00437 246.33142 250.64319
262.0 0.00382 246.17534 251.50233
248.0 0.00403 246.01999 252.42928
268.0 0.00373 245.86507 253.36766
243.0 0.00412 245.71091 254.24301
268.0 0.00373 245.55734 254.97696
255.0 0.00392 245.40460 255.49138
256.0 0.00391 245.25281 255.72890
260.0 0.00385 245.10164 255.66910
264.0 0.00379 244.95146 255.33688
263.0 0.00380 244.80208 254.79504
290.0 0.003448 244.65372 254.12592
268.0 0.00373 244.50650 253.41034
235.0 0.00426 244.36012 252.71173
241.0 0.00415 244.21492 252.07376
217.0 0.00461 244.07071 251.51154
227.0 0.00441 243.92772 251.01726
259.0 0.00386 243.78604 250.56236
263.0 0.00380 243.64540 250.10777
240.0 0.00417 243.50610 249.61853
254.0 0.00394 243.36800 249.07333
241.0 0.00415 243.23131 248.47249
275.0 0.00364 243.09601 247.83952
232.0 0.00431 242.96196 247.18579
240.0 0.00417 242.82947 246.54674
248.0 0.00403 242.69823 245.94572
233.0 0.00429 242.56859 245.40176
243.0 0.00412 242.44052 244.92473
251.0 0.00398 242.31381 244.51482
214.0 0.00467 242.18880 244.16685
234.0 0.00427 242.06525 243.86823
232.0 0.00431 241.94331 243.60516
220.0 0.00455 241.82309 243.36449
253.0 0.00395 241.70438 243.13606
233.0 0.00429 241.58745 242.91896
235.0 0.00426 241.47209 242.70564
232.0 0.00431 241.35847 242.50107
241.0 0.00415 241.24664 242.30748
234.0 0.00427 241.13640 242.12604
248.0 0.00403 241.02805 241.95743
248.0 0.00403 240.92133 241.79990
229.0 0.00437 240.81641 241.65074
222.0 0.00450 240.71338 241.50601
256.0 0.00391 240.61194 241.36118
245.0 0.00408 240.51245 241.21370
256.0 0.00391 240.41466 241.06175
251.0 0.00398 240.31870 240.90620
238.0 0.00420 240.22464 240.74911
209.0 0.00478 240.13226 240.59273
253.0 0.00395 240.04176 240.43994
238.0 0.00420 239.95300 240.28828
222.0 0.00450 239.86609 240.14903
231.0 0.00433 239.78107 240.01874
250.0 0.00400 239.69774 239.89740
238.0 0.00420 239.61624 239.78523
223.0 0.00448 239.53647 239.68130
238.0 0.00420 239.45853 239.58496
247.0 0.00405 239.38240 239.49510
230.0 0.00435 239.30795 239.41057
242.0 0.00413 239.23528 239.33061
259.0 0.00386 239.16429 239.25433
238.0 0.00420 239.09503 239.17891
269.0 0.00372 239.02754 239.10870
220.0 0.00455 238.96164 239.04083
254.0 0.00394 238.89745 238.97513
231.0 0.00433 238.83482 238.91150
231.0 0.00433 238.77386 238.84978
260.0 0.00385 238.71454 238.79001
265.0 0.00377 238.65671 238.73195
254.0 0.00394 238.60045 238.67572
231.0 0.00433 238.54567 238.62120
262.0 0.00382 238.49239 238.56834
224.0 0.00446 238.44063 238.51729
230.0 0.00435 238.39021 238.46779
202.0 0.00495 238.34122 238.41997
245.0 0.00408 238.29358 238.37372
248.0 0.00403 238.24725 238.32906
254.0 0.00394 238.20230 238.28609
251.0 0.00398 238.15851 238.24448
235.0 0.00426 238.11600 238.20457
243.0 0.00412 238.07463 238.16608
245.0 0.00408 238.03442 238.12918
224.0 0.00446 237.99538 238.09383
222.0 0.00450 237.95732 238.05995
263.0 0.00380 237.92035 238.02773
243.0 0.00412 237.88432 237.99710
233.0 0.00429 237.84927 237.96812
254.0 0.00394 237.81514 237.94115
254.0 0.00394 237.78183 237.91628
246.0 0.00407 237.74937 237.89412
218.0 0.00459 237.71765 237.87537
253.0 0.00395 237.68669 237.86154
239.0 0.00418 237.65643 237.85455
262.0 0.00382 237.62680 237.85782
241.0 0.00415 237.59778 237.87596
261.0 0.00383 237.56927 237.91574
234.0 0.00427 237.54132 237.97813
255.0 0.00392 237.51384 238.09015
231.0 0.00433 237.48677 238.25739
249.0 0.00402 237.46008 238.49387
242.0 0.00413 237.43372 238.81430
218.0 0.00459 237.40765 239.23024
253.0 0.00395 237.38187 239.74820
240.0 0.00417 237.35625 240.36847
252.0 0.00397 237.33083 241.07878
267.0 0.00375 237.30548 241.85760
240.0 0.00417 237.28026 242.66922
249.0 0.00402 237.25510 243.46768
259.0 0.00386 237.22990 244.19734
237.0 0.00422 237.20470 244.81276
250.0 0.00400 237.17938 245.25029
238.0 0.00420 237.15399 245.47891
250.0 0.00400 237.12848 245.49107
273.0 0.00366 237.10274 245.30972
231.0 0.00433 237.07681 244.98189
257.0 0.00389 237.05063 244.56467
246.0 0.00407 237.02417 244.11414
251.0 0.00398 236.99745 243.67519
242.0 0.00413 236.97035 243.27592
211.0 0.00474 236.94292 242.92871
234.0 0.00427 236.91510 242.62894
251.0 0.00398 236.88686 242.35291
249.0 0.00402 236.85825 242.07860
249.0 0.00402 236.82915 241.77229
239.0 0.00418 236.79961 241.41832
239.0 0.00418 236.76958 241.01088
243.0 0.00412 236.73906 240.55803
249.0 0.00402 236.70810 240.07629
252.0 0.00397 236.67656 239.58435
204.0 0.00490 236.64455 239.10294
233.0 0.00429 236.61200 238.64856
245.0 0.00408 236.57892 238.23491
224.0 0.00446 236.54536 237.87024
224.0 0.00446 236.51125 237.55769
232.0 0.00431 236.47662 237.29594
234.0 0.00427 236.44150 237.08081
243.0 0.00412 236.40587 236.90643
229.0 0.00437 236.36980 236.76576
225.0 0.00444 236.33321 236.65147
241.0 0.00415 236.29619 236.55753
255.0 0.00392 236.25871 236.47839
198.0 0.00505 236.22084 236.40999
237.0 0.00422 236.18263 236.34917
249.0 0.00402 236.14401 236.29350
207.0 0.00483 236.10509 236.24158
255.0 0.00392 236.06584 236.19220
234.0 0.00427 236.02637 236.14471
231.0 0.00433 235.98668 236.09869
225.0 0.00444 235.94679 236.05376
252.0 0.00397 235.90680 236.00986
234.0 0.00427 235.86667 235.96689
270.0 0.00370 235.82652 235.92487
217.0 0.00461 235.78641 235.88393
222.0 0.00450 235.74632 235.84413
219.0 0.00457 235.70639 235.80566
239.0 0.00418 235.66661 235.77162
245.0 0.00408 235.62706 235.73619
254.0 0.00394 235.58783 235.70238
215.0 0.00465 235.54893 235.67010
234.0 0.00427 235.51051 235.63930
249.0 0.00402 235.47255 235.60962
211.0 0.00474 235.43515 235.58073
264.0 0.00379 235.39841 235.55228
250.0 0.00400 235.36237 235.52371
253.0 0.00395 235.32713 235.49466
231.0 0.00433 235.29274 235.46477
236.0 0.00424 235.25926 235.43390
250.0 0.00400 235.22688 235.40244
249.0 0.00402 235.19551 235.37218
251.0 0.00398 235.16536 235.34090
210.0 0.00476 235.13644 235.31064
230.0 0.00435 235.10889 235.28210
237.0 0.00422 235.08275 235.25580
236.0 0.00424 235.05809 235.23206
225.0 0.00444 235.03502 235.21115
226.0 0.00442 235.01361 235.19330
223.0 0.00448 234.99394 235.17874
255.0 0.00392 234.97610 235.17174
241.0 0.00415 234.96016 235.16521
226.0 0.00442 234.94618 235.16438
260.0 0.00385 234.93425 235.17148
229.0 0.00437 234.92447 235.18961
251.0 0.00398 234.91687 235.22318
268.0 0.00373 234.91153 235.27800
243.0 0.00412 234.90854 235.36116
241.0 0.00415 234.90793 235.48126
270.0 0.00370 234.90979 235.64752
214.0 0.00467 234.91417 235.86905
217.0 0.00461 234.92113 236.15474
232.0 0.00431 234.93069 236.50960
222.0 0.00450 234.94295 236.93797
243.0 0.00412 234.95792 237.43155
220.0 0.00455 234.97560 237.98157
230.0 0.00435 234.99611 238.57202
234.0 0.00427 235.01942 239.17796
247.0 0.00405 235.04556 239.77147
237.0 0.00422 235.07457 240.31993
212.0 0.00472 235.10638 240.79193
216.0 0.00463 235.14113 241.16327
260.0 0.00385 235.17870 241.42023
223.0 0.00448 235.21915 241.56059
236.0 0.00424 235.26242 241.61798
236.0 0.00424 235.30844 241.61601
262.0 0.00382 235.35733 241.58661
234.0 0.00427 235.40891 241.55627
250.0 0.00400 235.46321 241.54170
256.0 0.00391 235.52014 241.54782
244.0 0.00410 235.57957 241.56744
273.0 0.00366 235.64159 241.58376
218.0 0.00459 235.70595 241.57361
272.0 0.00368 235.77272 241.51416
267.0 0.00375 235.84163 241.38916
224.0 0.00446 235.91264 241.19115
240.0 0.00417 235.98570 240.93402
257.0 0.00389 236.06056 240.63194
270.0 0.00370 236.13725 240.30614
230.0 0.00435 236.21542 239.97833
259.0 0.00386 236.29498 239.66714
242.0 0.00413 236.37589 239.38506
246.0 0.00407 236.45778 239.14000
242.0 0.00413 236.54065 238.93318
225.0 0.00444 236.62419 238.76170
238.0 0.00420 236.70816 238.61967
241.0 0.00415 236.79250 238.50070
236.0 0.00424 236.87682 238.40071
249.0 0.00402 236.96109 238.31734
254.0 0.00394 237.04492 238.25090
273.0 0.00366 237.12804 238.20331
208.0 0.00481 237.21043 238.17796
227.0 0.00441 237.29160 238.17943
233.0 0.00429 237.37146 238.21292
211.0 0.00474 237.44968 238.28377
204.0 0.00490 237.52591 238.39697
259.0 0.00386 237.60014 238.55692
246.0 0.00407 237.67184 238.76556
227.0 0.00441 237.74095 239.02333
226.0 0.00442 237.80711 239.32680
243.0 0.00412 237.87003 239.66881
236.0 0.00424 237.92961 240.03931
254.0 0.00394 237.98549 240.42276
236.0 0.00424 238.03751 240.80150
235.0 0.00426 238.08539 241.15448
253.0 0.00395 238.12891 241.46014
237.0 0.00422 238.16798 241.69945
252.0 0.00397 238.20235 241.85745
240.0 0.00417 238.23192 241.92940
260.0 0.00385 238.25652 241.92117
266.0 0.00376 238.27603 241.84906
248.0 0.00403 238.29047 241.73515
264.0 0.00379 238.29974 241.60374
255.0 0.00392 238.30385 241.47736
223.0 0.00448 238.30286 241.37531
227.0 0.00441 238.29684 241.31168
223.0 0.00448 238.28595 241.29521
264.0 0.00379 238.27036 241.32918
219.0 0.00457 238.25032 241.41193
255.0 0.00392 238.22618 241.53775
236.0 0.00424 238.19833 241.69885
248.0 0.00403 238.16716 241.88724
242.0 0.00413 238.13330 242.09483
241.0 0.00415 238.09734 242.31204
218.0 0.00459 238.06000 242.52802
248.0 0.00403 238.02219 242.72868
230.0 0.00435 237.98473 242.89764
264.0 0.00379 237.94875 243.01601
255.0 0.00392 237.91541 243.06682
264.0 0.00379 237.88606 243.03825
241.0 0.00415 237.86215 242.92870
228.0 0.00439 237.84528 242.74811
251.0 0.00398 237.83725 242.51772
231.0 0.00433 237.84003 242.26180
236.0 0.00424 237.85571 242.00743
247.0 0.00405 237.88667 241.77782
223.0 0.00448 237.93547 241.58908
251.0 0.00398 238.00482 241.45216
238.0 0.00420 238.09789 241.37024
249.0 0.00402 238.21771 241.34003
227.0 0.00441 238.36784 241.35373
261.0 0.00383 238.55234 241.40132
245.0 0.00408 238.77490 241.47346
263.0 0.00380 239.04039 241.56647
224.0 0.00446 239.35326 241.68251
253.0 . . .
loop_
_refln_index_h
_refln_index_k
_refln_index_l
_pd_refln_wavelength_id
_refln_observed_status
_refln_F_squared_meas
_refln_F_squared_calc
_refln_phase_calc
_refln_d_spacing
_gsas_i100_meas
0 0 1 1 o 389.992 405.436 0.00 7.39233 30.35
0 0 1 2 o 382.371 405.436 0.00 7.39233 14.82
1 0 1 1 o 158.942 155.893 180.00 4.77390 28.74
1 0 1 2 o 159.658 155.893 180.00 4.77390 14.36
1 1 0 1 o 108.709 86.115 180.00 4.42122 7.90
1 1 0 2 o 107.513 86.115 180.00 4.42122 3.88
1 1 1 1 o 956.649 942.499 0.00 3.79437 100.00
1 1 1 2 o 970.768 942.499 0.00 3.79437 50.44
0 0 2 1 o 633.159 588.573 0.00 3.69617 11.46
0 0 2 2 o 575.499 588.573 0.00 3.69617 5.21
1 0 2 1 o 75.694 61.903 180.00 3.18180 4.67
1 0 2 2 o 72.352 61.903 180.00 3.18180 2.22
2 0 0 1 o 2340.896 2291.700 180.00 3.12627 57.28
2 0 0 2 o 2254.662 2291.700 180.00 3.12627 27.47
2 0 1 1 o 267.226 255.595 180.00 2.87937 18.64
2 0 1 2 o 256.972 255.595 180.00 2.87937 8.94
1 1 2 1 o 394.466 372.021 0.00 2.83574 18.41
1 1 2 2 o 383.364 372.021 0.00 2.83574 8.91
2 1 1 1 o 25.456 35.347 0.00 2.61537 2.43
2 1 1 2 o 22.184 35.347 0.00 2.61537 1.06
0 0 3 1 o 661.190 381.840 0.00 2.46411 4.84
0 0 3 2 o 658.847 381.840 0.00 2.46411 2.40
2 0 2 1 o 235.365 255.887 180.00 2.38695 10.11
2 0 2 2 o 216.586 255.887 180.00 2.38695 4.65
1 0 3 1 o 27.362 13.353 180.00 2.29251 0.78
1 0 3 2 o 22.755 13.353 180.00 2.29251 0.32
2 1 2 1 o 65.080 56.141 0.00 2.22998 4.01
2 1 2 2 o 61.582 56.141 0.00 2.22998 1.89
2 2 0 1 o 807.796 882.490 0.00 2.21061 14.47
2 2 0 2 o 782.156 882.490 0.00 2.21061 6.97
1 1 3 1 o 102.120 133.649 0.00 2.15239 2.74
1 1 3 2 o 98.411 133.649 0.00 2.15239 1.32
2 2 1 1 o 240.034 165.541 0.00 2.11794 7.86
2 2 1 2 o 219.247 165.541 0.00 2.11794 3.59
3 0 1 1 o -0.165 9.732 0.00 2.00598 0.00
3 0 1 2 o -0.165 9.732 0.00 2.00598 0.00
3 1 0 1 o 18.488 0.202 0.00 1.97723 0.33
3 1 0 2 o 12.337 0.202 0.00 1.97723 0.11
2 0 3 1 o 242.185 179.526 180.00 1.93524 5.28
2 0 3 2 o 201.923 179.526 180.00 1.93524 2.21
3 1 1 1 o 135.632 134.412 180.00 1.91008 6.00
3 1 1 2 o 116.176 134.412 180.00 1.91008 2.58
2 2 2 1 o 154.655 124.378 0.00 1.89719 3.47
2 2 2 2 o 141.572 124.378 0.00 1.89719 1.59
2 1 3 1 o 2.857 4.194 0.00 1.84871 0.10
0 0 4 1 o 10.533 12.519 0.00 1.84808 0.05
2 1 3 2 o 2.932 4.194 0.00 1.84871 0.05
0 0 4 2 o 6.116 12.519 0.00 1.84808 0.02
3 0 2 1 o 11.244 41.491 0.00 1.81545 0.28
3 0 2 2 o 7.381 41.491 0.00 1.81545 0.09
1 0 4 1 o 8.650 1.187 180.00 1.77229 0.13
1 0 4 2 o 6.152 1.187 180.00 1.77229 0.05
3 1 2 1 o 120.071 91.837 180.00 1.74345 4.89
3 1 2 2 o 112.043 91.837 180.00 1.74345 2.28
1 1 4 1 o 219.198 240.319 0.00 1.70511 3.20
1 1 4 2 o 224.732 240.319 0.00 1.70511 1.63
3 2 1 1 o 3.809 1.217 180.00 1.68831 0.13
3 2 1 2 o 6.073 1.217 180.00 1.68831 0.10
2 2 3 1 o 96.704 91.805 0.00 1.64548 1.33
2 2 3 2 o 92.729 91.805 0.00 1.64548 0.64
3 0 3 1 o 0.285 1.682 0.00 1.59130 0.01
2 0 4 1 o 0.464 4.692 180.00 1.59090 0.02
3 0 3 2 o 1.069 1.682 0.00 1.59130 0.01
2 0 4 2 o 2.197 4.692 180.00 1.59090 0.02
3 2 2 1 o 14.952 36.303 180.00 1.56994 0.44
3 2 2 2 o 23.649 36.303 180.00 1.56994 0.34
4 0 0 1 o 233.078 220.820 0.00 1.56314 1.16
4 0 0 2 o 224.479 220.820 0.00 1.56314 0.55
3 1 3 1 o 70.968 40.805 180.00 1.54214 1.97
2 1 4 1 o 2.197 1.286 0.00 1.54177 0.05
3 1 3 2 o 57.148 40.805 180.00 1.54214 0.80
2 1 4 2 o 1.712 1.286 0.00 1.54177 0.02
4 0 1 1 o 98.889 56.080 0.00 1.52932 1.18
4 0 1 2 o 79.835 56.080 0.00 1.52932 0.48
4 1 1 1 o -0.016 0.463 180.00 1.48553 0.00
4 1 1 2 o 2.061 0.463 180.00 1.48553 0.02
0 0 5 1 o -2.095 14.338 0.00 1.47847 0.00
0 0 5 2 o 83.829 14.338 0.00 1.47847 0.09
3 3 0 1 o 24.591 2.828 0.00 1.47374 0.16
3 3 0 2 o 4.009 2.828 0.00 1.47374 0.02
3 3 1 1 o 32.443 23.376 0.00 1.44530 0.43
3 3 1 2 o 26.014 23.376 0.00 1.44530 0.18
4 0 2 1 o 40.819 38.635 0.00 1.43968 0.56
1 0 5 1 o 9.233 8.073 180.00 1.43879 0.08
4 0 2 2 o 50.428 38.635 0.00 1.43968 0.34
1 0 5 2 o 11.409 8.073 180.00 1.43879 0.05
3 2 3 2 o -0.016 0.370 180.00 1.41816 0.00
2 2 4 2 o -0.729 1.534 0.00 1.41787 0.00
3 2 3 1 o -0.016 0.370 180.00 1.41816 0.00
2 2 4 1 o -0.729 1.534 0.00 1.41787 0.00
4 1 2 1 o 11.089 23.272 180.00 1.40297 0.26
1 1 5 1 o 36.020 64.924 0.00 1.40215 0.34
4 1 2 2 o 24.922 23.272 180.00 1.40297 0.28
1 1 5 2 o 81.191 64.924 0.00 1.40215 0.36
4 2 0 1 o 137.536 102.118 180.00 1.39811 1.25
4 2 0 2 o 147.566 102.118 180.00 1.39811 0.66
3 0 4 1 o 3.736 0.965 0.00 1.38276 0.04
3 0 4 2 o 2.822 0.965 0.00 1.38276 0.01
4 2 1 1 o 81.018 41.832 180.00 1.37376 1.53
4 2 1 2 o 69.841 41.832 180.00 1.37376 0.66
3 3 2 1 o 44.983 29.283 0.00 1.36894 0.50
3 3 2 2 o 51.785 29.283 0.00 1.36894 0.29
3 1 4 1 o 61.312 86.945 180.00 1.35014 1.14
3 1 4 2 o 59.760 86.945 180.00 1.35014 0.56
2 0 5 1 o -1.316 8.875 180.00 1.33654 0.00
2 0 5 2 o -1.316 8.875 180.00 1.33654 0.00
4 0 3 1 o 18.613 28.124 0.00 1.31995 0.22
4 0 3 2 o 21.245 28.124 0.00 1.31995 0.12
4 2 2 1 o 41.273 21.689 180.00 1.30769 0.78
2 1 5 1 o 5.027 2.816 0.00 1.30702 0.07
4 2 2 2 o 32.528 21.689 180.00 1.30769 0.31
2 1 5 2 o 3.853 2.816 0.00 1.30702 0.03
4 1 3 1 o 2.575 0.287 180.00 1.29149 0.05
4 1 3 2 o 0.818 0.287 180.00 1.29149 0.01
3 3 3 1 o 37.685 14.498 0.00 1.26479 0.31
3 2 4 1 o 2.384 0.974 180.00 1.26459 0.03
3 3 3 2 o 25.366 14.498 0.00 1.26479 0.11
3 2 4 2 o 1.535 0.974 180.00 1.26459 0.01
4 3 1 1 o 0.042 0.453 180.00 1.23299 0.00
5 0 1 1 o 0.002 0.048 180.00 1.23299 0.00
0 0 6 1 o 3.383 4.605 0.00 1.23206 0.01
4 3 1 2 o 0.360 0.453 180.00 1.23299 0.00
5 0 1 2 o 0.038 0.048 180.00 1.23299 0.00
0 0 6 2 o 6.205 4.605 0.00 1.23206 0.00
2 2 5 1 o 8.231 5.643 0.00 1.22894 0.06
5 1 0 1 o 1.738 0.074 0.00 1.22623 0.01
2 2 5 2 o 53.091 5.643 0.00 1.22894 0.17
5 1 0 2 o 3.040 0.074 0.00 1.22623 0.01
4 2 3 1 o 3.599 15.945 180.00 1.21601 0.08
4 2 3 2 o 21.860 15.945 180.00 1.21601 0.18
5 1 1 1 o 20.886 9.487 0.00 1.20970 0.27
1 0 6 1 o 58.305 32.484 0.00 1.20881 0.33
5 1 1 2 o 13.053 9.487 0.00 1.20970 0.09
3 0 5 1 o 1.440 1.147 0.00 1.20587 0.01
1 0 6 2 o 40.597 32.484 0.00 1.20881 0.12
3 0 5 2 o 2.302 1.147 0.00 1.20587 0.01
4 0 4 1 o 1.582 0.063 0.00 1.19348 0.01
4 0 4 2 o 0.065 0.063 0.00 1.19348 0.00
1 1 6 1 o 22.699 22.323 0.00 1.18683 0.14
5 0 2 1 o 9.410 10.740 180.00 1.18455 0.07
4 3 2 1 o 15.260 17.414 0.00 1.18455 0.24
3 1 5 1 o 18.831 20.809 180.00 1.18405 0.26
1 1 6 2 o 20.457 22.323 0.00 1.18683 0.06
5 0 2 2 o 11.031 10.740 180.00 1.18455 0.04
4 3 2 2 o 17.886 17.414 0.00 1.18455 0.14
3 1 5 2 o 21.758 20.809 180.00 1.18405 0.15
4 1 4 1 o -0.013 0.512 180.00 1.17231 0.00
4 1 4 2 o 0.447 0.512 180.00 1.17231 0.00
5 1 2 1 o 28.814 8.923 0.00 1.16385 0.43
5 1 2 2 o 34.252 8.923 0.00 1.16385 0.25
3 3 4 1 o 37.398 36.272 0.00 1.15223 0.24
3 3 4 2 o 12.637 36.272 0.00 1.15223 0.04
5 2 1 1 o 0.001 0.136 180.00 1.14701 0.00
2 0 6 1 o -0.538 3.429 180.00 1.14625 0.00
5 2 1 2 o 0.001 0.136 180.00 1.14701 0.00
2 0 6 2 o -0.538 3.429 180.00 1.14625 0.00
2 1 6 1 o 40.874 16.848 180.00 1.12746 0.46
3 2 5 1 o 0.184 0.216 180.00 1.12508 0.00
2 1 6 2 o 8.370 16.848 180.00 1.12746 0.05
3 2 5 2 o -0.002 0.216 180.00 1.12508 0.00
4 3 3 1 o 0.001 0.000 180.00 1.11513 0.00
5 0 3 1 o 3.711 0.169 180.00 1.11513 0.03
4 2 4 1 o 0.964 0.008 0.00 1.11499 0.01
4 3 3 2 o 0.000 0.000 180.00 1.11513 0.00
5 0 3 2 o 1.683 0.169 180.00 1.11513 0.01
4 2 4 2 o 0.479 0.008 0.00 1.11499 0.00
5 2 2 1 o 8.222 10.382 0.00 1.10770 0.11
4 4 0 1 o 32.339 13.301 0.00 1.10530 0.12
5 2 2 2 o 25.512 10.382 0.00 1.10770 0.16
4 4 0 2 o 15.553 13.301 0.00 1.10530 0.03
5 1 3 1 o 8.341 5.214 0.00 1.09781 0.13
5 1 3 2 o 4.628 5.214 0.00 1.09781 0.04
4 4 1 1 o 15.059 14.515 0.00 1.09315 0.12
4 4 1 2 o 21.278 14.515 0.00 1.09315 0.08
