#------------------------------------------------------------------------------
#$Date: 2016-02-18 17:37:37 +0200 (Thu, 18 Feb 2016) $
#$Revision: 176729 $
#$URL: svn://www.crystallography.net/cod/cif/1/51/67/1516795.cif $
#------------------------------------------------------------------------------
#
# This file is available in the Crystallography Open Database (COD),
# http://www.crystallography.net/
#
# All data on this site have been placed in the public domain by the
# contributors.
#
data_1516795
loop_
_publ_author_name
'Cao, Dennis'
'Hong, Michael'
'Blackburn, Anthea K.'
'Liu, Zhichang'
'Holcroft, James M.'
'Stoddart, J. Fraser'
_publ_section_title
;
 Two-point halogen bonding between 3,6-dihalopyromellitic diimides
;
_journal_issue                   11
_journal_name_full               'Chem. Sci.'
_journal_page_first              4242
_journal_paper_doi               10.1039/C4SC00999A
_journal_volume                  5
_journal_year                    2014
_chemical_formula_moiety         'C10 H2 I2 N2 O4, C5 H9 N O, H2 O'
_chemical_formula_sum            'C15 H13 I2 N3 O6'
_chemical_formula_weight         585.08
_chemical_name_systematic
;
 ?
;
_space_group_crystal_system      triclinic
_space_group_IT_number           2
_space_group_name_Hall           '-P 1'
_space_group_name_H-M_alt        'P -1'
_symmetry_space_group_name_Hall  '-P 1'
_symmetry_space_group_name_H-M   'P -1'
_atom_sites_solution_hydrogens   mixed
_atom_sites_solution_primary     dual
_audit_creation_date             2014-01-02
_audit_creation_method
;
Olex2 1.2
(compiled 2013.12.10 svn.r2853 for OlexSys, GUI svn.r4736)
;
_cell_angle_alpha                93.245(3)
_cell_angle_beta                 102.205(3)
_cell_angle_gamma                99.769(3)
_cell_formula_units_Z            2
_cell_length_a                   7.2221(5)
_cell_length_b                   9.4868(7)
_cell_length_c                   13.2822(9)
_cell_measurement_reflns_used    4019
_cell_measurement_temperature    100(2)
_cell_measurement_theta_max      67.970
_cell_measurement_theta_min      3.421
_cell_volume                     872.51(11)
_computing_molecular_graphics    'Olex2 (Dolomanov et al., 2009)'
_computing_publication_material  'Olex2 (Dolomanov et al., 2009)'
_computing_structure_refinement  'ShelXL (Sheldrick, 2008)'
_computing_structure_solution    'ShelXD (Sheldrick, 2008)'
_diffrn_ambient_temperature      100.0
_diffrn_measured_fraction_theta_full 0.990
_diffrn_measured_fraction_theta_max 0.984
_diffrn_measurement_device_type  'Bruker APEX-II CCD'
_diffrn_measurement_method       '\f and \w scans'
_diffrn_radiation_monochromator  graphite
_diffrn_radiation_type           CuK\a
_diffrn_radiation_wavelength     1.54178
_diffrn_reflns_av_unetI/netI     0.0340
_diffrn_reflns_Laue_measured_fraction_full 0.990
_diffrn_reflns_Laue_measured_fraction_max 0.984
_diffrn_reflns_limit_h_max       8
_diffrn_reflns_limit_h_min       -8
_diffrn_reflns_limit_k_max       11
_diffrn_reflns_limit_k_min       -11
_diffrn_reflns_limit_l_max       15
_diffrn_reflns_limit_l_min       0
_diffrn_reflns_number            14244
_diffrn_reflns_point_group_measured_fraction_full 0.990
_diffrn_reflns_point_group_measured_fraction_max 0.984
_diffrn_reflns_theta_full        67.679
_diffrn_reflns_theta_max         68.010
_diffrn_reflns_theta_min         3.420
_diffrn_standards_number         0
_exptl_absorpt_coefficient_mu    28.676
_exptl_absorpt_correction_T_max  1
_exptl_absorpt_correction_type   multi-scan
_exptl_absorpt_process_details
;
 TWINABS-2012/1 (Bruker,2012) was used for absorption correction.
 
For component 1:
 wR2(int) was 0.0905 before and 0.0436 after correction.
 The Ratio of minimum to maximum transmission not present.
 The \l/2 correction factor is Not present
 
For component 2:
 wR2(int) was 0.1174 before and 0.0503 after correction.
 The Ratio of minimum to maximum transmission is 0.56.
 The \l/2 correction factor is Not present

Final HKLF 4 output contains 14075 reflections, Rint = 0.0463
 (10782 with I > 3sig(I), Rint = 0.0448)
;
_exptl_crystal_colour            yellow
_exptl_crystal_colour_primary    yellow
_exptl_crystal_density_diffrn    2.227
_exptl_crystal_description       needle
_exptl_crystal_F_000             556
_exptl_crystal_size_max          0.108
_exptl_crystal_size_mid          0.049
_exptl_crystal_size_min          0.022
_exptl_transmission_factor_max   0.753015
_exptl_transmission_factor_min   0.418991
_refine_diff_density_max         1.742
_refine_diff_density_min         -1.095
_refine_diff_density_rms         0.204
_refine_ls_extinction_method     none
_refine_ls_goodness_of_fit_ref   1.097
_refine_ls_hydrogen_treatment    mixed
_refine_ls_matrix_type           full
_refine_ls_number_parameters     252
_refine_ls_number_reflns         3131
_refine_ls_number_restraints     0
_refine_ls_restrained_S_all      1.097
_refine_ls_R_factor_all          0.0436
_refine_ls_R_factor_gt           0.0383
_refine_ls_shift/su_max          0.001
_refine_ls_shift/su_mean         0.000
_refine_ls_structure_factor_coef Fsqd
_refine_ls_weighting_details
'w=1/[\s^2^(Fo^2^)+(0.0556P)^2^+7.2499P] where P=(Fo^2^+2Fc^2^)/3'
_refine_ls_weighting_scheme      calc
_refine_ls_wR_factor_gt          0.1057
_refine_ls_wR_factor_ref         0.1098
_reflns_Friedel_coverage         0.000
_reflns_number_gt                2863
_reflns_number_total             3131
_reflns_threshold_expression     'I > 2\s(I)'
_cod_data_source_file            c4sc00999a1.cif
_cod_data_source_block           p-1
_cod_depositor_comments
'Adding full bibliography for 1516792--1516797.cif.'
_cod_database_code               1516795
#BEGIN Tags that were not found in dictionaries:
_shelxl_version_number           2013-4
_shelx_space_group_comment
;
The symmetry employed for this shelxl refinement is uniquely defined
by the following loop, which should always be used as a source of
symmetry information in preference to the above space-group names.
They are only intended as comments.
;
_shelx_estimated_absorpt_t_max   0.571
_shelx_estimated_absorpt_t_min   0.148
_olex2_refinement_description
;
1. Fixed Uiso
 At 1.2 times of:
  All C(H,H) groups
 At 1.5 times of:
  All C(H,H,H) groups
2.a Secondary CH2 refined with riding coordinates:
 C3S(H3SA,H3SB), C4S(H4SA,H4SB), C1S(H1SA,H1SB)
2.b Idealised Me refined as rotating group:
 C5S(H5SA,H5SB,H5SC)
;
_shelx_res_file
;
TITL P-1 in P-1
CELL 1.54178 7.2221 9.4868 13.2822 93.245 102.205 99.769
ZERR 2 0.0005 0.0007 0.0009 0.003 0.003 0.003
LATT 1

SFAC C H I N O
UNIT 30 26 4 6 12
EQIV $1 2-X,2-Y,1-Z
EQIV $2 1-X,1-Y,1-Z
EQIV $3 +X,+Y,-1+Z

L.S. 20 0 0
PLAN  5
SIZE 0.022 0.049 0.108
TEMP -173.15
HTAB N1 O2S_$1
HTAB N2 O1S_$2
HTAB O2S O1_$3
HTAB O2S O1S_$2
REM Best SHELXD solution FINAL CC 87.83
REM Fragments: 3 2 2 1 1 1 1 1 1
MORE -1
BOND $H
fmap 2 53
acta
CONF
OMIT -5 2 8
REM <HKL>P-1.hkl</HKL>

WGHT    0.055600    7.249899
FVAR       0.09592
I1    3    0.806740    0.499561    0.651672    11.00000    0.02061    0.01130 =
         0.01302    0.00262    0.00577    0.00354
I2    3    0.730718    1.162969    0.445141    11.00000    0.01513    0.01149 =
         0.01471    0.00310    0.00488    0.00248
O1    5    0.905503    0.771629    0.832660    11.00000    0.03213    0.01758 =
         0.01041   -0.00031    0.00426    0.00169
O2    5    0.847860    1.197747    0.699093    11.00000    0.04352    0.01507 =
         0.02057    0.00039    0.00618    0.00491
O3    5    0.711410    0.466476    0.399554    11.00000    0.02448    0.01573 =
         0.01654   -0.00117    0.00564    0.00396
O4    5    0.706401    0.899292    0.265567    11.00000    0.03302    0.01371 =
         0.01461    0.00062    0.00770   -0.00093
N1    4    0.884693    1.000567    0.790040    11.00000    0.02610    0.01477 =
         0.00674   -0.00173    0.00582    0.00571
N2    4    0.702967    0.666242    0.308795    11.00000    0.02419    0.01310 =
         0.00843    0.00073    0.00405    0.00242
C1    1    0.871399    0.855969    0.768472    11.00000    0.01892    0.01680 =
         0.01656   -0.00010    0.00837   -0.00180
C2    1    0.843257    1.069847    0.701069    11.00000    0.02440    0.01412 =
         0.01529    0.00034    0.00748    0.00540
C3    1    0.811411    0.823986    0.653464    11.00000    0.00901    0.01233 =
         0.01152    0.00106    0.00449    0.00193
C4    1    0.798007    0.956401    0.611877    11.00000    0.01683    0.01602 =
         0.01015   -0.00180    0.00609    0.00355
C5    1    0.779877    0.695375    0.591312    11.00000    0.01492    0.01276 =
         0.01306    0.00274    0.00465    0.00325
C6    1    0.756052    0.965481    0.505750    11.00000    0.01088    0.00849 =
         0.01746    0.00455    0.00257   -0.00180
C7    1    0.741723    0.707092    0.485576    11.00000    0.01328    0.01590 =
         0.01149   -0.00054    0.00633    0.00212
C8    1    0.733570    0.837815    0.443845    11.00000    0.01038    0.01286 =
         0.01616    0.00134    0.00268    0.00031
C9    1    0.718946    0.593455    0.396976    11.00000    0.01807    0.01425 =
         0.01403    0.00157    0.00350    0.00341
C10   1    0.713780    0.811401    0.329293    11.00000    0.01494    0.01658 =
         0.02480    0.00256    0.00714    0.00179
O1S   5    0.268229    0.443082    0.886936    11.00000    0.03344    0.01630 =
         0.01955   -0.00075    0.01147    0.00105
C2S   1    0.310618    0.576274    0.910054    11.00000    0.01899    0.02795 =
         0.01862   -0.00148    0.00355    0.00641
C3S   1    0.384113    0.685795    0.840186    11.00000    0.03918    0.02914 =
         0.02016   -0.00018    0.01534   -0.00170
AFIX  23
H3SA  2    0.505665    0.666590    0.823961    11.00000   -1.20000
H3SB  2    0.287251    0.682190    0.774607    11.00000   -1.20000
AFIX   0
C4S   1    0.417047    0.829855    0.901836    11.00000    0.03036    0.02365 =
         0.02829    0.00515    0.00391    0.00296
AFIX  23
H4SA  2    0.331132    0.891297    0.866048    11.00000   -1.20000
H4SB  2    0.552422    0.879490    0.910763    11.00000   -1.20000
AFIX   0
C5S   1    0.247164    0.576128    1.083000    11.00000    0.03284    0.02743 =
         0.01951    0.00350    0.00841    0.00641
AFIX 137
H5SA  2    0.358805    0.591007    1.141661    11.00000   -1.50000
H5SB  2    0.202874    0.472943    1.062760    11.00000   -1.50000
H5SC  2    0.143032    0.617189    1.103031    11.00000   -1.50000
AFIX   0
N1S   4    0.301229    0.645569    0.997080    11.00000    0.02475    0.02471 =
         0.01381   -0.00151    0.00365    0.00395
C1S   1    0.371949    0.799827    1.007170    11.00000    0.02976    0.01941 =
         0.02669   -0.00360    0.01090    0.00036
AFIX  23
H1SA  2    0.489333    0.827403    1.063417    11.00000   -1.20000
H1SB  2    0.272547    0.853200    1.021728    11.00000   -1.20000
AFIX   0

O2S   5    0.892823    0.819638    0.043604    11.00000    0.04166    0.02288 =
         0.01364   -0.00190    0.00976   -0.00241
H2    2    0.706829    0.628870    0.234723    11.00000    0.02916
H2SA  2    0.840068    0.740793    0.060566    11.00000    0.04823
H1    2    0.915623    1.047261    0.855643    11.00000    0.05314
H2SB  2    0.901706    0.800454   -0.015945    11.00000    0.06068
HKLF 4

REM  P-1 in P-1
REM R1 =  0.0383 for    2863 Fo > 4sig(Fo)  and  0.0436 for all    3131 data
REM    252 parameters refined using      0 restraints

END

WGHT      0.0556      7.2444

REM Highest difference peak  1.742,  deepest hole -1.095,  1-sigma level  0.204
Q1    1   0.7571  1.1630  0.5174  11.00000  0.05    1.74
Q2    1   0.6962  1.1583  0.3762  11.00000  0.05    1.71
Q3    1   0.7799  0.4959  0.5783  11.00000  0.05    1.34
Q4    1   0.8354  0.5043  0.7249  11.00000  0.05    1.29
Q5    1   0.8241  1.1953  0.4438  11.00000  0.05    1.06
;
_shelx_res_checksum              90046
_shelx_hkl_file
;
   1   0   0   10.97    0.57
   2   0   0  781.46   14.63
   3   0   0   10.22    0.22
   4   0   0   59.41    1.37
   5   0   0    1.43    0.24
   6   0   0    5.73    0.20
   7   0   0    6.77    0.23
   8   0   0    0.33    0.12
  -8   1   0    2.31    0.20
  -7   1   0   28.68    0.72
  -6   1   0    6.23    0.19
  -5   1   0   66.43    1.18
  -4   1   0    2.06    0.10
  -3   1   0   56.65    1.22
  -2   1   0  104.90    2.66
  -1   1   0   14.95    0.85
   0   1   0    9.58    0.60
   1   1   0   11.79    0.32
   2   1   0    1.32    0.06
   3   1   0    0.26    0.05
   4   1   0    1.69    0.11
   5   1   0   12.44    0.31
   6   1   0   32.51    0.63
   7   1   0    3.27    0.19
   8   1   0   41.07    1.34
  -8   2   0   27.73    0.99
  -7   2   0    0.99    0.13
  -6   2   0   45.68    0.99
  -5   2   0    5.10    0.24
  -4   2   0    1.88    0.10
  -3   2   0    1.92    0.09
  -2   2   0    5.17    0.14
  -1   2   0    1.94    0.08
   0   2   0    8.64    0.91
   1   2   0   70.60    1.57
   2   2   0   42.30    0.88
   3   2   0  155.55    3.18
   4   2   0    1.81    0.14
   5   2   0   95.10    2.01
   6   2   0    3.36    0.15
   7   2   0   30.17    1.02
  -8   3   0    1.34    0.20
  -7   3   0    3.07    0.14
  -6   3   0    2.69    0.18
  -5   3   0   11.07    2.08
  -4   3   0   36.75    0.98
  -3   3   0   15.73    0.35
  -2   3   0  146.23    2.99
  -1   3   0   12.56    0.30
   0   3   0  403.74   21.12
   1   3   0    3.69    0.15
   2   3   0  196.58    4.35
   3   3   0   16.32    0.37
   4   3   0   19.54    0.46
   5   3   0    6.40    2.17
   6   3   0    0.47    0.13
   7   3   0    2.39    0.25
  -8   4   0    2.15    0.14
  -7   4   0   45.90    1.06
  -6   4   0    4.08    0.24
  -5   4   0  132.18    2.39
  -4   4   0    1.38    0.12
  -3   4   0  249.45    6.17
  -2   4   0   13.11    0.32
  -1   4   0  165.64    4.11
   0   4   0    6.87    0.39
   1   4   0    5.17    0.24
   2   4   0    7.08    0.27
   3   4   0    2.49    0.20
   4   4   0   15.17    0.60
   5   4   0    7.77    0.33
   6   4   0   25.55    0.68
   7   4   0    5.82    0.57
  -8   5   0   29.40    1.20
  -7   5   0    0.57    0.16
  -6   5   0   34.76    0.83
  -5   5   0    4.03    0.17
  -4   5   0    4.05    0.22
  -3   5   0    0.21    0.07
  -2   5   0    0.34    0.07
  -1   5   0   21.68    0.77
   0   5   0    2.04    0.16
   1   5   0   45.45    1.56
   2   5   0   18.08    0.47
   3   5   0   83.59    1.28
   4   5   0    3.87    0.65
   5   5   0   93.02    3.31
   6   5   0    2.58    0.19
  -7   6   0    0.54    0.19
  -6   6   0    2.05    0.14
  -5   6   0    9.95    0.48
  -4   6   0   30.45    0.62
  -3   6   0   18.04    0.32
  -2   6   0  130.70    4.35
  -1   6   0    3.82    0.22
   0   6   0  206.24   15.55
   1   6   0    0.80    0.07
   2   6   0   91.74    1.37
   3   6   0    5.62    0.15
   4   6   0   12.73    0.44
   5   6   0    0.00    1.34
   6   6   0    1.18    0.11
  -7   7   0   34.64    2.74
  -6   7   0    6.47    0.24
  -5   7   0   69.74    1.69
  -4   7   0    0.78    0.18
  -3   7   0   70.79    1.12
  -2   7   0    4.99    0.17
  -1   7   0   41.09    0.58
   0   7   0    2.57    0.11
   1   7   0    1.39    0.08
   2   7   0    4.31    0.24
   3   7   0    8.31    0.23
   4   7   0   19.67    0.47
   5   7   0    9.16    0.35
  -6   8   0   30.02    0.89
  -5   8   0    1.24    0.18
  -4   8   0   16.09    0.58
  -3   8   0    2.51    0.10
  -2   8   0    1.91    0.16
  -1   8   0    1.08    0.07
   0   8   0    0.74    0.09
   1   8   0   27.55    0.46
   2   8   0    4.37    0.36
   3   8   0   45.00    1.02
   4   8   0    1.40    0.15
  -6   9   0    2.63    0.15
  -5   9   0   19.36    0.60
  -4   9   0   34.68    0.76
  -3   9   0   28.33    0.54
  -2   9   0   78.82    1.96
  -1   9   0    5.25    0.17
   0   9   0   77.55    2.45
   1   9   0    0.11    0.08
   2   9   0   41.58    1.73
   3   9   0    1.33    0.13
  -5  10   0   49.50    1.44
  -4  10   0    1.08    0.14
  -3  10   0   54.21    1.22
  -2  10   0    1.59    2.21
  -1  10   0   28.75    0.58
   0  10   0    2.79    0.21
   1  10   0    2.41    0.15
   2  10   0    0.14    0.14
  -3  11   0    0.21    0.15
  -2  11   0    0.32    0.25
  -1  11   0    4.33    0.20
   0  11   0    5.07    0.61
   0 -11   1    0.26    0.22
   1 -11   1    1.13    0.13
   2 -11   1    6.34    0.47
   3 -11   1    2.19    0.20
  -2 -10   1    4.64    0.33
  -1 -10   1   40.63    0.94
   0 -10   1    0.48    0.13
   1 -10   1   69.40    1.31
   2 -10   1    0.48    0.40
   3 -10   1   58.66    1.12
   4 -10   1    2.58    0.18
   5 -10   1   20.09    0.64
  -3  -9   1    2.33    0.15
  -2  -9   1   73.09    2.53
  -1  -9   1   10.06    0.27
   0  -9   1   91.55    2.88
   1  -9   1   28.46    0.55
   2  -9   1   53.52    2.38
   3  -9   1   12.21    0.30
   4  -9   1    1.45    0.18
   5  -9   1    4.21    0.21
   6  -9   1    0.94    0.14
  -4  -8   1    2.02    0.14
  -3  -8   1    9.21    0.28
  -2  -8   1    0.92    0.13
  -1  -8   1    1.24    0.08
   0  -8   1    1.45    0.11
   1  -8   1    9.44    0.20
   2  -8   1   30.70    0.78
   3  -8   1    2.80    0.11
   4  -8   1   48.39    1.05
   5  -8   1    3.34    0.52
   6  -8   1   32.29    0.84
  -5  -7   1    2.42    0.20
  -4  -7   1    0.13    0.10
  -3  -7   1    6.55    0.21
  -2  -7   1    7.88    0.28
  -1  -7   1   66.00    0.85
   0  -7   1    2.42    0.11
   1  -7   1   99.84    1.32
   2  -7   1    1.53    0.11
   3  -7   1   97.68    1.63
   4  -7   1    4.19    0.27
   5  -7   1   41.64    1.12
   6  -7   1    4.12    0.21
   7  -7   1    3.20    0.30
  -6  -6   1   16.01    0.47
  -5  -6   1    0.92    0.99
  -4  -6   1   83.30    2.09
  -3  -6   1    1.92    0.10
  -2  -6   1  151.81    2.37
  -1  -6   1   13.13    0.31
   0  -6   1  112.99    8.56
   1  -6   1   31.41    1.10
   2  -6   1   51.41    1.74
   3  -6   1   12.00    0.24
   4  -6   1    1.33    0.11
   5  -6   1    5.20    0.29
   6  -6   1    2.15    0.17
   7  -6   1   24.43    1.22
  -6  -5   1    1.93    0.15
  -5  -5   1   34.21    0.90
  -4  -5   1    7.71    0.29
  -3  -5   1   14.58    0.27
  -2  -5   1    3.30    0.22
  -1  -5   1    3.73    0.22
   0  -5   1    2.82    0.36
   1  -5   1    5.80    0.26
   2  -5   1   12.64    0.36
   3  -5   1    6.55    0.23
   4  -5   1   73.17    1.51
   5  -5   1    0.11    0.14
   6  -5   1   56.18    1.59
   7  -5   1    0.80    0.16
  -7  -4   1    0.74    0.20
  -6  -4   1    9.42    0.32
  -5  -4   1    0.83    0.20
  -4  -4   1    0.42    0.15
  -3  -4   1   28.98    1.04
  -2  -4   1   29.08    0.85
  -1  -4   1  253.19    6.26
   0  -4   1   10.12    0.85
   1  -4   1  359.99    8.76
   2  -4   1    5.36    0.16
   3  -4   1  157.20    3.89
   4  -4   1    2.69    0.15
   5  -4   1   51.66    1.04
   6  -4   1    4.78    0.26
   7  -4   1    5.75    0.26
   8  -4   1    1.09    0.13
  -7  -3   1    1.03    0.20
  -6  -3   1   22.66    0.61
  -5  -3   1    3.66    2.30
  -4  -3   1  135.82    3.44
  -3  -3   1    0.23    0.06
  -2  -3   1  196.88    4.35
  -1  -3   1    8.69    0.22
   0  -3   1   72.87    3.36
   1  -3   1    7.81    0.18
   2  -3   1   32.82    0.69
   3  -3   1    0.54    0.06
   4  -3   1    1.49    0.13
   5  -3   1   10.70    0.62
   6  -3   1   15.65    0.44
   7  -3   1   31.91    0.70
   8  -3   1    2.31    0.18
  -8  -2   1    0.25    0.24
  -7  -2   1   54.83    2.03
  -6  -2   1    2.84    0.15
  -5  -2   1   74.03    1.56
  -4  -2   1    9.63    0.26
  -3  -2   1   48.30    1.01
  -2  -2   1    0.57    0.05
  -1  -2   1    9.90    0.24
   0  -2   1    0.24    0.08
   1  -2   1    0.85    0.05
   2  -2   1   57.58    1.44
   3  -2   1    7.54    0.19
   4  -2   1  175.68    4.20
   5  -2   1    1.45    0.26
   6  -2   1  110.80    2.17
   7  -2   1    0.24    0.10
   8  -2   1   27.27    0.64
  -8  -1   1   12.58    0.50
  -7  -1   1    6.24    0.27
  -6  -1   1    2.85    0.16
  -5  -1   1    0.93    0.13
  -4  -1   1    1.31    0.10
  -3  -1   1    3.55    0.11
  -2  -1   1    1.47    0.06
  -1  -1   1   21.49    0.82
   0  -1   1    0.35    0.05
   1  -1   1   88.57    1.98
   2  -1   1   67.05    1.36
   3  -1   1  139.47    2.83
   4  -1   1   26.25    0.68
   5  -1   1   60.06    1.35
   6  -1   1    4.02    0.16
   7  -1   1    9.07    0.29
   8  -1   1    0.29    0.17
  -8   0   1    7.75    0.30
  -7   0   1    2.52    0.15
  -6   0   1   54.98    1.13
  -5   0   1   25.05    0.89
  -4   0   1  387.40    8.60
  -3   0   1   31.91    0.66
  -2   0   1 1000.00   25.21
   0   0   1  151.84   10.06
   1   0   1   22.78    0.48
   2   0   1    4.05    0.11
   3   0   1    0.61    0.05
   4   0   1    0.18    0.07
   5   0   1   12.89    0.56
   6   0   1    9.78    0.26
   7   0   1   25.85    0.57
   8   0   1    4.93    0.30
  -8   1   1    0.52    0.17
  -7   1   1   46.01    1.21
  -6   1   1    2.93    0.13
  -5   1   1   38.50    1.16
  -4   1   1    8.33    0.25
  -3   1   1    7.98    0.17
  -2   1   1   18.68    0.43
  -1   1   1    0.06    0.04
   0   1   1   12.99    0.74
   1   1   1   24.75    0.53
   2   1   1    6.76    0.16
   3   1   1   35.72    0.75
   4   1   1  107.46    2.25
   5   1   1    4.74    0.50
   6   1   1  102.35    1.97
   7   1   1    1.57    0.17
   8   1   1   19.43    1.22
  -8   2   1   15.50    0.45
  -7   2   1    3.52    0.16
  -6   2   1    5.01    0.18
  -5   2   1    1.85    0.26
  -4   2   1    0.30    0.07
  -3   2   1   20.01    0.40
  -2   2   1   12.92    0.31
  -1   2   1  216.51    4.75
   0   2   1   30.09    2.82
   1   2   1  327.38    7.13
   2   2   1    3.13    0.10
   3   2   1  154.17    3.14
   4   2   1    8.12    0.53
   5   2   1   37.52    0.83
   6   2   1    0.38    0.14
   7   2   1    5.34    0.36
  -8   3   1    3.11    0.20
  -7   3   1    3.37    0.15
  -6   3   1   36.03    0.90
  -5   3   1    6.81    0.38
  -4   3   1  158.15    3.24
  -3   3   1    0.48    0.05
  -2   3   1  356.23    7.22
  -1   3   1    9.69    0.30
   0   3   1  188.71   17.53
   1   3   1   15.78    0.41
   2   3   1   24.06    0.62
   3   3   1    1.07    0.10
   4   3   1    0.00    0.11
   5   3   1   18.58    1.01
   6   3   1    6.07    0.30
   7   3   1   27.74    0.94
  -8   4   1    0.63    0.11
  -7   4   1   74.70    1.64
  -6   4   1    0.57    0.11
  -5   4   1   99.21    1.80
  -4   4   1   10.30    0.34
  -3   4   1   58.46    1.22
  -2   4   1    6.76    0.19
  -1   4   1    0.07    0.05
   0   4   1    0.17    0.08
   1   4   1    7.15    0.22
   2   4   1   17.83    0.55
   3   4   1   10.38    0.38
   4   4   1   57.45    1.86
   5   4   1    4.28    0.61
   6   4   1   47.77    1.18
   7   4   1    0.27    0.29
  -8   5   1    7.80    0.42
  -7   5   1    1.11    0.27
  -6   5   1    0.34    0.12
  -5   5   1    0.08    0.08
  -4   5   1    5.43    0.24
  -3   5   1   19.06    0.53
  -2   5   1   24.27    0.72
  -1   5   1   54.79    1.85
   0   5   1   33.16    3.16
   1   5   1  109.43    3.06
   2   5   1    0.11    0.08
   3   5   1  112.70    1.88
   4   5   1    7.07    0.57
   5   5   1   36.52    1.28
   6   5   1    2.07    0.17
  -7   6   1    7.53    0.45
  -6   6   1   41.24    1.09
  -5   6   1   13.72    0.57
  -4   6   1  162.17    3.41
  -3   6   1    2.68    0.09
  -2   6   1  237.05    6.39
  -1   6   1    0.21    0.09
   0   6   1   76.70    5.84
   1   6   1    2.57    0.09
   2   6   1    9.82    0.23
   3   6   1    0.15    0.07
   4   6   1    0.85    0.28
   5   6   1    5.55    0.44
   6   6   1    1.90    0.17
  -7   7   1   43.13    2.20
  -6   7   1    1.05    0.12
  -5   7   1   44.94    1.38
  -4   7   1    5.83    0.27
  -3   7   1   27.67    0.49
  -2   7   1    0.68    0.06
  -1   7   1    0.08    0.05
   0   7   1    4.08    0.16
   1   7   1   18.73    0.36
   2   7   1   28.45    0.74
   3   7   1   14.01    0.33
   4   7   1   67.14    1.35
   5   7   1    1.79    0.23
  -7   8   1    0.00    0.30
  -6   8   1    5.00    0.21
  -5   8   1    0.33    0.19
  -4   8   1    0.70    0.15
  -3   8   1    6.12    0.16
  -2   8   1    8.98    0.34
  -1   8   1   47.74    0.74
   0   8   1   12.93    0.40
   1   8   1   55.40    0.90
   2   8   1    1.48    0.41
   3   8   1   32.89    0.86
   4   8   1    0.43    0.12
  -6   9   1   25.49    0.56
  -5   9   1   14.26    0.50
  -4   9   1   83.88    1.87
  -3   9   1    0.43    0.09
  -2   9   1   94.00    2.34
  -1   9   1    1.00    0.09
   0   9   1   40.88    1.27
   1   9   1    0.92    0.12
   2   9   1    7.88    0.58
   3   9   1    0.24    0.09
  -5  10   1   26.33    0.81
  -4  10   1    2.26    0.21
  -3  10   1   16.89    0.43
  -2  10   1    3.57    2.10
  -1  10   1    0.90    0.10
   0  10   1    0.67    0.17
   1  10   1    4.59    0.20
   2  10   1   14.43    0.98
  -3  11   1    8.97    0.39
  -2  11   1    9.30    0.63
  -1  11   1   33.29    0.99
   0  11   1    7.15    0.80
   0 -11   2   13.79    0.82
   1 -11   2    0.34    0.11
   2 -11   2   26.73    1.16
   3 -11   2    0.03    0.15
  -2 -10   2    0.71    0.15
  -1 -10   2   51.64    1.07
   0 -10   2    3.36    0.31
   1 -10   2   51.04    1.07
   2 -10   2   10.99    0.73
   3 -10   2   18.24    0.43
   4 -10   2    9.70    0.37
   5 -10   2    1.03    0.15
  -4  -9   2   47.85    2.19
  -3  -9   2    4.51    0.20
  -2  -9   2   62.94    1.81
  -1  -9   2   15.07    0.33
   0  -9   2   19.67    0.60
   1  -9   2    2.29    0.12
   2  -9   2    0.00    1.18
   3  -9   2   20.83    0.45
   4  -9   2    4.60    0.26
   5  -9   2   52.26    1.10
   6  -9   2    0.03    0.15
  -4  -8   2    0.29    0.15
  -3  -8   2    4.28    0.17
  -2  -8   2    9.16    0.59
  -1  -8   2    8.64    0.20
   0  -8   2   50.18    1.45
   1  -8   2    0.85    0.08
   2  -8   2   57.01    1.28
   3  -8   2    0.42    0.08
   4  -8   2   46.45    1.22
   5  -8   2    1.06    0.33
   6  -8   2   30.27    0.86
  -5  -7   2   10.58    0.37
  -4  -7   2    2.80    0.18
  -3  -7   2   56.36    1.03
  -2  -7   2    0.30    0.09
  -1  -7   2   79.79    1.19
   0  -7   2    2.47    0.13
   1  -7   2   88.20    1.37
   2  -7   2   10.67    0.23
   3  -7   2   32.74    0.58
   4  -7   2   13.04    0.42
   5  -7   2    0.31    0.22
   6  -7   2    0.12    0.11
   7  -7   2    0.15    0.14
  -6  -6   2   57.43    1.49
  -5  -6   2    3.40    0.46
  -4  -6   2  112.37    2.49
  -3  -6   2    6.37    0.16
  -2  -6   2  102.53    1.61
  -1  -6   2   13.67    0.31
   0  -6   2   23.00    1.81
   1  -6   2    1.92    0.25
   2  -6   2    3.30    0.31
   3  -6   2   27.93    0.50
   4  -6   2    7.17    0.23
   5  -6   2   65.56    1.39
   6  -6   2    0.95    0.14
   7  -6   2   46.54    1.70
  -6  -5   2    9.38    0.32
  -5  -5   2    8.15    0.74
  -4  -5   2    4.59    0.27
  -3  -5   2    1.01    0.08
  -2  -5   2    1.36    0.15
  -1  -5   2    3.96    0.19
   1  -5   2    2.63    0.17
   2  -5   2  115.59    3.81
   3  -5   2    0.04    0.09
   4  -5   2   73.71    1.60
   5  -5   2    0.96    0.20
   6  -5   2   35.22    1.66
   7  -5   2    1.87    0.22
  -7  -4   2    1.82    0.28
  -6  -4   2    3.92    0.20
  -5  -4   2   28.02    0.67
  -4  -4   2   18.44    0.72
  -3  -4   2  169.14    4.22
  -2  -4   2    3.30    0.14
  -1  -4   2  288.94    7.45
   0  -4   2    1.67    0.18
   1  -4   2  174.85    4.32
   2  -4   2    2.00    0.10
   3  -4   2   59.42    1.37
   4  -4   2    8.86    0.35
   5  -4   2    4.93    0.32
   6  -4   2    0.11    0.17
   7  -4   2    0.66    0.11
   8  -4   2    9.85    0.53
  -7  -3   2    2.53    0.31
  -6  -3   2   71.27    1.72
  -5  -3   2    0.44    0.16
  -4  -3   2  103.58    3.48
  -3  -3   2   12.63    0.30
  -2  -3   2   88.29    2.00
  -1  -3   2   26.94    0.59
   0  -3   2   39.06    2.64
   1  -3   2    3.85    0.11
   2  -3   2    9.81    0.28
   3  -3   2   27.47    0.72
   4  -3   2   11.66    0.44
   5  -3   2   70.52    1.45
   6  -3   2    0.31    0.14
   7  -3   2   53.17    1.14
   8  -3   2    0.46    0.14
  -8  -2   2    1.38    0.24
  -7  -2   2   32.40    1.28
  -6  -2   2    4.56    0.19
  -5  -2   2   13.49    0.53
  -4  -2   2    2.16    0.12
  -3  -2   2    0.93    0.07
  -2  -2   2    0.96    0.05
  -1  -2   2   21.06    0.47
   0  -2   2  102.47    6.86
   1  -2   2   21.78    0.53
   2  -2   2  196.54    4.36
   3  -2   2    4.65    0.13
   4  -2   2   95.88    2.49
   5  -2   2    2.02    0.34
   6  -2   2   36.22    0.74
   7  -2   2    6.29    0.29
   8  -2   2    4.57    0.26
  -8  -1   2    1.04    0.17
  -7  -1   2    0.83    0.12
  -6  -1   2    0.31    0.12
  -5  -1   2   28.22    0.69
  -4  -1   2    2.31    0.12
  -3  -1   2  107.30    2.39
  -2  -1   2    1.00    0.06
  -1  -1   2  218.41    7.39
   0  -1   2    2.03    0.18
   1  -1   2  296.45    7.29
   2  -1   2    2.04    0.08
   3  -1   2   68.55    1.44
   4  -1   2    0.54    0.10
   5  -1   2    1.25    0.17
   6  -1   2    0.50    0.09
   7  -1   2    1.46    0.14
   8  -1   2    6.02    0.29
  -8   0   2   40.51    0.98
  -7   0   2    6.45    0.26
  -6   0   2  158.36    3.55
  -5   0   2    5.47    1.21
  -4   0   2  349.78   11.53
  -3   0   2   17.72    0.37
  -2   0   2  202.62    5.91
  -1   0   2   56.58    1.00
   0   0   2   25.19    1.25
   1   0   2    3.16    0.13
   2   0   2    1.82    0.08
   3   0   2   56.54    1.09
   4   0   2   13.40    0.48
   5   0   2   63.43    1.43
   6   0   2    5.71    0.22
   7   0   2   51.34    1.21
   8   0   2    0.00    0.20
  -8   1   2    1.32    0.17
  -7   1   2   12.95    0.37
  -6   1   2    4.11    0.15
  -5   1   2    1.51    0.25
  -4   1   2    0.22    0.06
  -3   1   2    1.84    0.07
  -2   1   2    0.57    0.04
  -1   1   2    7.57    0.18
   0   1   2   26.65    1.28
   1   1   2    6.88    0.25
   2   1   2  234.69    6.86
   3   1   2    0.18    0.05
   4   1   2  188.45    5.59
   5   1   2   16.28    2.21
   6   1   2   51.49    1.04
   7   1   2    4.26    0.27
  -8   2   2    2.16    0.23
  -7   2   2    1.25    0.11
  -6   2   2    2.26    0.11
  -5   2   2   36.81    1.29
  -4   2   2   13.06    0.37
  -3   2   2  192.93    3.92
  -2   2   2    3.12    0.10
  -1   2   2  275.08    5.50
   0   2   2    7.59    0.45
   1   2   2  160.02    3.50
   2   2   2    4.82    0.17
   3   2   2   42.24    1.07
   4   2   2    0.00    1.75
   5   2   2    1.24    0.21
   6   2   2    0.23    0.14
   7   2   2    0.97    0.18
  -8   3   2   28.82    0.69
  -7   3   2    3.45    0.16
  -6   3   2   82.72    2.08
  -5   3   2    0.84    0.14
  -4   3   2  133.90    2.75
  -3   3   2    1.06    0.07
  -2   3   2   83.20    1.70
  -1   3   2    7.02    0.20
   0   3   2    2.68    0.18
   1   3   2    9.85    0.28
   2   3   2   30.65    0.79
   3   3   2   50.90    1.47
   4   3   2   27.17    0.62
   5   3   2   56.85    1.29
   6   3   2    6.94    0.32
   7   3   2   35.38    1.34
  -8   4   2    0.04    0.10
  -7   4   2   45.95    1.01
  -6   4   2    1.14    0.11
  -5   4   2   16.82    0.58
  -4   4   2    0.78    0.10
  -3   4   2    3.57    0.12
  -2   4   2    9.65    0.32
  -1   4   2   16.94    0.45
   0   4   2   94.44    4.98
   1   4   2   12.21    0.34
   2   4   2  135.95    3.80
   3   4   2    6.75    0.24
   4   4   2   76.18    2.37
   5   4   2    1.18    1.08
   6   4   2   24.00    0.65
  -8   5   2    0.43    0.13
  -7   5   2    1.39    0.17
  -6   5   2    2.38    0.14
  -5   5   2   27.34    0.61
  -4   5   2    6.29    0.33
  -3   5   2   90.43    3.04
  -2   5   2    0.24    0.08
  -1   5   2  166.35    4.62
   0   5   2   10.82    1.11
   1   5   2  213.57    5.92
   2   5   2   13.77    0.30
   3   5   2   57.11    1.15
   4   5   2   13.98    4.76
   5   5   2    1.69    0.36
   6   5   2    0.54    0.12
  -8   6   2   27.82    1.14
  -7   6   2    5.15    0.50
  -6   6   2   93.45    2.46
  -5   6   2    1.37    0.29
  -4   6   2  102.87    2.04
  -3   6   2    0.68    0.06
  -2   6   2   31.49    0.75
  -1   6   2    4.71    0.19
   0   6   2    1.32    0.23
   1   6   2    0.71    0.07
   2   6   2    4.06    0.14
   3   6   2   16.91    0.31
   4   6   2   15.80    0.60
   5   6   2   19.39    0.57
  -7   7   2   20.94    1.21
  -6   7   2    0.73    0.11
  -5   7   2   10.78    0.84
  -4   7   2    0.17    0.20
  -3   7   2    2.82    0.10
  -2   7   2   10.16    0.22
  -1   7   2   29.05    0.51
   0   7   2   77.41    2.33
   1   7   2   12.52    0.28
   2   7   2  134.24    2.58
   3   7   2    1.42    0.11
   4   7   2   82.90    2.44
   5   7   2    0.16    1.36
  -7   8   2    0.00    0.29
  -6   8   2    1.80    0.13
  -5   8   2    8.74    0.48
  -4   8   2   12.65    0.75
  -3   8   2   43.32    0.70
  -2   8   2    4.67    0.35
  -1   8   2   42.47    0.69
   0   8   2    0.33    0.09
   1   8   2   31.00    0.53
   2   8   2    1.97    0.26
   3   8   2   15.89    0.53
   4   8   2    1.27    0.15
  -6   9   2   70.51    1.81
  -5   9   2    0.42    0.12
  -4   9   2   67.67    1.51
  -3   9   2    0.23    0.11
  -2   9   2   25.27    0.72
  -1   9   2    0.58    0.08
   0   9   2    2.89    0.18
   1   9   2    0.19    0.09
   2   9   2    2.80    0.41
   3   9   2    6.64    0.23
  -5  10   2   11.16    0.52
  -4  10   2    0.13    0.12
  -3  10   2    0.10    0.10
  -2  10   2    4.89    0.63
  -1  10   2   10.83    0.28
   0  10   2   34.03    1.83
   1  10   2    7.19    0.25
  -3  11   2   38.36    1.86
  -2  11   2    5.10    1.38
  -1  11   2   47.86    1.37
   0 -11   3   27.53    2.65
   1 -11   3    0.30    0.14
   2 -11   3   44.43    2.20
  -2 -10   3    3.45    0.27
  -1 -10   3   45.93    0.96
   0 -10   3    8.97    0.46
   1 -10   3   14.13    0.36
   2 -10   3    3.58    0.42
   3 -10   3    0.36    0.10
   4 -10   3    2.02    0.13
  -4  -9   3   27.64    1.30
  -3  -9   3    7.32    0.26
  -2  -9   3    5.27    0.33
  -1  -9   3    0.26    0.08
   0  -9   3    4.17    0.24
   1  -9   3   36.93    0.65
   2  -9   3    0.00    1.13
   3  -9   3   75.87    1.46
   4  -9   3    0.19    0.22
   5  -9   3   66.94    1.31
  -5  -8   3    5.31    0.42
  -4  -8   3   13.10    0.43
  -3  -8   3    3.94    0.16
  -2  -8   3   41.70    2.19
  -1  -8   3    0.11    0.07
   0  -8   3   56.50    1.82
   1  -8   3    0.22    0.08
   2  -8   3   58.34    1.14
   3  -8   3    2.36    0.12
   4  -8   3   36.03    0.91
   5  -8   3   10.49    0.77
   6  -8   3    2.84    0.17
  -5  -7   3   35.59    1.06
  -4  -7   3    0.82    0.10
  -3  -7   3   66.95    1.20
  -2  -7   3   10.57    0.52
  -1  -7   3   89.01    1.47
   0  -7   3   24.51    0.82
   1  -7   3   31.01    0.54
   2  -7   3    7.60    0.39
   3  -7   3    0.05    0.07
   4  -7   3    7.49    0.44
   5  -7   3    0.78    0.18
   6  -7   3   25.41    0.76
   7  -7   3    0.49    0.20
  -6  -6   3   46.90    1.07
  -5  -6   3    2.85    0.25
  -4  -6   3   27.10    0.77
  -3  -6   3    7.62    0.19
  -2  -6   3    0.27    0.09
  -1  -6   3    0.21    0.07
   0  -6   3   11.21    1.06
   1  -6   3   52.85    1.94
   2  -6   3    8.19    0.28
   3  -6   3  102.50    1.95
   4  -6   3    0.72    0.20
   5  -6   3   98.36    2.39
   6  -6   3    0.32    0.11
   7  -6   3   43.45    1.94
  -6  -5   3    1.10    0.11
  -5  -5   3    0.39    0.24
  -4  -5   3   23.04    0.52
  -3  -5   3    5.54    0.15
  -2  -5   3   80.69    2.72
  -1  -5   3    4.91    0.27
   0  -5   3  134.02   13.68
   1  -5   3    0.01    0.12
   2  -5   3  120.01    3.92
   3  -5   3    5.60    0.28
   4  -5   3   52.96    1.09
   5  -5   3    5.26    0.46
   6  -5   3    5.93    0.39
   7  -5   3    0.44    0.14
  -7  -4   3   22.07    0.97
  -6  -4   3    2.13    0.18
  -5  -4   3   98.56    1.97
  -4  -4   3    0.17    0.08
  -3  -4   3  176.44    4.42
  -2  -4   3    6.38    0.23
  -1  -4   3  107.83    3.55
   0  -4   3   20.35    1.42
   1  -4   3   23.15    0.74
   2  -4   3   17.24    0.44
   3  -4   3    0.00    0.07
   4  -4   3    0.56    0.12
   5  -4   3    6.62    0.29
   6  -4   3   22.97    0.75
   7  -4   3    3.34    0.15
  -7  -3   3    1.26    0.26
  -6  -3   3   53.83    1.46
  -5  -3   3    7.90    0.24
  -4  -3   3   36.67    1.12
  -3  -3   3    6.62    0.22
  -2  -3   3    2.07    0.10
  -1  -3   3   13.68    0.31
   0  -3   3   33.38    2.30
   1  -3   3  152.09    4.60
   2  -3   3   21.14    0.62
   3  -3   3  212.14    6.40
   4  -3   3    0.99    0.13
   5  -3   3  122.91    2.52
   6  -3   3    0.69    0.15
   7  -3   3   40.36    0.83
  -8  -2   3    2.45    0.26
  -7  -2   3    2.47    0.26
  -6  -2   3    0.05    0.11
  -5  -2   3    1.77    0.18
  -4  -2   3   14.77    0.38
  -3  -2   3    3.37    0.13
  -2  -2   3  112.92    2.80
  -1  -2   3    1.90    0.14
   0  -2   3  296.21   20.01
   1  -2   3    0.03    0.06
   2  -2   3  228.12    5.56
   3  -2   3   21.73    0.72
   4  -2   3   98.49    3.42
   5  -2   3   23.48    2.48
   6  -2   3   11.59    0.35
   7  -2   3    0.41    0.12
  -8  -1   3    0.57    0.13
  -7  -1   3   26.64    0.63
  -6  -1   3    3.13    0.17
  -5  -1   3   61.41    1.50
  -4  -1   3    4.03    0.14
  -3  -1   3  121.00    2.49
  -2  -1   3    0.22    0.04
  -1  -1   3  154.82    3.83
   0  -1   3    9.89    0.52
   1  -1   3    9.18    0.25
   2  -1   3    8.37    0.27
   3  -1   3    2.91    0.16
   4  -1   3    0.71    0.20
   5  -1   3    3.43    0.23
   6  -1   3   15.85    0.42
   7  -1   3    1.89    0.15
  -8   0   3   86.52    2.02
  -7   0   3    0.43    0.09
  -6   0   3  148.89    3.64
  -5   0   3    6.27    0.28
  -4   0   3   65.60    1.38
  -3   0   3   18.09    0.39
  -2   0   3    5.54    0.13
  -1   0   3   25.25    0.63
   0   0   3   40.44    2.04
   1   0   3  122.95    3.10
   2   0   3   38.37    1.00
   3   0   3  102.26    2.62
   4   0   3   11.74    0.75
   5   0   3   78.05    1.81
   6   0   3    0.07    0.11
   7   0   3   33.76    0.77
  -8   1   3    4.97    0.28
  -7   1   3    0.70    0.10
  -6   1   3    0.04    0.07
  -5   1   3    0.47    1.06
  -4   1   3   17.43    0.40
  -3   1   3    0.70    0.05
  -2   1   3   80.66    1.69
  -1   1   3    4.95    0.17
   0   1   3  323.09   15.17
   1   1   3    0.69    0.07
   2   1   3  356.99   10.42
   3   1   3   15.53    0.44
   4   1   3   65.12    1.72
   5   1   3    9.36    1.92
   6   1   3    4.00    0.20
   7   1   3    1.17    0.14
  -8   2   3    3.43    0.23
  -7   2   3   34.83    0.81
  -6   2   3    8.44    0.23
  -5   2   3  117.60    3.13
  -4   2   3    7.81    0.25
  -3   2   3  205.29    4.17
  -2   2   3    2.59    0.09
  -1   2   3  151.39    4.06
   0   2   3    0.75    0.11
   1   2   3   17.61    0.56
   2   2   3    0.05    0.07
   3   2   3    0.09    0.08
   4   2   3    6.75    0.99
   5   2   3    3.70    0.25
   6   2   3   20.38    0.57
   7   2   3    4.81    0.30
  -8   3   3   49.25    1.10
  -7   3   3    0.04    0.10
  -6   3   3   80.69    2.01
  -5   3   3    2.94    0.16
  -4   3   3   59.02    1.25
  -3   3   3    7.07    0.19
  -2   3   3    0.30    0.06
  -1   3   3   25.84    0.59
   0   3   3   52.33    2.20
   1   3   3  110.81    2.44
   2   3   3   18.06    0.50
   3   3   3  105.27    2.56
   4   3   3    2.49    0.25
   5   3   3   85.55    2.55
   6   3   3    0.01    0.18
   7   3   3   26.35    1.46
  -8   4   3    3.20    0.18
  -7   4   3    2.39    0.17
  -6   4   3    2.79    0.16
  -5   4   3    7.99    0.47
  -4   4   3    9.82    0.39
  -3   4   3   10.00    0.30
  -2   4   3   70.46    1.74
  -1   4   3    4.95    0.17
   0   4   3   81.23    4.60
   1   4   3    4.94    0.17
   2   4   3   75.90    2.15
   3   4   3    4.44    0.18
   4   4   3   30.90    0.86
   5   4   3    6.56    2.05
   6   4   3    1.61    0.16
  -8   5   3    3.48    0.23
  -7   5   3   32.47    1.11
  -6   5   3    4.06    0.17
  -5   5   3   81.10    2.45
  -4   5   3    1.47    0.17
  -3   5   3  166.46    5.53
  -2   5   3    0.10    0.08
  -1   5   3  226.15    6.27
   0   5   3    4.68    0.58
   1   5   3   38.26    1.33
   2   5   3    1.55    0.10
   3   5   3    1.24    0.10
   4   5   3   11.55    1.34
   5   5   3    0.31    0.38
   6   5   3   20.79    0.54
  -8   6   3   47.73    1.87
  -7   6   3    0.62    0.27
  -6   6   3   50.63    1.24
  -5   6   3    0.48    0.20
  -4   6   3   18.39    0.69
  -3   6   3    3.62    0.12
  -2   6   3    1.14    0.08
  -1   6   3    6.74    0.22
   0   6   3   17.74    0.77
   1   6   3   36.26    0.69
   2   6   3   14.15    0.28
   3   6   3   26.60    0.50
   4   6   3    4.63    0.34
   5   6   3   34.57    1.09
  -7   7   3    2.66    0.24
  -6   7   3    1.57    0.13
  -5   7   3    8.27    0.48
  -4   7   3   24.38    0.68
  -3   7   3   25.38    0.42
  -2   7   3  113.43    1.70
  -1   7   3   15.31    0.29
   0   7   3  166.34    5.52
   1   7   3    4.51    0.16
   2   7   3   87.24    1.47
   3   7   3    0.09    0.09
   4   7   3   15.96    0.64
  -6   8   3    2.47    0.15
  -5   8   3   36.22    0.97
  -4   8   3    0.05    0.20
  -3   8   3   45.80    0.72
  -2   8   3    1.70    0.27
  -1   8   3   47.62    0.81
   0   8   3    2.29    0.17
   1   8   3   16.78    0.36
   2   8   3    2.09    0.21
   3   8   3    0.17    0.08
   4   8   3    1.01    0.21
  -6   9   3   27.06    0.84
  -5   9   3    1.36    0.18
  -4   9   3   10.41    0.50
  -3   9   3    2.84    0.16
  -2   9   3    0.16    0.13
  -1   9   3    0.24    0.08
   0   9   3    9.61    0.45
   1   9   3   17.86    0.37
   2   9   3    9.00    0.60
   3   9   3   31.09    1.58
  -5  10   3    4.35    0.49
  -4  10   3   10.84    0.41
  -3  10   3   17.61    0.50
  -2  10   3   49.98    1.29
  -1  10   3    9.32    0.28
   0  10   3   60.07    3.16
   1  10   3    1.89    0.14
   0 -11   4   37.40    3.56
   1 -11   4    7.27    0.38
   2 -11   4   11.10    6.16
  -2 -10   4    6.25    0.41
  -1 -10   4    4.50    0.26
   0 -10   4    0.58    0.17
   1 -10   4    0.17    0.12
   2 -10   4    0.00    0.46
   3 -10   4    1.63    0.11
   4 -10   4   22.60    0.56
  -4  -9   4    0.72    0.18
  -3  -9   4    3.02    0.16
  -2  -9   4    4.59    0.63
  -1  -9   4   39.82    0.85
   0  -9   4    6.48    0.31
   1  -9   4   91.31    1.88
   2  -9   4    0.00    0.69
   3  -9   4   89.63    1.72
   4  -9   4    3.46    0.31
   5  -9   4   40.02    0.84
  -5  -8   4    2.79    0.36
  -4  -8   4   29.46    0.65
  -3  -8   4    0.12    0.09
  -2  -8   4   47.27    1.21
  -1  -8   4    0.25    0.08
   0  -8   4   38.19    1.43
   1  -8   4    7.50    0.19
   2  -8   4   22.45    1.68
   3  -8   4   16.03    0.38
   4  -8   4    1.43    0.26
   5  -8   4    0.93    0.18
   6  -8   4    0.93    0.17
  -5  -7   4   63.89    1.96
  -4  -7   4    5.12    0.18
  -3  -7   4   70.25    1.26
  -2  -7   4    0.00    1.58
  -1  -7   4   14.38    0.30
   0  -7   4    2.07    0.14
   1  -7   4    2.80    0.11
   2  -7   4   30.35    0.70
   3  -7   4    5.53    0.19
   4  -7   4   53.62    1.32
   5  -7   4    1.95    0.22
   6  -7   4   33.41    0.97
  -6  -6   4    8.86    0.27
  -5  -6   4    4.82    0.24
  -4  -6   4    1.17    0.22
  -3  -6   4    3.00    0.13
  -2  -6   4    1.27    0.11
  -1  -6   4   67.26    1.01
   0  -6   4    5.34    0.38
   1  -6   4  154.93    3.82
   2  -6   4    0.25    0.09
   3  -6   4  139.66    2.65
   4  -6   4    3.29    0.31
   5  -6   4   53.22    1.49
   6  -6   4    5.66    0.29
   7  -6   4    5.10    0.34
  -6  -5   4    9.50    0.30
  -5  -5   4    4.98    0.41
  -4  -5   4   34.05    0.75
  -3  -5   4    1.87    0.10
  -2  -5   4  102.42    5.25
  -1  -5   4    3.13    0.24
   0  -5   4  106.31   10.89
   1  -5   4   11.72    0.44
   2  -5   4   33.05    1.02
   3  -5   4    4.24    0.16
   4  -5   4    1.81    0.14
   5  -5   4    0.16    0.20
   6  -5   4    1.53    0.34
   7  -5   4    7.02    0.37
  -7  -4   4   57.15    2.42
  -6  -4   4    0.38    0.11
  -5  -4   4   95.90    2.13
  -4  -4   4    9.91    0.27
  -3  -4   4   55.31    1.56
  -2  -4   4   19.59    0.70
  -1  -4   4   12.43    0.44
   0  -4   4    3.53    0.33
   1  -4   4    1.07    0.12
   2  -4   4    7.04    0.29
   3  -4   4    4.75    0.28
   4  -4   4   54.50    1.05
   5  -4   4    1.79    0.40
   6  -4   4   64.19    1.59
   7  -4   4    0.91    0.10
  -7  -3   4    2.38    0.55
  -6  -3   4    8.24    0.27
  -5  -3   4    0.07    0.09
  -4  -3   4    0.52    0.09
  -3  -3   4   27.92    0.73
  -2  -3   4   23.60    0.57
  -1  -3   4  152.47    4.61
   0  -3   4   41.70    2.88
   1  -3   4  250.08    7.43
   2  -3   4    1.90    0.11
   3  -3   4  168.90    5.13
   4  -3   4    0.65    0.30
   5  -3   4   30.56    0.79
   6  -3   4    1.33    0.16
   7  -3   4    4.32    0.18
  -8  -2   4    2.23    0.26
  -7  -2   4    0.99    0.25
  -6  -2   4   22.37    0.59
  -5  -2   4    2.85    0.23
  -4  -2   4   97.72    2.45
  -3  -2   4    4.68    0.17
  -2  -2   4  292.31    6.81
  -1  -2   4    0.42    0.06
   0  -2   4  285.17   14.24
   1  -2   4   16.80    0.45
   2  -2   4   73.31    1.73
   3  -2   4    2.31    0.17
   4  -2   4    0.41    0.16
   5  -2   4    8.04    1.19
   6  -2   4    6.99    0.26
   7  -2   4   15.63    0.42
  -8  -1   4    0.73    0.13
  -7  -1   4   36.77    0.91
  -6  -1   4    0.12    0.10
  -5  -1   4   71.77    2.08
  -4  -1   4   11.67    0.40
  -3  -1   4   69.72    1.46
  -2  -1   4   31.34    0.69
  -1  -1   4    2.10    0.10
   0  -1   4    0.09    0.09
   1  -1   4    0.74    0.08
   2  -1   4    9.96    0.27
   3  -1   4    2.10    0.15
   4  -1   4   35.42    0.70
   5  -1   4    7.38    0.40
   6  -1   4   43.21    0.97
   7  -1   4    0.51    0.13
  -8   0   4   49.92    1.19
  -7   0   4    4.90    0.17
  -6   0   4    6.03    0.26
  -5   0   4    3.79    0.24
  -4   0   4   14.10    0.42
  -3   0   4   27.03    0.57
  -2   0   4   20.66    0.49
  -1   0   4  128.52    2.98
   0   0   4   33.75    1.70
   1   0   4  143.96    3.68
   2   0   4    8.52    0.26
   3   0   4  178.98    5.28
   4   0   4    1.92    0.87
   5   0   4   50.71    1.28
   6   0   4    3.57    0.18
   7   0   4    7.12    0.26
  -8   1   4    7.07    0.32
  -7   1   4    0.44    0.10
  -6   1   4   36.31    0.75
  -5   1   4    0.93    0.16
  -4   1   4  102.79    2.24
  -3   1   4    5.83    0.14
  -2   1   4  440.71   11.11
  -1   1   4    0.04    0.05
   0   1   4  571.36   28.23
   1   1   4   32.65    0.98
   2   1   4   82.67    2.28
   3   1   4    2.74    0.17
   4   1   4    0.88    0.18
   5   1   4   11.07    0.95
   6   1   4    1.63    0.16
   7   1   4   12.76    0.43
  -8   2   4    3.00    0.23
  -7   2   4   60.77    1.52
  -6   2   4    2.83    0.14
  -5   2   4   87.76    1.44
  -4   2   4    5.23    0.18
  -3   2   4   40.92    0.86
  -2   2   4   30.65    0.93
  -1   2   4    1.58    0.10
   0   2   4    1.14    0.12
   1   2   4    3.39    0.20
   2   2   4    8.04    0.28
   3   2   4    8.36    0.35
   4   2   4   20.55    0.55
   5   2   4   12.73    0.62
   6   2   4   30.95    0.92
   7   2   4    0.47    0.16
  -8   3   4   32.75    0.75
  -7   3   4    0.74    0.14
  -6   3   4    7.82    0.27
  -5   3   4    0.30    0.14
  -4   3   4   20.78    0.51
  -3   3   4   44.38    0.93
  -2   3   4   69.54    1.72
  -1   3   4  140.00    3.41
   0   3   4   31.51    1.35
   1   3   4  165.46    4.04
   2   3   4   10.15    0.33
   3   3   4  145.29    2.69
   4   3   4    3.70    1.05
   5   3   4   42.13    1.26
   6   3   4    0.73    0.15
  -8   4   4    0.49    0.13
  -7   4   4    2.47    0.18
  -6   4   4   23.99    0.56
  -5   4   4    8.55    1.81
  -4   4   4   84.34    2.52
  -3   4   4    2.77    0.15
  -2   4   4  128.51    3.15
  -1   4   4    0.96    0.08
   0   4   4  147.91    8.35
   1   4   4   17.74    0.50
   2   4   4   53.37    1.18
   3   4   4    4.71    0.19
   4   4   4    0.91    0.31
   5   4   4   10.81    1.57
   6   4   4    1.87    0.16
  -8   5   4    1.45    0.16
  -7   5   4   61.10    2.10
  -6   5   4    0.62    0.11
  -5   5   4  111.63    2.24
  -4   5   4    0.30    0.14
  -3   5   4  131.14    3.15
  -2   5   4    7.88    0.35
  -1   5   4    7.76    0.29
   0   5   4    0.05    0.15
   1   5   4    7.13    0.21
   2   5   4   26.43    0.50
   3   5   4    5.10    0.20
   4   5   4   41.78    1.27
   5   5   4    7.81    0.53
  -8   6   4   19.38    0.85
  -7   6   4    2.14    0.34
  -6   6   4    3.74    0.20
  -5   6   4    1.47    0.25
  -4   6   4    6.22    1.66
  -3   6   4   13.11    0.29
  -2   6   4   13.51    0.26
  -1   6   4   42.87    0.81
   0   6   4    6.09    0.32
   1   6   4   43.05    0.83
   2   6   4    3.08    0.16
   3   6   4   67.24    1.23
   4   6   4    0.32    0.28
   5   6   4   43.01    1.11
  -7   7   4    7.02    0.40
  -6   7   4   22.61    0.60
  -5   7   4   20.13    3.05
  -4   7   4   79.67    1.72
  -3   7   4   11.74    0.23
  -2   7   4  105.53    1.69
  -1   7   4    0.63    0.08
   0   7   4   80.42    2.70
   1   7   4    5.53    0.19
   2   7   4   11.95    0.31
   3   7   4    1.65    0.13
   4   7   4    0.32    0.17
  -6   8   4    0.95    0.13
  -5   8   4   36.80    1.13
  -4   8   4    0.00    0.29
  -3   8   4   24.21    0.39
  -2   8   4    0.53    0.12
  -1   8   4    2.48    0.13
   0   8   4    0.06    0.11
   1   8   4    3.68    0.15
   2   8   4    6.95    0.33
   3   8   4    6.30    0.21
  -6   9   4    9.12    0.45
  -5   9   4    0.31    0.14
  -4   9   4    0.00    1.53
  -3   9   4    8.71    0.33
  -2   9   4    9.74    0.33
  -1   9   4   39.97    0.73
   0   9   4    8.20    0.40
   1   9   4   48.36    0.87
   2   9   4    1.94    0.29
  -4  10   4   36.05    1.04
  -3  10   4    5.18    0.24
  -2  10   4   49.54    1.37
  -1  10   4    0.33    0.10
   0  10   4   26.94    1.45
   1  10   4    0.92    0.14
   1 -11   5    1.43    0.37
  -2 -10   5    0.00    1.95
  -1 -10   5    1.73    0.18
   0 -10   5   11.36    0.71
   1 -10   5    3.95    0.21
   2 -10   5   43.36    1.39
   3 -10   5    1.70    0.12
   4 -10   5   37.47    0.99
  -3  -9   5   48.83    1.13
  -2  -9   5    4.91    0.41
  -1  -9   5   96.59    2.19
   0  -9   5    1.16    0.17
   1  -9   5   92.19    1.90
   2  -9   5    3.74    0.31
   3  -9   5   37.21    0.75
   4  -9   5    1.98    0.25
   5  -9   5    3.94    0.30
  -4  -8   5   36.05    0.99
  -3  -8   5    7.26    0.22
  -2  -8   5   33.97    1.05
  -1  -8   5   14.42    0.35
   0  -8   5   32.95    1.47
   1  -8   5   13.12    0.35
   2  -8   5    2.21    1.43
   3  -8   5    0.27    0.10
   4  -8   5    1.50    0.17
   5  -8   5   27.08    0.64
   6  -8   5    0.76    0.34
  -5  -7   5   18.89    0.54
  -4  -7   5    0.89    0.10
  -3  -7   5    0.13    0.07
  -2  -7   5    0.67    1.12
  -1  -7   5   15.43    0.32
   0  -7   5   22.56    0.88
   1  -7   5   12.15    0.26
   2  -7   5   65.53    1.29
   3  -7   5    1.12    0.12
   4  -7   5   47.00    1.06
   5  -7   5    0.49    0.28
   6  -7   5   24.41    0.83
  -6  -6   5    0.08    0.08
  -5  -6   5   12.46    0.50
  -4  -6   5    9.26    0.45
  -3  -6   5   79.24    1.41
  -2  -6   5   17.08    0.47
  -1  -6   5  154.60    2.37
   0  -6   5    0.51    0.12
   1  -6   5  127.73    2.00
   2  -6   5    5.89    0.24
   3  -6   5   48.06    0.95
   4  -6   5    7.05    0.29
   5  -6   5    4.00    0.34
   6  -6   5    0.17    0.14
  -6  -5   5   43.41    0.99
  -5  -5   5    1.61    1.22
  -4  -5   5   74.80    1.69
  -3  -5   5    5.30    0.15
  -2  -5   5   59.70    1.38
  -1  -5   5    7.94    0.37
   0  -5   5   21.80    1.57
   1  -5   5    2.57    0.19
   2  -5   5    1.11    0.12
   3  -5   5    0.33    0.07
   4  -5   5    4.11    0.20
   5  -5   5   14.66    0.48
   6  -5   5    2.48    0.32
   7  -5   5   22.55    0.72
  -7  -4   5   53.50    2.24
  -6  -4   5    9.21    0.29
  -5  -4   5   27.99    0.69
  -4  -4   5    3.97    0.19
  -3  -4   5    7.73    0.23
  -2  -4   5    0.60    0.13
  -1  -4   5    0.40    0.11
   0  -4   5   28.36    2.00
   1  -4   5   15.50    0.55
   2  -4   5  140.23    3.63
   3  -4   5    4.99    0.18
   4  -4   5  126.48    2.48
   5  -4   5    1.41    0.34
   6  -4   5   54.25    1.26
   7  -4   5    0.88    0.09
  -7  -3   5    0.75    0.25
  -6  -3   5    0.73    0.11
  -5  -3   5   21.52    0.60
  -4  -3   5   15.17    0.49
  -3  -3   5  107.27    2.87
  -2  -3   5   25.82    0.83
  -1  -3   5  250.59    7.50
   0  -3   5    3.48    0.33
   1  -3   5  168.55    5.11
   2  -3   5    6.06    0.25
   3  -3   5   39.33    1.73
   4  -3   5    0.81    0.21
   5  -3   5    4.64    0.31
   6  -3   5    0.12    0.11
   7  -3   5    0.17    0.10
  -8  -2   5   13.32    0.66
  -7  -2   5    3.12    0.20
  -6  -2   5   59.43    1.52
  -5  -2   5    3.57    0.36
  -4  -2   5  126.83    3.48
  -3  -2   5    0.73    0.10
  -2  -2   5   77.23    1.93
  -1  -2   5   16.06    0.46
   0  -2   5   13.05    0.69
   1  -2   5    3.46    0.15
   2  -2   5    0.24    0.09
   3  -2   5    5.49    0.27
   4  -2   5   12.58    0.42
   5  -2   5   33.04    0.90
   6  -2   5    3.01    0.19
   7  -2   5   47.75    1.03
  -8  -1   5    0.12    0.12
  -7  -1   5   47.38    1.23
  -6  -1   5    3.74    0.23
  -5  -1   5   28.36    0.84
  -4  -1   5    0.46    0.10
  -3  -1   5    0.11    0.08
  -2  -1   5   18.65    0.45
  -1  -1   5    5.14    0.17
   0  -1   5   18.25    0.94
   1  -1   5    7.87    0.24
   2  -1   5   58.09    1.37
   3  -1   5    8.16    0.30
   4  -1   5   59.28    2.01
   5  -1   5    3.87    0.86
   6  -1   5   30.16    0.87
   7  -1   5    1.45    0.13
  -8   0   5    2.36    0.16
  -7   0   5    1.07    0.10
  -6   0   5    1.23    0.14
  -5   0   5   21.90    0.52
  -4   0   5    4.56    0.18
  -3   0   5  111.75    2.38
  -2   0   5   16.98    0.48
  -1   0   5  249.43    5.73
   0   0   5    0.15    0.10
   1   0   5  234.60    5.83
   2   0   5   19.70    0.54
   3   0   5   54.76    1.59
   4   0   5    3.66    2.01
   5   0   5    3.99    0.29
   6   0   5    0.08    0.12
   7   0   5    0.12    0.12
  -8   1   5   19.41    0.72
  -7   1   5    2.41    0.14
  -6   1   5   70.00    1.48
  -5   1   5    8.03    1.35
  -4   1   5  229.34    4.67
  -3   1   5    0.50    0.06
  -2   1   5  237.14    6.00
  -1   1   5    9.41    0.28
   0   1   5    6.75    0.38
   1   1   5    4.00    0.21
   2   1   5    7.81    0.36
   3   1   5   26.02    0.72
   4   1   5    9.64    0.47
   5   1   5   25.55    0.91
   6   1   5    8.26    0.28
   7   1   5   35.11    1.13
  -8   2   5    0.34    0.13
  -7   2   5   45.83    1.16
  -6   2   5    5.62    0.19
  -5   2   5   16.63    0.58
  -4   2   5    2.79    0.22
  -3   2   5    0.15    0.07
  -2   2   5   10.93    0.38
  -1   2   5    0.70    0.09
   0   2   5   22.27    1.45
   1   2   5   10.50    0.40
   2   2   5   46.90    1.21
   3   2   5   12.00    0.27
   4   2   5   79.80    2.38
   5   2   5    6.52    1.08
   6   2   5   44.85    1.00
  -8   3   5    0.61    0.15
  -7   3   5    0.14    0.11
  -6   3   5    6.87    0.21
  -5   3   5   18.89    0.51
  -4   3   5   20.51    1.00
  -3   3   5  104.30    2.56
  -2   3   5   14.57    0.41
  -1   3   5  217.59    5.29
   0   3   5    0.84    0.12
   1   3   5  183.23    4.48
   2   3   5    5.22    0.28
   3   3   5   32.68    0.59
   4   3   5    7.97    1.41
   5   3   5    0.90    0.34
   6   3   5    0.06    0.13
  -8   4   5   17.62    0.56
  -7   4   5    3.15    0.19
  -6   4   5   52.84    1.05
  -5   4   5    5.89    0.79
  -4   4   5  101.78    1.91
  -3   4   5    0.25    0.10
  -2   4   5  103.77    2.54
  -1   4   5   14.39    0.41
   0   4   5   22.49    1.34
   1   4   5    0.22    0.11
   2   4   5    1.64    0.10
   3   4   5   14.16    0.31
   4   4   5    7.12    0.41
   5   4   5   18.54    0.68
   6   4   5    2.65    0.17
  -8   5   5    0.63    0.17
  -7   5   5   58.37    2.07
  -6   5   5    0.54    0.11
  -5   5   5   33.67    0.88
  -4   5   5    5.96    0.62
  -3   5   5    0.35    0.08
  -2   5   5    2.10    0.13
  -1   5   5   17.75    0.56
   0   5   5   32.61    1.77
   1   5   5   15.15    0.30
   2   5   5   51.60    0.87
   3   5   5   11.13    0.30
   4   5   5   43.92    1.71
   5   5   5    5.00    0.98
  -7   6   5    0.02    0.17
  -6   6   5    5.78    0.26
  -5   6   5   18.98    0.62
  -4   6   5   19.52    2.30
  -3   6   5   52.73    0.96
  -2   6   5   12.61    0.28
  -1   6   5   66.11    1.17
   0   6   5    7.04    0.36
   1   6   5   86.82    1.74
   2   6   5    0.24    0.09
   3   6   5   34.64    0.74
   4   6   5   11.79    1.73
   5   6   5    1.64    2.72
  -7   7   5    7.02    0.35
  -6   7   5   73.26    1.76
  -5   7   5    3.93    1.17
  -4   7   5  127.90    3.71
  -3   7   5    0.42    0.08
  -2   7   5   95.45    1.65
  -1   7   5    3.83    0.15
   0   7   5   10.74    0.53
   1   7   5    1.19    0.10
   2   7   5    3.22    0.16
   3   7   5   18.62    0.50
   4   7   5    5.08    0.34
  -6   8   5    2.14    0.15
  -5   8   5    7.60    0.42
  -4   8   5    0.75    0.57
  -3   8   5    0.72    0.09
  -2   8   5    0.27    0.14
  -1   8   5    2.26    0.12
   0   8   5   10.09    0.48
   1   8   5    6.73    0.19
   2   8   5   31.59    0.63
   3   8   5    4.34    0.20
  -5   9   5    8.83    0.39
  -4   9   5   22.43    1.31
  -3   9   5   33.06    0.68
  -2   9   5   13.50    0.42
  -1   9   5   52.13    0.93
   0   9   5    2.78    0.21
   1   9   5   36.28    0.76
   2   9   5    0.03    0.15
  -4  10   5   36.66    1.33
  -3  10   5    0.16    0.11
  -2  10   5   23.00    0.66
  -1  10   5    1.17    0.13
   0  10   5    2.93    0.27
  -2 -10   6    9.38    8.73
  -1 -10   6    1.37    0.13
   0 -10   6   50.07    2.80
   1 -10   6    0.09    0.11
   2 -10   6   46.74    1.68
   3 -10   6    3.02    0.16
  -3  -9   6   58.41    1.33
  -2  -9   6    8.79    0.45
  -1  -9   6   50.73    1.19
   0  -9   6    4.64    0.38
   1  -9   6   18.62    0.44
   2  -9   6    7.05    0.49
   3  -9   6    0.79    0.11
   4  -9   6    0.94    0.18
  -4  -8   6   19.09    0.49
  -3  -8   6    1.87    0.12
  -2  -8   6   20.45    0.72
  -1  -8   6    0.27    0.12
   0  -8   6    0.05    0.18
   1  -8   6   12.41    0.34
   2  -8   6   14.54    0.69
   3  -8   6   64.57    1.25
   4  -8   6    3.11    0.16
   5  -8   6   70.02    1.49
  -5  -7   6    0.28    0.10
  -4  -7   6    2.51    0.14
  -3  -7   6    8.78    0.21
  -2  -7   6   50.24    1.33
  -1  -7   6    5.01    0.22
   0  -7   6  112.31    4.87
   1  -7   6    0.10    0.08
   2  -7   6   59.04    1.39
   3  -7   6    0.06    0.11
   4  -7   6   26.59    0.64
   5  -7   6    0.90    0.30
   6  -7   6    7.95    0.35
  -6  -6   6    5.40    0.18
  -5  -6   6   51.35    1.23
  -4  -6   6    1.25    0.20
  -3  -6   6   98.62    1.65
  -2  -6   6    7.48    0.33
  -1  -6   6   95.32    1.70
   0  -6   6   11.61    0.42
   1  -6   6   45.24    0.75
   2  -6   6    7.24    0.26
   3  -6   6    2.41    0.12
   4  -6   6    0.59    0.29
   5  -6   6    1.38    0.36
   6  -6   6   21.39    0.79
  -6  -5   6   40.34    1.15
  -5  -5   6    4.20    0.25
  -4  -5   6   24.85    0.68
  -3  -5   6    5.73    0.16
  -2  -5   6   10.46    0.25
  -1  -5   6    2.50    0.16
   0  -5   6    0.30    0.39
   1  -5   6    2.47    0.17
   2  -5   6    8.51    0.24
   3  -5   6   39.97    0.77
   4  -5   6    1.48    0.16
   5  -5   6   52.97    1.36
   6  -5   6    0.35    0.22
  -7  -4   6    9.52    0.70
  -6  -4   6    0.26    0.10
  -5  -4   6    0.20    0.20
  -4  -4   6    2.17    0.20
  -3  -4   6    6.76    0.19
  -2  -4   6   48.27    1.49
  -1  -4   6   26.09    0.88
   0  -4   6  209.26   14.42
   1  -4   6    3.69    0.23
   2  -4   6  138.18    3.35
   3  -4   6    3.38    0.14
   4  -4   6   52.74    1.17
   5  -4   6    0.79    1.99
   6  -4   6   15.26    0.46
   7  -4   6    1.02    0.23
  -7  -3   6   23.23    1.17
  -6  -3   6   16.11    0.45
  -5  -3   6   93.82    1.85
  -4  -3   6   11.40    0.37
  -3  -3   6  199.36    6.60
  -2  -3   6    2.08    0.17
  -1  -3   6  129.34    3.97
   0  -3   6    0.43    0.16
   1  -3   6   17.93    0.63
   2  -3   6    1.32    0.16
   3  -3   6    0.89    0.09
   4  -3   6    0.38    0.25
   5  -3   6    4.75    0.38
   6  -3   6    9.43    0.29
   7  -3   6    6.98    0.23
  -8  -2   6   39.26    1.61
  -7  -2   6    0.07    0.15
  -6  -2   6   65.12    2.19
  -5  -2   6    5.83    0.28
  -4  -2   6   51.02    1.03
  -3  -2   6   18.38    0.80
  -2  -2   6   42.73    1.03
  -1  -2   6    3.69    0.17
   0  -2   6    2.58    0.20
   1  -2   6   19.50    0.58
   2  -2   6   19.96    0.67
   3  -2   6   87.30    1.82
   4  -2   6    4.74    0.31
   5  -2   6   70.89    2.25
   6  -2   6    0.22    0.14
   7  -2   6   33.92    0.73
  -8  -1   6    1.26    0.18
  -7  -1   6    6.96    0.28
  -6  -1   6    0.20    0.14
  -5  -1   6    2.48    0.39
  -4  -1   6    1.20    0.13
  -3  -1   6   12.24    0.45
  -2  -1   6   11.46    0.32
  -1  -1   6    7.23    0.22
   0  -1   6   91.38    4.56
   1  -1   6    2.99    0.15
   2  -1   6   75.45    1.75
   3  -1   6    0.58    0.09
   4  -1   6   32.55    0.73
   5  -1   6    5.75    2.57
   6  -1   6    7.70    0.30
   7  -1   6    0.76    0.11
  -8   0   6    1.85    0.11
  -7   0   6   27.58    0.56
  -6   0   6   10.37    0.36
  -5   0   6  110.19    2.20
  -4   0   6   13.38    0.88
  -3   0   6  224.06    5.81
  -2   0   6    0.37    0.07
  -1   0   6  242.15    5.57
   0   0   6    8.04    0.44
   1   0   6   70.41    1.82
   2   0   6    0.17    0.10
   3   0   6    3.52    0.16
   4   0   6    2.21    1.49
   5   0   6    1.97    0.30
   6   0   6   12.18    0.37
  -8   1   6   43.24    1.04
  -7   1   6    1.37    0.14
  -6   1   6  102.90    2.03
  -5   1   6    0.60    0.17
  -4   1   6   74.22    2.52
  -3   1   6    9.01    0.34
  -2   1   6    2.27    0.14
  -1   1   6    0.17    0.08
   0   1   6   10.79    0.58
   1   1   6   27.12    0.74
   2   1   6   19.28    0.69
   3   1   6   62.48    1.02
   4   1   6    7.35    0.39
   5   1   6   58.19    1.83
   6   1   6    0.33    0.13
  -8   2   6    1.66    0.17
  -7   2   6    4.70    0.21
  -6   2   6    0.13    0.09
  -5   2   6   10.16    1.32
  -4   2   6    0.00    0.67
  -3   2   6   10.83    0.33
  -2   2   6   21.45    0.63
  -1   2   6   17.86    0.49
   0   2   6   72.12    4.26
   1   2   6    6.48    0.38
   2   2   6  111.71    3.18
   3   2   6    2.87    0.13
   4   2   6   54.16    1.28
   5   2   6    3.83    1.33
   6   2   6   11.07    0.36
  -8   3   6    1.99    0.18
  -7   3   6   26.63    0.57
  -6   3   6   12.45    0.30
  -5   3   6  110.65    2.26
  -4   3   6   10.22    0.62
  -3   3   6  208.59    5.10
  -2   3   6    0.07    0.08
  -1   3   6  164.21    4.02
   0   3   6    2.90    0.44
   1   3   6   20.49    0.66
   2   3   6    0.52    0.09
   3   3   6    0.13    0.09
   4   3   6    2.96    1.26
   5   3   6    4.70    0.43
   6   3   6   15.73    0.69
  -8   4   6   32.21    0.90
  -7   4   6    0.18    0.11
  -6   4   6   56.07    1.11
  -5   4   6    1.40    0.21
  -4   4   6   48.74    1.00
  -3   4   6    1.99    0.13
  -2   4   6    7.70    0.31
  -1   4   6    2.32    0.16
   0   4   6    9.21    1.00
   1   4   6   30.82    0.49
   2   4   6   22.20    0.42
   3   4   6   49.38    0.92
   4   4   6    7.12    0.46
   5   4   6   34.46    1.45
  -8   5   6    0.09    0.18
  -7   5   6   11.47    0.47
  -6   5   6    0.10    0.11
  -5   5   6    7.06    1.17
  -4   5   6    4.05    0.20
  -3   5   6   16.83    0.37
  -2   5   6   45.56    0.81
  -1   5   6   12.13    0.26
   0   5   6   97.02    3.10
   1   5   6    3.94    0.14
   2   5   6   77.91    1.39
   3   5   6    0.08    0.09
   4   5   6   39.88    1.54
   5   5   6    6.34    0.99
  -7   6   6   13.08    0.54
  -6   6   6    7.04    0.28
  -5   6   6   42.74    1.23
  -4   6   6    3.62    0.77
  -3   6   6   58.59    1.15
  -2   6   6    0.89    0.09
  -1   6   6   72.11    1.26
   0   6   6   10.12    0.42
   1   6   6   36.57    0.73
   2   6   6   10.96    0.29
   3   6   6    2.95    0.15
   4   6   6    3.38    1.18
  -7   7   6    2.94    0.35
  -6   7   6   71.61    1.72
  -5   7   6    0.00    0.35
  -4   7   6   22.03    1.20
  -3   7   6    0.17    0.09
  -2   7   6    1.36    0.10
  -1   7   6    4.12    0.19
   0   7   6   27.33    1.19
   1   7   6   24.51    0.46
   2   7   6   21.87    0.47
   3   7   6   28.68    0.68
  -6   8   6    0.08    0.11
  -5   8   6    0.48    0.27
  -4   8   6    5.33    0.32
  -3   8   6    5.07    0.17
  -2   8   6   28.85    0.58
  -1   8   6   15.72    0.33
   0   8   6   66.65    2.28
   1   8   6    5.36    0.17
   2   8   6   54.89    1.01
  -5   9   6   32.19    1.90
  -4   9   6    5.34    0.38
  -3   9   6   54.00    1.07
  -2   9   6    0.21    0.18
  -1   9   6   31.27    0.62
   0   9   6    0.43    0.11
   1   9   6    7.80    0.22
  -3  10   6    0.67    0.13
  -2  10   6    0.64    0.15
  -1  10   6    0.69    0.14
  -1 -10   7    0.15    0.10
   0 -10   7   38.23    2.14
   1 -10   7    1.70    0.16
   2 -10   7   29.87   14.08
  -3  -9   7   42.11    0.88
  -2  -9   7    3.83    1.55
  -1  -9   7   18.59    0.50
   0  -9   7    4.63    0.37
   1  -9   7    1.24    0.12
   2  -9   7    1.09    0.33
   3  -9   7    1.03    0.11
   4  -9   7   24.21    0.74
  -4  -8   7    5.34    0.20
  -3  -8   7    0.05    0.08
  -2  -8   7    2.16    0.30
  -1  -8   7   15.55    0.42
   0  -8   7   10.97    0.56
   1  -8   7   68.90    1.34
   2  -8   7    0.55    0.24
   3  -8   7   88.10    1.60
   4  -8   7    1.92    0.13
   5  -8   7   45.35    1.18
  -5  -7   7   11.47    0.39
  -4  -7   7   48.12    0.96
  -3  -7   7    5.25    0.16
  -2  -7   7   72.88    1.33
  -1  -7   7    0.17    0.10
   0  -7   7   29.91    1.36
   1  -7   7    0.31    0.09
   2  -7   7   17.05    0.58
   3  -7   7    2.87    0.16
   4  -7   7    5.06    0.23
   5  -7   7    2.97    0.20
  -6  -6   7    0.30    0.10
  -5  -6   7   72.11    1.85
  -4  -6   7    3.70    0.27
  -3  -6   7   72.14    1.40
  -2  -6   7    5.56    0.42
  -1  -6   7   29.03    0.48
   0  -6   7    4.40    0.22
   1  -6   7    0.12    0.08
   2  -6   7    5.54    0.25
   3  -6   7   12.88    0.38
   4  -6   7   55.38    1.36
   5  -6   7    3.72    0.38
   6  -6   7   51.81    1.79
  -6  -5   7   13.93    0.46
  -5  -5   7    1.38    0.16
  -4  -5   7    4.44    0.25
  -3  -5   7    0.93    0.10
  -2  -5   7    3.42    0.18
  -1  -5   7   21.24    0.41
   0  -5   7   12.06    0.47
   1  -5   7   85.17    1.45
   2  -5   7    1.33    0.10
   3  -5   7   85.45    1.63
   4  -5   7    0.22    0.24
   5  -5   7   37.96    1.30
   6  -5   7    0.31    0.19
  -7  -4   7    0.18    0.15
  -6  -4   7    7.49    0.25
  -5  -4   7    4.29    0.40
  -4  -4   7   77.32    1.47
  -3  -4   7    7.62    0.22
  -2  -4   7  180.08    3.68
  -1  -4   7    0.04    0.17
   0  -4   7  178.69   22.05
   1  -4   7    8.85    0.35
   2  -4   7   74.64    1.29
   3  -4   7    4.98    0.19
   4  -4   7   18.68    0.57
   5  -4   7    2.88    0.72
   6  -4   7    0.14    0.15
  -7  -3   7   42.67    1.51
  -6  -3   7    0.32    0.11
  -5  -3   7   80.20    1.66
  -4  -3   7    4.83    0.21
  -3  -3   7   44.23    0.82
  -2  -3   7    3.44    0.21
  -1  -3   7    2.25    0.17
   0  -3   7    4.02    0.38
   1  -3   7    2.68    0.20
   2  -3   7    0.51    0.09
   3  -3   7   11.29    0.27
   4  -3   7   23.55    0.74
   5  -3   7    8.09    0.36
   6  -3   7   44.06    1.01
  -7  -2   7    1.14    0.19
  -6  -2   7   19.44    0.79
  -5  -2   7    1.82    0.23
  -4  -2   7    7.56    0.29
  -3  -2   7    5.00    0.31
  -2  -2   7   12.86    0.48
  -1  -2   7   89.24    2.76
   0  -2   7   69.11    4.74
   1  -2   7  205.57    5.41
   2  -2   7    6.51    0.39
   3  -2   7  132.98    2.24
   4  -2   7    3.68    0.66
   5  -2   7   45.67    1.21
   6  -2   7    0.23    0.13
  -8  -1   7    0.25    0.18
  -7  -1   7    2.42    0.14
  -6  -1   7    5.09    0.23
  -5  -1   7    6.13    0.61
  -4  -1   7   50.72    0.97
  -3  -1   7    1.09    0.12
  -2  -1   7  122.58    3.62
  -1  -1   7    0.43    0.08
   0  -1   7  102.84    5.12
   1  -1   7    2.12    0.13
   2  -1   7   53.10    1.38
   3  -1   7    6.35    0.20
   4  -1   7    9.91    0.44
   5  -1   7    5.72    0.86
   6  -1   7    0.51    0.11
  -8   0   7    4.86    0.19
  -7   0   7   67.53    1.25
  -6   0   7    2.65    0.19
  -5   0   7  106.00    2.73
  -4   0   7    0.36    0.16
  -3   0   7  130.18    3.19
  -2   0   7    1.66    0.11
  -1   0   7   26.03    0.71
   0   0   7    0.12    0.11
   1   0   7    5.76    0.23
   2   0   7    6.12    0.34
   3   0   7   15.52    0.39
   4   0   7   19.68    0.90
   5   0   7    7.66    0.36
   6   0   7   28.51    0.56
  -8   1   7   38.53    0.86
  -7   1   7    0.41    0.11
  -6   1   7   29.60    0.64
  -5   1   7    3.67    0.23
  -4   1   7    0.63    0.17
  -3   1   7    2.88    0.16
  -2   1   7   23.84    0.63
  -1   1   7   87.51    2.25
   0   1   7   35.69    1.81
   1   1   7  148.32    4.10
   2   1   7   11.25    0.28
   3   1   7  100.13    1.61
   4   1   7    4.23    1.13
   5   1   7   30.52    1.55
   6   1   7    0.43    0.10
  -8   2   7    0.73    0.14
  -7   2   7    3.40    0.17
  -6   2   7    4.31    0.20
  -5   2   7   21.42    1.65
  -4   2   7   38.62    0.88
  -3   2   7    1.40    0.15
  -2   2   7  106.03    3.86
  -1   2   7    0.19    0.10
   0   2   7  142.43   13.31
   1   2   7    4.67    0.34
   2   2   7   84.25    1.29
   3   2   7    5.01    0.17
   4   2   7   13.23    0.47
   5   2   7    0.19    0.76
   6   2   7    0.10    0.11
  -8   3   7   10.93    0.33
  -7   3   7   70.63    1.51
  -6   3   7    5.21    0.20
  -5   3   7  105.49    1.93
  -4   3   7    0.00    0.18
  -3   3   7   82.10    2.01
  -2   3   7    0.31    0.11
  -1   3   7   10.89    0.50
   0   3   7    0.14    0.27
   1   3   7    3.67    0.14
   2   3   7   11.34    0.26
   3   3   7   12.31    0.29
   4   3   7   43.14    1.27
   5   3   7    6.09    0.47
  -8   4   7   21.07    0.77
  -7   4   7    0.03    0.12
  -6   4   7   19.45    0.49
  -5   4   7    0.55    0.24
  -4   4   7    3.93    0.51
  -3   4   7    1.96    0.11
  -2   4   7   25.22    0.49
  -1   4   7   42.51    0.68
   0   4   7   32.45    1.07
   1   4   7   67.18    1.06
   2   4   7    3.60    0.13
   3   4   7   43.92    0.87
   4   4   7    1.12    0.81
   5   4   7   13.41    0.98
  -7   5   7    4.25    0.25
  -6   5   7    4.83    0.32
  -5   5   7   25.23    2.36
  -4   5   7   47.42    0.97
  -3   5   7    9.19    0.22
  -2   5   7   88.89    1.47
  -1   5   7    3.81    0.13
   0   5   7   58.27    1.88
   1   5   7    0.23    0.08
   2   5   7   27.11    0.61
   3   5   7    2.33    0.13
   4   5   7    1.69    0.29
  -7   6   7   38.51    1.24
  -6   6   7    0.43    0.15
  -5   6   7   65.97    2.20
  -4   6   7    0.31    0.29
  -3   6   7   80.88    1.39
  -2   6   7    0.79    0.09
  -1   6   7   47.86    0.86
   0   6   7    0.39    0.14
   1   6   7    0.62    0.11
   2   6   7    6.22    0.23
   3   6   7    6.63    0.22
   4   6   7   26.15    0.85
  -7   7   7    0.00    0.24
  -6   7   7    6.66    0.30
  -5   7   7    2.39    0.38
  -4   7   7    6.15    1.23
  -3   7   7    1.36    0.11
  -2   7   7   21.50    0.43
  -1   7   7   34.74    0.69
   0   7   7   17.75    1.02
   1   7   7   57.68    0.93
   2   7   7    4.48    0.14
   3   7   7   31.88    0.73
  -6   8   7    4.30    0.24
  -5   8   7    6.04    1.06
  -4   8   7   22.49    0.67
  -3   8   7   10.72    0.25
  -2   8   7   57.07    1.07
  -1   8   7    1.33    0.10
   0   8   7   52.86    2.10
   1   8   7    0.39    0.09
   2   8   7   18.33    0.71
  -5   9   7   33.58    1.96
  -4   9   7    0.13    0.14
  -3   9   7   16.71    0.39
  -2   9   7    0.67    0.09
  -1   9   7    4.54    0.17
   0   9   7    0.58    0.13
   1   9   7    0.00    0.28
   0 -10   8   17.10    1.59
   1 -10   8    4.16    0.41
  -3  -9   8    3.95    0.34
  -2  -9   8    0.00    1.72
  -1  -9   8    0.72    0.11
   0  -9   8    8.29    0.54
   1  -9   8    5.55    0.23
   2  -9   8   38.42    1.07
   3  -9   8    3.84    0.24
  -4  -8   8    2.68    0.14
  -3  -8   8   28.97    0.64
  -2  -8   8    5.91    0.57
  -1  -8   8   85.68    1.66
   0  -8   8    0.56    0.14
   1  -8   8  104.75    2.20
   2  -8   8    0.59    0.16
   3  -8   8   54.11    1.16
   4  -8   8    2.43    0.15
  -5  -7   8    1.29    0.14
  -4  -7   8   36.53    0.79
  -3  -7   8    1.69    0.11
  -2  -7   8   26.64    0.82
  -1  -7   8    3.91    0.13
   0  -7   8   18.30    0.74
   1  -7   8    4.61    0.17
   2  -7   8    3.23    0.30
   3  -7   8    1.01    0.15
   4  -7   8    1.45    0.15
   5  -7   8    4.12    0.22
  -6  -6   8    0.83    0.23
  -5  -6   8   40.32    0.91
  -4  -6   8    3.08    0.21
  -3  -6   8   12.29    0.35
  -2  -6   8    0.67    0.11
  -1  -6   8    0.86    0.09
   0  -6   8   25.52    1.19
   1  -6   8   11.76    0.26
   2  -6   8   99.06    1.82
   3  -6   8    3.95    0.20
   4  -6   8   90.72    2.14
   5  -6   8    0.09    0.13
  -6  -5   8    0.01    0.09
  -5  -5   8    2.50    0.19
  -4  -5   8    5.12    0.23
  -3  -5   8   18.54    0.41
  -2  -5   8    4.27    0.20
  -1  -5   8   62.48    1.08
   0  -5   8    0.43    0.12
   1  -5   8   82.11    1.60
   2  -5   8    0.16    0.09
   3  -5   8   29.76    0.66
   4  -5   8    3.97    0.36
   5  -5   8    2.79    0.25
  -7  -4   8    5.22    0.63
  -6  -4   8   48.72    1.25
  -5  -4   8   10.15    1.40
  -4  -4   8   96.81    1.81
  -3  -4   8    0.52    0.09
  -2  -4   8   83.35    1.65
  -1  -4   8    6.05    0.20
   0  -4   8   45.49    1.60
   1  -4   8    2.08    0.11
   2  -4   8    3.23    0.16
   3  -4   8    0.22    0.11
   4  -4   8    5.30    0.35
   5  -4   8    5.18    0.32
   6  -4   8    4.68    0.26
  -7  -3   8   44.01    1.89
  -6  -3   8    1.85    0.23
  -5  -3   8   31.43    0.74
  -4  -3   8    2.46    0.17
  -3  -3   8    1.60    0.11
  -2  -3   8    0.37    0.09
  -1  -3   8    0.93    0.11
   0  -3   8   14.47    1.94
   1  -3   8    4.81    0.15
   2  -3   8   77.02    1.26
   3  -3   8    6.19    0.20
   4  -3   8   93.63    2.16
   5  -3   8    2.59    0.63
   6  -3   8   47.44    1.21
  -7  -2   8    0.24    0.14
  -6  -2   8    0.49    0.22
  -5  -2   8   10.79    0.40
  -4  -2   8   15.06    0.48
  -3  -2   8   69.95    1.26
  -2  -2   8   26.83    1.43
  -1  -2   8  187.35    5.74
   0  -2   8    1.96    0.26
   1  -2   8  185.82    6.39
   2  -2   8    0.79    0.08
   3  -2   8   50.89    0.98
   4  -2   8    3.09    1.27
   5  -2   8    4.62    0.40
   6  -2   8    0.13    0.12
  -7  -1   8    1.87    0.13
  -6  -1   8   43.06    1.14
  -5  -1   8    6.49    0.75
  -4  -1   8   71.37    1.44
  -3  -1   8    0.34    0.10
  -2  -1   8   74.90    2.25
  -1  -1   8    4.15    0.17
   0  -1   8   52.80    2.66
   1  -1   8    7.30    0.27
   2  -1   8    4.44    0.14
   3  -1   8    0.18    0.09
   4  -1   8    5.83    0.33
   5  -1   8   13.68    0.62
   6  -1   8    8.39    0.27
  -8   0   8    0.18    0.13
  -7   0   8   52.26    1.05
  -6   0   8    0.47    0.14
  -5   0   8   51.95    1.32
  -4   0   8    6.36    0.31
  -3   0   8    1.72    0.18
  -2   0   8    2.32    0.14
  -1   0   8   16.78    0.49
   0   0   8   16.12    0.85
   1   0   8   11.84    0.38
   2   0   8   49.07    0.88
   3   0   8    4.52    0.20
   4   0   8   42.87    1.31
   5   0   8    1.47    0.39
   6   0   8   29.49    0.93
  -8   1   8    5.54    0.23
  -7   1   8    0.17    0.11
  -6   1   8    3.69    0.19
  -5   1   8   11.25    0.41
  -4   1   8   54.77    2.10
  -3   1   8   80.38    2.21
  -2   1   8   27.34    0.72
  -1   1   8  128.79    3.30
   0   1   8    6.77    0.52
   1   1   8  127.12    3.22
   2   1   8    0.09    0.08
   3   1   8   53.10    0.94
   4   1   8    2.35    2.16
   5   1   8    5.02    0.35
  -8   2   8   13.44    0.40
  -7   2   8    0.97    0.13
  -6   2   8   60.32    1.26
  -5   2   8   17.75    1.19
  -4   2   8  105.94    2.26
  -3   2   8    1.63    0.11
  -2   2   8  150.16    4.56
  -1   2   8    3.51    0.23
   0   2   8   94.39    5.22
   1   2   8    8.20    0.22
   2   2   8    5.18    0.17
   3   2   8    0.10    0.09
   4   2   8    1.08    0.43
   5   2   8    4.13    0.30
  -8   3   8    0.10    0.17
  -7   3   8   54.40    1.25
  -6   3   8    0.19    0.11
  -5   3   8   39.30    0.96
  -4   3   8    5.05    0.50
  -3   3   8    0.51    0.08
  -2   3   8    0.12    0.08
  -1   3   8   24.62    0.49
   0   3   8   29.59    0.98
   1   3   8   27.41    0.51
   2   3   8   73.79    1.13
   3   3   8   16.92    0.35
   4   3   8   51.20    2.38
   5   3   8    2.67    0.72
  -8   4   8    2.91    0.44
  -7   4   8    0.31    0.13
  -6   4   8    0.79    0.13
  -5   4   8    7.15    0.53
  -4   4   8   35.46    2.33
  -3   4   8   57.57    1.04
  -2   4   8   20.26    0.39
  -1   4   8   87.02    1.45
   0   4   8    1.62    0.13
   1   4   8   67.24    1.19
   2   4   8    0.56    0.10
   3   4   8   30.33    0.62
   4   4   8    4.59    1.02
  -7   5   8    5.72    0.30
  -6   5   8   43.85    1.44
  -5   5   8    2.30    1.22
  -4   5   8   61.46    1.28
  -3   5   8    0.15    0.08
  -2   5   8   53.56    0.87
  -1   5   8    3.61    0.13
   0   5   8   44.27    1.44
   1   5   8   13.88    0.33
   2   5   8    5.48    0.20
   3   5   8    0.54    0.10
   4   5   8    2.00    0.29
  -7   6   8   33.10    1.01
  -6   6   8    0.05    0.13
  -5   6   8   41.65    1.63
  -4   6   8    1.07    0.41
  -3   6   8    9.22    0.27
  -2   6   8    0.20    0.09
  -1   6   8   10.61    0.31
   0   6   8    8.96    0.58
   1   6   8   18.86    0.45
   2   6   8   34.30    0.67
   3   6   8    4.79    0.17
  -6   7   8    3.49    0.16
  -5   7   8    7.86    0.54
  -4   7   8   24.84    1.72
  -3   7   8   55.75    1.22
  -2   7   8   19.71    0.40
  -1   7   8   65.97    1.24
   0   7   8    5.27    0.40
   1   7   8   32.61    0.66
   2   7   8    1.35    0.11
  -5   8   8    0.00    1.34
  -4   8   8   41.39    1.95
  -3   8   8    0.66    0.11
  -2   8   8   47.11    0.82
  -1   8   8    0.25    0.09
   0   8   8   19.02    0.79
   1   8   8    0.83    0.09
  -4   9   8    2.82    0.66
  -3   9   8    2.35    0.16
  -2   9   8    0.12    0.08
  -1   9   8    0.95    0.10
  -2  -9   9    8.41   10.18
  -1  -9   9    4.67    0.19
   0  -9   9   40.30    3.64
   1  -9   9    2.01    0.15
   2  -9   9   41.80    1.43
  -4  -8   9    6.40    0.47
  -3  -8   9   72.64    1.64
  -2  -8   9    0.63    0.32
  -1  -8   9   81.10    1.86
   0  -8   9    2.77    0.24
   1  -8   9   34.48    0.77
   2  -8   9    5.69    0.33
   3  -8   9    5.04    0.19
  -4  -7   9   20.20    0.60
  -3  -7   9    5.66    0.19
  -2  -7   9    9.56    0.42
  -1  -7   9    1.69    0.10
   0  -7   9    0.76    0.12
   1  -7   9    0.12    0.10
   2  -7   9    2.59    0.23
   3  -7   9   10.48    0.33
   4  -7   9    2.59    0.16
  -5  -6   9    2.18    0.17
  -4  -6   9    2.40    0.16
  -3  -6   9    5.27    0.22
  -2  -6   9   43.35    1.28
  -1  -6   9   25.80    0.50
   0  -6   9  116.37    5.12
   1  -6   9   11.23    0.34
   2  -6   9  111.15    2.33
   3  -6   9    0.16    0.13
   4  -6   9   52.61    1.29
   5  -6   9    0.48    0.11
  -6  -5   9    2.24    0.15
  -5  -5   9   24.74    0.67
  -4  -5   9    2.56    0.20
  -3  -5   9   70.95    1.46
  -2  -5   9    1.00    0.15
  -1  -5   9   89.31    1.62
   0  -5   9    0.72    0.14
   1  -5   9   29.38    0.58
   2  -5   9    2.75    0.16
   3  -5   9    2.29    0.21
   4  -5   9    3.09    1.86
   5  -5   9    0.00    0.34
  -6  -4   9   55.78    1.50
  -5  -4   9    2.89    0.34
  -4  -4   9   63.59    1.40
  -3  -4   9   15.80    0.43
  -2  -4   9   22.26    0.46
  -1  -4   9    3.41    0.15
   0  -4   9    0.74    0.15
   1  -4   9    0.27    0.10
   2  -4   9    2.77    0.14
   3  -4   9    5.74    0.25
   4  -4   9    1.64    0.35
   5  -4   9   27.86    1.20
  -7  -3   9    7.67    0.32
  -6  -3   9    1.89    0.23
  -5  -3   9    0.32    0.20
  -4  -3   9    1.39    0.15
  -3  -3   9    1.43    0.13
  -2  -3   9   31.02    0.62
  -1  -3   9   10.09    0.23
   0  -3   9  103.71    3.59
   1  -3   9   16.40    0.38
   2  -3   9  126.92    2.17
   3  -3   9    0.18    0.10
   4  -3   9   70.48    2.17
   5  -3   9   18.30    2.15
  -7  -2   9   12.89    0.45
  -6  -2   9   11.62    0.47
  -5  -2   9   51.56    1.09
  -4  -2   9   16.09    0.50
  -3  -2   9  123.89    1.98
  -2  -2   9    2.73    0.11
  -1  -2   9  164.11    2.94
   0  -2   9    1.61    0.12
   1  -2   9   33.20    0.57
   2  -2   9    0.54    0.09
   3  -2   9    0.46    0.11
   4  -2   9    2.08    1.04
   5  -2   9    0.00    0.29
  -7  -1   9    1.34    0.13
  -6  -1   9   42.55    1.23
  -5  -1   9    1.49    0.32
  -4  -1   9   39.55    0.81
  -3  -1   9    3.56    0.14
  -2  -1   9   14.86    0.30
  -1  -1   9    1.30    0.10
   0  -1   9    0.33    0.12
   1  -1   9    3.44    0.13
   2  -1   9   12.65    0.28
   3  -1   9   23.94    0.50
   4  -1   9   10.31    0.44
   5  -1   9   46.71    2.08
  -7   0   9   25.42    0.55
  -6   0   9    1.58    0.16
  -5   0   9    2.09    0.94
  -4   0   9    2.55    0.24
  -3   0   9    6.73    0.19
  -2   0   9   55.52    0.97
  -1   0   9    9.53    0.29
   0   0   9   80.70    3.23
   1   0   9   10.00    0.27
   2   0   9   72.27    1.26
   3   0   9    1.03    0.12
   4   0   9   35.65    1.29
   5   0   9    0.87    0.96
  -8   1   9    2.43    0.22
  -7   1   9    7.24    0.26
  -6   1   9    8.30    0.30
  -5   1   9   42.45    0.89
  -4   1   9    0.40    0.72
  -3   1   9  104.57    1.84
  -2   1   9    0.63    0.08
  -1   1   9  165.21    3.75
   0   1   9    2.38    0.17
   1   1   9   59.04    1.23
   2   1   9    5.83    0.19
   3   1   9    1.02    0.13
   4   1   9    5.78    2.31
   5   1   9    2.04    0.32
  -8   2   9   22.79    1.25
  -7   2   9    2.57    0.18
  -6   2   9   42.37    0.95
  -5   2   9    1.43    0.27
  -4   2   9   67.06    1.59
  -3   2   9    5.64    0.18
  -2   2   9   35.67    0.64
  -1   2   9    3.10    0.14
   0   2   9    0.54    0.13
   1   2   9    4.39    0.17
   2   2   9    6.44    0.19
   3   2   9   15.51    0.45
   4   2   9    3.61    0.27
   5   2   9   19.88    0.84
  -7   3   9   11.40    0.33
  -6   3   9    0.09    0.11
  -5   3   9   12.82    0.85
  -4   3   9    4.02    0.40
  -3   3   9   22.90    0.39
  -2   3   9   54.29    0.88
  -1   3   9   20.40    0.40
   0   3   9   90.24    3.33
   1   3   9   15.14    0.36
   2   3   9   84.49    1.39
   3   3   9    0.52    0.10
   4   3   9   51.91    2.25
  -7   4   9    8.98    0.32
  -6   4   9   15.18    0.45
  -5   4   9   34.77    1.01
  -4   4   9   10.12    1.27
  -3   4   9   60.01    1.03
  -2   4   9    1.51    0.11
  -1   4   9   61.29    1.08
   0   4   9    0.47    0.12
   1   4   9   16.83    0.40
   2   4   9    0.37    0.11
   3   4   9    0.71    0.11
   4   4   9    0.42    0.75
  -7   5   9    0.30    0.14
  -6   5   9   44.99    1.00
  -5   5   9    0.00    0.37
  -4   5   9   52.05    1.25
  -3   5   9    2.76    0.12
  -2   5   9   39.20    0.66
  -1   5   9    2.14    0.11
   0   5   9    0.51    0.15
   1   5   9    8.14    0.28
   2   5   9   11.52    0.31
   3   5   9   31.43    0.82
  -6   6   9    0.10    0.13
  -5   6   9    2.92    0.70
  -4   6   9    1.48    0.53
  -3   6   9   12.08    0.29
  -2   6   9   17.31    0.39
  -1   6   9   11.57    0.32
   0   6   9   50.55    2.70
   1   6   9    4.51    0.28
   2   6   9   40.15    0.75
   3   6   9    1.54    0.25
  -6   7   9   22.16    0.63
  -5   7   9   35.15    1.08
  -4   7   9   13.03    1.71
  -3   7   9   42.56    0.95
  -2   7   9    1.81    0.12
  -1   7   9   32.61    0.84
   0   7   9    0.06    0.15
   1   7   9   18.84    0.44
   2   7   9    1.30    0.18
  -5   8   9    0.34    3.85
  -4   8   9   35.37    1.11
  -3   8   9    0.92    0.16
  -2   8   9   11.76    0.28
  -1   8   9    0.68    0.09
   0   8   9    1.37    0.14
  -2   9   9    6.19    0.41
  -1  -9  10    0.57    0.17
   0  -9  10   52.04    4.64
   1  -9  10    1.29    0.18
  -3  -8  10   37.86    1.06
  -2  -8  10    7.74    0.46
  -1  -8  10   17.76    0.42
   0  -8  10    4.07    0.33
   1  -8  10    3.50    0.21
   2  -8  10    0.09    0.18
  -4  -7  10    2.39    0.15
  -3  -7  10    0.23    0.09
  -2  -7  10    0.35    0.11
  -1  -7  10    3.50    0.15
   0  -7  10    3.62    0.22
   1  -7  10   35.41    0.86
   2  -7  10    5.30    0.24
   3  -7  10   68.57    1.81
  -5  -6  10    6.76    0.24
  -4  -6  10   34.28    0.76
  -3  -6  10   19.65    0.46
  -2  -6  10  102.36    2.19
  -1  -6  10    2.54    0.18
   0  -6  10  113.35    4.98
   1  -6  10    3.25    0.19
   2  -6  10   44.59    0.97
   3  -6  10    1.40    0.19
   4  -6  10    5.55    0.26
  -6  -5  10    2.10    0.18
  -5  -5  10   43.66    1.08
  -4  -5  10    0.13    0.10
  -3  -5  10   37.04    0.73
  -2  -5  10    3.69    0.19
  -1  -5  10    6.90    0.24
   0  -5  10    2.33    0.20
   1  -5  10    0.06    0.11
   2  -5  10    1.10    0.11
   3  -5  10    4.82    0.35
   4  -5  10   14.16    0.69
  -6  -4  10   28.81    0.96
  -5  -4  10    7.38    0.37
  -4  -4  10    7.06    0.49
  -3  -4  10    0.04    0.12
  -2  -4  10    0.34    0.11
  -1  -4  10    1.69    0.13
   0  -4  10    3.84    0.21
   1  -4  10   21.17    0.48
   2  -4  10    5.61    0.21
   3  -4  10   69.63    1.51
   4  -4  10    0.86    0.49
   5  -4  10   43.85    1.89
  -7  -3  10    0.22    0.19
  -6  -3  10    6.48    0.37
  -5  -3  10    3.39    0.39
  -4  -3  10   37.50    0.98
  -3  -3  10   16.21    0.39
  -2  -3  10  120.03    2.19
  -1  -3  10   14.32    0.35
   0  -3  10  159.10    5.91
   1  -3  10    1.76    0.12
   2  -3  10   65.00    1.20
   3  -3  10    1.99    0.15
   4  -3  10    8.68    0.46
   5  -3  10    2.47    2.47
  -7  -2  10   34.16    0.90
  -6  -2  10    8.21    0.37
  -5  -2  10  101.95    2.39
  -4  -2  10    0.74    0.25
  -3  -2  10   95.09    1.57
  -2  -2  10    3.69    0.14
  -1  -2  10   12.55    0.29
   0  -2  10    0.13    0.11
   1  -2  10    0.15    0.08
   2  -2  10    5.44    0.20
   3  -2  10    1.97    0.13
   4  -2  10    7.21    0.48
   5  -2  10    8.03    0.38
  -7  -1  10    1.89    0.15
  -6  -1  10   18.46    0.62
  -5  -1  10    6.43    0.39
  -4  -1  10    3.12    0.68
  -3  -1  10    1.56    0.13
  -2  -1  10    0.39    0.08
  -1  -1  10    2.42    0.10
   0  -1  10    5.14    0.26
   1  -1  10   38.42    0.78
   2  -1  10    9.08    0.28
   3  -1  10  116.03    2.61
   4  -1  10    0.00    0.73
   5  -1  10   43.84    2.23
  -7   0  10    1.53    0.12
  -6   0  10    4.33    0.21
  -5   0  10   37.01    2.28
  -4   0  10   24.02    0.76
  -3   0  10   23.46    0.47
  -2   0  10   50.88    0.83
  -1   0  10   10.44    0.27
   0   0  10   58.23    2.01
   1   0  10    0.24    0.10
   2   0  10   31.52    0.66
   3   0  10    1.25    0.12
   4   0  10    2.38    0.28
   5   0  10    7.55    2.17
  -7   1  10   51.55    1.22
  -6   1  10    5.46    0.25
  -5   1  10  110.11    2.92
  -4   1  10    5.84    0.43
  -3   1  10  120.57    2.19
  -2   1  10    0.19    0.08
  -1   1  10   25.46    0.57
   0   1  10    0.70    0.14
   1   1  10    0.59    0.12
   2   1  10    8.79    0.27
   3   1  10    6.58    0.30
   4   1  10   22.15    0.96
  -7   2  10    1.06    0.12
  -6   2  10   40.62    0.97
  -5   2  10    2.82    0.32
  -4   2  10   15.98    0.88
  -3   2  10    0.09    0.10
  -2   2  10    1.72    0.11
  -1   2  10    5.70    0.19
   0   2  10    7.83    0.36
   1   2  10   16.83    0.43
   2   2  10    7.37    0.24
   3   2  10   46.18    1.07
   4   2  10    3.15    0.51
  -7   3  10    2.38    0.13
  -6   3  10    3.72    0.17
  -5   3  10   19.97    1.72
  -4   3  10   46.55    1.20
  -3   3  10   19.41    0.35
  -2   3  10  101.24    1.52
  -1   3  10   12.52    0.32
   0   3  10  106.33    3.92
   1   3  10    0.25    0.15
   2   3  10   68.59    1.22
   3   3  10    2.74    0.14
   4   3  10   11.66    0.41
  -7   4  10   20.00    0.70
  -6   4  10    3.27    0.17
  -5   4  10   49.50    1.27
  -4   4  10    0.03    0.45
  -3   4  10   44.17    0.73
  -2   4  10    1.14    0.09
  -1   4  10    5.99    0.18
   0   4  10    1.42    0.20
   1   4  10    1.60    0.15
   2   4  10    0.54    0.11
   3   4  10    2.75    0.15
  -6   5  10   21.29    0.52
  -5   5  10    0.45    0.43
  -4   5  10    9.31    1.66
  -3   5  10    0.25    0.10
  -2   5  10    4.45    0.17
  -1   5  10   12.33    0.30
   0   5  10   22.84    1.00
   1   5  10   36.28    0.85
   2   5  10   10.53    0.29
   3   5  10   37.23    1.37
  -6   6  10    2.28    0.20
  -5   6  10   22.74    1.53
  -4   6  10   28.07    0.98
  -3   6  10   14.32    0.34
  -2   6  10   61.87    1.10
  -1   6  10    7.36    0.33
   0   6  10   43.56    2.33
   1   6  10    0.96    0.13
   2   6  10   19.47    0.61
  -5   7  10   31.10    1.18
  -4   7  10    0.00    0.33
  -3   7  10   31.99    0.76
  -2   7  10    1.26    0.10
  -1   7  10   12.05    0.35
   0   7  10    2.23    0.17
   1   7  10    0.42    0.13
  -4   8  10    4.29    2.47
  -3   8  10    0.82    0.11
  -2   8  10    8.06    0.31
  -1   8  10   11.38    0.39
  -2  -8  11   10.02    1.53
  -1  -8  11    1.72    0.14
   0  -8  11    0.26    0.14
   1  -8  11    2.76    0.20
   2  -8  11   13.57    0.48
  -3  -7  11    6.68    0.27
  -2  -7  11    6.62    0.22
  -1  -7  11   46.14    1.08
   0  -7  11    4.82    0.38
   1  -7  11   69.27    1.60
   2  -7  11    0.14    0.11
   3  -7  11   31.93    1.83
  -4  -6  11   80.96    1.85
  -3  -6  11    0.45    0.13
  -2  -6  11   77.33    1.86
  -1  -6  11    1.79    0.15
   0  -6  11   23.74    1.41
   1  -6  11    0.25    0.10
   2  -6  11    1.75    0.12
   3  -6  11    0.26    0.14
  -5  -5  11   17.47    0.52
  -4  -5  11    2.90    0.16
  -3  -5  11    4.89    0.22
  -2  -5  11    0.66    0.14
  -1  -5  11    0.11    0.10
   0  -5  11    4.19    0.24
   1  -5  11    8.10    0.26
   2  -5  11   30.87    0.60
   3  -5  11   11.64    0.36
   4  -5  11   42.27    2.37
  -6  -4  11    2.68    0.19
  -5  -4  11    0.07    0.18
  -4  -4  11    1.29    1.77
  -3  -4  11    5.87    0.25
  -2  -4  11    5.27    0.23
  -1  -4  11   46.14    0.93
   0  -4  11    4.12    0.28
   1  -4  11  102.88    2.00
   2  -4  11    0.06    0.09
   3  -4  11   54.57    1.44
   4  -4  11    3.28    1.04
  -6  -3  11   37.91    1.32
  -5  -3  11    8.89    1.43
  -4  -3  11   96.04    2.28
  -3  -3  11    2.64    0.22
  -2  -3  11  114.15    2.08
  -1  -3  11    5.34    0.22
   0  -3  11   40.35    1.82
   1  -3  11    2.43    0.16
   2  -3  11    2.90    0.17
   3  -3  11    0.28    0.12
   4  -3  11    1.10    0.31
  -6  -2  11    0.32    0.18
  -5  -2  11   24.77    0.82
  -4  -2  11    2.05    0.29
  -3  -2  11    0.70    0.10
  -2  -2  11    0.08    0.09
  -1  -2  11    6.05    0.19
   0  -2  11    2.82    0.19
   1  -2  11   13.23    0.41
   2  -2  11    9.36    0.28
   3  -2  11   16.04    0.44
   4  -2  11   23.53    0.86
  -7  -1  11    0.03    0.12
  -6  -1  11    3.26    0.20
  -5  -1  11    1.82    0.36
  -4  -1  11    0.00    1.94
  -3  -1  11   25.04    0.52
  -2  -1  11   16.14    0.36
  -1  -1  11  113.04    2.18
   0  -1  11   20.28    0.94
   1  -1  11  188.26    4.09
   2  -1  11    0.71    0.11
   3  -1  11   81.36    2.06
   4  -1  11    0.01    1.22
  -7   0  11    6.59    0.21
  -6   0  11   23.42    0.54
  -5   0  11    9.14    1.18
  -4   0  11   59.69    1.52
  -3   0  11    0.25    0.09
  -2   0  11   71.35    1.39
  -1   0  11    3.69    0.17
   0   0  11   33.25    1.28
   1   0  11    0.46    0.11
   2   0  11    3.40    0.16
   3   0  11    0.03    0.11
   4   0  11    0.62    0.33
  -7   1  11   44.74    0.95
  -6   1  11    0.40    0.12
  -5   1  11   30.27    0.91
  -4   1  11    2.32    0.34
  -3   1  11    5.45    0.22
  -2   1  11    0.99    0.10
  -1   1  11    2.58    0.17
   0   1  11   10.59    0.46
   1   1  11   18.01    0.61
   2   1  11   35.23    0.85
   3   1  11   17.14    0.46
   4   1  11   32.00    0.98
  -7   2  11    0.21    0.09
  -6   2  11    1.00    0.16
  -5   2  11    0.00    0.37
  -4   2  11   12.43    1.23
  -3   2  11    5.55    0.20
  -2   2  11   10.43    0.27
  -1   2  11   25.56    0.73
   0   2  11    6.42    0.37
   1   2  11   52.75    2.03
   2   2  11    0.96    0.14
   3   2  11   42.78    0.99
   4   2  11    8.12    8.53
  -7   3  11   11.55    0.36
  -6   3  11   47.43    0.95
  -5   3  11   31.76    1.39
  -4   3  11   93.76    2.49
  -3   3  11    5.12    0.25
  -2   3  11   90.10    1.57
  -1   3  11    1.46    0.18
   0   3  11   47.84    2.10
   1   3  11    1.14    0.18
   2   3  11    3.53    0.15
   3   3  11    0.15    0.11
  -6   4  11    0.08    0.09
  -5   4  11   25.12    0.77
  -4   4  11    1.43    0.36
  -3   4  11    2.09    0.13
  -2   4  11    0.70    0.10
  -1   4  11    1.77    0.15
   0   4  11    8.83    0.47
   1   4  11    8.67    0.39
   2   4  11   26.12    0.58
   3   4  11   14.11    0.65
  -6   5  11    2.64    0.16
  -5   5  11    4.83    0.48
  -4   5  11   18.86    2.54
  -3   5  11   10.64    0.28
  -2   5  11   18.68    0.44
  -1   5  11   50.21    0.97
   0   5  11    6.77    0.50
   1   5  11   60.90    1.86
   2   5  11    0.28    0.13
  -5   6  11   18.95    1.00
  -4   6  11   36.51    1.25
  -3   6  11    2.30    0.14
  -2   6  11   29.22    0.58
  -1   6  11    0.25    0.10
   0   6  11   12.26    0.72
   1   6  11    0.47    0.21
  -4   7  11    0.20    0.27
  -3   7  11    6.80    0.23
  -2   7  11    0.19    0.07
  -1   7  11    0.49    0.09
   0   7  11    1.55    0.34
  -3  -7  12   41.91    2.30
  -2  -7  12    1.63    0.17
  -1  -7  12   57.78    1.76
   0  -7  12    0.60    0.31
   1  -7  12   34.19    0.80
   2  -7  12    1.93    0.17
  -4  -6  12   31.52    1.76
  -3  -6  12    2.33    0.23
  -2  -6  12   10.25    0.35
  -1  -6  12    0.89    0.12
   0  -6  12    0.06    0.32
   1  -6  12    0.04    0.10
   2  -6  12    4.04    0.15
   3  -6  12    7.07    0.54
  -5  -5  12    1.92    0.17
  -4  -5  12    0.20    0.08
  -3  -5  12    0.59    0.17
  -2  -5  12   10.88    0.31
  -1  -5  12   11.82    0.27
   0  -5  12   49.79    2.22
   1  -5  12    8.40    0.27
   2  -5  12   62.56    1.22
   3  -5  12    0.07    0.14
  -5  -4  12   10.87    0.34
  -4  -4  12    4.85    1.28
  -3  -4  12   44.64    1.15
  -2  -4  12    2.59    0.13
  -1  -4  12   78.43    1.46
   0  -4  12    0.08    0.14
   1  -4  12   42.47    0.87
   2  -4  12    1.85    0.12
   3  -4  12    8.35    0.28
  -6  -3  12   63.23    1.77
  -5  -3  12    1.60    0.22
  -4  -3  12   60.10    1.81
  -3  -3  12    1.10    0.16
  -2  -3  12   20.34    0.46
  -1  -3  12    0.33    0.12
   0  -3  12    0.03    0.16
   1  -3  12    4.18    0.20
   2  -3  12    6.70    0.25
   3  -3  12   14.31    0.49
   4  -3  12    9.85    4.35
  -6  -2  12    2.35    0.21
  -5  -2  12    0.67    0.33
  -4  -2  12    2.08    0.42
  -3  -2  12    1.74    0.17
  -2  -2  12    4.38    0.18
  -1  -2  12    3.68    0.19
   0  -2  12   27.56    1.27
   1  -2  12    2.64    0.20
   2  -2  12   57.40    1.32
   3  -2  12    0.17    0.10
   4  -2  12   42.44    2.35
  -6  -1  12    3.21    0.18
  -5  -1  12   23.67    0.68
  -4  -1  12   15.32    2.16
  -3  -1  12   84.44    1.77
  -2  -1  12   10.17    0.30
  -1  -1  12  116.87    2.58
   0  -1  12    0.34    0.14
   1  -1  12   56.89    1.17
   2  -1  12    4.95    0.20
   3  -1  12    9.48    0.32
  -6   0  12   44.71    1.12
  -5   0  12    1.70    0.41
  -4   0  12   34.16    1.14
  -3   0  12    0.12    0.11
  -2   0  12    9.42    0.29
  -1   0  12    0.11    0.12
   0   0  12    0.22    0.17
   1   0  12    0.00    0.13
   2   0  12    6.37    0.22
   3   0  12    4.53    0.20
  -6   1  12    0.64    0.12
  -5   1  12    6.84    0.66
  -4   1  12    1.76    0.46
  -3   1  12    7.19    0.28
  -2   1  12   21.12    0.50
  -1   1  12   33.65    1.04
   0   1  12   60.93    3.41
   1   1  12   16.83    0.61
   2   1  12   49.90    1.29
   3   1  12    1.26    0.12
  -6   2  12    3.31    0.17
  -5   2  12   12.66    0.46
  -4   2  12   11.84    1.17
  -3   2  12   55.33    1.29
  -2   2  12    2.06    0.13
  -1   2  12   57.60    2.18
   0   2  12    0.37    0.23
   1   2  12   47.98    1.77
   2   2  12    1.97    0.14
   3   2  12   11.46    0.31
  -6   3  12   59.48    1.25
  -5   3  12    1.70    0.30
  -4   3  12   56.32    2.20
  -3   3  12    2.12    0.18
  -2   3  12   35.38    0.85
  -1   3  12    1.70    0.23
   0   3  12    1.51    0.21
   1   3  12    0.00    0.34
   2   3  12    3.91    0.18
  -6   4  12    0.19    0.11
  -5   4  12    1.61    0.29
  -4   4  12    1.29    0.25
  -3   4  12    9.42    0.28
  -2   4  12    7.69    0.21
  -1   4  12   24.55    0.61
   0   4  12   32.39    1.44
   1   4  12   15.38    0.48
   2   4  12   34.44    1.04
  -5   5  12   21.50    0.78
  -4   5  12   27.48    2.19
  -3   5  12   66.71    1.51
  -2   5  12    7.70    0.22
  -1   5  12   59.18    1.54
   0   5  12    0.65    0.22
   1   5  12   17.27    0.58
  -5   6  12    0.38    0.25
  -4   6  12   24.91    0.81
  -3   6  12    0.58    0.14
  -2   6  12   11.62    0.32
  -1   6  12    0.49    0.14
   0   6  12    1.23    0.34
  -1  -7  13   24.04    0.97
   0  -7  13    2.08    0.41
  -3  -6  13    2.01    1.73
  -2  -6  13    0.48    0.12
  -1  -6  13    2.06    0.11
   0  -6  13    5.55    0.40
   1  -6  13   18.64    0.47
  -3  -5  13    9.30    0.31
  -2  -5  13   52.57    1.03
  -1  -5  13    7.12    0.22
   0  -5  13   67.21    2.97
   1  -5  13    0.31    0.09
   2  -5  13   39.19    1.02
  -5  -4  13   28.85    1.65
  -4  -4  13    1.05    0.14
  -3  -4  13   56.94    1.39
  -2  -4  13    0.27    0.09
  -1  -4  13   39.58    0.83
   0  -4  13    3.64    0.25
   1  -4  13    5.90    0.29
   2  -4  13    0.35    0.09
   3  -4  13    0.11    0.19
  -5  -3  13    2.83    0.38
  -4  -3  13    5.29    0.35
  -3  -3  13    1.52    0.28
  -2  -3  13    3.81    0.18
  -1  -3  13    2.92    0.17
   0  -3  13   12.45    0.61
   1  -3  13   13.55    0.42
   2  -3  13    9.43    0.32
   3  -3  13   22.96    0.70
  -5  -2  13    3.62    1.24
  -4  -2  13   15.36    0.61
  -3  -2  13    4.43    0.21
  -2  -2  13   48.04    1.13
  -1  -2  13    7.14    0.31
   0  -2  13   71.05    3.94
   1  -2  13    3.21    0.25
   2  -2  13   47.06    1.21
   3  -2  13    0.08    0.10
  -6  -1  13    8.81    1.09
  -5  -1  13   50.50    2.46
  -4  -1  13    2.90    0.54
  -3  -1  13  103.88    2.36
  -2  -1  13    0.22    0.11
  -1  -1  13   65.07    1.62
   0  -1  13    1.93    0.20
   1  -1  13    5.42    0.21
   2  -1  13    1.82    0.15
   3  -1  13    2.29    0.16
  -6   0  13   12.05    0.42
  -5   0  13    1.11    0.31
  -4   0  13    4.18    0.48
  -3   0  13    1.11    0.14
  -2   0  13    1.48    0.12
  -1   0  13    0.59    0.14
   0   0  13    5.26    0.32
   1   0  13   15.61    0.62
   2   0  13    6.29    0.23
   3   0  13   35.83    1.32
  -6   1  13    0.92    0.12
  -5   1  13   26.35    2.05
  -4   1  13   24.39    0.80
  -3   1  13   21.49    0.56
  -2   1  13   55.90    1.30
  -1   1  13    6.21    0.39
   0   1  13   49.52    2.78
   1   1  13    0.20    0.16
   2   1  13   29.82    0.70
  -6   2  13    2.41    0.17
  -5   2  13   37.53    0.99
  -4   2  13    3.52    0.32
  -3   2  13   50.88    1.09
  -2   2  13    0.40    0.14
  -1   2  13   41.96    2.38
   0   2  13    3.25    0.32
   1   2  13    5.78    0.40
   2   2  13    0.45    0.11
  -6   3  13   28.00    1.53
  -5   3  13    0.16    0.27
  -4   3  13   13.75    0.88
  -3   3  13    0.12    0.11
  -2   3  13    1.64    0.13
  -1   3  13    4.09    0.34
   0   3  13   15.45    0.92
   1   3  13   21.23    0.91
   2   3  13   10.17    0.67
  -5   4  13   11.64    0.78
  -4   4  13   14.52    0.51
  -3   4  13   13.42    0.36
  -2   4  13   48.61    1.01
  -1   4  13    6.09    0.36
   0   4  13   50.34    2.18
   1   4  13    0.62    0.42
  -4   5  13    0.66    0.36
  -3   5  13   31.49    0.82
  -2   5  13    0.03    0.14
  -1   5  13   12.48    0.69
  -3   6  13    0.01    0.27
  -3  -5  14    3.97    0.47
  -2  -5  14   50.34    1.17
  -1  -5  14    0.06    0.10
   0  -5  14   30.33    1.79
   1  -5  14    1.71    0.84
  -4  -4  14    0.40    0.12
  -3  -4  14   15.79    0.54
  -2  -4  14    2.52    0.11
  -1  -4  14    0.13    0.10
   0  -4  14    0.47    0.12
   1  -4  14    3.36    0.22
  -4  -3  14    6.83    2.22
  -3  -3  14    8.29    0.28
  -2  -3  14    5.66    0.20
  -1  -3  14   20.87    0.63
   0  -3  14    4.18    0.33
   1  -3  14   46.94    1.27
   2  -3  14    1.05    0.11
  -5  -2  14    7.05    4.45
  -4  -2  14   29.89    1.22
  -3  -2  14    6.25    0.26
  -2  -2  14   54.91    1.40
  -1  -2  14    0.15    0.16
   0  -2  14   41.47    2.33
   1  -2  14    3.27    0.26
   2  -2  14    3.56    0.19
  -5  -1  14   65.33    3.46
  -4  -1  14    0.00    0.35
  -3  -1  14   23.32    0.64
  -2  -1  14    1.30    0.12
  -1  -1  14    0.79    0.14
   0  -1  14    3.04    0.29
   1  -1  14   10.19    0.32
   2  -1  14   10.23    0.45
  -5   0  14    0.99    0.37
  -4   0  14    4.04    0.81
  -3   0  14    5.54    0.24
  -2   0  14    4.56    0.21
  -1   0  14   22.09    0.65
   0   0  14    7.51    0.50
   1   0  14   39.44    1.16
   2   0  14    4.42    0.44
  -5   1  14   36.91    2.25
  -4   1  14   45.58    1.35
  -3   1  14    6.03    0.23
  -2   1  14   46.18    1.07
  -1   1  14    0.77    0.17
   0   1  14   29.53    1.68
   1   1  14    0.13    0.13
  -5   2  14   38.29    1.55
  -4   2  14    0.32    0.31
  -3   2  14   30.20    0.81
  -2   2  14    2.41    0.16
  -1   2  14    0.61    0.38
   0   2  14    0.61    0.20
   1   2  14    2.91    0.53
  -4   3  14    5.95    0.86
  -3   3  14    4.73    0.18
  -2   3  14   12.31    0.34
  -1   3  14   21.78    1.49
   0   3  14    6.25    0.42
  -4   4  14   27.00   12.09
  -3   4  14    6.28    0.22
  -2   4  14   46.07    1.37
  -1   4  14    1.28    0.19
  -2  -4  15    1.29    0.28
  -1  -4  15    3.63    0.27
  -3  -3  15   28.16    0.84
  -2  -3  15    5.36    0.21
  -1  -3  15   51.12    1.36
   0  -3  15    1.70    0.19
  -4  -2  15   44.32    2.30
  -3  -2  15    0.34    0.10
  -2  -2  15   26.78    0.70
  -1  -2  15    2.10    0.20
   0  -2  15    0.56    0.17
  -4  -1  15    1.98    6.16
  -3  -1  15    3.97    0.22
  -2  -1  15    3.37    0.22
  -1  -1  15    9.65    0.35
   0  -1  15   13.02    1.25
  -4   0  15    5.92    3.30
  -3   0  15   27.12    0.71
  -2   0  15    6.19    0.24
  -1   0  15   58.86    1.88
   0   0  15    1.54    0.35
  -3   1  15    0.63    0.11
  -2   1  15   14.69    0.43
  -1   1  15    1.24    0.15
   0   1  15    0.00    0.26
  -3   2  15    1.18    0.11
  -2   2  15    2.70    0.15
  -1   2  15   13.41    0.56
  -3   3  15   21.16    1.20
  -2   3  15    4.64    0.32
   0   0   0    0.00    0.00
;
_shelx_hkl_checksum              48532
#END Tags that were not found in dictionaries
loop_
_space_group_symop_operation_xyz
'x, y, z'
'-x, -y, -z'
loop_
_atom_site_label
_atom_site_type_symbol
_atom_site_fract_x
_atom_site_fract_y
_atom_site_fract_z
_atom_site_U_iso_or_equiv
_atom_site_adp_type
_atom_site_occupancy
_atom_site_site_symmetry_order
_atom_site_calc_flag
_atom_site_refinement_flags_posn
I1 I 0.80674(6) 0.49956(4) 0.65167(3) 0.01455(15) Uani 1 1 d .
I2 I 0.73072(5) 1.16297(4) 0.44514(3) 0.01347(15) Uani 1 1 d .
O1 O 0.9055(7) 0.7716(5) 0.8327(3) 0.0205(10) Uani 1 1 d .
O2 O 0.8479(8) 1.1977(5) 0.6991(4) 0.0267(11) Uani 1 1 d .
O3 O 0.7114(7) 0.4665(5) 0.3996(4) 0.0188(10) Uani 1 1 d .
O4 O 0.7064(7) 0.8993(5) 0.2656(4) 0.0208(10) Uani 1 1 d .
N1 N 0.8847(8) 1.0006(6) 0.7900(4) 0.0154(11) Uani 1 1 d .
N2 N 0.7030(8) 0.6662(6) 0.3088(4) 0.0153(11) Uani 1 1 d .
C1 C 0.8714(9) 0.8560(7) 0.7685(5) 0.0174(14) Uani 1 1 d .
C2 C 0.8433(10) 1.0698(7) 0.7011(5) 0.0173(14) Uani 1 1 d .
C3 C 0.8114(8) 0.8240(7) 0.6535(5) 0.0106(12) Uani 1 1 d .
C4 C 0.7980(9) 0.9564(7) 0.6119(5) 0.0139(13) Uani 1 1 d .
C5 C 0.7799(9) 0.6954(7) 0.5913(5) 0.0132(13) Uani 1 1 d .
C6 C 0.7561(9) 0.9655(7) 0.5058(5) 0.0127(12) Uani 1 1 d .
C7 C 0.7417(9) 0.7071(7) 0.4856(5) 0.0132(13) Uani 1 1 d .
C8 C 0.7336(9) 0.8378(7) 0.4438(5) 0.0134(12) Uani 1 1 d .
C9 C 0.7189(10) 0.5935(7) 0.3970(5) 0.0154(13) Uani 1 1 d .
C10 C 0.7138(9) 0.8114(7) 0.3293(5) 0.0185(14) Uani 1 1 d .
O1S O 0.2682(7) 0.4431(5) 0.8869(4) 0.0228(10) Uani 1 1 d .
C2S C 0.3106(10) 0.5763(8) 0.9101(5) 0.0219(14) Uani 1 1 d .
C3S C 0.3841(12) 0.6858(8) 0.8402(6) 0.0293(17) Uani 1 1 d .
H3SA H 0.5057 0.6666 0.8240 0.035 Uiso 1 1 calc R
H3SB H 0.2873 0.6822 0.7746 0.035 Uiso 1 1 calc R
C4S C 0.4170(12) 0.8299(8) 0.9018(6) 0.0280(16) Uani 1 1 d .
H4SA H 0.3311 0.8913 0.8660 0.034 Uiso 1 1 calc R
H4SB H 0.5524 0.8795 0.9108 0.034 Uiso 1 1 calc R
C5S C 0.2472(11) 0.5761(8) 1.0830(6) 0.0261(16) Uani 1 1 d .
H5SA H 0.3588 0.5910 1.1417 0.039 Uiso 1 1 calc GR
H5SB H 0.2029 0.4729 1.0628 0.039 Uiso 1 1 calc GR
H5SC H 0.1430 0.6172 1.1030 0.039 Uiso 1 1 calc GR
N1S N 0.3012(8) 0.6456(6) 0.9971(4) 0.0214(12) Uani 1 1 d .
C1S C 0.3719(11) 0.7998(8) 1.0072(6) 0.0253(15) Uani 1 1 d .
H1SA H 0.4893 0.8274 1.0634 0.030 Uiso 1 1 calc R
H1SB H 0.2725 0.8532 1.0217 0.030 Uiso 1 1 calc R
O2S O 0.8928(8) 0.8196(6) 0.0436(4) 0.0267(12) Uani 1 1 d .
H2 H 0.707(12) 0.629(9) 0.235(7) 0.03(2) Uiso 1 1 d .
H2SA H 0.840(15) 0.741(12) 0.061(8) 0.05(3) Uiso 1 1 d .
H1 H 0.916(15) 1.047(11) 0.856(8) 0.05(3) Uiso 1 1 d .
H2SB H 0.902(16) 0.800(12) -0.016(10) 0.06(3) Uiso 1 1 d .
loop_
_atom_site_aniso_label
_atom_site_aniso_U_11
_atom_site_aniso_U_22
_atom_site_aniso_U_33
_atom_site_aniso_U_23
_atom_site_aniso_U_13
_atom_site_aniso_U_12
I1 0.0206(2) 0.0113(2) 0.0130(2) 0.00262(15) 0.00577(16) 0.00354(16)
I2 0.0151(2) 0.0115(2) 0.0147(2) 0.00310(16) 0.00488(16) 0.00248(16)
O1 0.032(3) 0.018(2) 0.010(2) -0.0003(18) 0.004(2) 0.002(2)
O2 0.044(3) 0.015(3) 0.021(3) 0.0004(19) 0.006(2) 0.005(2)
O3 0.024(2) 0.016(2) 0.017(2) -0.0012(18) 0.006(2) 0.0040(19)
O4 0.033(3) 0.014(2) 0.015(2) 0.0006(18) 0.008(2) -0.001(2)
N1 0.026(3) 0.015(3) 0.007(3) -0.002(2) 0.006(2) 0.006(2)
N2 0.024(3) 0.013(3) 0.008(3) 0.001(2) 0.004(2) 0.002(2)
C1 0.019(3) 0.017(3) 0.017(3) 0.000(3) 0.008(3) -0.002(3)
C2 0.024(3) 0.014(3) 0.015(3) 0.000(3) 0.007(3) 0.005(3)
C3 0.009(3) 0.012(3) 0.012(3) 0.001(2) 0.004(2) 0.002(2)
C4 0.017(3) 0.016(3) 0.010(3) -0.002(2) 0.006(2) 0.004(2)
C5 0.015(3) 0.013(3) 0.013(3) 0.003(2) 0.005(3) 0.003(2)
C6 0.011(3) 0.008(3) 0.017(3) 0.005(2) 0.003(2) -0.002(2)
C7 0.013(3) 0.016(3) 0.011(3) -0.001(2) 0.006(2) 0.002(2)
C8 0.010(3) 0.013(3) 0.016(3) 0.001(2) 0.003(2) 0.000(2)
C9 0.018(3) 0.014(3) 0.014(3) 0.002(3) 0.003(3) 0.003(3)
C10 0.015(3) 0.017(3) 0.025(4) 0.003(3) 0.007(3) 0.002(3)
O1S 0.033(3) 0.016(2) 0.020(2) -0.0008(19) 0.011(2) 0.001(2)
C2S 0.019(3) 0.028(4) 0.019(3) -0.001(3) 0.004(3) 0.006(3)
C3S 0.039(4) 0.029(4) 0.020(4) 0.000(3) 0.015(3) -0.002(3)
C4S 0.030(4) 0.024(4) 0.028(4) 0.005(3) 0.004(3) 0.003(3)
C5S 0.033(4) 0.027(4) 0.020(3) 0.003(3) 0.008(3) 0.006(3)
N1S 0.025(3) 0.025(3) 0.014(3) -0.002(2) 0.004(2) 0.004(2)
C1S 0.030(4) 0.019(3) 0.027(4) -0.004(3) 0.011(3) 0.000(3)
O2S 0.042(3) 0.023(3) 0.014(2) -0.002(2) 0.010(2) -0.002(2)
loop_
_atom_type_symbol
_atom_type_description
_atom_type_scat_dispersion_real
_atom_type_scat_dispersion_imag
_atom_type_scat_source
C C 0.0181 0.0091 'International Tables Vol C Tables 4.2.6.8 and 6.1.1.4'
H H 0.0000 0.0000 'International Tables Vol C Tables 4.2.6.8 and 6.1.1.4'
I I -0.3257 6.8362 'International Tables Vol C Tables 4.2.6.8 and 6.1.1.4'
N N 0.0311 0.0180 'International Tables Vol C Tables 4.2.6.8 and 6.1.1.4'
O O 0.0492 0.0322 'International Tables Vol C Tables 4.2.6.8 and 6.1.1.4'
loop_
_geom_angle_atom_site_label_1
_geom_angle_atom_site_label_2
_geom_angle_atom_site_label_3
_geom_angle
C1 N1 C2 112.2(5)
C1 N1 H1 125(7)
C2 N1 H1 123(7)
C9 N2 H2 128(5)
C10 N2 C9 113.1(5)
C10 N2 H2 118(5)
O1 C1 N1 125.2(6)
O1 C1 C3 127.5(6)
N1 C1 C3 107.3(5)
O2 C2 N1 125.1(6)
O2 C2 C4 128.4(6)
N1 C2 C4 106.4(5)
C4 C3 C1 106.8(5)
C5 C3 C1 130.8(6)
C5 C3 C4 122.3(6)
C3 C4 C2 107.2(5)
C6 C4 C2 131.3(6)
C6 C4 C3 121.4(6)
C3 C5 I1 122.7(5)
C7 C5 I1 121.8(5)
C7 C5 C3 115.4(6)
C4 C6 I2 120.9(5)
C4 C6 C8 116.1(6)
C8 C6 I2 123.0(5)
C5 C7 C8 122.7(6)
C5 C7 C9 129.5(6)
C8 C7 C9 107.6(6)
C6 C8 C7 121.9(6)
C6 C8 C10 130.3(6)
C7 C8 C10 107.6(6)
O3 C9 N2 126.0(6)
O3 C9 C7 128.7(6)
N2 C9 C7 105.4(6)
O4 C10 N2 126.0(6)
O4 C10 C8 127.8(6)
N2 C10 C8 106.3(5)
O1S C2S C3S 124.8(6)
O1S C2S N1S 126.5(7)
N1S C2S C3S 108.7(6)
C2S C3S H3SA 110.7
C2S C3S H3SB 110.7
H3SA C3S H3SB 108.8
C4S C3S C2S 105.0(6)
C4S C3S H3SA 110.7
C4S C3S H3SB 110.7
C3S C4S H4SA 110.4
C3S C4S H4SB 110.4
C3S C4S C1S 106.5(6)
H4SA C4S H4SB 108.6
C1S C4S H4SA 110.4
C1S C4S H4SB 110.4
H5SA C5S H5SB 109.5
H5SA C5S H5SC 109.5
H5SB C5S H5SC 109.5
N1S C5S H5SA 109.5
N1S C5S H5SB 109.5
N1S C5S H5SC 109.5
C2S N1S C5S 124.0(6)
C2S N1S C1S 115.3(6)
C5S N1S C1S 120.3(6)
C4S C1S H1SA 110.9
C4S C1S H1SB 110.9
N1S C1S C4S 104.2(6)
N1S C1S H1SA 110.9
N1S C1S H1SB 110.9
H1SA C1S H1SB 108.9
H2SA O2S H2SB 104(10)
loop_
_geom_bond_atom_site_label_1
_geom_bond_atom_site_label_2
_geom_bond_distance
I1 C5 2.087(6)
I2 C6 2.102(6)
O1 C1 1.218(8)
O2 C2 1.210(8)
O3 C9 1.199(8)
O4 C10 1.221(8)
N1 C1 1.368(9)
N1 C2 1.387(9)
N1 H1 0.92(11)
N2 C9 1.387(9)
N2 C10 1.374(9)
N2 H2 1.03(9)
C1 C3 1.495(9)
C2 C4 1.497(9)
C3 C4 1.411(9)
C3 C5 1.391(9)
C4 C6 1.389(9)
C5 C7 1.387(9)
C6 C8 1.390(9)
C7 C8 1.392(9)
C7 C9 1.513(9)
C8 C10 1.500(9)
O1S C2S 1.253(9)
C2S C3S 1.534(10)
C2S N1S 1.317(9)
C3S H3SA 0.9900
C3S H3SB 0.9900
C3S C4S 1.508(10)
C4S H4SA 0.9900
C4S H4SB 0.9900
C4S C1S 1.533(10)
C5S H5SA 0.9800
C5S H5SB 0.9800
C5S H5SC 0.9800
C5S N1S 1.440(9)
N1S C1S 1.455(9)
C1S H1SA 0.9900
C1S H1SB 0.9900
O2S H2SA 0.85(11)
O2S H2SB 0.82(12)
loop_
_geom_hbond_atom_site_label_D
_geom_hbond_atom_site_label_H
_geom_hbond_atom_site_label_A
_geom_hbond_distance_DH
_geom_hbond_distance_HA
_geom_hbond_distance_DA
_geom_hbond_angle_DHA
_geom_hbond_site_symmetry_A
N2 H2 O1S 1.03(9) 1.77(9) 2.806(7) 175(7) 2_666
O2S H2SA O1S 0.85(11) 2.01(11) 2.854(7) 175(10) 2_666
N1 H1 O2S 0.92(11) 1.93(11) 2.741(8) 146(9) 2_776
O2S H2SB O1 0.82(12) 2.02(13) 2.836(7) 173(11) 1_554
loop_
_geom_torsion_atom_site_label_1
_geom_torsion_atom_site_label_2
_geom_torsion_atom_site_label_3
_geom_torsion_atom_site_label_4
_geom_torsion
I1 C5 C7 C8 -176.4(5)
I1 C5 C7 C9 -2.0(10)
I2 C6 C8 C7 -176.8(5)
I2 C6 C8 C10 8.6(9)
O1 C1 C3 C4 -177.2(7)
O1 C1 C3 C5 -0.1(11)
O2 C2 C4 C3 179.9(7)
O2 C2 C4 C6 2.2(13)
N1 C1 C3 C4 1.9(7)
N1 C1 C3 C5 179.0(6)
N1 C2 C4 C3 1.2(7)
N1 C2 C4 C6 -176.5(7)
C1 N1 C2 O2 -178.8(7)
C1 N1 C2 C4 0.0(8)
C1 C3 C4 C2 -1.8(7)
C1 C3 C4 C6 176.1(6)
C1 C3 C5 I1 1.5(9)
C1 C3 C5 C7 -174.4(6)
C2 N1 C1 O1 178.0(6)
C2 N1 C1 C3 -1.1(7)
C2 C4 C6 I2 -3.9(10)
C2 C4 C6 C8 175.7(7)
C3 C4 C6 I2 178.7(4)
C3 C4 C6 C8 -1.7(9)
C3 C5 C7 C8 -0.6(9)
C3 C5 C7 C9 173.8(6)
C4 C3 C5 I1 178.2(5)
C4 C3 C5 C7 2.4(9)
C4 C6 C8 C7 3.5(9)
C4 C6 C8 C10 -171.1(6)
C5 C3 C4 C2 -179.3(6)
C5 C3 C4 C6 -1.3(10)
C5 C7 C8 C6 -2.5(10)
C5 C7 C8 C10 173.2(6)
C5 C7 C9 O3 7.7(13)
C5 C7 C9 N2 -173.8(6)
C6 C8 C10 O4 -3.0(11)
C6 C8 C10 N2 177.7(6)
C7 C8 C10 O4 -178.2(7)
C7 C8 C10 N2 2.5(7)
C8 C7 C9 O3 -177.2(6)
C8 C7 C9 N2 1.2(7)
C9 N2 C10 O4 178.9(6)
C9 N2 C10 C8 -1.8(7)
C9 C7 C8 C6 -178.0(6)
C9 C7 C8 C10 -2.3(7)
C10 N2 C9 O3 178.9(7)
C10 N2 C9 C7 0.4(8)
O1S C2S C3S C4S -179.2(7)
O1S C2S N1S C5S 2.9(12)
O1S C2S N1S C1S 175.8(7)
C2S C3S C4S C1S 2.8(8)
C2S N1S C1S C4S 5.5(9)
C3S C2S N1S C5S -176.8(7)
C3S C2S N1S C1S -3.8(9)
C3S C4S C1S N1S -4.7(8)
C5S N1S C1S C4S 178.7(6)
N1S C2S C3S C4S 0.4(8)
