#------------------------------------------------------------------------------
#$Date: 2016-02-18 17:37:37 +0200 (Thu, 18 Feb 2016) $
#$Revision: 176729 $
#$URL: svn://www.crystallography.net/cod/cif/1/51/63/1516339.cif $
#------------------------------------------------------------------------------
#
# This file is available in the Crystallography Open Database (COD),
# http://www.crystallography.net/
#
# All data on this site have been placed in the public domain by the
# contributors.
#
data_1516339
loop_
_publ_author_name
'Gietter, Amber A. S.'
'Gildner, Peter G.'
'Cinderella, Andrew P.'
'Watson, Donald A.'
_publ_section_title
;
 General Route for Preparing \b-Nitrocarbonyl Compounds Using Copper
 Thermal Redox Catalysis.
;
_journal_issue                   11
_journal_name_full               'Organic letters'
_journal_page_first              3166
_journal_page_last               3169
_journal_paper_doi               10.1021/ol5014153
_journal_volume                  16
_journal_year                    2014
_chemical_absolute_configuration syn
_chemical_formula_sum            'C12 H15 N O3'
_chemical_formula_weight         221.25
_chemical_name_systematic
; 
 ? 
;
_space_group_crystal_system      monoclinic
_space_group_IT_number           4
_space_group_name_Hall           'P 2yb'
_space_group_name_H-M_alt        'P 1 21 1'
_symmetry_space_group_name_Hall  'P 2yb'
_symmetry_space_group_name_H-M   'P 1 21 1'
_atom_sites_solution_hydrogens   geom
_audit_creation_method           SHELXL-2013
_cell_angle_alpha                90
_cell_angle_beta                 108.878(3)
_cell_angle_gamma                90
_cell_formula_units_Z            2
_cell_length_a                   8.4867(6)
_cell_length_b                   6.5654(5)
_cell_length_c                   11.1325(7)
_cell_measurement_reflns_used    3126
_cell_measurement_temperature    200(2)
_cell_measurement_theta_max      72.95
_cell_measurement_theta_min      4.20
_cell_volume                     586.92(7)
_computing_cell_refinement       'Bruker SAINT'
_computing_data_collection       'Bruker APEX2'
_computing_data_reduction        'Bruker SAINT'
_computing_molecular_graphics    'Bruker SHELXTL'
_computing_publication_material  'Bruker SHELXTL'
_computing_structure_refinement  'SHELXL-2013 (Sheldrick, 2013)'
_computing_structure_solution    'SHELXS-97 (Sheldrick, 2008)'
_diffrn_ambient_temperature      200(2)
_diffrn_detector_area_resol_mean 8.33
_diffrn_measured_fraction_theta_full 0.961
_diffrn_measured_fraction_theta_max 0.932
_diffrn_measurement_device_type  'Bruker AXS APEX diffractometer'
_diffrn_measurement_method       '\f and \w scans'
_diffrn_radiation_type           CuK\a
_diffrn_radiation_wavelength     1.54178
_diffrn_reflns_av_R_equivalents  0.0305
_diffrn_reflns_av_unetI/netI     0.0356
_diffrn_reflns_Laue_measured_fraction_full 0.961
_diffrn_reflns_Laue_measured_fraction_max 0.932
_diffrn_reflns_limit_h_max       10
_diffrn_reflns_limit_h_min       -8
_diffrn_reflns_limit_k_max       8
_diffrn_reflns_limit_k_min       -8
_diffrn_reflns_limit_l_max       13
_diffrn_reflns_limit_l_min       -13
_diffrn_reflns_number            5509
_diffrn_reflns_point_group_measured_fraction_full 0.901
_diffrn_reflns_point_group_measured_fraction_max 0.855
_diffrn_reflns_theta_full        66.000
_diffrn_reflns_theta_max         73.682
_diffrn_reflns_theta_min         4.197
_exptl_absorpt_coefficient_mu    0.741
_exptl_absorpt_correction_T_max  0.7538
_exptl_absorpt_correction_T_min  0.6091
_exptl_absorpt_correction_type   multi-scan
_exptl_absorpt_process_details   'APEX2 (Bruker, 2007)'
_exptl_crystal_colour            colourless
_exptl_crystal_density_diffrn    1.252
_exptl_crystal_description       block
_exptl_crystal_F_000             236
_exptl_crystal_size_max          0.421
_exptl_crystal_size_mid          0.134
_exptl_crystal_size_min          0.117
_refine_diff_density_max         0.312
_refine_diff_density_min         -0.392
_refine_diff_density_rms         0.076
_refine_ls_extinction_coef       0.072(18)
_refine_ls_extinction_expression Fc^*^=kFc[1+0.001xFc^2^\l^3^/sin(2\q)]^-1/4^
_refine_ls_extinction_method     SHELXL
_refine_ls_goodness_of_fit_ref   1.091
_refine_ls_hydrogen_treatment    constr
_refine_ls_matrix_type           full
_refine_ls_number_parameters     136
_refine_ls_number_reflns         2033
_refine_ls_number_restraints     1
_refine_ls_restrained_S_all      1.091
_refine_ls_R_factor_all          0.1015
_refine_ls_R_factor_gt           0.0853
_refine_ls_shift/su_max          0.000
_refine_ls_shift/su_mean         0.000
_refine_ls_structure_factor_coef Fsqd
_refine_ls_weighting_details
'w=1/[\s^2^(Fo^2^)+(0.1754P)^2^+0.7040P] where P=(Fo^2^+2Fc^2^)/3'
_refine_ls_weighting_scheme      calc
_refine_ls_wR_factor_gt          0.2531
_refine_ls_wR_factor_ref         0.2910
_reflns_Friedel_coverage         0.680
_reflns_Friedel_fraction_full    0.828
_reflns_Friedel_fraction_max     0.761
_reflns_number_gt                1791
_reflns_number_total             2033
_reflns_threshold_expression     'I > 2\s(I)'
_cod_data_source_file            ol5014153_si_004.cif
_cod_data_source_block           donw034SS
_cod_depositor_comments
'Adding full bibliography for 1516339--1516342.cif.'
_cod_database_code               1516339
#BEGIN Tags that were not found in dictionaries:
_shelx_space_group_comment
; 
The symmetry employed for this shelxl refinement is uniquely defined 
by the following loop, which should always be used as a source of 
symmetry information in preference to the above space-group names. 
They are only intended as comments. 
;
_shelx_estimated_absorpt_t_min   0.746
_shelx_estimated_absorpt_t_max   0.918
_shelxl_version_number           2013-4
_shelx_res_file
; 
TITL donw034 in P2(1) 
CELL 1.54178 8.4867 6.5654 11.1325 90.000 108.878 90.000 
ZERR 2.00 0.0006 0.0005 0.0007 0.000 0.003 0.000 
LATT -1 
SYMM -x, y+1/2, -z 
SFAC C  H  N  O 
UNIT 24  30  2  6 
OMIT -1 0 2 
L.S. 10 
ACTA 132 
BOND 
FMAP 2 
PLAN -3 
SIZE 0.117 0.134 0.421 
CONF 
TEMP -73.140 
WGHT    0.175400    0.704000 
EXTI    0.072408 
FVAR       0.63311 
O1    4    0.640369   -0.007964    0.298414    11.00000    0.09024    0.06003 = 
         0.05704   -0.02492    0.02105   -0.01492 
O2    4    0.490441    0.120200    0.404726    11.00000    0.06192    0.07889 = 
         0.06489   -0.00385    0.02254   -0.01822 
O3    4    0.851307   -0.093773    0.597313    11.00000    0.08416    0.03218 = 
         0.04844   -0.00125    0.02789    0.00761 
N1    3    0.623134    0.107543    0.378727    11.00000    0.06537    0.04450 = 
         0.03867   -0.00208    0.01321   -0.00890 
AFIX  66 
C1    1    0.709875    0.178084    0.826335    11.00000    0.06479    0.05506 = 
         0.04091    0.00035    0.01567    0.00818 
AFIX  43 
H1    2    0.672265    0.300304    0.780305    11.00000   -1.20000 
AFIX  65 
C2    1    0.692713    0.151411    0.945345    11.00000    0.07289    0.08144 = 
         0.03962    0.00113    0.01670    0.01021 
AFIX  43 
H2A   2    0.643374    0.255402    0.980655    11.00000   -1.20000 
AFIX  65 
C3    1    0.747742   -0.027416    1.012693    11.00000    0.08076    0.08148 = 
         0.03658    0.00391    0.01590   -0.00824 
AFIX  43 
H3    2    0.736012   -0.045645    1.094032    11.00000   -1.20000 
AFIX  65 
C4    1    0.819933   -0.179571    0.961030    11.00000    0.10145    0.06746 = 
         0.04661    0.01111    0.02937    0.01325 
AFIX  43 
H4    2    0.857543   -0.301791    1.007060    11.00000   -1.20000 
AFIX  65 
C5    1    0.837096   -0.152901    0.842019    11.00000    0.08894    0.03991 = 
         0.04639    0.00573    0.02106    0.01226 
AFIX  43 
H5    2    0.886436   -0.256893    0.806710    11.00000   -1.20000 
AFIX  65 
C6    1    0.782068    0.025925    0.774670    11.00000    0.05824    0.04287 = 
         0.03356    0.00242    0.00942    0.00243 
AFIX   0 
C7    1    0.804924    0.051018    0.647067    11.00000    0.05798    0.03624 = 
         0.03687   -0.00103    0.01312    0.00170 
C8    1    0.781764    0.257898    0.586781    11.00000    0.05907    0.03013 = 
         0.04051   -0.00163    0.01694    0.00075 
AFIX  13 
H8    2    0.680373    0.322549    0.597355    11.00000   -1.20000 
AFIX   0 
C9    1    0.762274    0.250006    0.445252    11.00000    0.05068    0.03198 = 
         0.03959   -0.00521    0.01351   -0.00744 
AFIX  13 
H9    2    0.868043    0.197424    0.435473    11.00000   -1.20000 
AFIX   0 
C10   1    0.722288    0.455880    0.379332    11.00000    0.06454    0.04570 = 
         0.04085    0.00047    0.01624   -0.00711 
AFIX  23 
H10A  2    0.615734    0.505855    0.386697    11.00000   -1.20000 
H10B  2    0.810262    0.554050    0.424042    11.00000   -1.20000 
AFIX   0 
C11   1    0.708650    0.451600    0.239459    11.00000    0.07827    0.05921 = 
         0.04169    0.00695    0.01545   -0.00421 
AFIX 137 
H11A  2    0.618738    0.359046    0.193540    11.00000   -1.50000 
H11B  2    0.814047    0.404030    0.231071    11.00000   -1.50000 
H11C  2    0.684393    0.588971    0.203814    11.00000   -1.50000 
AFIX   0 
C12   1    0.934453    0.386198    0.656933    11.00000    0.07512    0.03369 = 
         0.04223   -0.00610    0.01114   -0.00768 
AFIX 137 
H12A  2    1.030333    0.340344    0.633308    11.00000   -1.50000 
H12B  2    0.958941    0.370597    0.748721    11.00000   -1.50000 
H12C  2    0.911825    0.529782    0.633675    11.00000   -1.50000 
  
AFIX   0 
HKLF 4 1 1 0 0 0 1 0 0 0 1 
  
REM  donw034 in P2(1) 
REM R1 =  0.0853 for    1791 Fo > 4sig(Fo)  and  0.1015 for all    2033 data 
REM    136 parameters refined using      1 restraints 
  
END 
  
WGHT      0.1329      0.6728 
  
REM Highest difference peak  0.312,  deepest hole -0.392,  1-sigma level  0.076 
Q1    1   0.7603 -0.0538  0.9879  11.00000  0.05    0.31 
Q2    1   0.8021  0.0655  0.7526  11.00000  0.05    0.30 
Q3    1   0.5481  0.2925  0.3764  11.00000  0.05    0.30 
;
_shelx_res_checksum              93352
_shelx_hkl_file
; 
   1   0   0    5.02    0.23 
   3   0   0   36.58    1.45 
   3   0   0   32.85    1.22 
   3   0   0   33.12    1.44 
   4   0   0   35.17    1.51 
   4   0   0   35.10    1.28 
   5   0   0    0.11    0.07 
   0  -1   0   -0.23    0.02 
   1  -1   0  790.44   36.88 
   1   1   0  745.64   25.28 
   2  -1   0  203.01    8.33 
  -2  -1   0  202.98    8.23 
   3  -1   0   87.74    3.64 
   3  -1   0   88.07    3.66 
   3  -1   0   90.13    3.04 
   3   1   0   88.67    3.56 
   3   1   0   85.33    3.01 
   4  -1   0  155.49    6.46 
   4  -1   0  163.18    4.56 
   4  -1   0  156.44    6.48 
   4   1   0  160.09    6.49 
   4   1   0  159.64    5.49 
   5  -1   0   95.64    3.93 
   5  -1   0   91.58    3.90 
   5   1   0   90.98    2.48 
   5   1   0   95.25    3.29 
   6   1   0   29.96    1.18 
   6   1   0   29.17    0.89 
   7   1   0    4.53    0.24 
   7   1   0    5.20    0.35 
   0  -2   0  161.97    6.67 
   0   2   0  153.06    5.18 
  -1  -2   0  448.73   18.80 
   1  -2   0  480.84   19.11 
   1   2   0  438.30   14.76 
  -1   2   0  419.99   14.63 
   2  -2   0   33.26    1.49 
   2  -2   0   36.02    1.51 
   2   2   0   33.91    1.43 
   2   2   0   33.37    1.21 
   3  -2   0   31.52    1.35 
   3  -2   0   26.55    1.31 
   3  -2   0   31.48    0.93 
   3   2   0   31.79    1.35 
   3   2   0   30.81    1.16 
   4  -2   0   20.56    0.69 
   4  -2   0   20.40    0.98 
   4  -2   0   20.71    0.65 
   4  -2   0   20.77    1.00 
   4   2   0   20.80    0.84 
   5  -2   0    1.54    0.14 
   5  -2   0    1.47    0.12 
   5  -2   0    1.41    0.20 
   5  -2   0    1.54    0.21 
   5   2   0    1.51    0.18 
   5   2   0    1.37    0.13 
   6  -2   0    2.33    0.17 
   6   2   0    2.14    0.19 
   6   2   0    2.18    0.24 
   7   2   0    8.00    0.44 
   7   2   0    8.34    0.37 
   7   2   0    8.19    0.43 
   7   2   0    8.29    0.48 
   8   2   0    0.92    0.17 
   8   2   0    1.16    0.17 
   9   2   0    1.31    0.17 
   9   2   0    1.02    0.13 
   0  -3   0    0.01    0.04 
   0  -3   0    0.21    0.06 
   0   3   0    0.04    0.07 
   1  -3   0   15.50    0.72 
   1  -3   0   14.18    0.50 
  -1   3   0   13.25    0.68 
   1   3   0   13.70    0.54 
   1   3   0   13.54    0.66 
   2  -3   0   34.37    1.51 
   2  -3   0   33.32    1.06 
  -2   3   0   30.46    1.41 
   2   3   0   31.21    1.37 
   2   3   0   31.74    1.16 
   3  -3   0   15.97    0.57 
   3  -3   0   16.00    0.54 
   3  -3   0   16.25    0.83 
   3   3   0   16.28    0.78 
  -3   3   0   16.40    0.85 
   3   3   0   15.90    0.68 
   4  -3   0   23.24    0.77 
   4  -3   0   21.81    1.11 
   4  -3   0   22.23    0.73 
  -4   3   0   21.81    1.12 
   4   3   0   22.01    0.91 
   4   3   0   23.00    0.72 
   5  -3   0    7.73    0.35 
   5  -3   0    7.81    0.34 
  -5   3   0    6.94    0.51 
   5   3   0    7.25    0.42 
   5   3   0    7.24    0.33 
   6  -3   0   27.55    0.93 
   6  -3   0   27.26    0.89 
   6   3   0   26.14    0.84 
   6   3   0   25.06    1.06 
   7  -3   0    0.43    0.31 
   7  -3   0    0.55    0.25 
   7   3   0    2.15    0.26 
   7   3   0    1.89    0.22 
   8   3   0   17.82    0.72 
   8   3   0   18.30    0.77 
   9   3   0    5.06    0.25 
   0  -4   0    5.80    0.26 
   0   4   0    6.04    0.41 
   1  -4   0    0.81    0.09 
  -1   4   0    1.00    0.16 
   1   4   0    0.79    0.14 
   2  -4   0  103.45    4.41 
   2  -4   0  103.51    2.89 
   2  -4   0  105.06    3.11 
   2  -4   0  107.43    2.93 
   2   4   0   96.58    4.08 
  -2   4   0   98.13    4.14 
   3  -4   0   36.64    1.17 
   3  -4   0   34.32    1.09 
  -3  -4   0   35.41    1.11 
   3  -4   0   37.01    1.08 
   3   4   0   34.88    1.57 
  -3   4   0   34.27    1.65 
   4  -4   0   24.39    0.76 
   4  -4   0   23.25    0.78 
   4  -4   0   23.03    0.83 
   4   4   0   20.33    0.90 
  -4   4   0   22.28    1.15 
   5  -4   0   64.46    1.99 
   5  -4   0   63.51    1.87 
  -5   4   0   59.55    2.69 
   5   4   0   58.35    2.13 
   6  -4   0    7.44    0.58 
   6  -4   0   10.08    0.59 
   6  -4   0   10.11    0.68 
   6   4   0   17.48    0.74 
   6   4   0   17.58    0.78 
   7  -4   0    1.17    0.35 
   7  -4   0    1.57    0.26 
   7  -4   0    2.24    0.31 
   7   4   0   17.84    0.81 
   7   4   0   22.57    2.12 
   7   4   0   18.72    0.78 
   8  -4   0   -0.06    0.13 
   8  -4   0    0.02    0.10 
   8   4   0    0.34    0.09 
   8   4   0    0.27    0.09 
   8   4   0    0.02    0.22 
   0  -5   0    0.01    0.07 
   0   5   0    0.03    0.11 
  -1  -5   0   40.97    1.28 
   1  -5   0   42.50    1.35 
   1  -5   0   42.14    1.27 
  -1   5   0   38.50    1.78 
   1   5   0   37.36    1.74 
   2  -5   0   12.86    0.52 
  -2  -5   0   12.11    0.49 
   2  -5   0   12.28    0.47 
   2   5   0   10.93    0.64 
  -2   5   0   11.32    0.70 
   3  -5   0   33.16    1.00 
   3  -5   0   31.94    1.08 
   3  -5   0   31.72    1.01 
  -3  -5   0   30.98    1.03 
  -3   5   0   31.06    1.55 
   4  -5   0   32.97    1.00 
   4  -5   0   30.99    1.09 
   4  -5   0   30.87    2.32 
   4  -5   0   31.23    1.56 
   4  -5   0   34.91    1.65 
   4  -5   0   33.03    1.04 
   4   5   0   50.81    3.43 
   5  -5   0   11.92    0.48 
   5  -5   0   12.98    0.72 
   5  -5   0   11.24    0.73 
   5  -5   0   12.77    0.85 
   5   5   0   30.03    2.85 
   6  -5   0    1.04    0.21 
   6   5   0    3.81    0.29 
   6   5   0    3.44    0.28 
   7  -5   0    0.05    0.15 
   7  -5   0   -0.01    0.09 
   7  -5   0    0.04    0.12 
   7   5   0    0.09    0.27 
   7   5   0    0.21    0.10 
   7   5   0    0.39    0.10 
   0  -6   0    2.63    0.19 
   0  -6   0    2.35    0.33 
   0  -6   0    2.35    0.34 
   0   6   0    2.15    0.28 
   1  -6   0   25.65    1.37 
   1  -6   0   26.01    1.24 
  -1  -6   0   25.37    1.39 
   1  -6   0   25.17    0.85 
  -1  -6   0   26.52    0.88 
   1   6   0   38.65    2.80 
   2  -6   0    0.34    0.18 
   2  -6   0    0.20    0.09 
   2  -6   0    0.19    0.09 
  -2  -6   0    0.38    0.10 
   2  -6   0    0.13    0.17 
   2  -6   0    0.41    0.18 
  -2  -6   0    0.28    0.27 
   2   6   0    0.69    0.41 
   3  -6   0   13.80    0.84 
   3  -6   0   13.74    0.81 
   3  -6   0   13.78    0.77 
  -3  -6   0   13.34    0.52 
   3  -6   0   13.52    0.50 
   3   6   0   19.89    1.63 
   4  -6   0    0.84    0.38 
   4  -6   0    1.83    0.29 
   4  -6   0    1.34    0.14 
   4  -6   0    2.04    0.34 
   4  -6   0    1.08    0.24 
   4  -6   0    1.68    0.29 
   5  -6   0    4.05    0.35 
   5  -6   0    5.09    0.37 
   5  -6   0    3.60    0.39 
   5   6   0    4.14    0.79 
   6  -6   0    0.05    0.09 
   6  -6   0    0.05    0.07 
   6  -6   0    0.11    0.11 
   6   6   0    1.55    0.45 
   0  -7   0   -0.02    0.14 
   0  -7   0    0.04    0.09 
   0   7   0    0.22    0.49 
   1  -7   0    3.15    0.34 
  -1  -7   0    3.26    0.20 
  -1  -7   0    3.21    0.35 
   1  -7   0    3.23    0.29 
  -1  -7   0    3.74    0.36 
   1  -7   0    3.10    0.19 
  -1   7   0    5.27    0.76 
   1   7   0    3.86    0.65 
   2  -7   0    2.14    0.24 
  -2  -7   0    1.95    0.27 
   2  -7   0    2.17    0.32 
  -2  -7   0    1.97    0.15 
   2  -7   0    1.77    0.14 
  -2  -7   0    1.49    0.24 
   2  -7   0    1.42    0.23 
  -2   7   0    3.33    0.67 
  -3   7   0    0.74    0.36 
   3   7   0    0.28    0.26 
  -4  -7   0    0.08    0.14 
   4  -7   0    0.32    0.12 
   4  -7   0   -0.04    0.07 
   4  -7   0   -0.03    0.08 
   4   7   0    0.03    0.15 
   4   7   0   -0.05    0.16 
  -4   7   0   -0.03    0.19 
   0  -8   0    1.66    0.17 
   0   8   0    3.69    0.44 
  -1  -8   0    0.71    0.11 
  -1   8   0    2.61    0.39 
   1   8   0    3.90    0.42 
   6   0  -1    0.22    0.08 
   6   0  -1    0.18    0.08 
   5   0  -1    0.10    0.05 
   5   0  -1    0.13    0.06 
   4   0  -1   66.69    2.97 
   4   0  -1   75.31    2.99 
   4   0  -1   73.72    2.52 
   3   0  -1   31.00    1.12 
   3   0  -1   33.76    1.33 
   3   0  -1   28.57    1.31 
   1   0  -1  143.16    5.90 
   0   0  -1  298.53   12.14 
  -1   0  -1   26.09    1.11 
   2   0   1 1000.00   33.89 
  -3   0  -1   86.06    3.67 
   3   0   1   91.74    3.06 
   4   0   1   37.55    1.39 
   4   0   1   39.28    1.17 
   5   0   1   14.08    0.47 
   8   1  -1   19.86    0.85 
   7   1  -1   23.23    0.96 
   6  -1  -1   21.57    1.05 
   6   1  -1   22.40    0.92 
   6   1  -1   21.36    0.69 
   5  -1  -1   18.85    0.91 
   5   1  -1   43.21    1.58 
   5   1  -1   40.21    1.18 
   5   1  -1   43.53    1.83 
   4  -1  -1    8.42    0.46 
   4  -1  -1    8.88    0.31 
   4   1  -1    9.16    0.41 
   3   1  -1   13.17    0.61 
   3   1  -1   13.29    0.53 
   2  -1  -1  471.29   19.30 
   2   1  -1  399.09   19.64 
  -2   1   1  514.30   15.89 
   2   1  -1  477.78   20.14 
   1  -1  -1  251.26   10.35 
   1   1  -1  267.87    9.18 
   1   1  -1  256.98   10.87 
  -1   1   1  281.11    9.18 
   0  -1   1  127.76    5.05 
   0  -1  -1  115.74    5.01 
   0   1   1  122.83    4.17 
   1  -1   1  330.71   13.56 
  -1  -1  -1  334.62   13.51 
   2  -1   1  560.40   21.40 
  -2  -1  -1  482.54   21.14 
   2   1   1  473.16   16.24 
   3  -1   1  338.94   15.48 
   3  -1   1  406.57   15.68 
   3  -1   1  396.96   11.03 
   3   1   1  356.38   12.24 
   4  -1   1  166.86    4.81 
   4   1   1  159.18    5.47 
   5  -1   1   48.61    1.49 
   5   1   1   43.71    1.26 
   5   1   1   45.40    1.66 
   6   1   1   42.12    1.22 
   6   1   1   41.91    1.56 
   7   1   1   12.18    0.57 
   7   1   1   11.05    0.44 
   7   1   1   11.81    0.53 
   9   2  -1    2.98    0.21 
   9   2  -1    2.95    0.22 
   8   2  -1    5.94    0.35 
   8   2  -1    6.25    0.40 
   7   2  -1   18.47    0.82 
   7   2  -1   17.63    0.75 
   6  -2  -1   19.96    0.65 
   6  -2  -1   17.39    0.96 
   6   2  -1   19.15    0.63 
   6   2  -1   18.12    0.80 
   6   2  -1   18.39    0.83 
   5  -2  -1   12.97    0.47 
   5  -2  -1   12.14    0.69 
   5  -2  -1   12.22    0.45 
   5  -2  -1   12.77    0.69 
   5   2  -1   12.79    0.60 
   5   2  -1   12.80    0.46 
   5   2  -1   13.55    0.67 
   4  -2  -1    1.66    0.18 
   4  -2  -1    1.72    0.12 
   4  -2  -1    1.67    0.13 
   4  -2  -1    1.61    0.20 
   4   2  -1    1.74    0.17 
   4   2  -1    1.70    0.16 
   3  -2  -1    5.78    0.26 
   3  -2  -1    7.35    0.40 
   3  -2  -1    5.93    0.38 
   3   2  -1    6.20    0.30 
   3   2  -1    5.99    0.34 
   2  -2  -1  216.77    9.24 
   2  -2  -1  240.02    9.27 
  -2   2   1  240.27    7.79 
   2   2  -1  225.87    7.90 
   2   2  -1  224.53    9.30 
   1  -2  -1  169.27    6.87 
   1   2  -1  166.98    5.28 
  -1   2   1  153.99    5.14 
   1   2  -1  137.63    6.13 
  -1   2   1  152.19    6.15 
   1   2  -1  146.78    6.14 
   0  -2  -1   28.40    1.23 
   0  -2   1   30.04    1.24 
   0   2  -1   26.38    1.17 
   0   2   1   27.73    0.97 
  -1  -2  -1  132.32    5.72 
   1  -2   1  150.24    5.76 
  -1   2  -1  125.14    5.12 
   1   2   1  126.10    4.29 
   2  -2   1  228.59    9.31 
   2  -2   1  230.25    6.56 
  -2   2  -1  205.66    8.59 
   2   2   1  218.25    7.20 
   2   2   1  211.29    8.55 
   3  -2   1  259.95    7.43 
   3  -2   1  258.89   10.55 
   3   2   1  243.13    8.28 
   4  -2   1  131.30    6.05 
   4  -2   1  150.38    4.01 
   4  -2   1  156.73    4.30 
   4  -2   1  152.79    6.12 
   4   2   1  151.74    5.16 
   4   2   1  146.23    3.90 
   5  -2   1   41.52    1.26 
   5  -2   1   43.78    1.35 
   5   2   1   38.40    1.15 
   5   2   1   40.20    1.51 
   6  -2   1   36.55    1.18 
   6   2   1   34.28    1.34 
   6   2   1   34.55    1.05 
   7   2   1    5.50    0.34 
   7   2   1    5.80    0.38 
   7   2   1    5.88    0.29 
   7   2   1    5.75    0.37 
   8   2   1   10.25    0.51 
   8   2   1   10.08    0.49 
   9   2   1    0.90    0.10 
   9   3  -1    0.54    0.09 
   9   3  -1    0.31    0.08 
   8  -3  -1   -0.06    0.16 
   8   3  -1    0.80    0.15 
   8   3  -1    0.69    0.16 
   8   3  -1    0.36    0.49 
   7   3  -1    6.84    0.40 
   7   3  -1    6.48    0.41 
   6  -3  -1    5.12    0.28 
   6  -3  -1    5.37    0.28 
   6   3  -1    4.85    0.34 
   5  -3  -1    7.00    0.32 
   5  -3  -1    7.48    0.33 
  -5   3   1    7.00    0.52 
   5   3  -1    7.19    0.33 
   5   3  -1    7.18    0.42 
   4  -3  -1   41.32    1.26 
   4  -3  -1   38.61    1.80 
   4  -3  -1   38.73    1.17 
   4   3  -1   42.28    1.80 
   4   3  -1   39.18    1.17 
  -4   3   1   40.85    1.89 
   4   3  -1   41.11    1.54 
   3  -3  -1   15.16    0.52 
   3  -3  -1   15.68    0.80 
   3  -3  -1   15.63    0.55 
   3   3  -1   16.13    0.77 
   3   3  -1   15.57    0.65 
  -3   3   1   15.48    0.82 
   2  -3  -1   25.55    0.86 
   2  -3  -1   27.89    1.23 
   2   3  -1   26.37    1.18 
  -2   3   1   25.56    1.21 
   2   3  -1   26.34    0.98 
   1  -3  -1   27.08    1.19 
   1  -3  -1   25.84    0.84 
  -1   3   1   23.58    1.09 
   1   3  -1   23.98    1.08 
   0  -3   1   26.58    0.85 
   0  -3  -1   27.10    0.86 
   0  -3   1   27.92    1.19 
   0   3  -1   25.15    1.14 
   0   3   1   24.76    1.13 
   0   3   1   25.42    0.93 
   1  -3   1   78.92    2.36 
   1  -3   1   84.13    3.36 
  -1  -3  -1   78.40    2.36 
   1   3   1   76.77    2.63 
  -1   3  -1   75.26    3.16 
   1   3   1   73.93    3.13 
   2  -3   1   40.35    1.76 
   2  -3   1   39.64    1.23 
  -2   3  -1   37.05    1.66 
   2   3   1   37.49    1.37 
   2   3   1   36.69    1.60 
   3  -3   1   13.30    0.72 
   3  -3   1   13.42    0.47 
   3  -3   1   13.61    0.49 
  -3   3  -1   12.85    0.70 
   3   3   1   12.30    0.57 
   3   3   1   12.94    0.44 
   4  -3   1   29.42    0.98 
   4  -3   1   30.65    0.91 
   4  -3   1   29.41    0.93 
   4   3   1   28.21    0.86 
   4   3   1   28.44    1.11 
   4   3   1   25.78    0.87 
  -4   3  -1   28.11    1.34 
   5  -3   1    7.25    0.35 
   5  -3   1    7.34    0.33 
   5   3   1    5.97    0.37 
   5   3   1    6.65    0.33 
   6  -3   1    0.93    0.24 
   6   3   1    2.39    0.24 
   6   3   1    2.59    0.20 
   6   3   1    2.97    0.28 
   6   3   1    2.67    0.25 
   7  -3   1    2.37    0.46 
   7   3   1   22.32    0.90 
   7   3   1   23.28    0.96 
   7   3   1   23.17    0.75 
   8   3   1    9.86    0.47 
   8   3   1    9.82    0.45 
   8  -4  -1    0.01    0.14 
   8  -4  -1    0.01    0.10 
   8   4  -1    0.20    0.09 
   8   4  -1   -0.09    0.23 
   8   4  -1    0.15    0.09 
   7   4  -1    5.48    0.38 
   7   4  -1    5.61    0.35 
   6  -4  -1   16.02    0.59 
   6  -4  -1   15.07    0.60 
   6  -4  -1   17.48    1.45 
   6   4  -1   16.37    0.72 
   6   4  -1   14.97    0.67 
   6   4  -1   11.93    1.67 
   5  -4  -1    0.69    0.12 
   5  -4  -1    0.61    0.12 
   5   4  -1    0.46    0.12 
  -5   4   1    0.62    0.18 
   4  -4  -1   42.50    1.38 
   4  -4  -1   43.13    1.30 
   4   4  -1   38.69    1.57 
  -4   4   1   42.44    1.97 
   4   4  -1   42.74    1.86 
   3  -4  -1   58.14    1.72 
   3  -4  -1   60.41    1.71 
   3  -4  -1   60.82    1.85 
   3   4  -1   60.98    2.61 
  -3   4   1   59.69    2.69 
   2  -4  -1   53.58    1.56 
   2  -4  -1   53.79    2.38 
   2  -4  -1   55.67    1.69 
  -2   4   1   51.55    2.34 
   2   4  -1   54.14    2.31 
   1  -4  -1   76.38    2.30 
  -1   4   1   70.37    3.05 
   1   4  -1   71.85    3.04 
   0  -4  -1    0.30    0.07 
   0   4   1    0.38    0.10 
   0   4  -1    0.47    0.13 
   1  -4   1    5.81    0.27 
   1   4   1    5.49    0.37 
  -1   4  -1    5.45    0.39 
   2  -4   1   47.51    1.39 
   2  -4   1   48.03    1.48 
   2  -4   1   47.15    2.12 
   2  -4   1   49.09    1.40 
  -2  -4  -1   46.35    1.42 
  -2   4  -1   43.31    1.96 
   2   4   1   43.01    1.61 
  -3  -4  -1    2.13    0.18 
   3  -4   1    2.67    0.19 
   3  -4   1    2.48    0.17 
   3  -4   1    2.57    0.16 
   3   4   1    2.06    0.19 
   3   4   1    2.24    0.16 
  -3   4  -1    2.14    0.28 
   4  -4   1    2.76    0.18 
  -4  -4  -1    2.59    0.21 
   4  -4   1    2.62    0.19 
   4  -4   1    2.59    0.19 
   4   4   1    2.75    0.21 
   4   4   1    2.42    0.22 
  -4   4  -1    2.43    0.28 
   5  -4   1    5.75    0.45 
   5  -4   1    5.45    0.30 
   5  -4   1    5.60    0.56 
   5  -4   1    4.60    0.44 
   5  -4   1    5.53    0.30 
   5  -4   1    5.54    0.26 
   5   4   1    5.04    0.35 
   5   4   1    5.67    0.31 
   5   4   1    5.43    0.33 
   5   4   1    4.86    0.34 
   6  -4   1    0.95    0.25 
   6  -4   1    0.07    0.18 
   6  -4   1    0.37    0.15 
   6  -4   1    0.12    0.23 
   6   4   1    1.20    0.60 
   7  -4   1    0.06    0.19 
   7  -4   1    0.05    0.16 
   7  -4   1    0.09    0.16 
   7  -4   1    0.00    0.10 
   7   4   1    0.85    0.15 
   7   4   1    1.35    0.18 
   8  -4   1    0.12    0.09 
   8  -4   1    0.03    0.10 
   8   4   1    3.09    0.22 
   8   4   1    3.26    0.20 
   7  -5  -1    0.17    0.18 
   7  -5  -1    0.19    0.14 
   7  -5  -1    0.04    0.13 
   7   5  -1    9.48    0.42 
   7   5  -1    9.14    0.44 
   6  -5  -1    2.43    0.46 
   6   5  -1    3.29    0.28 
   5  -5  -1   67.55    2.85 
   5  -5  -1   59.69    1.93 
   5  -5  -1   56.75    4.01 
   5  -5  -1   63.22    2.84 
   5  -5  -1   62.05    1.81 
   5   5  -1   76.25    6.56 
   5   5  -1  104.64    5.81 
   4  -5  -1   21.21    1.13 
   4  -5  -1   20.95    1.14 
   4  -5  -1   21.50    1.71 
   4  -5  -1   19.09    0.74 
   4  -5  -1   19.75    0.71 
   4  -5  -1   19.88    1.10 
   4   5  -1   33.77    2.49 
   4   5  -1   32.81    2.98 
   3  -5  -1  109.04    2.99 
   3  -5  -1  107.72    3.21 
   3  -5  -1  109.26    2.99 
  -3  -5   1  100.53    3.00 
  -3   5   1  103.28    4.40 
   3   5  -1   99.76    4.29 
  -2  -5   1    2.29    0.19 
   2  -5  -1    2.33    0.19 
   2  -5  -1    2.50    0.19 
  -2   5   1    2.13    0.27 
   2   5  -1    2.18    0.26 
   1  -5  -1   42.23    1.34 
   1  -5  -1   40.95    1.25 
  -1  -5   1   40.14    1.25 
   1   5  -1   39.88    1.80 
  -1   5   1   37.32    1.79 
   0  -5   1    4.88    0.25 
   0  -5  -1    4.60    0.25 
   0   5   1    4.22    0.36 
   0   5  -1    4.47    0.37 
   1  -5   1   35.46    1.17 
   1  -5   1   36.38    1.11 
  -1  -5  -1   36.31    1.14 
   1   5   1   32.00    1.52 
  -1   5  -1   33.21    1.58 
   2  -5   1    2.42    0.19 
  -2  -5  -1    2.52    0.22 
   2  -5   1    2.60    0.18 
  -2   5  -1    2.37    0.31 
  -3  -5  -1    1.33    0.17 
   3  -5   1    0.90    0.14 
   3  -5   1    1.16    0.13 
   3  -5   1    1.08    0.14 
  -3   5  -1    0.92    0.21 
  -4  -5  -1    1.02    0.15 
   4  -5   1    0.77    0.12 
   4  -5   1    1.00    0.24 
   4  -5   1    0.79    0.12 
   4  -5   1    1.03    0.31 
   4  -5   1    0.54    0.10 
   4  -5   1    0.78    0.20 
   4  -5   1    0.97    0.26 
   4  -5   1    0.61    0.24 
   5  -5   1    2.83    0.33 
   5  -5   1    2.57    0.37 
   5  -5   1    2.74    0.38 
   5  -5   1    2.49    0.18 
   5  -5   1    2.32    0.32 
   5   5   1    4.55    0.95 
   6  -5   1    1.32    0.25 
   6  -5   1    1.99    0.31 
   6   5   1    3.23    0.24 
   6   5   1    2.97    0.23 
   7  -5   1    0.13    0.14 
   7  -5   1    0.06    0.06 
   7  -5   1    0.16    0.09 
   7  -5   1    0.12    0.11 
   6  -6  -1    0.76    0.22 
   6  -6  -1    0.70    0.18 
   6   6  -1   -0.03    0.22 
   5  -6  -1    1.84    0.42 
   5  -6  -1    2.39    0.34 
   5  -6  -1    2.79    0.35 
   5  -6  -1    2.98    0.35 
   4  -6  -1    1.79    0.30 
   4  -6  -1    1.58    0.26 
   4  -6  -1    2.12    0.33 
   3  -6  -1   17.50    1.02 
   3  -6  -1   18.64    1.03 
  -3  -6   1   18.92    0.66 
   3  -6  -1   19.02    0.64 
   3  -6  -1   20.18    1.59 
   3   6  -1   27.48    2.10 
   2  -6  -1   27.51    1.98 
   2  -6  -1   24.27    1.29 
  -2  -6   1   25.62    0.85 
   2  -6  -1   25.17    1.23 
   2  -6  -1   25.48    1.36 
  -2  -6   1   24.75    1.35 
   2  -6  -1   23.44    0.88 
   2  -6  -1   25.42    0.83 
   2   6  -1   39.23    2.85 
   1  -6  -1   11.22    0.69 
   1  -6  -1   11.96    0.80 
   1  -6  -1   11.70    0.47 
  -1  -6   1   11.96    0.47 
  -1  -6   1   11.64    0.76 
   1  -6  -1   11.55    0.75 
   1   6  -1   17.96    1.66 
   0  -6  -1   49.22    2.43 
   0  -6   1   49.89    2.42 
   0  -6   1   52.15    1.50 
   0  -6  -1   49.98    1.51 
   0  -6  -1   47.50    2.19 
   0   6  -1   73.20    4.75 
   0   6   1   70.46    4.72 
   1  -6   1   58.88    2.68 
  -1  -6  -1   60.29    1.77 
   1  -6   1   59.98    1.74 
   1  -6   1   58.83    2.55 
  -1  -6  -1   58.10    2.84 
   1   6   1   84.87    5.54 
  -1   6  -1   88.76    5.64 
   2  -6   1    9.40    0.39 
  -2  -6  -1    9.50    0.44 
   2  -6   1    9.70    0.68 
   2  -6   1    9.63    0.64 
   2  -6   1    9.53    0.61 
  -2  -6  -1    9.37    0.74 
   2   6   1   13.94    1.35 
  -3  -6  -1    2.38    0.35 
   3  -6   1    3.11    0.34 
   3  -6   1    2.92    0.20 
  -3  -6  -1    2.79    0.21 
   3  -6   1    3.19    0.37 
   3   6   1    4.04    0.61 
   4  -6   1    1.22    0.25 
   4  -6   1    1.20    0.23 
   4  -6   1    1.37    0.26 
  -4  -6  -1    0.91    0.13 
   4   6   1    1.65    0.68 
   5  -6   1    0.98    0.21 
   5  -6   1    1.28    0.24 
   5  -6   1    1.34    0.27 
   5   6   1    3.22    0.81 
   6  -6   1    0.04    0.12 
   6  -6   1    0.17    0.12 
   6  -6   1    0.07    0.08 
   6  -6   1   -0.01    0.06 
   5  -7  -1    0.00    0.05 
  -4  -7   1    1.28    0.19 
   3  -7  -1    0.34    0.14 
   3  -7  -1    0.51    0.14 
   3   7  -1    3.77    0.55 
  -3   7   1    3.52    0.64 
   2  -7  -1    1.64    0.24 
   2  -7  -1    1.95    0.32 
   2  -7  -1    1.86    0.14 
  -2  -7   1    1.67    0.24 
  -2  -7   1    2.09    0.17 
   2  -7  -1    1.92    0.29 
  -2   7   1    2.69    0.61 
   2   7  -1    1.89    0.50 
   1  -7  -1    2.28    0.25 
  -1  -7   1    2.35    0.17 
   1  -7  -1    2.10    0.18 
  -1  -7   1    1.98    0.26 
  -1  -7   1    2.09    0.28 
  -1   7   1    3.69    0.82 
   1   7  -1    3.54    0.62 
   0  -7   1    4.38    0.38 
   0  -7  -1    4.72    0.42 
   0  -7   1    4.53    0.24 
   0  -7  -1    4.34    0.26 
   0   7   1    6.75    0.83 
   0   7  -1    6.99    0.86 
  -1  -7  -1    2.38    0.27 
   1  -7   1    3.20    0.37 
  -1  -7  -1    2.85    0.33 
   1  -7   1    2.74    0.18 
  -1  -7  -1    2.61    0.19 
   1  -7   1    2.88    0.26 
   1   7   1    3.69    0.62 
  -1   7  -1    4.41    0.68 
  -2  -7  -1    7.26    0.32 
   2  -7   1    6.61    0.29 
   2  -7   1    7.51    0.46 
  -2  -7  -1    7.56    0.52 
   2   7   1   11.38    1.04 
  -2   7  -1   10.45    1.05 
   3  -7   1    0.73    0.16 
   3  -7   1    0.84    0.19 
  -3  -7  -1    1.27    0.25 
   3  -7   1    0.43    0.14 
  -3   7  -1    0.78    0.33 
   3   7   1    0.38    0.25 
   4  -7   1   -0.01    0.08 
   4  -7   1   -0.05    0.07 
   4  -7   1    0.04    0.08 
   4   7   1   -0.07    0.17 
   1  -8  -1    0.01    0.07 
  -1   8   1    0.11    0.17 
   1   8  -1    0.07    0.16 
   0   8  -1    4.04    0.46 
   1  -8   1    6.32    0.40 
  -1  -8  -1    8.50    0.42 
   7   0  -2    5.35    0.40 
   6   0  -2    1.54    0.20 
   5   0  -2   11.00    0.58 
   5   0  -2   10.73    0.50 
   4   0  -2  128.48    5.73 
   4   0  -2  145.90    4.84 
   4   0  -2  148.38    5.76 
   3   0  -2  246.05   10.40 
   3   0  -2  260.38    8.70 
   2   0  -2  592.66   24.10 
   1   0  -2   -0.06    0.02 
  -1   0   2   -0.03    0.03 
   0   0  -2   -0.02    0.06 
  -1   0  -2  107.93    4.42 
   1   0   2  108.61    3.68 
   2   0   2  223.21    7.77 
  -2   0  -2  228.41    9.15 
  -3   0  -2   21.98    1.07 
   3   0   2   25.68    0.75 
   3   0   2   22.73    0.86 
   4   0   2    0.52    0.08 
   5   0   2    3.72    0.20 
   5   0   2    3.28    0.19 
   9   1  -2    0.11    0.29 
   7  -1  -2   23.74    1.17 
   7   1  -2   26.36    1.08 
   6  -1  -2   29.93    1.40 
   6   1  -2   31.83    1.42 
   6   1  -2   31.60    1.24 
   6   1  -2   29.53    0.91 
   5  -1  -2   62.09    2.75 
   5  -1  -2   67.34    2.77 
   5   1  -2   67.97    2.44 
   5   1  -2   67.93    2.87 
   4  -1  -2   43.78    1.80 
   4  -1  -2   39.29    1.79 
   4   1  -2   46.91    2.02 
   4   1  -2   48.54    1.72 
  -3   1   2  127.09    4.49 
   3   1  -2  134.19    5.33 
   3   1  -2  131.71    4.48 
   2  -1  -2   66.85    2.76 
   2   1  -2   68.70    2.35 
  -2   1   2   69.63    2.36 
   2   1  -2   66.77    2.78 
   1  -1  -2  329.75   13.57 
  -1   1   2  348.38   11.91 
   1   1  -2  343.20   11.79 
   0  -1  -2  171.96    7.07 
  -1  -1  -2  200.51    8.26 
  -2  -1  -2  129.81    5.28 
  -2   1  -2  112.93    4.68 
   2   1   2  113.65    3.88 
   3  -1   2   12.09    0.42 
  -3   1  -2   10.06    0.57 
   3   1   2   10.65    0.45 
   4  -1   2    6.55    0.28 
   4   1   2    6.10    0.26 
  -4   1  -2    5.65    0.41 
   4   1   2    5.89    0.31 
   5  -1   2   16.15    0.58 
   5  -1   2   15.90    0.54 
   5   1   2   14.66    0.51 
   5   1   2   14.82    0.53 
   5   1   2   15.16    0.66 
   6   1   2    7.55    0.34 
   6   1   2    7.77    0.43 
   7   1   2    7.93    0.35 
   7   1   2    7.92    0.39 
   7   1   2    8.43    0.43 
   9   2  -2    0.98    0.14 
   9   2  -2    0.74    0.12 
   8   2  -2    1.37    0.19 
   8   2  -2    1.16    0.18 
   7  -2  -2    6.40    0.46 
   7   2  -2    7.57    0.46 
   6  -2  -2    3.87    0.22 
   6  -2  -2    3.56    0.34 
   6   2  -2    3.92    0.31 
   6   2  -2    3.62    0.28 
   5  -2  -2   39.69    1.76 
   5  -2  -2   39.74    1.23 
   5  -2  -2   37.44    1.75 
   5  -2  -2   37.15    1.14 
   5   2  -2   38.71    1.13 
   5   2  -2   39.37    1.48 
   4  -2  -2   30.99    0.97 
   4  -2  -2   30.82    1.39 
   4  -2  -2   30.74    1.40 
   4  -2  -2   29.48    0.91 
   4   2  -2   31.32    1.39 
   4   2  -2   31.70    1.19 
   3  -2  -2   80.54    3.29 
   3  -2  -2   79.16    3.28 
   3  -2  -2   75.45    2.30 
  -3   2   2   86.94    2.94 
   3   2  -2   80.98    3.49 
   3   2  -2   85.54    2.94 
   2  -2  -2    4.43    0.29 
   2  -2  -2    5.01    0.30 
  -2   2   2    4.97    0.25 
   2   2  -2    4.83    0.29 
   2   2  -2    5.21    0.24 
   1  -2  -2   16.03    0.73 
   1   2  -2   15.10    0.53 
   1   2  -2   14.43    0.65 
   1   2  -2   14.54    0.67 
  -1   2   2   14.55    0.56 
  -1   2   2   13.50    0.66 
   0  -2  -2  220.24    9.07 
   0   2   2  187.72    6.47 
   0   2  -2  188.72    7.74 
   0   2  -2  194.86    7.71 
  -1  -2  -2   94.68    3.86 
  -1   2  -2   84.49    3.57 
   1   2   2   89.01    3.00 
   2  -2   2  309.43    8.69 
  -2  -2  -2  299.46    8.69 
   2   2   2  276.22    9.12 
  -2   2  -2  260.40   10.85 
   3  -2   2    2.02    0.14 
   3  -2   2    2.05    0.14 
   3   2   2    1.97    0.16 
   4  -2   2   20.09    0.66 
   4  -2   2   20.18    0.69 
   4   2   2   18.72    0.59 
   4   2   2   18.83    0.77 
  -4   2  -2   16.09    0.95 
   5  -2   2   12.88    0.51 
   5  -2   2   13.38    0.47 
   5   2   2   11.38    0.44 
   5   2   2   11.48    0.45 
   5   2   2   11.56    0.57 
   6  -2   2    1.19    0.13 
   6   2   2    1.21    0.18 
   6   2   2    1.28    0.16 
   7   2   2   11.36    0.55 
   7   2   2   10.45    0.42 
   7   2   2   10.71    0.51 
   7   2   2   10.35    0.49 
   8   2   2    2.16    0.19 
   8   2   2    2.18    0.19 
   9   3  -2    2.21    0.18 
   9   3  -2    2.18    0.18 
   8  -3  -2    0.15    0.18 
   8   3  -2    3.07    0.29 
   8   3  -2    3.07    0.26 
   7  -3  -2    0.50    0.11 
   7  -3  -2    0.00    0.29 
   7  -3  -2    0.08    0.28 
   7  -3  -2    0.54    0.25 
   7   3  -2    0.26    0.33 
   7   3  -2    0.32    0.12 
   7   3  -2    0.13    0.42 
   7   3  -2    0.52    0.13 
   6  -3  -2   15.33    0.57 
   6   3  -2   15.40    0.73 
   6   3  -2   15.64    0.81 
   5  -3  -2    4.30    0.24 
   5  -3  -2    4.11    0.36 
   5  -3  -2    4.53    0.24 
   5   3  -2    4.34    0.31 
   5   3  -2    4.40    0.34 
   4  -3  -2   32.91    1.03 
   4  -3  -2   31.26    1.48 
   4  -3  -2   31.05    1.47 
   4  -3  -2   30.44    0.96 
   4   3  -2   34.76    1.53 
   4   3  -2   33.20    1.30 
   3  -3  -2   61.52    1.77 
   3  -3  -2   62.98    1.91 
   3  -3  -2   64.45    2.72 
   3   3  -2   65.85    2.29 
  -3   3   2   62.16    2.78 
   3   3  -2   64.85    2.73 
   2  -3  -2   22.84    1.05 
   2  -3  -2   21.53    0.74 
   2   3  -2   21.07    0.97 
  -2   3   2   20.37    0.99 
   1  -3  -2   44.38    1.86 
   1  -3  -2   41.73    1.32 
   1   3  -2   40.23    1.74 
  -1   3   2   41.88    1.45 
  -1   3   2   38.16    1.74 
   0  -3  -2  287.87    8.29 
   0  -3   2  291.52    8.26 
   0   3  -2  256.67   10.76 
   0   3   2  279.98    9.01 
   0   3  -2  264.25   10.75 
   0   3   2  259.65   10.73 
  -1  -3  -2  188.97    5.52 
   1  -3   2  193.93    5.50 
   1   3   2  179.47    6.08 
  -1   3  -2  175.26    7.25 
   2  -3   2   25.39    0.83 
   2  -3   2   26.03    0.79 
   2   3   2   23.11    0.92 
  -2   3  -2   23.19    1.09 
   3  -3   2    1.92    0.15 
   3  -3   2    2.04    0.16 
   3   3   2    2.01    0.14 
   3   3   2    1.87    0.19 
  -3   3  -2    1.80    0.22 
   4  -3   2    1.70    0.14 
   4  -3   2    1.43    0.15 
   4  -3   2    1.49    0.14 
   4   3   2    1.39    0.15 
   4   3   2    1.33    0.14 
   4   3   2    1.60    0.19 
   5  -3   2   25.11    0.87 
   5   3   2   21.67    0.78 
   5   3   2   22.81    0.96 
   5   3   2   25.02    0.78 
   6  -3   2    2.59    0.33 
   6  -3   2    2.04    0.30 
   6   3   2   13.88    0.61 
   6   3   2   13.53    0.62 
   6   3   2   14.93    0.55 
   6   3   2   14.31    0.68 
   7  -3   2    0.07    0.16 
   7  -3   2    0.05    0.12 
   7  -3   2    0.11    0.18 
   7   3   2    2.61    0.18 
   7   3   2    2.56    0.21 
   7   3   2    2.74    0.24 
   7   3   2    2.73    0.27 
   8   3   2    9.63    0.45 
   8   3   2    9.93    0.42 
   9   4  -2    2.02    0.14 
   8  -4  -2    0.03    0.16 
   8  -4  -2   -0.06    0.17 
   8   4  -2    0.84    0.13 
   8   4  -2    0.95    0.16 
   7  -4  -2    0.01    0.19 
   7  -4  -2   -0.06    0.15 
   7  -4  -2    0.10    0.24 
   7  -4  -2    0.18    0.07 
   7   4  -2    0.19    0.42 
   7   4  -2    0.19    0.11 
   7   4  -2   -0.05    0.12 
   7   4  -2    0.05    0.35 
   6   4  -2   20.06    1.65 
   6   4  -2   19.03    0.81 
   6   4  -2   19.48    0.86 
   5  -4  -2   18.09    0.68 
   5  -4  -2   18.12    0.65 
   5   4  -2   16.42    0.76 
  -5   4   2   16.64    1.00 
   5   4  -2   18.55    0.91 
   4  -4  -2   24.82    0.82 
   4  -4  -2   25.04    0.88 
  -4   4   2   24.49    1.28 
   4   4  -2   24.61    1.19 
   3  -4  -2   47.94    1.49 
   3  -4  -2   45.90    1.38 
  -3   4   2   46.84    2.18 
   3   4  -2   48.79    2.12 
   2  -4  -2   14.58    0.78 
   2  -4  -2   14.13    0.51 
   2  -4  -2   14.84    0.56 
   2   4  -2   14.11    0.74 
  -2   4   2   13.64    0.76 
   1  -4  -2   17.78    0.64 
   1   4  -2   16.72    0.84 
  -1   4   2   16.00    0.84 
   0  -4  -2    3.13    0.19 
   0   4   2    3.13    0.26 
   0   4  -2    2.96    0.27 
  -1  -4  -2    7.39    0.34 
   1  -4   2    7.91    0.32 
   1  -4   2    7.55    0.32 
  -1  -4  -2    7.45    0.34 
   1   4   2    7.10    0.37 
  -1   4  -2    6.91    0.47 
   2  -4   2   13.55    0.49 
   2  -4   2   13.57    0.51 
  -2  -4  -2   12.81    0.51 
   2  -4   2   14.05    0.48 
   2   4   2   12.62    0.57 
  -2   4  -2   10.67    0.72 
  -2   4  -2   12.75    0.70 
  -3  -4  -2    9.12    0.41 
   3  -4   2    9.54    0.37 
   3  -4   2    9.08    0.40 
   3  -4   2    9.76    0.39 
  -3   4  -2    8.80    0.57 
   3   4   2    8.47    0.36 
   3   4   2    7.89    0.45 
  -4  -4  -2    4.55    0.28 
   4  -4   2    4.93    0.25 
   4  -4   2    4.52    0.26 
   4  -4   2    4.59    0.26 
   4   4   2    4.51    0.26 
   4   4   2    3.97    0.30 
   5  -4   2    0.98    0.12 
   5  -4   2    1.68    0.33 
   5  -4   2    0.61    0.34 
   5  -4   2    1.34    0.28 
   5  -4   2    1.04    0.13 
  -5  -4  -2    1.12    0.15 
   5   4   2    0.85    0.16 
   5   4   2    1.01    0.18 
   5   4   2    0.94    0.15 
   5   4   2    1.23    0.14 
   5   4   2    0.13    0.34 
   6  -4   2    0.69    0.33 
   6  -4   2    0.39    0.15 
   6   4   2    1.50    0.19 
   6   4   2    1.75    0.20 
   7  -4   2    0.05    0.14 
   7  -4   2    0.08    0.09 
   7  -4   2    0.06    0.18 
   7  -4   2    0.04    0.10 
   7   4   2    0.98    0.14 
   7   4   2    0.96    0.14 
   8  -5  -2   -0.01    0.10 
   7  -5  -2    0.08    0.10 
   7  -5  -2    0.20    0.20 
   7  -5  -2    0.17    0.15 
   7  -5  -2    0.37    0.22 
   7   5  -2    9.38    1.22 
   7   5  -2    8.67    0.41 
   7   5  -2    8.50    0.43 
   6  -5  -2    3.54    0.34 
   5  -5  -2    2.78    0.22 
   5  -5  -2    2.82    0.21 
   5  -5  -2    2.87    0.34 
   5  -5  -2    3.00    0.49 
   5  -5  -2    3.20    0.39 
   5   5  -2    3.14    0.63 
   4  -5  -2    0.36    0.26 
   4  -5  -2    0.28    0.09 
   4  -5  -2    0.33    0.17 
   4  -5  -2    0.20    0.08 
   4  -5  -2    0.32    0.22 
   4  -5  -2    0.04    0.15 
   4  -5  -2    0.09    0.28 
   4   5  -2    0.64    0.53 
  -4   5   2    0.16    0.15 
   4   5  -2    0.20    0.10 
   3  -5  -2    1.95    0.16 
   3  -5  -2    1.97    0.18 
   3  -5  -2    2.19    0.17 
   3   5  -2    1.85    0.23 
  -3   5   2    1.77    0.26 
   2  -5  -2   21.72    0.78 
   2  -5  -2   21.08    0.70 
  -2  -5   2   19.77    0.70 
  -2   5   2   18.74    1.05 
   2   5  -2   20.50    1.02 
  -1  -5   2   43.34    1.32 
   1  -5  -2   45.18    1.44 
   1  -5  -2   43.84    1.34 
   1   5  -2   41.82    1.86 
  -1   5   2   37.86    1.83 
   0  -5  -2    0.58    0.10 
   0  -5  -2    0.54    0.11 
   0  -5   2    0.55    0.10 
   0   5  -2    0.61    0.16 
   0   5   2    0.58    0.14 
  -1  -5  -2    2.42    0.21 
   1  -5   2    2.55    0.18 
  -1   5  -2    2.37    0.27 
   2  -5   2   10.42    0.45 
  -2  -5  -2   10.81    0.48 
   2  -5   2   11.05    0.43 
  -2   5  -2    9.96    0.66 
   3  -5   2    8.06    0.59 
  -3  -5  -2    7.52    0.40 
   3  -5   2    7.68    0.53 
   3  -5   2    7.15    0.36 
   3  -5   2    7.76    0.34 
   3  -5   2    7.90    0.56 
   3  -5   2    8.45    0.64 
   3  -5   2    7.97    0.58 
  -3   5  -2    6.36    0.50 
   4  -5   2    1.54    0.14 
   4  -5   2    2.14    0.35 
   4  -5   2    1.77    0.31 
   4  -5   2    1.60    0.29 
   4  -5   2    2.14    0.37 
   4  -5   2    1.35    0.36 
   4  -5   2    1.52    0.16 
  -4  -5  -2    1.57    0.20 
  -5  -5  -2    1.05    0.13 
   5  -5   2    0.86    0.23 
   5  -5   2    1.02    0.34 
   5  -5   2    0.56    0.09 
   5   5   2    1.00    0.15 
   6  -5   2    0.06    0.09 
   6  -5   2   -0.01    0.18 
   6  -5   2    0.00    0.14 
   6  -5   2    0.08    0.12 
   6  -5   2    0.06    0.10 
   6   5   2    0.36    0.10 
   6   5   2    0.41    0.10 
   6   5   2    0.21    0.31 
   7  -5   2    0.04    0.09 
   7  -5   2    0.12    0.11 
   7   5   2    3.10    0.17 
   6  -6  -2    0.07    0.15 
   6  -6  -2    0.19    0.23 
   6  -6  -2   -0.01    0.09 
   6  -6  -2    0.00    0.08 
   6  -6  -2   -0.07    0.11 
   6   6  -2    0.00    0.21 
   6   6  -2    0.04    0.19 
   5  -6  -2    2.61    0.30 
   5   6  -2    7.69    0.84 
   4  -6  -2    5.62    0.48 
   4  -6  -2    5.69    0.44 
   4  -6  -2    5.34    0.48 
   4   6  -2    6.78    0.83 
   3  -6  -2    0.48    0.09 
   3  -6  -2    0.49    0.24 
   3  -6  -2    0.44    0.17 
   3  -6  -2    0.78    0.25 
   3   6  -2    0.70    0.41 
   2  -6  -2   25.26    0.82 
   2  -6  -2   24.66    1.33 
   2  -6  -2   25.32    1.26 
   2  -6  -2   25.89    1.97 
   2  -6  -2   24.37    0.90 
   2  -6  -2   25.58    1.36 
  -2  -6   2   25.31    0.83 
   2   6  -2   38.84    2.79 
  -1  -6   2   31.51    1.00 
   1  -6  -2   31.83    1.65 
  -1  -6   2   31.05    1.61 
   1  -6  -2   31.78    1.59 
   1  -6  -2   30.13    1.07 
   1  -6  -2   31.64    1.01 
   1  -6  -2   31.91    1.51 
   1   6  -2   49.83    3.47 
   0  -6  -2   14.17    0.83 
   0  -6   2   13.43    0.82 
   0  -6   2   13.32    0.84 
   0  -6   2   14.49    0.53 
   0  -6  -2   14.14    0.55 
   0  -6  -2   14.46    0.93 
   0   6   2   19.64    1.71 
   0   6  -2   20.92    1.79 
  -1  -6  -2   18.27    0.68 
   1  -6   2   18.11    0.63 
  -1  -6  -2   17.63    1.07 
   1  -6   2   17.62    1.01 
   1   6   2   26.29    2.07 
  -1   6  -2   26.65    2.14 
  -2  -6  -2    1.39    0.36 
  -2  -6  -2    1.67    0.17 
   2  -6   2    1.57    0.15 
   2  -6   2    1.62    0.29 
   2  -6   2    1.51    0.22 
   2  -6   2    1.70    0.33 
  -2   6  -2    2.38    0.59 
   3  -6   2    4.98    0.41 
   3  -6   2    5.20    0.25 
   3  -6   2    5.20    0.38 
  -3  -6  -2    4.80    0.47 
  -3  -6  -2    4.90    0.28 
   4  -6   2    0.04    0.14 
  -4  -6  -2    0.18    0.16 
   4  -6   2    0.01    0.13 
   4  -6   2    0.31    0.20 
   4  -6   2    0.21    0.06 
   4  -6   2    0.09    0.12 
   4  -6   2   -0.04    0.17 
  -4  -6  -2    0.14    0.07 
   4   6   2    0.60    0.59 
   5  -6   2    0.04    0.12 
   5  -6   2    0.00    0.08 
   5  -6   2    0.19    0.16 
   5  -6   2    0.13    0.11 
   5  -6   2    0.03    0.09 
   5   6   2   -0.12    0.24 
   5  -7  -2    0.06    0.08 
   5  -7  -2    0.01    0.05 
  -5   7   2    0.11    0.19 
   4  -7  -2    0.65    0.15 
  -4  -7   2    1.12    0.19 
   4   7  -2    2.17    0.40 
  -3  -7   2    0.84    0.30 
   3  -7  -2    1.22    0.21 
   3  -7  -2    0.69    0.18 
  -3   7   2    0.35    0.36 
   3   7  -2    1.67    0.50 
  -2  -7   2    0.18    0.08 
   2  -7  -2    0.06    0.13 
   2  -7  -2    0.09    0.05 
   2  -7  -2    0.51    0.17 
   2  -7  -2    0.42    0.20 
  -2  -7   2    0.11    0.20 
  -2   7   2    0.81    0.43 
   2   7  -2    0.55    0.46 
   1  -7  -2   16.59    0.92 
   1  -7  -2   16.04    0.56 
   1  -7  -2   17.34    0.91 
  -1  -7   2   17.52    0.90 
  -1  -7   2   16.65    0.87 
   1  -7  -2   15.10    0.83 
  -1  -7   2   15.36    0.55 
  -1   7   2   26.33    2.08 
   1   7  -2   27.92    2.03 
   0  -7  -2   11.06    0.62 
   0  -7  -2   11.34    0.74 
   0  -7  -2   10.80    0.42 
   0  -7   2   10.57    0.41 
   0  -7   2   10.40    0.64 
   0   7   2   11.51    1.17 
   0   7  -2   16.38    1.29 
   1  -7   2    4.89    0.38 
  -1  -7  -2    4.35    0.24 
  -1  -7  -2    4.73    0.48 
   1  -7   2    3.84    0.23 
   1   7   2    4.38    0.59 
  -2  -7  -2    0.03    0.15 
   2  -7   2    0.02    0.12 
  -2  -7  -2    0.07    0.07 
   2  -7   2    0.09    0.05 
   2  -7   2    0.12    0.10 
  -2   7  -2    0.10    0.25 
   3  -7   2   10.10    0.57 
   3   7   2    0.80    0.38 
   4  -7   2    0.15    0.08 
   4  -7   2    0.24    0.08 
   4   7   2    0.17    0.20 
   1   8  -2    5.53    0.52 
   0  -8  -2    0.14    0.08 
   9   0  -3    0.06    0.27 
   9   0  -3    0.21    0.36 
   8   0  -3   -0.02    0.33 
   8   0  -3   -0.12    0.28 
   7   0  -3    4.21    0.34 
   6   0  -3    8.51    0.51 
   5   0  -3   25.97    1.20 
   4   0  -3   25.69    1.10 
   4   0  -3   22.83    1.07 
   3   0  -3   48.11    1.95 
   3   0  -3   44.73    1.95 
   2   0  -3   38.22    1.59 
  -2   0   3   37.46    1.34 
   1   0  -3   75.68    3.11 
  -1   0   3   75.70    2.60 
   0   0   3  432.67   14.83 
   0   0  -3  432.43   17.76 
  -1   0  -3   97.03    3.76 
   1   0   3   84.87    3.10 
   2   0   3    8.31    0.37 
   2   0   3   10.20    0.34 
  -2   0  -3    9.26    0.50 
  -3   0  -3    0.46    0.11 
   3   0   3    0.64    0.09 
   4   0   3    4.29    0.21 
   4   0   3    4.71    0.24 
   5   0   3   28.39    0.89 
   5   0   3   29.06    0.94 
   5   0   3   26.55    0.84 
   6   0   3    5.83    0.29 
   6   0   3    5.35    0.27 
   9  -1  -3    0.06    0.22 
   8  -1  -3    0.61    0.37 
   8   1  -3    2.58    0.69 
   7  -1  -3   12.60    0.73 
   7   1  -3   13.41    0.75 
   7   1  -3   14.56    0.68 
   6  -1  -3    7.23    0.47 
   6   1  -3   14.32    0.67 
  -6   1   3   14.23    0.67 
   6   1  -3   14.54    0.76 
   5  -1  -3   37.58    1.65 
   5  -1  -3   35.80    1.64 
   5   1  -3   37.95    1.67 
  -5   1   3   38.56    1.44 
   5   1  -3   37.19    1.43 
   4  -1  -3   22.38    1.06 
   4  -1  -3   23.84    1.07 
  -4   1   3   25.31    0.98 
   4   1  -3   24.28    1.13 
   4   1  -3   26.16    0.97 
   3  -1  -3    4.82    0.30 
   3  -1  -3    4.99    0.30 
   3   1  -3    5.08    0.29 
   3   1  -3    5.15    0.26 
  -3   1   3    5.20    0.27 
   2  -1  -3   10.94    0.53 
  -2   1   3   32.04    1.16 
   2   1  -3   31.43    1.14 
   2   1  -3   32.49    1.35 
  -1  -1   3   18.12    0.68 
   1  -1  -3   19.34    0.84 
   0  -1  -3   81.91    3.34 
   0  -1   3   80.55    2.76 
   0   1  -3   74.31    3.08 
   0   1   3   74.39    2.57 
  -1  -1  -3  183.45    7.44 
   1   1   3  153.79    5.34 
  -1   1  -3  159.35    6.41 
  -2  -1  -3   91.54    3.81 
   2  -1   3   92.73    2.69 
   2   1   3   80.04    2.75 
  -2   1  -3   77.94    3.33 
   3  -1   3  105.03    3.07 
  -3   1  -3   92.86    3.94 
   3   1   3   93.21    3.25 
   4  -1   3   62.93    1.89 
   4  -1   3   61.50    1.77 
   4   1   3   54.92    1.52 
  -4   1  -3   52.52    2.45 
   4   1   3   55.18    2.00 
   4   1   3   57.33    1.60 
   5  -1   3    7.22    0.33 
   5  -1   3    7.56    0.32 
   5   1   3    7.34    0.32 
   5   1   3    7.14    0.31 
   6  -1   3   10.50    0.41 
   6   1   3    9.79    0.50 
   6   1   3    9.64    0.46 
   6   1   3   10.36    0.51 
   6   1   3   10.37    0.42 
   6   1   3   10.25    0.42 
   7   1   3    2.66    0.18 
   7   1   3    3.58    0.25 
   7   1   3    3.48    0.25 
   9  -2  -3   -0.05    0.24 
   9   2  -3    0.08    0.08 
   9   2  -3    0.11    0.12 
   9   2  -3    0.00    0.27 
   8  -2  -3    1.72    0.54 
   7  -2  -3    0.48    0.14 
   7   2  -3    0.25    0.13 
   7   2  -3    0.28    0.12 
   6  -2  -3    8.64    0.57 
   6  -2  -3    9.24    0.38 
   6   2  -3    9.62    0.56 
   6   2  -3    9.01    0.49 
   5  -2  -3   70.61    3.13 
   5  -2  -3   71.99    2.05 
   5  -2  -3   75.69    3.14 
   5   2  -3   79.37    3.29 
   5   2  -3   76.44    2.79 
   4  -2  -3   18.82    0.92 
   4  -2  -3   18.36    0.63 
   4  -2  -3   18.27    0.60 
   4  -2  -3   19.21    0.92 
   4   2  -3   20.27    0.95 
   4   2  -3   20.43    0.81 
  -4   2   3   19.79    0.82 
   3  -2  -3   87.80    2.59 
   3  -2  -3   88.37    3.69 
   3  -2  -3   88.41    3.67 
  -3   2   3   93.03    3.22 
   3   2  -3   92.82    3.20 
   3   2  -3   91.10    3.82 
   2  -2  -3  101.66    4.09 
   2  -2  -3   93.77    4.06 
   2  -2  -3  100.98    2.88 
  -2   2   3  104.08    3.48 
   2   2  -3   99.00    4.12 
   2   2  -3   97.57    3.43 
   1  -2  -3  204.60    8.16 
   1  -2  -3  197.06    5.76 
  -1   2   3  168.18    7.46 
   1   2  -3  183.17    7.47 
   1   2  -3  186.04    7.48 
  -1   2   3  200.36    6.30 
   0  -2  -3  216.49    8.65 
   0  -2  -3  210.03    6.12 
   0   2   3  201.93    6.52 
   0   2  -3  181.57    7.73 
   0   2  -3  189.72    7.78 
   1  -2   3    4.22    0.18 
  -1  -2  -3    3.69    0.20 
  -1  -2  -3    3.86    0.24 
   1   2   3    3.78    0.22 
  -1   2  -3    3.36    0.23 
  -1   2  -3    3.43    0.29 
  -2  -2  -3   48.22    1.51 
   2  -2   3   50.36    1.49 
  -2   2  -3   43.62    1.98 
   2   2   3   44.73    1.61 
   3  -2   3    2.20    0.15 
  -3  -2  -3    2.01    0.15 
   3   2   3    2.05    0.14 
  -3   2  -3    1.81    0.23 
   3   2   3    1.88    0.18 
   4  -2   3   32.94    1.06 
   4  -2   3   31.92    0.98 
   4   2   3   29.02    0.88 
   4   2   3   28.64    1.15 
   4   2   3   28.87    0.92 
   5  -2   3    3.78    0.23 
   5  -2   3    4.07    0.23 
   5   2   3    3.61    0.22 
   5   2   3    3.72    0.30 
   5   2   3    3.90    0.24 
   6  -2   3    7.40    0.55 
   6  -2   3    6.02    0.51 
   6   2   3    9.55    0.48 
   6   2   3    9.54    0.46 
   6   2   3   10.33    0.53 
   6   2   3   10.54    0.43 
   6   2   3    9.67    0.41 
   7   2   3    1.45    0.16 
   7   2   3    1.27    0.18 
   7   2   3    1.27    0.13 
   7   2   3    1.30    0.17 
   8   2   3    1.60    0.15 
   8   2   3    1.59    0.15 
   9   3  -3    2.47    0.19 
   9   3  -3    2.30    0.20 
   8  -3  -3    0.01    0.18 
   8  -3  -3    0.22    0.26 
   7  -3  -3    3.92    0.41 
   7   3  -3    6.02    1.12 
   7   3  -3    5.84    0.38 
   7   3  -3    6.58    0.41 
   7   3  -3    6.65    0.96 
   6  -3  -3   13.07    0.82 
   6  -3  -3   14.88    0.54 
   6   3  -3   15.12    0.81 
   6   3  -3   14.93    0.71 
   5  -3  -3    2.80    0.19 
   5  -3  -3    2.64    0.20 
   5  -3  -3    2.40    0.28 
   5   3  -3    2.89    0.24 
   5   3  -3    2.93    0.26 
   4  -3  -3    7.89    0.34 
   4  -3  -3    7.39    0.32 
   4  -3  -3    6.95    0.48 
   4  -3  -3    7.15    0.49 
   4   3  -3    8.31    0.49 
   4   3  -3    7.44    0.40 
   3  -3  -3   31.80    1.46 
   3  -3  -3   31.85    1.02 
   3  -3  -3   30.60    1.44 
   3  -3  -3   31.53    0.95 
   3   3  -3   32.89    1.48 
   2  -3  -3   39.23    1.24 
   2  -3  -3   38.93    1.15 
   2  -3  -3   40.73    1.76 
   2   3  -3   38.35    1.67 
  -2   3   3   39.95    1.41 
  -2   3   3   35.45    1.67 
   1  -3  -3  131.18    5.26 
   1  -3  -3  123.21    3.72 
   1   3  -3  118.36    4.76 
  -1   3   3  106.54    4.73 
  -1   3   3  120.27    3.99 
   0  -3  -3   52.87    1.62 
   0   3  -3   47.87    2.13 
   0   3   3   50.37    1.78 
   0   3  -3   49.10    2.11 
  -1  -3  -3   28.89    0.94 
   1  -3   3   28.45    0.91 
   1   3   3   26.63    1.01 
  -1   3  -3   25.69    1.19 
  -1   3  -3   25.00    1.23 
   2  -3   3   28.59    0.87 
  -2  -3  -3   27.10    0.94 
   2  -3   3   28.78    0.92 
  -2   3  -3   23.87    1.24 
   2   3   3   25.19    1.00 
   2   3   3   26.46    0.76 
  -2   3  -3   24.17    1.16 
   3  -3   3   18.43    0.61 
   3  -3   3   18.29    0.65 
   3   3   3   16.32    0.59 
   3   3   3   16.44    0.73 
   3   3   3   16.05    0.55 
   4  -3   3    2.45    0.18 
   4  -3   3    2.38    0.19 
   4   3   3    1.92    0.20 
   4   3   3    2.19    0.18 
   4   3   3    2.00    0.17 
   5  -3   3    0.55    0.10 
   5  -3   3    0.40    0.21 
   5  -3   3    0.31    0.16 
   5  -3   3    0.58    0.09 
   5  -3   3    0.77    0.24 
   5  -3   3    0.18    0.23 
   5   3   3    0.47    0.11 
   5   3   3    0.57    0.12 
   5   3   3    0.38    0.11 
   5   3   3    0.42    0.12 
   5   3   3    0.01    0.23 
   6  -3   3    0.11    0.08 
   6  -3   3   -0.03    0.30 
   6  -3   3    0.01    0.12 
   6  -3   3    0.02    0.19 
   6  -3   3    0.10    0.14 
   6  -3   3    0.04    0.18 
   6   3   3    0.08    0.07 
   6   3   3    0.07    0.10 
   6   3   3    0.13    0.09 
   6   3   3    0.03    0.11 
   6   3   3    0.20    0.31 
   7  -3   3    0.00    0.13 
   7  -3   3    0.19    0.18 
   7  -3   3    0.07    0.10 
   7  -3   3    0.05    0.15 
   7   3   3    0.87    0.14 
   7   3   3    0.80    0.14 
   7   3   3    0.84    0.14 
   8   3   3    0.84    0.10 
   8  -4  -3    0.02    0.18 
   8  -4  -3   -0.13    0.23 
   8  -4  -3   -0.03    0.11 
   8   4  -3    0.57    0.14 
   8   4  -3    0.09    0.29 
   8   4  -3    0.23    0.09 
   8   4  -3    0.07    0.24 
   7  -4  -3    0.41    0.41 
   7  -4  -3    0.06    0.17 
   7  -4  -3    0.74    0.13 
   7   4  -3    0.61    0.14 
   7   4  -3    1.20    0.55 
   7   4  -3    0.89    0.16 
   7   4  -3    0.48    0.43 
   6  -4  -3   18.89    0.69 
   6  -4  -3   20.07    0.73 
   6  -4  -3   20.33    1.16 
   6   4  -3   19.55    0.85 
   6   4  -3   19.29    0.80 
   5  -4  -3    7.16    0.35 
   5  -4  -3    7.18    0.34 
   5   4  -3    6.99    0.46 
  -5   4   3    6.32    0.53 
   4  -4  -3    0.57    0.12 
   4  -4  -3    0.71    0.11 
  -4   4   3    0.66    0.18 
   4   4  -3    0.60    0.15 
   3  -4  -3   12.87    0.50 
   3  -4  -3   14.10    0.55 
   3   4  -3   13.54    0.72 
  -3   4   3   12.72    0.76 
   2  -4  -3   54.22    1.67 
   2  -4  -3   54.48    1.55 
   2  -4  -3   51.10    2.34 
   2  -4  -3   51.84    1.54 
   2   4  -3   51.09    2.15 
  -2   4   3   45.81    2.15 
   1  -4  -3   23.30    0.82 
   1   4  -3   22.37    1.05 
  -1   4   3   19.87    1.01 
   0  -4   3    0.49    0.09 
   0  -4  -3    0.54    0.09 
   0  -4  -3    0.56    0.09 
   0   4  -3    0.46    0.14 
   0   4   3    0.67    0.11 
  -1  -4  -3    2.31    0.19 
  -1  -4  -3    2.16    0.18 
   1  -4   3    2.44    0.16 
   1  -4   3    2.45    0.16 
  -1   4  -3    2.08    0.25 
   1   4   3    2.12    0.19 
   2  -4   3    2.88    0.18 
  -2  -4  -3    2.86    0.23 
   2  -4   3    2.92    0.20 
  -2   4  -3    2.61    0.26 
   2   4   3    2.52    0.23 
   3  -4   3    3.24    0.21 
   3  -4   3    3.29    0.21 
  -3  -4  -3    2.92    0.25 
   3   4   3    2.97    0.24 
   4  -4   3    2.26    0.37 
   4  -4   3    2.30    0.32 
   4  -4   3    2.14    0.27 
   4  -4   3    2.47    0.19 
   4  -4   3    2.17    0.18 
   4  -4   3    2.40    0.35 
  -4  -4  -3    2.59    0.22 
   4   4   3    2.03    0.23 
   4   4   3    2.30    0.18 
   5  -4   3    1.40    0.26 
   5  -4   3    1.71    0.30 
   5  -4   3    1.37    0.25 
   5  -4   3    1.64    0.14 
  -5  -4  -3    1.67    0.17 
   5   4   3    1.58    0.20 
   5   4   3    1.40    0.18 
   5   4   3    1.57    0.15 
   5   4   3    1.66    0.22 
   6  -4   3    0.41    0.30 
   6  -4   3    0.01    0.12 
   6  -4   3    0.09    0.13 
   6  -4   3    0.19    0.17 
   6  -4   3    0.45    0.25 
   6   4   3    0.03    0.29 
   6   4   3    0.49    0.09 
   6   4   3    0.39    0.14 
   6   4   3    0.60    0.13 
   6   4   3    0.51    0.12 
   7  -4   3    0.05    0.08 
   7  -4   3    0.00    0.07 
   7  -4   3    0.04    0.13 
   7  -4   3    0.03    0.11 
   7   4   3    2.65    0.19 
   7   4   3    2.30    0.18 
   8  -5  -3    0.00    0.11 
   8  -5  -3   -0.04    0.07 
   7  -5  -3    0.68    0.23 
   7  -5  -3    0.53    0.18 
   7   5  -3    1.91    0.57 
   7   5  -3    2.99    0.59 
   6  -5  -3    2.10    0.29 
   6  -5  -3    1.64    0.34 
   6   5  -3    3.51    0.26 
   5  -5  -3    2.13    0.55 
   5  -5  -3    1.91    0.30 
   5  -5  -3    2.39    0.19 
   5  -5  -3    2.61    0.20 
   5  -5  -3    2.71    0.32 
   5  -5  -3    1.92    0.36 
   5  -5  -3    2.23    0.34 
   5   5  -3    4.29    0.86 
   5   5  -3    4.49    0.72 
   4  -5  -3    2.37    0.43 
   4  -5  -3    1.24    0.15 
   4  -5  -3    2.07    0.39 
   4  -5  -3    1.17    0.51 
   4  -5  -3    1.51    0.17 
   4  -5  -3    1.77    0.34 
   4   5  -3    1.18    0.18 
  -4   5   3    1.06    0.23 
   3  -5  -3    3.22    0.24 
   3  -5  -3    3.11    0.21 
   3   5  -3    2.63    0.28 
  -3   5   3    2.87    0.32 
   2  -5  -3    5.05    0.29 
   2  -5  -3    4.77    0.25 
   2   5  -3    4.60    0.37 
  -2   5   3    4.44    0.38 
  -1  -5   3   12.22    0.47 
   1  -5  -3   12.47    0.49 
   1  -5  -3   13.15    0.54 
   1   5  -3   12.15    0.71 
   0  -5  -3    1.44    0.17 
   0  -5   3    1.37    0.14 
   0  -5  -3    1.36    0.17 
   0   5  -3    1.34    0.23 
  -1  -5  -3   20.19    0.74 
   1  -5   3   21.17    0.70 
  -1   5  -3   19.06    1.02 
  -2  -5  -3   11.36    0.49 
   2  -5   3   11.51    0.44 
   2  -5   3   11.08    0.68 
   2  -5   3   10.80    0.46 
  -2   5  -3    9.71    0.63 
   3  -5   3   16.49    0.87 
   3  -5   3   17.40    0.95 
   3  -5   3   17.56    0.99 
   3  -5   3   17.32    0.93 
   3  -5   3   15.91    0.64 
   3  -5   3   16.84    0.60 
   3  -5   3   17.01    0.96 
   3  -5   3   17.67    0.99 
  -3  -5  -3   16.73    0.67 
  -4  -5  -3    0.73    0.14 
   4  -5   3    0.71    0.11 
   4  -5   3    0.54    0.17 
   4  -5   3    0.94    0.26 
   4  -5   3    0.77    0.22 
   4  -5   3    0.50    0.24 
   4  -5   3    1.04    0.26 
   4   5   3    0.49    0.11 
   5  -5   3    0.23    0.21 
   5  -5   3    0.27    0.17 
   5  -5   3    0.31    0.08 
   5  -5   3    0.32    0.18 
  -5  -5  -3    0.38    0.11 
   5  -5   3    0.45    0.21 
   5   5   3    0.31    0.39 
   5   5   3    0.28    0.09 
   6  -5   3    0.07    0.09 
   6  -5   3   -0.07    0.15 
   6  -5   3    0.15    0.13 
   6  -5   3   -0.03    0.08 
   6  -5   3    0.04    0.08 
   6   5   3    0.97    0.12 
   6   5   3    0.73    0.11 
   7  -6  -3    0.10    0.08 
   6  -6  -3    0.12    0.18 
   6  -6  -3    0.03    0.07 
   6  -6  -3   -0.01    0.09 
   6  -6  -3   -0.09    0.13 
   6  -6  -3    0.12    0.13 
  -6  -6   3    0.05    0.11 
   6   6  -3   -0.03    0.21 
   5  -6  -3    0.35    0.19 
   5  -6  -3    0.15    0.24 
   5  -6  -3    0.10    0.26 
   5  -6  -3    0.02    0.14 
   5  -6  -3   -0.09    0.10 
   5   6  -3    0.36    0.34 
   4  -6  -3    4.01    0.37 
   4  -6  -3    4.10    0.42 
   4  -6  -3    4.08    0.39 
   4  -6  -3    4.51    0.65 
   4   6  -3    7.02    0.94 
  -3  -6   3    2.02    0.30 
   3  -6  -3    2.37    0.36 
   3  -6  -3    2.39    0.59 
   3  -6  -3    2.37    0.29 
   3   6  -3    3.80    0.66 
   2  -6  -3   13.90    0.84 
  -2  -6   3   13.06    0.80 
   2  -6  -3   13.57    0.51 
   2  -6  -3   14.09    0.82 
   2  -6  -3   13.15    0.56 
   2  -6  -3   14.64    1.28 
   2   6  -3   22.51    1.87 
   1  -6  -3    5.82    0.52 
  -1  -6   3    6.22    0.53 
   1  -6  -3    6.98    0.55 
  -1  -6   3    6.46    0.30 
  -1  -6   3    6.69    0.52 
   1  -6  -3    6.56    0.56 
   1  -6  -3    6.79    0.33 
   1  -6  -3    6.18    0.34 
   1   6  -3   11.13    1.20 
   0  -6  -3    4.18    0.44 
   0  -6  -3    4.29    0.27 
   0  -6   3    4.13    0.24 
   0  -6  -3    3.80    0.43 
   0  -6   3    4.13    0.38 
   0  -6  -3    3.38    0.42 
   0  -6   3    4.39    0.43 
   0   6  -3    6.27    0.82 
   0   6   3    5.55    0.78 
   1  -6   3    6.37    0.49 
  -1  -6  -3    5.91    0.47 
   1  -6   3    6.54    0.52 
  -1  -6  -3    6.19    0.33 
   1  -6   3    6.38    0.31 
  -1  -6  -3    6.32    0.61 
   2  -6   3    8.83    0.63 
   2  -6   3   10.01    0.62 
  -2  -6  -3   10.54    0.73 
  -2  -6  -3   11.21    0.47 
   2  -6   3   10.59    0.59 
   2  -6   3   10.68    0.41 
   3  -6   3    3.95    0.33 
  -3  -6  -3    4.63    0.45 
  -3  -6  -3    4.38    0.26 
   3  -6   3    4.70    0.23 
   3  -6   3    5.11    0.39 
   4  -6   3    0.30    0.17 
   4  -6   3    0.29    0.07 
  -4  -6  -3    0.05    0.14 
   4  -6   3    0.27    0.25 
  -4  -6  -3    0.20    0.07 
   4  -6   3    0.06    0.12 
   4  -6   3    0.05    0.10 
   4   6   3   -0.05    0.31 
   5  -6   3    0.01    0.07 
   5  -6   3    0.01    0.08 
   5  -6   3    0.17    0.14 
   5  -6   3    0.16    0.11 
   5  -6   3    0.03    0.08 
   5   6   3    0.09    0.21 
   5  -7  -3    0.00    0.05 
   5  -7  -3    0.02    0.07 
   5   7  -3    0.13    0.17 
  -5   7   3    0.03    0.19 
   4  -7  -3    0.91    0.17 
   4  -7  -3    0.80    0.15 
   4   7  -3    0.16    0.22 
   3  -7  -3    1.24    0.20 
  -3  -7   3    1.58    0.23 
  -2  -7   3    1.56    0.24 
   2  -7  -3    1.60    0.30 
   2  -7  -3    1.64    0.29 
   2   7  -3    2.50    0.50 
  -2   7   3    1.62    0.56 
  -1  -7   3    0.28    0.07 
   1  -7  -3    0.20    0.07 
   1  -7  -3    0.32    0.16 
   1  -7  -3    0.34    0.20 
  -1  -7   3    0.18    0.16 
  -1  -7   3   -0.04    0.18 
   1  -7  -3    0.43    0.17 
   1   7  -3    0.49    0.35 
  -1   7   3    0.50    0.38 
   0  -7  -3    1.23    0.25 
   0  -7   3    1.04    0.24 
   0  -7  -3    1.38    0.26 
   0  -7   3    1.47    0.22 
   0  -7   3    1.30    0.12 
   0  -7  -3    1.19    0.13 
   0   7   3    1.76    0.43 
   0   7  -3    1.94    0.46 
  -1  -7  -3    2.92    0.39 
  -1  -7  -3    2.39    0.17 
   1  -7   3    2.17    0.14 
   1  -7   3    2.36    0.24 
  -1   7  -3    4.21    0.58 
  -2  -7  -3    3.16    0.32 
   3  -7   3    3.97    0.26 
   3  -7   3    4.12    0.29 
   3   7   3    0.26    0.27 
  10   0  -4   -0.02    0.15 
   9   0  -4   -0.02    0.25 
   9   0  -4   -0.05    0.26 
   8   0  -4    0.03    0.36 
   8   0  -4    0.10    0.33 
   7   0  -4    1.21    0.19 
   7   0  -4    1.37    0.20 
   6   0  -4    5.79    0.41 
  -6   0   4    6.85    0.40 
   5   0  -4   18.35    0.89 
   4   0  -4   46.03    2.02 
   4   0  -4   49.19    2.03 
  -4   0   4   47.02    1.73 
  -3   0   4   49.80    1.81 
   3   0  -4   49.39    2.13 
   3   0  -4   52.26    2.13 
   2   0  -4   36.63    1.59 
  -2   0   4   34.20    1.33 
   2   0  -4   40.77    1.57 
   1   0  -4   21.46    0.93 
  -1   0   4   19.43    0.76 
   0   0   4  161.36    5.72 
   0   0  -4  175.71    6.87 
  -1   0  -4    9.72    0.52 
   1   0   4    9.36    0.39 
   1   0   4    9.93    0.35 
  -2   0  -4   44.78    2.00 
   2   0   4   46.74    1.40 
   3   0   4   25.57    0.76 
  -3   0  -4   24.17    1.22 
   3   0   4   27.08    0.85 
   4   0   4    1.04    0.13 
   4   0   4    1.14    0.13 
   4   0   4    1.07    0.11 
   5   0   4    3.52    0.22 
   5   0   4    3.56    0.21 
   6   0   4    3.28    0.40 
   6   0   4    3.86    0.22 
   6   0   4    3.77    0.25 
   6   0   4    4.16    0.23 
   7   0   4   -0.06    0.21 
  10   1  -4    0.03    0.17 
   9  -1  -4    0.15    0.31 
   9  -1  -4    0.16    0.35 
   8  -1  -4    0.06    0.37 
   8  -1  -4    0.18    0.33 
   8   1  -4    0.19    0.41 
   7  -1  -4    1.01    0.18 
   7   1  -4    4.10    0.34 
   7   1  -4    4.28    0.34 
   6  -1  -4   16.73    0.89 
   6   1  -4   17.72    0.90 
  -6   1   4   17.54    0.80 
   5  -1  -4   64.88    1.85 
   5  -1  -4   67.13    2.84 
  -5   1   4   75.18    2.73 
   5   1  -4   76.59    3.20 
   4  -1  -4    2.02    0.21 
   4  -1  -4    2.10    0.20 
  -4   1   4    2.27    0.18 
   4   1  -4    2.17    0.20 
   3  -1  -4   13.48    0.64 
   3  -1  -4   12.65    0.65 
   3   1  -4   12.93    0.62 
   3   1  -4   13.01    0.63 
  -3   1   4   14.05    0.57 
   2  -1  -4   63.97    2.57 
   2  -1  -4   62.97    2.61 
  -2  -1   4   59.15    2.16 
  -2   1   4   62.22    2.26 
   2   1  -4   65.00    2.67 
   2   1  -4   65.51    2.66 
  -1  -1   4   18.65    0.71 
   1  -1  -4   20.21    0.89 
  -1   1   4   19.28    0.76 
   1   1  -4   20.36    0.91 
   0  -1  -4  192.13    5.64 
   0  -1  -4  201.10    8.00 
   0   1   4  184.81    6.28 
   0   1  -4  183.35    7.51 
  -1  -1  -4   11.51    0.44 
  -1  -1  -4   11.97    0.61 
   1  -1   4   12.88    0.43 
  -1   1  -4   10.64    0.59 
   1   1   4   11.15    0.47 
   2  -1   4   25.57    0.82 
  -2  -1  -4   25.74    1.18 
  -2   1  -4   23.69    1.12 
   2   1   4   22.08    0.88 
   3  -1   4   35.55    1.12 
   3  -1   4   34.72    1.00 
   3   1   4   33.35    0.95 
  -3   1  -4   32.49    1.55 
   3   1   4   32.39    1.23 
   4  -1   4   19.99    0.66 
   4  -1   4   20.34    0.71 
  -4  -1  -4   20.37    0.73 
   4  -1   4   18.88    0.62 
   4   1   4   18.65    0.64 
   4   1   4   18.70    0.61 
   5  -1   4   19.90    0.72 
   5  -1   4   20.28    0.68 
   5   1   4   19.18    0.67 
   5   1   4   19.30    0.64 
   5   1   4   18.39    0.80 
   6  -1   4    0.59    0.22 
   6  -1   4    0.94    0.20 
   6   1   4    3.51    0.22 
   6   1   4    3.48    0.26 
   6   1   4    3.61    0.22 
   6   1   4    3.76    0.25 
   7   1   4    1.08    0.14 
   7   1   4    0.64    0.09 
   7   1   4    0.75    0.13 
  10   2  -4    0.05    0.15 
   9  -2  -4    0.10    0.21 
   9   2  -4    1.03    0.17 
   9   2  -4    0.16    0.33 
   9   2  -4    1.10    0.15 
   8  -2  -4   -0.04    0.32 
   8  -2  -4    0.54    0.45 
   8   2  -4    0.63    0.58 
   8   2  -4    1.29    0.19 
   8   2  -4    1.38    0.19 
   8   2  -4    1.21    0.58 
   7  -2  -4    8.32    0.56 
   7   2  -4   11.01    0.65 
   7   2  -4   11.44    0.60 
   6  -2  -4   10.16    0.64 
   6  -2  -4   10.27    0.41 
   6   2  -4   10.84    0.57 
   6   2  -4   11.38    0.64 
   5  -2  -4   33.84    1.03 
   5  -2  -4   34.53    1.58 
   5  -2  -4   32.81    1.58 
   5   2  -4   37.99    1.66 
   5   2  -4   36.16    1.42 
  -5   2   4   36.43    1.43 
   4  -2  -4   34.83    1.04 
   4  -2  -4   35.98    1.58 
   4  -2  -4   34.33    1.59 
   4  -2  -4   34.18    1.10 
   4   2  -4   36.28    1.39 
   4   2  -4   38.73    1.65 
  -4   2   4   36.85    1.41 
   3  -2  -4    7.33    0.44 
   3  -2  -4    7.60    0.31 
   3  -2  -4    7.19    0.42 
   3   2  -4    7.84    0.37 
  -3   2   4    7.92    0.39 
   3   2  -4    7.84    0.43 
   2  -2  -4    2.19    0.20 
   2  -2  -4    1.81    0.17 
   2  -2  -4    2.02    0.13 
   2   2  -4    2.01    0.17 
  -2   2   4    2.32    0.19 
   1  -2  -4  210.40    6.29 
   1  -2  -4  227.40    8.91 
   1   2  -4  201.07    8.39 
   1   2  -4  204.06    8.43 
  -1   2   4  216.69    7.08 
   0  -2  -4    6.46    0.28 
   0  -2   4    6.72    0.25 
   0  -2  -4    6.81    0.39 
   0   2  -4    6.27    0.39 
   0   2   4    6.28    0.32 
   0   2  -4    5.74    0.33 
  -1  -2  -4   33.56    1.09 
   1  -2   4   34.77    1.06 
   1   2   4   29.93    1.17 
  -1   2  -4   31.95    1.44 
   2  -2   4   30.80    0.97 
  -2  -2  -4   29.69    0.99 
   2   2   4   28.26    1.08 
  -2   2  -4   27.24    1.35 
   3  -2   4    2.31    0.17 
  -3  -2  -4    1.96    0.18 
   3  -2   4    1.81    0.13 
   3   2   4    1.77    0.14 
   3   2   4    1.81    0.15 
   3   2   4    1.86    0.19 
  -3   2  -4    1.72    0.24 
   4  -2   4    5.09    0.28 
   4  -2   4    4.84    0.25 
   4   2   4    4.78    0.32 
   4   2   4    4.58    0.26 
   4   2   4    4.96    0.26 
   4   2   4    4.30    0.31 
   5  -2   4    6.13    0.32 
   5  -2   4    6.40    0.30 
   5  -2   4    6.66    0.50 
   5   2   4    5.51    0.29 
   5   2   4    5.93    0.37 
   5   2   4    5.65    0.30 
   6  -2   4   -0.03    0.13 
   6  -2   4   -0.02    0.13 
   6  -2   4    0.26    0.07 
   6  -2   4    0.22    0.18 
   6  -2   4    0.06    0.16 
   6   2   4    0.30    0.10 
   6   2   4   -0.01    0.21 
   6   2   4    0.13    0.12 
   6   2   4   -0.05    0.14 
   6   2   4    0.31    0.08 
   6   2   4    0.14    0.07 
   6   2   4    0.19    0.12 
   7  -2   4    0.23    0.16 
   7   2   4    3.46    0.25 
   7   2   4    3.50    0.26 
   7   2   4    3.39    0.23 
   8   2   4    0.41    0.07 
   9  -3  -4    0.05    0.17 
   8  -3  -4    0.15    0.19 
   8  -3  -4   -0.06    0.25 
   7   3  -4   20.44    2.18 
   7   3  -4   19.61    1.80 
   7   3  -4   21.12    0.86 
   7   3  -4   22.51    0.93 
   6  -3  -4   30.96    0.97 
   6  -3  -4   28.86    1.47 
   6   3  -4   32.08    1.41 
   6   3  -4   26.30    1.16 
   5  -3  -4    0.47    0.11 
   5  -3  -4    0.24    0.11 
   5  -3  -4    0.50    0.09 
   5   3  -4    0.50    0.11 
   5   3  -4    0.37    0.11 
   4  -3  -4    0.84    0.12 
   4  -3  -4    0.69    0.15 
   4  -3  -4    0.80    0.11 
   4   3  -4    0.98    0.15 
   3  -3  -4    3.02    0.19 
   3  -3  -4    3.23    0.30 
   3  -3  -4    2.97    0.26 
   3  -3  -4    3.15    0.20 
  -3   3   4    3.25    0.24 
   3   3  -4    3.45    0.27 
   2  -3  -4   31.74    1.06 
   2  -3  -4   33.47    1.50 
  -2   3   4   28.26    1.40 
   2   3  -4   32.91    1.41 
  -2   3   4   32.68    1.21 
   1  -3  -4    1.06    0.16 
   1  -3  -4    0.83    0.10 
  -1   3   4    0.95    0.14 
   1   3  -4    0.84    0.15 
   0  -3  -4   99.18    2.95 
   0   3  -4   91.87    3.84 
   0   3  -4   86.69    3.78 
   0   3   4   93.80    3.21 
   1  -3   4   87.63    2.58 
  -1  -3  -4   86.98    2.63 
  -1   3  -4   75.72    3.36 
   1   3   4   79.89    2.79 
   2  -3   4   11.10    0.44 
  -2  -3  -4   11.06    0.47 
   2  -3   4   11.43    0.41 
   2   3   4    9.83    0.41 
  -2   3  -4    9.11    0.62 
   2   3   4    9.83    0.49 
   2   3   4   10.23    0.38 
   3  -3   4   11.67    0.44 
   3  -3   4   11.99    0.48 
   3   3   4   10.44    0.44 
   3   3   4   10.68    0.41 
   3   3   4   10.01    0.53 
   4  -3   4    3.93    0.25 
   4  -3   4    3.80    0.22 
   4   3   4    3.17    0.26 
   4   3   4    3.15    0.24 
   4   3   4    3.45    0.22 
   5  -3   4    3.21    0.37 
   5  -3   4    3.21    0.36 
   5  -3   4    2.67    0.20 
   5  -3   4    3.09    0.40 
   5  -3   4    3.09    0.21 
   5  -3   4    2.16    0.30 
   5   3   4    2.38    0.23 
   5   3   4    2.72    0.20 
   5   3   4    2.66    0.24 
   5   3   4    2.68    0.22 
   5   3   4    2.62    0.25 
   6  -3   4   -0.08    0.16 
   6  -3   4   -0.02    0.16 
   6  -3   4   -0.02    0.12 
   6  -3   4    0.08    0.06 
   6  -3   4    0.04    0.13 
   6  -3   4    0.11    0.21 
   6   3   4   -0.08    0.08 
   6   3   4    0.10    0.09 
   6   3   4    0.09    0.20 
   6   3   4    0.07    0.08 
   6   3   4    0.06    0.07 
   6   3   4    0.02    0.07 
   7  -3   4   -0.04    0.08 
   7  -3   4   -0.02    0.08 
   7  -3   4    0.01    0.13 
   7   3   4    0.08    0.07 
   7   3   4    0.22    0.12 
   7   3   4   -0.04    0.13 
   7   3   4    0.11    0.07 
   9   4  -4    0.03    0.16 
   8  -4  -4    0.30    0.14 
   8  -4  -4    0.61    0.34 
   8  -4  -4    0.25    0.19 
   7  -4  -4    2.40    0.45 
   7  -4  -4    4.84    0.75 
   7  -4  -4    2.87    0.38 
   7   4  -4    5.01    0.93 
   7   4  -4    4.87    0.36 
   7   4  -4    5.73    0.88 
   7   4  -4    5.00    0.34 
   6  -4  -4    4.77    0.73 
   6  -4  -4    3.52    0.39 
   6  -4  -4    4.47    0.26 
   6   4  -4    4.27    0.33 
   6   4  -4    4.17    0.33 
   5  -4  -4    5.91    0.31 
   5  -4  -4    5.84    0.32 
   5   4  -4    5.78    0.42 
  -5   4   4    5.14    0.48 
   4  -4  -4   19.18    0.68 
   4  -4  -4   18.62    0.71 
  -4   4   4   16.70    0.99 
   4   4  -4   19.45    0.95 
   3  -4  -4    4.74    0.28 
   3  -4  -4    4.92    0.26 
  -3   4   4    4.40    0.39 
   3   4  -4    4.75    0.37 
   2  -4  -4   15.05    0.55 
   2  -4  -4   15.25    0.60 
  -2   4   4   13.32    0.76 
   2   4  -4   15.63    0.79 
   1  -4  -4   24.99    0.85 
   1  -4  -4   22.01    0.75 
  -1   4   4   22.07    0.93 
   1   4  -4   23.13    1.11 
   0  -4   4   65.87    1.82 
   0  -4  -4   65.53    2.00 
   0  -4  -4   59.52    1.85 
   0   4  -4   59.02    2.55 
   0   4   4   57.46    2.14 
  -1  -4  -4    1.60    0.17 
   1  -4   4    1.45    0.13 
   1  -4   4    1.34    0.12 
  -1  -4  -4    1.59    0.18 
  -1   4  -4    1.25    0.18 
   1   4   4    1.30    0.18 
  -2  -4  -4    3.10    0.24 
   2  -4   4    2.73    0.19 
   2  -4   4    2.88    0.18 
   2   4   4    2.54    0.22 
   3  -4   4    0.15    0.19 
   3  -4   4    0.22    0.07 
  -3  -4  -4    0.29    0.10 
   3  -4   4    0.21    0.07 
   3   4   4    0.10    0.22 
   3   4   4    0.21    0.09 
   4  -4   4    1.21    0.22 
   4  -4   4    1.41    0.15 
   4  -4   4    1.44    0.25 
   4  -4   4    1.13    0.13 
  -4  -4  -4    1.10    0.18 
   4  -4   4    1.00    0.25 
   4  -4   4    0.60    0.26 
   4  -4   4    1.35    0.25 
   4   4   4    1.24    0.18 
   4   4   4    1.27    0.17 
   4   4   4    1.29    0.14 
   4   4   4    1.30    0.17 
   5  -4   4    0.07    0.14 
  -5  -4  -4   -0.01    0.08 
   5  -4   4    0.04    0.06 
   5  -4   4    0.05    0.13 
   5  -4   4    0.04    0.17 
   5  -4   4    0.19    0.14 
   5  -4   4   -0.25    0.29 
   5   4   4    0.07    0.07 
   5   4   4    0.10    0.08 
   5   4   4    0.02    0.22 
   5   4   4    0.05    0.08 
   5   4   4    0.10    0.33 
   5   4   4    0.07    0.08 
   6  -4   4    0.11    0.12 
   6  -4   4    0.32    0.13 
   6  -4   4    0.32    0.13 
   6  -4   4    0.16    0.15 
   6  -4   4    0.19    0.19 
   6   4   4    3.30    0.24 
   6   4   4    3.41    0.26 
   7   4   4    0.55    0.09 
   8  -5  -4    0.04    0.10 
   8  -5  -4    0.09    0.11 
   8  -5  -4    0.05    0.08 
   8   5  -4   -0.07    0.13 
   8   5  -4    0.05    0.14 
   8   5  -4    0.21    0.06 
   7  -5  -4    0.10    0.22 
   7  -5  -4    0.36    0.20 
   7  -5  -4    0.03    0.14 
   7   5  -4    5.64    0.88 
   7   5  -4    4.64    0.31 
   6  -5  -4    0.24    0.22 
   6  -5  -4    0.75    0.21 
   6   5  -4    0.34    0.35 
   5  -5  -4    7.18    0.54 
   5  -5  -4    6.74    0.33 
   5   5  -4   10.06    1.07 
   4  -5  -4    3.11    0.40 
   4  -5  -4    3.33    0.40 
   4  -5  -4    3.27    0.25 
   4  -5  -4    3.38    0.23 
   4  -5  -4    3.39    0.37 
   4  -5  -4    2.95    0.32 
   4  -5  -4    3.84    0.72 
   4   5  -4    5.77    0.89 
   3  -5  -4    5.82    0.31 
   3  -5  -4    5.64    0.32 
   3   5  -4    5.92    0.44 
  -3   5   4    4.96    0.44 
   2  -5  -4    0.69    0.14 
   2   5  -4    0.70    0.18 
   1  -5  -4    1.14    0.14 
  -1  -5   4    1.02    0.11 
   1  -5  -4    1.15    0.15 
   1   5  -4    1.06    0.19 
   0  -5  -4   -0.03    0.08 
   0  -5  -4    0.00    0.08 
   0  -5   4    0.06    0.07 
   0   5  -4    0.02    0.07 
  -1  -5  -4   53.80    1.69 
   1  -5   4   58.14    1.64 
   1  -5   4   55.50    2.53 
  -1   5  -4   46.67    2.12 
   2  -5   4    7.20    0.53 
   2  -5   4    7.40    0.50 
  -2  -5  -4    7.00    0.37 
   2  -5   4    7.41    0.33 
   2  -5   4    6.90    0.52 
   3  -5   4    6.25    0.57 
   3  -5   4    8.16    0.54 
   3  -5   4    8.07    0.50 
  -3  -5  -4    7.40    0.38 
   3  -5   4    8.14    0.55 
   3  -5   4    6.70    0.56 
   3  -5   4    8.10    0.35 
   4  -5   4    8.67    0.61 
   4  -5   4    8.88    0.60 
  -4  -5  -4    7.92    0.40 
   4  -5   4    8.27    0.34 
   4   5   4    6.77    0.38 
   5  -5   4    0.85    0.17 
   5  -5   4    1.56    0.26 
   5  -5   4    0.86    0.29 
   5  -5   4    1.11    0.22 
   6  -5   4   -0.02    0.10 
   6  -5   4    0.05    0.10 
   6  -5   4   -0.01    0.07 
   6  -5   4    0.04    0.07 
   6  -5   4   -0.01    0.06 
   6   5   4    0.39    0.07 
   6  -6  -4    0.01    0.08 
   6  -6  -4    0.04    0.13 
   6  -6  -4    0.08    0.17 
   6  -6  -4    0.11    0.13 
   6   6  -4    0.25    0.26 
   5  -6  -4    0.50    0.17 
   5  -6  -4    0.09    0.16 
   5  -6  -4    0.55    0.20 
   5  -6  -4    0.45    0.27 
  -5  -6   4    0.13    0.16 
   5   6  -4    1.44    0.43 
  -4  -6   4    4.40    0.41 
   4  -6  -4    4.28    0.41 
   4  -6  -4    3.18    0.64 
   4  -6  -4    3.47    0.33 
   4  -6  -4    4.06    0.37 
   4   6  -4    2.83    0.57 
   3  -6  -4    3.02    0.39 
  -3  -6   4    3.11    0.34 
   3  -6  -4    3.36    0.54 
   3   6  -4    5.16    0.74 
   2  -6  -4    1.71    0.35 
  -2  -6   4    1.49    0.31 
   2  -6  -4    1.80    0.30 
   2  -6  -4    1.33    0.13 
   2   6  -4    2.21    0.62 
   1  -6  -4    9.23    0.61 
   1  -6  -4    8.49    0.38 
  -1  -6   4    9.46    0.37 
  -1  -6   4    9.53    0.64 
   1  -6  -4    8.73    0.63 
  -1   6   4   12.52    1.23 
   1   6  -4   14.94    1.29 
   0  -6   4   11.63    0.71 
   0  -6   4   11.78    0.43 
   0  -6  -4   10.97    0.72 
   0  -6  -4   11.39    0.69 
   0  -6   4   11.11    0.67 
   0  -6  -4   10.10    0.73 
   0  -6  -4   10.73    0.46 
  -1  -6  -4    7.89    0.39 
  -1  -6  -4    7.93    0.58 
   1  -6   4    7.90    0.52 
   1  -6   4    8.38    0.56 
   1  -6   4    8.22    0.34 
   2  -6   4    5.37    0.45 
   2  -6   4    5.19    0.26 
   2  -6   4    4.88    0.35 
  -2  -6  -4    4.54    0.27 
   3  -6   4    1.25    0.25 
   3  -6   4    0.85    0.20 
   3  -6   4    0.99    0.17 
  -3  -6  -4    1.20    0.15 
   3  -6   4    0.68    0.09 
   4  -6   4    0.00    0.08 
   4  -6   4    0.05    0.13 
   4  -6   4    0.04    0.10 
   4  -6   4    0.05    0.09 
   4  -6   4   -0.01    0.11 
  -4  -6  -4    0.00    0.12 
   4   6   4    0.06    0.25 
   5  -6   4    0.22    0.07 
   5  -7  -4    0.08    0.07 
   5   7  -4    0.87    0.24 
   4  -7  -4    0.15    0.09 
   4  -7  -4    0.06    0.09 
  -4  -7   4    0.07    0.13 
  -3  -7   4    0.39    0.19 
   3  -7  -4    0.50    0.15 
   2  -7  -4    1.83    0.23 
   2  -7  -4    1.77    0.24 
   2  -7  -4    1.30    0.21 
  -2  -7   4    1.90    0.24 
   1  -7  -4    1.28    0.21 
   1  -7  -4    1.54    0.23 
   1  -7  -4    1.80    0.29 
  -1  -7   4    1.74    0.28 
   1   7  -4    2.51    0.45 
  -1   7   4    2.25    0.43 
   0  -7  -4    4.89    0.36 
   0  -7  -4    5.28    0.41 
   0  -7   4    4.37    0.34 
   1  -7   4    0.61    0.17 
  -1  -7  -4    1.18    0.23 
  -2  -7  -4    0.13    0.12 
   2   7   4    1.50    0.43 
  -3  -7  -4    0.47    0.11 
   3   7   4    1.55    0.36 
  10   0  -5    0.05    0.19 
  10   0  -5    0.04    0.15 
   9   0  -5    0.04    0.31 
   9   0  -5    0.27    0.41 
   8   0  -5    0.73    0.49 
   7   0  -5   -0.01    0.10 
   7   0  -5   -0.05    0.09 
  -6   0   5    5.66    0.36 
   6   0  -5    4.67    0.37 
  -5   0   5   20.70    0.88 
   5   0  -5   20.47    1.00 
   4   0  -5   41.47    1.74 
  -4   0   5   39.61    1.49 
   4   0  -5   37.99    1.74 
   3   0  -5   89.88    3.60 
   3   0  -5   79.05    3.55 
  -3   0   5   89.77    3.03 
  -2   0   5  387.31   12.89 
   2   0  -5  357.87   15.14 
  -1   0   5   22.98    0.88 
   1   0  -5   23.54    1.07 
   0   0   5  702.66   24.60 
   0   0  -5  751.09   29.90 
  -1   0  -5    7.60    0.46 
   2   0   5    7.13    0.29 
  -2   0  -5    7.62    0.49 
   3   0   5   61.33    1.70 
   3   0   5   57.87    1.62 
  -3   0  -5   57.09    2.59 
   4   0   5   27.27    0.85 
   4   0   5   27.76    0.89 
   5   0   5    2.67    0.33 
   5   0   5    2.52    0.22 
   5   0   5    2.76    0.19 
   5   0   5    2.49    0.19 
   5   0   5    2.22    0.30 
   5   0   5    2.76    0.35 
   6   0   5    0.41    0.10 
   6   0   5    0.45    0.10 
   6   0   5    0.14    0.20 
   6   0   5    0.55    0.10 
   7   0   5   -0.05    0.13 
   7   0   5    0.00    0.10 
  10  -1  -5   -0.05    0.12 
  10   1  -5   -0.01    0.13 
   9  -1  -5    0.09    0.45 
   9  -1  -5   -0.04    0.26 
   9   1  -5    0.21    0.49 
   9   1  -5   -0.05    0.27 
   8  -1  -5    0.01    0.19 
   8  -1  -5   -0.11    0.28 
   8  -1  -5   -0.02    0.36 
   8   1  -5    1.46    0.19 
   8   1  -5    1.64    0.71 
   8   1  -5    1.52    0.20 
   7  -1  -5    5.39    0.42 
   7   1  -5    5.89    0.43 
   7   1  -5    5.64    0.39 
  -6  -1   5    3.87    0.31 
   6  -1  -5    3.74    0.34 
   6   1  -5    4.23    0.34 
  -6   1   5    4.45    0.32 
   5  -1  -5    3.18    0.29 
   5  -1  -5    3.24    0.19 
   5  -1  -5    3.12    0.28 
   5   1  -5    3.54    0.28 
  -5   1   5    3.22    0.26 
   4  -1  -5   44.91    2.05 
  -4  -1   5   46.14    1.73 
   4  -1  -5   49.64    2.05 
   4   1  -5   53.08    2.22 
  -4   1   5   50.19    1.90 
   3  -1  -5   72.98    3.08 
   3  -1  -5   73.59    3.03 
  -3  -1   5   71.48    2.56 
   3   1  -5   72.98    3.06 
  -3   1   5   73.01    2.60 
   3   1  -5   74.04    3.05 
   2  -1  -5  142.48    4.15 
   2  -1  -5  146.55    5.91 
  -2  -1   5  142.29    4.92 
   2   1  -5  146.27    5.91 
  -2   1   5  142.12    5.00 
   2   1  -5  147.56    5.95 
   1  -1  -5   54.77    2.29 
   1  -1  -5   51.87    1.60 
   1   1  -5   55.05    2.34 
  -1   1   5   54.46    1.96 
   0  -1  -5   20.33    0.69 
   0  -1  -5   21.33    0.98 
   0  -1   5   20.43    0.67 
   0   1  -5   20.44    0.98 
   0   1   5   19.91    0.79 
  -1  -1  -5    8.59    0.47 
  -1  -1  -5    6.87    0.31 
   1  -1   5    6.70    0.30 
   1   1   5    6.47    0.33 
  -1   1  -5    6.22    0.42 
   2  -1   5   63.09    1.75 
  -2  -1  -5   67.62    2.85 
   2  -1   5   64.00    1.96 
  -2  -1  -5   65.36    1.99 
   2   1   5   57.56    2.13 
  -2   1  -5   60.23    2.63 
   2   1   5   60.42    1.62 
   3  -1   5    7.84    0.35 
   3  -1   5    7.39    0.31 
  -3  -1  -5    7.95    0.37 
   3  -1   5    7.26    0.30 
   3   1   5    7.46    0.33 
   3   1   5    7.30    0.31 
   4  -1   5   15.34    0.56 
   4  -1   5   15.68    0.60 
   4  -1   5   15.14    0.53 
  -4  -1  -5   16.50    0.64 
   4   1   5   14.30    0.66 
   4   1   5   14.67    0.53 
   4   1   5   14.78    0.55 
   5  -1   5    1.86    0.16 
   5  -1   5    1.63    0.27 
   5  -1   5    1.58    0.26 
   5  -1   5    1.89    0.31 
   5  -1   5    1.36    0.25 
   5   1   5    2.02    0.17 
   5   1   5    1.63    0.15 
   5   1   5    1.70    0.19 
   5   1   5    1.69    0.18 
   5   1   5    1.21    0.29 
   5   1   5    1.78    0.22 
   6  -1   5    2.94    0.38 
   6  -1   5    4.02    0.39 
   6   1   5    4.70    0.26 
   6   1   5    5.07    0.30 
   6   1   5    5.08    0.29 
   6   1   5    4.95    0.27 
   7  -1   5    0.14    0.18 
   7  -1   5    0.01    0.10 
   7   1   5    2.02    0.16 
   7   1   5    1.96    0.17 
  10   2  -5    0.02    0.17 
   9  -2  -5   -0.01    0.22 
   9   2  -5    0.16    0.28 
   9   2  -5    0.56    0.11 
   9   2  -5    0.76    0.14 
   9   2  -5    0.04    0.42 
   8  -2  -5    0.28    0.34 
   8   2  -5    0.06    0.32 
   8   2  -5    0.43    0.41 
   7  -2  -5   12.61    0.88 
   7  -2  -5   14.94    0.84 
   7  -2  -5   15.37    1.02 
   7   2  -5   13.73    1.77 
   7   2  -5   16.99    0.77 
   7   2  -5   15.99    0.71 
   7   2  -5   16.58    0.87 
   6  -2  -5    2.26    0.19 
   6  -2  -5    2.36    0.27 
   6   2  -5    2.48    0.26 
   6   2  -5    2.59    0.26 
   5  -2  -5    2.11    0.24 
   5  -2  -5    2.18    0.17 
   5   2  -5    1.97    0.21 
   4  -2  -5   43.85    1.29 
   4  -2  -5   43.48    1.97 
  -4   2   5   46.64    1.78 
   4   2  -5   47.99    2.06 
   3  -2  -5   38.01    1.68 
   3  -2  -5   35.29    1.62 
   3  -2  -5   37.88    1.17 
  -3   2   5   40.33    1.53 
   3   2  -5   41.05    1.77 
   2  -2  -5   26.68    0.90 
   2  -2  -5   28.56    1.29 
  -2   2   5   28.43    1.10 
   2   2  -5   28.15    1.25 
   1  -2  -5   29.29    0.97 
   1  -2  -5   31.01    1.38 
  -1   2   5   29.07    1.13 
   1   2  -5   29.70    1.34 
   0  -2  -5    1.08    0.16 
   0  -2  -5    0.96    0.12 
   0  -2   5    0.99    0.09 
   0   2   5    1.07    0.14 
   0   2  -5    0.97    0.18 
   1  -2   5   66.63    1.98 
  -1  -2  -5   66.14    2.03 
   1  -2   5   66.00    1.78 
  -1   2  -5   61.56    2.69 
   1   2   5   60.77    2.21 
   2  -2   5   32.01    0.98 
   2  -2   5   33.13    1.06 
   2  -2   5   31.28    0.94 
  -2  -2  -5   34.46    1.11 
   2   2   5   29.06    0.92 
   2   2   5   28.50    1.14 
  -2   2  -5   28.13    1.42 
   2   2   5   29.90    0.87 
   3  -2   5    1.13    0.12 
  -3  -2  -5    1.26    0.14 
   3  -2   5    1.04    0.12 
   3   2   5    0.99    0.12 
   3   2   5    0.99    0.14 
   3   2   5    1.11    0.16 
   4  -2   5    3.93    0.23 
   4  -2   5    3.65    0.23 
   4   2   5    3.27    0.24 
   4   2   5    3.31    0.27 
   4   2   5    3.34    0.21 
   5  -2   5    4.24    0.26 
   5  -2   5    4.67    0.46 
   5  -2   5    4.47    0.47 
   5  -2   5    4.63    0.25 
   5  -2   5    4.35    0.42 
   5   2   5    4.33    0.24 
   5   2   5    4.17    0.23 
   5   2   5    3.80    0.30 
   5   2   5    4.02    0.30 
   5   2   5    3.91    0.27 
   5   2   5    3.99    0.46 
   5   2   5    4.28    0.25 
   5   2   5    4.21    0.47 
   6  -2   5    0.31    0.20 
   6  -2   5    0.04    0.22 
   6  -2   5    0.15    0.14 
   6  -2   5    0.43    0.08 
   6  -2   5   -0.02    0.11 
   6   2   5    0.43    0.11 
   6   2   5    0.17    0.20 
   6   2   5    0.35    0.10 
   6   2   5    0.52    0.10 
   6   2   5    0.40    0.13 
   6   2   5    0.43    0.10 
   7  -2   5    0.21    0.11 
   7   2   5    7.83    0.34 
   7   2   5    8.33    0.36 
   7   2   5    7.60    0.36 
   9  -3  -5   -0.04    0.17 
   9   3  -5   -0.04    0.23 
   9   3  -5    0.31    0.09 
   9   3  -5    0.04    0.21 
   9   3  -5    0.67    0.12 
   8   3  -5    3.62    0.80 
   7  -3  -5    0.24    0.23 
   7  -3  -5    0.84    0.43 
   7   3  -5    2.34    0.24 
   7   3  -5    2.23    0.24 
   6  -3  -5    4.39    0.27 
   6  -3  -5    3.59    0.36 
   6   3  -5    4.18    0.32 
   6   3  -5    4.29    0.37 
   5  -3  -5   16.73    0.95 
   5  -3  -5   18.76    0.65 
   5   3  -5   19.13    0.95 
   5   3  -5   17.76    0.79 
   4  -3  -5   11.34    0.45 
   4  -3  -5   11.07    0.46 
   4   3  -5   12.22    0.68 
   3  -3  -5    1.30    0.13 
   3  -3  -5    1.37    0.19 
   3  -3  -5    1.39    0.14 
  -3   3   5    1.33    0.18 
  -3   3   5    1.21    0.17 
   3   3  -5    1.33    0.17 
   2  -3  -5   21.17    1.06 
   2  -3  -5   20.85    0.74 
   2   3  -5   21.63    1.02 
  -2   3   5   21.09    0.89 
   1  -3  -5   10.75    0.62 
  -1  -3   5   10.54    0.38 
   1  -3  -5   11.27    0.45 
  -1   3   5   10.35    0.51 
   1   3  -5   10.69    0.57 
   0  -3   5    2.11    0.15 
   0  -3  -5    2.32    0.18 
   0   3  -5    1.91    0.24 
   0   3   5    1.94    0.20 
  -1  -3  -5   22.25    0.82 
   1  -3   5   22.44    0.76 
   1  -3   5   22.34    0.71 
   1   3   5   18.89    0.81 
  -1   3  -5   19.39    1.02 
   1   3   5   18.10    0.64 
   2  -3   5   48.75    1.42 
  -2  -3  -5   48.73    1.58 
   2  -3   5   47.99    1.52 
   2   3   5   41.29    1.60 
   2   3   5   41.50    1.20 
   2   3   5   41.41    1.28 
   3  -3   5    7.72    0.33 
   3  -3   5    7.72    0.36 
  -3  -3  -5    7.48    0.39 
   3   3   5    6.97    0.41 
   3   3   5    7.41    0.33 
   3   3   5    6.88    0.35 
   4  -3   5    5.20    0.52 
   4  -3   5    4.43    0.46 
   4  -3   5    6.03    0.47 
   4  -3   5    6.03    0.29 
   4  -3   5    6.51    0.51 
   4  -3   5    5.42    0.31 
   4  -3   5    6.15    0.51 
   4   3   5    5.24    0.35 
   4   3   5    4.23    0.45 
   4   3   5    5.43    0.30 
   4   3   5    5.71    0.29 
   4   3   5    4.99    0.26 
   4   3   5    5.00    0.34 
   4   3   5    4.94    0.31 
   5  -3   5    2.23    0.29 
   5  -3   5    2.60    0.39 
   5  -3   5    2.51    0.48 
   5  -3   5    2.41    0.19 
   5  -3   5    2.25    0.30 
   5   3   5    2.07    0.17 
   5   3   5    2.10    0.21 
   5   3   5    2.13    0.22 
   5   3   5    2.15    0.17 
   5   3   5    1.80    0.30 
   5   3   5    1.89    0.23 
   6  -3   5    0.03    0.24 
   6  -3   5    0.31    0.21 
   6  -3   5    0.01    0.11 
   6  -3   5    0.02    0.11 
   6  -3   5    0.06    0.12 
   6   3   5    0.45    0.11 
   6   3   5   -0.02    0.16 
   6   3   5    0.26    0.12 
   6   3   5    0.47    0.13 
   7  -3   5    0.04    0.06 
   7   3   5    0.34    0.08 
   7   3   5    0.00    0.10 
   9   4  -5    2.22    0.15 
   8  -4  -5    0.08    0.16 
   8  -4  -5    0.15    0.23 
   8  -4  -5    0.00    0.17 
   7  -4  -5    9.48    0.61 
   7  -4  -5    7.05    0.65 
   7   4  -5    8.53    1.13 
   7   4  -5    5.96    0.84 
   6  -4  -5    7.44    0.55 
   6   4  -5   11.09    0.54 
   5  -4  -5   13.45    0.54 
   5  -4  -5   14.02    0.57 
   5  -4  -5   14.15    0.87 
   5  -4  -5   14.02    0.86 
  -5   4   5   11.74    0.79 
   5   4  -5   14.44    0.76 
   4  -4  -5   18.66    0.72 
   4  -4  -5   19.22    0.68 
  -4   4   5   16.22    0.97 
   4   4  -5   19.79    0.97 
   3  -4  -5    2.70    0.20 
   3  -4  -5    2.98    0.22 
   3   4  -5    3.18    0.29 
   2  -4  -5    1.30    0.15 
   2  -4  -5    1.28    0.15 
   2   4  -5    1.11    0.19 
   1  -4  -5    6.04    0.30 
   1  -4  -5    5.93    0.33 
  -1  -4   5    5.66    0.25 
  -1   4   5    5.85    0.36 
   1   4  -5    5.80    0.40 
   0  -4   5   10.29    0.38 
   0  -4  -5    9.57    0.42 
   0  -4  -5    9.93    0.47 
   0   4   5    9.12    0.49 
   1  -4   5   23.28    0.75 
  -1  -4  -5   24.26    0.88 
  -1  -4  -5   22.61    0.80 
  -2  -4  -5   37.47    1.31 
   2  -4   5   38.70    1.25 
  -2  -4  -5   37.76    1.25 
   2  -4   5   40.18    1.18 
   2  -4   5   39.47    1.83 
   2   4   5   34.21    1.33 
   3  -4   5    0.79    0.29 
   3  -4   5    1.58    0.27 
   3  -4   5    1.52    0.29 
   3  -4   5    1.83    0.33 
   3  -4   5    1.35    0.15 
  -3  -4  -5    1.33    0.17 
   3  -4   5    1.00    0.14 
   3   4   5    1.14    0.18 
   3   4   5    1.10    0.13 
   4  -4   5   14.98    0.87 
   4  -4   5   14.45    0.82 
   4  -4   5   15.41    0.89 
   4  -4   5   15.58    0.54 
   4  -4   5   14.28    0.89 
   4  -4   5   14.29    0.84 
  -4  -4  -5   13.81    0.57 
   4   4   5   12.85    0.61 
   4   4   5   12.66    0.47 
   4   4   5   11.93    0.56 
   4   4   5   12.13    0.53 
   5  -4   5    0.48    0.20 
   5  -4   5    0.76    0.19 
   5  -4   5   -0.01    0.21 
   5   4   5    1.02    0.11 
   5   4   5    1.04    0.15 
   5   4   5    1.02    0.15 
   5   4   5    0.94    0.16 
   6  -4   5    0.13    0.10 
   6  -4   5    0.55    0.12 
   6  -4   5    0.08    0.13 
   6  -4   5    0.35    0.12 
   8  -5  -5   -0.01    0.11 
   8  -5  -5    0.07    0.12 
   8   5  -5    0.03    0.15 
   7  -5  -5    0.04    0.15 
   7  -5  -5    0.06    0.21 
   7  -5  -5    0.34    0.20 
   7   5  -5    0.21    0.30 
   7   5  -5    0.31    0.09 
   6  -5  -5    1.94    0.28 
   6   5  -5    1.57    0.47 
   5  -5  -5    5.64    0.52 
   5   5  -5   15.03    1.36 
   4  -5  -5    3.49    0.38 
   4  -5  -5    3.37    0.38 
   4  -5  -5    3.24    0.47 
   4  -5  -5    3.00    0.22 
  -4  -5   5    3.03    0.32 
   4  -5  -5    2.87    0.64 
   4  -5  -5    3.18    0.22 
   4   5  -5    5.84    0.88 
   3  -5  -5    7.38    0.56 
   3  -5  -5    7.34    0.39 
   3  -5  -5    7.31    0.56 
   3  -5  -5    7.96    0.87 
  -3  -5   5    6.99    0.51 
   3  -5  -5    6.88    0.55 
   3  -5  -5    7.14    0.36 
   3   5  -5    6.93    0.48 
   2  -5  -5    3.08    0.24 
  -2  -5   5    2.88    0.32 
   2   5  -5    3.02    0.31 
   1  -5  -5   11.52    0.52 
   1  -5  -5   10.65    0.45 
  -1  -5   5   10.98    0.68 
   1   5  -5   10.35    0.64 
   0  -5   5   10.46    0.40 
   0  -5  -5   10.39    0.49 
   0  -5  -5   10.25    0.44 
   0  -5   5   10.04    0.66 
   0   5   5    8.92    0.61 
  -1  -5  -5   11.93    0.56 
   1  -5   5   13.16    0.78 
  -1  -5  -5   13.13    0.55 
   1  -5   5   13.77    0.79 
   1  -5   5   13.96    0.49 
  -2  -5  -5    3.54    0.25 
   2  -5   5    3.43    0.37 
   2  -5   5    3.28    0.30 
   2  -5   5    3.72    0.21 
   2  -5   5    3.61    0.35 
   3  -5   5   13.29    0.87 
   3  -5   5   16.24    0.88 
   3  -5   5   16.22    0.56 
  -3  -5  -5   16.07    0.62 
   3  -5   5   17.90    0.90 
   3  -5   5   17.40    0.85 
   3  -5   5   16.38    0.91 
   3   5   5   13.96    0.63 
   4  -5   5    0.38    0.14 
   4  -5   5    0.34    0.07 
  -4  -5  -5    0.53    0.11 
   4  -5   5    0.07    0.20 
   4  -5   5    0.00    0.16 
   4  -5   5    0.14    0.13 
   4  -5   5    0.72    0.22 
   4   5   5    1.73    0.61 
   5  -5   5    0.21    0.11 
   5  -5   5    0.12    0.08 
   5  -5   5    0.37    0.14 
   5  -5   5    0.26    0.15 
   5  -5   5    0.28    0.11 
   5   5   5    1.81    0.15 
   6  -6  -5   -0.05    0.06 
   6  -6  -5   -0.04    0.10 
   6  -6  -5    0.00    0.11 
   6  -6  -5    0.09    0.17 
   6   6  -5   -0.05    0.19 
   5  -6  -5    0.14    0.20 
   5   6  -5    0.10    0.26 
  -4  -6   5    2.89    0.30 
   4  -6  -5    2.91    0.57 
   4  -6  -5    3.51    0.33 
   4  -6  -5    3.39    0.38 
   4   6  -5    6.29    0.85 
   3  -6  -5    2.73    0.35 
   3  -6  -5    2.58    0.52 
  -3  -6   5    1.79    0.27 
   3  -6  -5    2.49    0.30 
   3  -6  -5    2.24    0.35 
   3   6  -5    4.02    0.62 
   2  -6  -5    2.60    0.32 
  -2  -6   5    3.34    0.38 
   2  -6  -5    2.85    0.35 
   2   6  -5    4.71    0.74 
   1  -6  -5    2.48    0.32 
   1  -6  -5    2.41    0.37 
   1  -6  -5    2.30    0.39 
  -1  -6   5    2.35    0.29 
   1  -6  -5    2.29    0.18 
   0  -6  -5    9.32    0.61 
   0  -6  -5    9.06    0.69 
   0  -6  -5    8.80    0.63 
   0  -6  -5    8.98    0.39 
   0  -6   5    9.71    0.37 
   0  -6   5    9.37    0.58 
  -1  -6  -5   13.17    0.52 
   1  -6   5   14.08    0.78 
  -1  -6  -5   13.65    0.81 
   1  -6   5   14.13    0.49 
  -1  -6  -5   13.21    0.76 
   1  -6   5   13.84    0.75 
  -1  -6  -5   14.06    0.89 
  -2  -6  -5    0.03    0.18 
   2  -6   5    0.24    0.08 
  -2  -6  -5    0.14    0.12 
   2  -6   5    0.28    0.18 
  -2  -6  -5    0.20    0.09 
   2  -6   5    0.29    0.18 
   3  -6   5    0.61    0.13 
  -3  -6  -5    0.47    0.18 
   3   6   5    1.78    0.52 
   4   6   5    0.09    0.18 
   4   7  -5    0.07    0.16 
  -4   7   5    0.61    0.24 
  -3  -7   5    2.18    0.22 
  -3  -7   5    2.04    0.14 
  -2  -7   5    0.11    0.15 
   2   7  -5    0.46    0.29 
   1  -7  -5    0.23    0.13 
   1  -7  -5    0.29    0.14 
  -1  -7   5    0.04    0.14 
   1  -7  -5    0.01    0.10 
   0  -7  -5    0.15    0.12 
   0  -7  -5    0.01    0.08 
   0  -7   5    0.36    0.15 
   0  -7  -5    0.15    0.12 
  -1  -7  -5    1.17    0.15 
  -2  -7  -5    0.01    0.08 
   2  -7   5    0.13    0.07 
   2   7   5    0.07    0.18 
   9   0  -6    0.22    0.49 
   9   0  -6    0.30    0.43 
   8   0  -6    9.23    1.13 
   7   0  -6   15.79    0.73 
   7   0  -6   15.44    0.85 
   6   0  -6    0.00    0.07 
   6   0  -6   -0.07    0.06 
  -6   0   6   -0.04    0.09 
   5   0  -6    0.04    0.08 
  -5   0   6    0.03    0.06 
   4   0  -6   56.68    2.32 
   4   0  -6   51.48    2.33 
  -4   0   6   53.39    1.98 
   3   0  -6    7.58    0.45 
  -3   0   6    7.47    0.38 
  -2   0   6   48.43    1.82 
   2   0  -6   52.24    2.19 
   1   0  -6  191.16    5.58 
  -1   0   6  189.00    6.63 
   1   0  -6  202.00    7.96 
   0   0  -6   22.32    1.06 
   0   0  -6   21.22    0.73 
  -1   0  -6   14.66    0.79 
   1   0   6   14.53    0.48 
   2   0   6   11.54    0.42 
  -2   0  -6   11.25    0.68 
   2   0   6   11.80    0.43 
   3   0   6   17.76    0.59 
   3   0   6   17.69    0.61 
   4   0   6    0.06    0.25 
   4   0   6    0.12    0.08 
   4   0   6    0.10    0.06 
   5   0   6    0.33    0.10 
  -5   0  -6    0.29    0.09 
   5   0   6    0.33    0.23 
   5   0   6    0.00    0.18 
   5   0   6    0.35    0.10 
   5   0   6    0.39    0.09 
   7   0   6    0.01    0.09 
  10  -1  -6   -0.01    0.13 
  10   1  -6    0.01    0.18 
   9  -1  -6    0.12    0.26 
   9  -1  -6    0.11    0.34 
   8  -1  -6    2.27    0.58 
   8   1  -6    4.82    0.85 
   7  -1  -6    1.76    0.23 
   7  -1  -6    2.93    0.71 
   7   1  -6    0.71    0.16 
   6  -1  -6    6.81    0.47 
   6   1  -6    6.52    0.42 
   6   1  -6    7.05    0.46 
   5  -1  -6    1.37    0.14 
   5  -1  -6    1.35    0.20 
   5  -1  -6    1.40    0.19 
  -5  -1   6    1.56    0.19 
  -5   1   6    1.47    0.20 
   5   1  -6    1.43    0.19 
  -4  -1   6    1.31    0.15 
   4  -1  -6    1.33    0.16 
   4  -1  -6    1.24    0.17 
  -4   1   6    1.05    0.16 
   3  -1  -6   44.13    1.94 
  -3  -1   6   42.97    1.60 
  -3   1   6   43.63    1.66 
   3   1  -6   45.30    1.92 
   3   1  -6   45.26    1.95 
   2  -1  -6   40.31    1.30 
   2  -1  -6   43.92    1.88 
  -2   1   6   44.14    1.61 
   2   1  -6   42.71    1.90 
   1  -1  -6   51.50    2.19 
   1  -1  -6   48.61    1.53 
   1   1  -6   50.17    2.15 
  -1   1   6   48.27    1.79 
   0  -1  -6   75.69    3.15 
   0  -1  -6   71.53    2.21 
   0   1   6   66.49    2.50 
   0   1  -6   74.24    3.04 
  -1  -1  -6   21.08    0.74 
  -1  -1  -6   21.43    1.04 
   1  -1   6   20.08    0.70 
   1  -1   6   20.35    0.64 
   1   1   6   18.88    0.81 
  -1   1  -6   20.87    1.04 
   1   1   6   20.19    0.62 
   2  -1   6   92.40    2.52 
   2  -1   6   92.04    2.63 
  -2  -1  -6   98.55    2.86 
   2  -1   6   94.02    2.82 
   2   1   6   86.87    2.42 
   2   1   6   84.12    2.30 
   3  -1   6   27.73    0.95 
   3  -1   6   27.33    0.85 
   3  -1   6   27.18    0.88 
  -3  -1  -6   29.19    0.99 
   3   1   6   25.61    1.05 
   3   1   6   26.53    0.82 
   3   1   6   26.34    0.86 
   4  -1   6   15.09    0.87 
   4  -1   6   14.62    0.52 
   4  -1   6   14.69    0.54 
  -4  -1  -6   15.43    0.62 
   4   1   6   14.32    0.54 
   4   1   6   13.49    0.64 
   4   1   6   13.74    0.51 
   5  -1   6    0.33    0.22 
   5  -1   6    0.52    0.10 
   5  -1   6    0.43    0.22 
   5  -1   6    0.52    0.24 
   5  -1   6    0.50    0.09 
   5  -1   6    0.18    0.19 
   5   1   6    0.44    0.24 
   5   1   6    0.53    0.11 
   5   1   6    0.46    0.12 
   5   1   6    0.47    0.13 
   5   1   6    0.28    0.29 
   5   1   6    0.44    0.09 
   6   1   6    3.16    0.18 
   6   1   6    2.33    0.37 
   7  -1   6   -0.04    0.07 
   7   1   6    0.59    0.08 
   7   1   6    0.06    0.11 
   9  -2  -6    0.03    0.22 
   9   2  -6    1.06    0.16 
   9   2  -6    0.16    0.37 
   9   2  -6    0.11    0.37 
   9   2  -6    0.65    0.12 
   8  -2  -6    1.89    0.60 
   8   2  -6    2.29    0.24 
   8   2  -6    3.90    0.98 
   8   2  -6    2.31    0.27 
   7  -2  -6    8.66    0.69 
   7   2  -6   21.84    1.86 
   7   2  -6   24.99    1.00 
   7   2  -6   19.31    2.20 
   7   2  -6   24.55    0.93 
   6  -2  -6    8.77    0.59 
   6  -2  -6    9.18    0.39 
   6   2  -6    9.52    0.58 
   6   2  -6    9.13    0.52 
   5  -2  -6   14.27    0.77 
  -5  -2   6   13.53    0.65 
   5  -2  -6   13.68    0.52 
   5   2  -6   14.85    0.78 
  -5   2   6   14.71    0.71 
   4  -2  -6    0.09    0.09 
   4   2  -6    0.09    0.06 
  -4   2   6    0.11    0.08 
   3  -2  -6   28.43    0.94 
   3  -2  -6   28.46    1.36 
   3   2  -6   31.44    1.37 
  -3   2   6   29.21    1.20 
  -2  -2   6   38.11    1.09 
   2  -2  -6   37.78    1.23 
   2  -2  -6   39.68    1.76 
  -2   2   6   37.58    1.43 
   1  -2  -6   14.24    0.76 
  -1  -2   6   13.96    0.47 
   1  -2  -6   14.24    0.54 
   1   2  -6   13.79    0.73 
  -1   2   6   13.40    0.62 
   0  -2   6    6.28    0.25 
   0  -2  -6    5.71    0.41 
   0  -2  -6    5.98    0.30 
   0   2  -6    5.61    0.41 
   0   2   6    5.42    0.32 
   1  -2   6    6.04    0.27 
   1  -2   6    6.05    0.29 
   1  -2   6    6.23    0.26 
  -1  -2  -6    6.68    0.34 
   1   2   6    5.58    0.26 
   1   2   6    5.30    0.33 
  -1   2  -6    5.15    0.43 
   1   2   6    6.44    0.26 
  -2  -2  -6   16.85    0.65 
   2  -2   6   16.08    0.55 
   2  -2   6   15.57    0.54 
   2  -2   6   16.54    0.61 
   2   2   6   14.36    0.53 
   2   2   6   14.32    0.50 
   3  -2   6   32.37    0.99 
   3  -2   6   33.18    1.03 
   3  -2   6   32.66    1.11 
  -3  -2  -6   34.95    1.16 
   3   2   6   30.71    1.00 
   3   2   6   30.84    1.22 
   3   2   6   30.78    0.95 
   4  -2   6    7.94    0.59 
   4  -2   6    7.64    0.55 
   4  -2   6    7.17    0.34 
   4  -2   6    7.35    0.55 
   4  -2   6    6.96    0.35 
  -4  -2  -6    6.89    0.37 
   4  -2   6    6.29    0.57 
   4  -2   6    7.24    0.50 
   4  -2   6    6.72    0.54 
   4   2   6    6.55    0.36 
   4   2   6    6.89    0.34 
   4   2   6    7.03    0.61 
   4   2   6    6.76    0.41 
   4   2   6    6.47    0.38 
   4   2   6    6.49    0.56 
   4   2   6    6.70    0.31 
   4   2   6    6.65    0.32 
   5   2   6   13.63    0.58 
   5   2   6   14.01    0.54 
   5   2   6   15.30    0.66 
   5   2   6   14.57    0.62 
   5   2   6   14.86    0.88 
   5   2   6   14.27    0.52 
   6   2   6    6.53    0.34 
   6   2   6    7.78    0.38 
   6   2   6    7.33    0.34 
   6   2   6    6.62    0.29 
   7   2   6    5.93    0.25 
   7   2   6    5.78    0.25 
   9  -3  -6    0.08    0.18 
   9   3  -6    0.06    0.19 
   9   3  -6    0.53    0.10 
   9   3  -6    0.04    0.20 
   9   3  -6    0.25    0.08 
   7  -3  -6    2.92    0.20 
   7  -3  -6    2.65    0.43 
   7  -3  -6    2.75    0.69 
   7   3  -6    3.34    0.28 
   7   3  -6    2.86    0.26 
   6  -3  -6    1.22    0.55 
   6  -3  -6    2.78    0.48 
   6  -3  -6    2.00    0.20 
   6  -3  -6    2.24    0.38 
   6   3  -6    2.12    0.23 
   6   3  -6    2.15    0.23 
   6   3  -6    3.16    0.62 
   6   3  -6    2.22    0.27 
   5  -3  -6    2.70    0.30 
   5  -3  -6    2.89    0.21 
   5   3  -6    3.43    0.30 
   5   3  -6    2.92    0.27 
   4  -3  -6   19.18    0.68 
   4  -3  -6   19.09    0.71 
   4   3  -6   19.94    0.98 
  -4   3   6   18.77    0.87 
   3  -3  -6    5.23    0.29 
  -3   3   6    4.91    0.34 
   3   3  -6    5.41    0.37 
  -2  -3   6   20.89    0.67 
   2  -3  -6   21.36    0.77 
  -2   3   6   21.24    0.91 
   2   3  -6   21.09    1.01 
   1  -3  -6   10.43    0.66 
   1  -3  -6   11.06    0.48 
  -1  -3   6   10.74    0.39 
  -1   3   6    9.87    0.50 
   0  -3  -6   37.26    1.23 
   0  -3   6   35.21    1.04 
   0   3   6   32.08    1.25 
   0   3   6   29.67    0.96 
  -1  -3  -6   21.11    0.79 
   1  -3   6   20.13    0.66 
   1  -3   6   19.90    0.63 
   1  -3   6   19.55    0.70 
   1   3   6   17.56    0.62 
   1   3   6   17.00    0.78 
   2  -3   6   29.97    0.93 
  -2  -3  -6   30.19    1.07 
   2  -3   6   28.85    0.99 
   2   3   6   26.17    1.06 
   2   3   6   26.17    0.88 
   3  -3   6    1.47    0.26 
   3  -3   6    1.59    0.30 
   3  -3   6    1.20    0.24 
   3  -3   6    1.32    0.14 
   3  -3   6    1.51    0.28 
   3  -3   6    1.28    0.15 
  -3  -3  -6    1.11    0.16 
   3   3   6    0.79    0.32 
   3   3   6    1.07    0.13 
   3   3   6    1.03    0.18 
   3   3   6    1.29    0.18 
   3   3   6    1.20    0.15 
   3   3   6    1.33    0.16 
   3   3   6    1.12    0.14 
   4  -3   6    4.12    0.39 
   4  -3   6    3.94    0.41 
   4  -3   6    4.76    0.57 
   4  -3   6    4.64    0.26 
   4  -3   6    4.77    0.42 
   4  -3   6    4.74    0.43 
   4   3   6    3.89    0.25 
   4   3   6    2.91    0.37 
   4   3   6    4.14    0.23 
   4   3   6    4.25    0.32 
   4   3   6    3.91    0.30 
   4   3   6    4.07    0.25 
   4   3   6    3.64    0.27 
   5  -3   6    1.06    0.21 
   5  -3   6    1.48    0.22 
   5   3   6    2.34    0.35 
   5   3   6    2.47    0.21 
   5   3   6    2.35    0.21 
   5   3   6    2.45    0.20 
   5   3   6    2.34    0.18 
   5   3   6    2.46    0.19 
   6  -3   6    0.18    0.13 
   6  -3   6    0.30    0.12 
   6  -3   6    0.53    0.12 
   6  -3   6    0.10    0.10 
   6   3   6    3.66    0.22 
   6   3   6    3.64    0.21 
   6   3   6    3.61    0.22 
   9   4  -6    1.37    0.11 
   8  -4  -6   -0.03    0.10 
   8  -4  -6    0.09    0.20 
   8  -4  -6    0.09    0.16 
   8   4  -6    0.52    0.13 
   8   4  -6    0.74    0.13 
   7  -4  -6    0.18    0.21 
   7   4  -6    3.26    0.29 
   7   4  -6    3.42    0.62 
   7   4  -6    3.58    0.28 
   6  -4  -6   47.10    1.47 
   6  -4  -6   54.76    3.37 
   6  -4  -6   48.77    2.24 
   6  -4  -6   44.86    2.25 
   6   4  -6   45.37    1.60 
   6   4  -6   45.46    3.15 
   5  -4  -6   12.40    0.50 
   5  -4  -6   12.65    0.81 
   5  -4  -6   10.46    1.16 
   5  -4  -6   11.57    0.50 
   5  -4  -6   12.28    0.85 
   5   4  -6   10.99    0.53 
   4  -4  -6   21.03    0.75 
   4  -4  -6   21.07    0.79 
   4   4  -6   22.64    1.13 
   3  -4  -6   35.08    1.11 
   3  -4  -6   34.12    1.18 
   3   4  -6   35.62    1.65 
  -2  -4   6    0.79    0.11 
   2  -4  -6    0.88    0.13 
   2  -4  -6    0.89    0.15 
   2   4  -6    0.95    0.18 
   1  -4  -6   14.26    0.61 
  -1  -4   6   14.02    0.49 
   0  -4   6    2.19    0.15 
   0  -4  -6    2.40    0.20 
   0  -4  -6    2.20    0.21 
  -1  -4  -6   25.24    0.93 
   1  -4   6   24.76    0.79 
   1  -4   6   24.68    1.24 
  -1  -4  -6   23.25    0.84 
   1   4   6   22.07    0.92 
   2  -4   6   15.94    0.63 
   2  -4   6   18.55    1.03 
   2  -4   6   16.39    0.88 
  -2  -4  -6   16.51    0.69 
  -2  -4  -6   17.21    0.66 
   2  -4   6   17.34    0.97 
   2  -4   6   18.00    0.60 
   2  -4   6   18.09    0.96 
   2   4   6   15.46    0.71 
   2   4   6   15.36    0.54 
   3  -4   6    0.19    0.19 
   3  -4   6    0.60    0.11 
   3  -4   6    0.35    0.25 
  -3  -4  -6    0.88    0.16 
   3  -4   6    0.74    0.20 
   3  -4   6    1.01    0.20 
   3  -4   6    1.23    0.25 
   3  -4   6    0.65    0.21 
   3   4   6    0.52    0.14 
   3   4   6    0.73    0.13 
   3   4   6    0.67    0.11 
   3   4   6    0.39    0.29 
  -4  -4  -6    0.27    0.10 
   4  -4   6    0.47    0.20 
   4  -4   6    0.05    0.17 
   4  -4   6    0.66    0.23 
   4  -4   6    0.50    0.16 
   4  -4   6    0.46    0.32 
   4  -4   6    0.39    0.08 
   4  -4   6    0.62    0.21 
   4   4   6    0.55    0.12 
   4   4   6    0.44    0.10 
   4   4   6    0.56    0.12 
   5  -4   6   -0.01    0.12 
   5  -4   6   -0.03    0.10 
   5  -4   6    0.17    0.18 
   5  -4   6    0.46    0.14 
   5   4   6    0.64    0.10 
   5   4   6    0.70    0.11 
   5   4   6    0.72    0.12 
   7   5  -6   15.35    0.57 
   7   5  -6   13.62    1.16 
   6  -5  -6    0.14    0.21 
   6   5  -6    1.27    0.53 
   5  -5  -6   51.46    2.34 
   5  -5  -6   48.65    1.54 
   5  -5  -6   55.38    2.41 
   5   5  -6   88.53    5.60 
   4  -5  -6   10.58    0.98 
   4  -5  -6    9.56    0.67 
   4  -5  -6    9.65    0.43 
   4  -5  -6    9.66    0.67 
   4   5  -6   16.44    1.42 
  -3  -5   6   27.76    1.34 
   3  -5  -6   27.77    0.99 
   3  -5  -6   26.83    1.41 
   3  -5  -6   28.63    0.92 
  -3  -5   6   27.73    0.85 
   3  -5  -6   25.17    1.37 
  -2  -5   6    8.06    0.54 
   2  -5  -6    8.28    0.42 
   2  -5  -6    7.93    0.58 
  -2   5   6    7.19    0.53 
  -1  -5   6   26.88    0.95 
  -1  -5   6   28.71    1.37 
  -1   5   6   26.69    1.31 
   0  -5  -6   13.01    0.53 
   0  -5  -6   13.98    0.61 
   0  -5   6   13.91    0.50 
   0  -5   6   14.26    0.56 
   0  -5   6   14.43    0.80 
   0   5   6   12.69    0.74 
   1  -5   6    5.20    0.41 
   1  -5   6    5.25    0.44 
  -1  -5  -6    5.35    0.31 
   1  -5   6    5.53    0.26 
   2  -5   6    1.91    0.30 
   2  -5   6    2.01    0.15 
  -2  -5  -6    2.06    0.21 
   2  -5   6    1.98    0.31 
   3  -5   6    2.23    0.33 
   3  -5   6    2.48    0.31 
  -3  -5  -6    2.18    0.21 
   3  -5   6    2.35    0.15 
   3  -5   6    2.54    0.28 
   3  -5   6    2.30    0.24 
   3   5   6    2.07    0.21 
   4  -5   6    0.04    0.09 
   4  -5   6    0.01    0.15 
   4  -5   6    0.02    0.08 
   4  -5   6    0.02    0.10 
   4  -5   6   -0.09    0.09 
   4   5   6    0.05    0.06 
   5  -5   6    0.03    0.06 
   6  -6  -6    0.07    0.10 
   6  -6  -6    0.08    0.10 
   6  -6  -6    0.06    0.13 
   6   6  -6    0.09    0.18 
   5  -6  -6    0.88    0.24 
   5  -6  -6    0.93    0.28 
   5   6  -6    0.57    0.29 
   4  -6  -6    1.70    0.36 
   4   6  -6    2.89    0.51 
   3  -6  -6    2.50    0.35 
   3  -6  -6    2.51    0.28 
   3  -6  -6    2.50    0.30 
  -3  -6   6    2.88    0.32 
  -2  -6   6   24.72    1.20 
   2  -6  -6   24.88    1.29 
  -2  -6   6   23.69    0.83 
   2  -6  -6   24.52    1.20 
   1  -6  -6    8.70    0.61 
   1  -6  -6    8.96    0.61 
  -1  -6   6    8.59    0.37 
   0  -6   6   13.03    0.78 
   0  -6  -6   15.27    0.83 
   0  -6  -6   17.74    0.94 
   1  -6   6    3.99    0.31 
   1  -6   6    3.67    0.19 
  -1  -6  -6    3.70    0.37 
  -1  -6  -6    3.22    0.20 
  -1  -6  -6    3.80    0.35 
   2  -6   6    0.14    0.11 
   2  -6   6    0.04    0.19 
  -2  -6  -6   -0.12    0.10 
  -2  -6  -6    0.03    0.22 
  -3  -6  -6    3.45    0.29 
   3  -6   6    2.90    0.24 
   3   6   6    1.67    0.39 
  -3  -7   6    0.67    0.08 
   3  -7  -6    0.41    0.10 
   1  -7  -6    0.26    0.11 
  -1  -7   6   -0.01    0.11 
   1  -7  -6    0.34    0.13 
   1  -7  -6   -0.01    0.07 
   0  -7  -6    0.10    0.09 
   0  -7  -6    0.19    0.11 
   0  -7   6    0.12    0.10 
   0  -7  -6    0.12    0.08 
  10   0  -7    0.33    0.19 
   8   0  -7   57.14    2.02 
   8   0  -7   47.29    3.67 
   8   0  -7   61.93    4.49 
   7   0  -7    4.73    0.82 
   7   0  -7    3.13    0.29 
   7   0  -7    3.40    0.32 
   6   0  -7    2.33    0.24 
   6   0  -7    2.32    0.25 
  -5   0   7    0.17    0.08 
   5   0  -7    0.17    0.08 
  -4   0   7   38.90    1.50 
   4   0  -7   39.33    1.79 
  -3   0   7   28.04    1.12 
   3   0  -7   28.79    1.35 
   2   0  -7   21.01    1.02 
  -2   0   7   20.42    0.62 
  -2   0   7   20.02    0.83 
  -1   0   7    4.12    0.19 
   1   0  -7    4.23    0.33 
   1   0  -7    3.97    0.21 
   0   0   7    0.77    0.10 
   0   0  -7    0.76    0.16 
   0   0  -7    0.66    0.10 
   1   0   7   20.35    0.68 
  -1   0  -7   21.69    0.76 
   1   0   7   20.65    0.66 
   2   0   7    6.44    0.29 
   2   0   7    6.32    0.29 
  -2   0  -7    6.47    0.34 
   3   0   7    6.14    0.30 
   3   0   7    6.01    0.29 
  -3   0  -7    5.85    0.33 
   3   0   7    5.80    0.46 
   4   0   7    8.60    0.62 
   4   0   7    8.45    0.36 
   4   0   7    8.42    0.41 
  -4   0  -7    8.57    0.43 
   4   0   7    8.57    0.38 
   4   0   7    8.78    0.45 
   5   0   7    0.42    0.11 
   5   0   7    0.41    0.12 
   5   0   7    0.30    0.07 
   5   0   7    0.41    0.18 
   5   0   7    0.17    0.18 
  10  -1  -7    0.07    0.14 
  10   1  -7    0.05    0.15 
  10   1  -7    0.05    0.18 
   9  -1  -7    0.26    0.25 
   8  -1  -7    2.10    0.53 
   8   1  -7    7.96    1.28 
   8   1  -7    7.22    0.44 
   8   1  -7    6.76    0.39 
   8   1  -7    7.61    0.98 
   7  -1  -7   14.29    1.04 
   7  -1  -7   16.42    1.83 
   7   1  -7   15.15    1.37 
   7   1  -7   13.45    0.64 
   7   1  -7   14.07    0.69 
   6  -1  -7   22.43    0.96 
   6  -1  -7   23.11    1.15 
   6   1  -7   24.45    1.06 
   6   1  -7   25.93    1.23 
  -5  -1   7   65.06    2.35 
   5  -1  -7   61.03    2.73 
   5   1  -7   47.24    2.35 
  -5   1   7   62.33    2.10 
  -4  -1   7   16.20    0.72 
  -4   1   7   17.12    0.77 
   4   1  -7   16.63    0.83 
  -3  -1   7   55.24    1.50 
   3  -1  -7   54.39    2.43 
   3   1  -7   57.43    2.50 
  -3   1   7   57.24    2.12 
   2  -1  -7   31.61    1.04 
  -2  -1   7   31.92    0.93 
   2  -1  -7   33.22    1.51 
  -2   1   7   33.26    1.28 
   2   1  -7   32.83    1.53 
   1  -1  -7   34.39    1.11 
  -1  -1   7   33.74    0.98 
   1  -1  -7   34.42    1.59 
  -1   1   7   33.51    1.30 
   1   1  -7   34.01    1.57 
   0  -1  -7   16.80    0.63 
   0  -1  -7   16.90    0.89 
   0  -1   7   16.46    0.54 
   0   1  -7   16.26    0.88 
   0   1   7   16.79    0.53 
   0   1   7   15.36    0.69 
   1  -1   7   21.79    0.70 
  -1  -1  -7   22.47    0.80 
   1  -1   7   21.20    0.68 
   1   1   7   21.26    0.66 
   1   1   7   19.87    0.68 
   2  -1   7    8.91    0.36 
  -2  -1  -7    9.11    0.43 
   2  -1   7    8.64    0.36 
   2   1   7    8.73    0.47 
   2   1   7    8.37    0.37 
   2   1   7    8.76    0.36 
   3  -1   7    0.67    0.12 
   3  -1   7    0.98    0.31 
   3  -1   7    0.84    0.12 
  -3  -1  -7    0.61    0.12 
   3   1   7    0.50    0.22 
   3   1   7    0.63    0.14 
   3   1   7    0.58    0.12 
   3   1   7    0.82    0.11 
   4  -1   7    6.39    0.30 
   4  -1   7    6.16    0.50 
  -4  -1  -7    6.43    0.35 
   4  -1   7    6.40    0.30 
   4  -1   7    5.84    0.45 
   4  -1   7    6.16    0.33 
   4  -1   7    5.89    0.49 
   4   1   7    5.51    0.50 
   4   1   7    6.29    0.52 
   4   1   7    5.94    0.36 
   4   1   7    5.99    0.38 
   4   1   7    5.85    0.30 
   4   1   7    6.23    0.29 
   4   1   7    5.91    0.33 
   4   1   7    5.66    0.27 
   5  -1   7    3.20    0.23 
   5  -1   7    3.26    0.38 
   5  -1   7    3.12    0.19 
   5  -1   7    2.90    0.19 
   5  -1   7    3.41    0.36 
   5   1   7    3.02    0.22 
   5   1   7    3.12    0.23 
   5   1   7    2.54    0.31 
   5   1   7    3.06    0.19 
   5   1   7    3.09    0.19 
   6  -1   7    0.05    0.12 
   6  -1   7    0.04    0.10 
   6   1   7    1.22    0.12 
   6   1   7    1.25    0.13 
   9  -2  -7    0.00    0.20 
   9   2  -7    0.22    0.28 
   8  -2  -7    1.51    0.53 
   8   2  -7    0.60    0.45 
   7  -2  -7    2.17    0.40 
   7  -2  -7    2.30    0.67 
   7  -2  -7    2.59    0.54 
   7   2  -7    2.58    0.27 
   7   2  -7    2.21    0.28 
   6  -2  -7    5.07    0.41 
   6  -2  -7    5.66    0.29 
   6   2  -7    5.49    0.40 
   6   2  -7    5.24    0.39 
   5  -2  -7   44.29    1.35 
   5   2  -7   45.54    1.94 
   5   2  -7   40.20    1.61 
  -4   2   7   23.91    1.04 
   4   2  -7   24.83    1.16 
  -3  -2   7    8.76    0.34 
   3  -2  -7    8.52    0.38 
  -3   2   7    8.84    0.48 
  -2  -2   7   12.12    0.43 
   2  -2  -7   12.24    0.49 
  -2   2   7   11.60    0.57 
   1  -2  -7    8.23    0.38 
  -1  -2   7    8.27    0.33 
   1   2  -7    8.13    0.52 
  -1   2   7    7.48    0.43 
   0  -2   7   20.56    0.66 
   0  -2  -7   21.58    0.78 
   0   2   7   18.84    0.82 
  -1  -2  -7    8.33    0.40 
   1  -2   7    7.35    0.35 
   1  -2   7    7.44    0.32 
   1  -2   7    7.79    0.32 
   1   2   7    6.88    0.32 
   1   2   7    7.20    0.30 
   1   2   7    7.66    0.43 
   1   2   7    6.92    0.40 
   2  -2   7   55.07    1.63 
  -2  -2  -7   59.20    1.82 
   2  -2   7   56.08    1.57 
   2  -2   7   53.95    1.75 
   2   2   7   50.38    1.88 
   2   2   7   52.01    1.46 
   2   2   7   50.68    1.54 
   3  -2   7   14.00    0.51 
   3  -2   7   13.98    0.59 
   3  -2   7   14.09    0.89 
   3  -2   7   14.37    0.81 
   3  -2   7   14.90    0.54 
   3  -2   7   14.84    0.85 
   3  -2   7   15.07    0.89 
  -3  -2  -7   14.20    0.62 
   3  -2   7   14.95    0.87 
   3  -2   7   14.63    0.86 
   3   2   7   12.81    0.58 
   3   2   7   12.83    0.48 
   3   2   7   13.41    0.52 
   3   2   7   12.68    0.49 
   3   2   7   11.90    0.82 
   3   2   7   13.57    0.56 
   3   2   7   12.70    0.62 
   3   2   7   12.25    0.78 
   4  -2   7    8.49    0.63 
   4  -2   7    9.72    0.70 
   4  -2   7    8.52    0.36 
   4  -2   7    7.36    0.52 
   4   2   7    7.55    0.33 
   4   2   7    7.60    0.41 
   4   2   7    8.44    0.46 
   4   2   7    7.57    0.39 
   4   2   7    7.70    0.56 
   4   2   7    8.12    0.64 
   4   2   7    7.73    0.35 
   4   2   7    7.38    0.35 
   5  -2   7    2.50    0.29 
   5   2   7    8.83    0.41 
   5   2   7    8.82    0.40 
   5   2   7    8.68    0.44 
   5   2   7    8.41    0.36 
   5   2   7    8.59    0.59 
   5   2   7    8.25    0.34 
   6  -2   7   -0.01    0.08 
   6  -2   7    0.09    0.11 
   6   2   7    1.21    0.12 
   6   2   7    0.80    0.11 
   9  -3  -7    0.00    0.15 
   9   3  -7    0.70    0.10 
   9   3  -7    0.69    0.11 
   9   3  -7    0.06    0.18 
   8  -3  -7    0.04    0.22 
   8  -3  -7    0.10    0.18 
   8   3  -7    0.58    0.13 
   8   3  -7    0.38    0.11 
   8   3  -7    0.12    0.28 
   8   3  -7    0.10    0.36 
   7  -3  -7    1.23    0.30 
   7  -3  -7    1.34    0.16 
   7  -3  -7    0.89    0.35 
   7   3  -7    1.45    0.21 
   7   3  -7    1.61    0.23 
   6  -3  -7    6.64    0.34 
   6  -3  -7    6.18    0.68 
   6  -3  -7    7.25    0.65 
   6  -3  -7    8.47    0.89 
   6   3  -7    6.14    0.38 
   6   3  -7    6.26    0.42 
   5  -3  -7    2.37    0.21 
   5   3  -7    2.36    0.25 
   4  -3  -7   26.76    0.95 
   4  -3  -7   28.40    0.92 
   4   3  -7   28.30    1.34 
   3  -3  -7   20.06    0.76 
  -3  -3   7   20.59    0.67 
   2  -3  -7  110.12    3.22 
  -2  -3   7  102.86    2.84 
  -2   3   7  100.51    3.61 
   1  -3  -7   65.77    2.06 
  -1  -3   7   64.85    1.80 
  -1   3   7   59.13    2.21 
   0  -3   7  163.93    4.38 
   0  -3  -7  171.36    4.97 
   0   3   7  154.01    5.20 
  -1  -3  -7   76.58    2.37 
   1  -3   7   73.87    2.05 
   1   3   7   66.67    2.35 
   1   3   7   64.70    1.93 
  -2  -3  -7   16.94    0.70 
   2  -3   7   17.33    0.59 
   2  -3   7   17.69    1.05 
   2  -3   7   17.26    0.96 
   2  -3   7   17.81    0.99 
   2  -3   7   17.11    0.95 
   2  -3   7   15.79    0.63 
   2  -3   7   16.31    0.88 
   2  -3   7   16.46    0.91 
   2   3   7   14.60    0.69 
   2   3   7   14.68    0.64 
   2   3   7   14.66    0.53 
   2   3   7   14.92    0.57 
   3  -3   7    3.06    0.35 
   3  -3   7    3.21    0.22 
   3  -3   7    3.55    0.45 
   3  -3   7    3.31    0.34 
   3  -3   7    3.41    0.40 
   3  -3   7    3.39    0.38 
   3  -3   7    2.97    0.24 
   3  -3   7    3.21    0.42 
   3   3   7    2.62    0.23 
   3   3   7    2.77    0.23 
   3   3   7    2.65    0.20 
   3   3   7    3.19    0.29 
   3   3   7    3.04    0.22 
   3   3   7    3.01    0.22 
   4  -3   7    2.86    0.18 
   4  -3   7    2.86    0.34 
   4  -3   7    2.73    0.32 
   4  -3   7    2.54    0.30 
   4  -3   7    2.51    0.30 
   4   3   7    2.75    0.25 
   4   3   7    2.51    0.21 
   4   3   7    2.47    0.17 
   4   3   7    2.50    0.19 
   4   3   7    2.73    0.36 
   4   3   7    2.88    0.21 
   4   3   7    2.83    0.26 
   5  -3   7    0.02    0.10 
   5  -3   7   -0.01    0.11 
   5  -3   7    0.15    0.18 
   5  -3   7    0.07    0.11 
   5   3   7    1.55    0.17 
   5   3   7    1.93    0.15 
   5   3   7    1.95    0.17 
   6   3   7    1.74    0.11 
   8  -4  -7    0.22    0.15 
   8  -4  -7    0.06    0.16 
   7  -4  -7    2.58    0.57 
   7  -4  -7    2.51    0.42 
   7   4  -7    2.76    0.24 
   7   4  -7    2.56    0.54 
   6  -4  -7   24.77    1.25 
   6  -4  -7   20.84    1.73 
   6  -4  -7   24.02    1.19 
   6   4  -7   31.09    1.16 
   5  -4  -7   29.03    1.53 
   5  -4  -7   29.52    0.98 
   5  -4  -7   30.52    1.51 
   5   4  -7   25.79    1.00 
   4  -4  -7   13.26    0.55 
   4  -4  -7   13.88    0.87 
   4  -4  -7   12.82    0.56 
   4  -4  -7   13.23    0.83 
   3  -4  -7   47.87    1.59 
  -3  -4   7   48.67    1.41 
   3  -4  -7   49.84    1.50 
  -2  -4   7   12.91    0.47 
   2  -4  -7   13.01    0.52 
   2  -4  -7   13.18    0.57 
  -1  -4   7   20.25    0.66 
   1  -4  -7   19.97    0.79 
  -1  -4   7   20.42    1.04 
   0  -4  -7    7.07    0.38 
   0  -4   7    6.29    0.29 
   0  -4   7    6.56    0.47 
   0  -4   7    6.45    0.35 
   0   4   7    5.84    0.37 
   0   4   7    6.33    0.48 
   1  -4   7    5.69    0.27 
  -1  -4  -7    5.08    0.29 
   1  -4   7    5.90    0.57 
  -1  -4  -7    5.44    0.33 
   1  -4   7    5.35    0.31 
   1  -4   7    5.34    0.42 
   1   4   7    4.78    0.34 
   1   4   7    4.66    0.45 
   1   4   7    4.65    0.25 
   2  -4   7    2.32    0.38 
   2  -4   7    1.97    0.36 
   2  -4   7    2.83    0.18 
   2  -4   7    2.73    0.30 
  -2  -4  -7    2.64    0.21 
   2  -4   7    2.80    0.30 
   2   4   7    2.24    0.19 
   2   4   7    2.31    0.22 
   3  -4   7    6.34    0.29 
   3  -4   7    6.51    0.50 
   3  -4   7    6.25    0.45 
   3  -4   7    6.64    0.50 
   3  -4   7    6.84    0.53 
  -3  -4  -7    6.69    0.33 
   3  -4   7    6.26    0.48 
   3   4   7    5.30    0.26 
   3   4   7    5.92    0.36 
   3   4   7    5.30    0.30 
   3   4   7    5.02    0.42 
   4  -4   7    2.62    0.32 
   4   4   7    5.39    0.28 
   4   4   7    5.12    0.30 
   5  -4   7    0.19    0.09 
   5  -4   7    0.07    0.12 
   5  -4   7    0.07    0.08 
   5   4   7    0.40    0.07 
   7  -5  -7    3.96    0.33 
   7  -5  -7    3.71    0.43 
   6  -5  -7    0.06    0.14 
   6  -5  -7    0.22    0.19 
   6   5  -7    0.31    0.28 
   5  -5  -7    0.93    0.23 
   5  -5  -7    0.26    0.21 
   5  -5  -7    1.30    0.35 
   5  -5  -7    0.49    0.31 
  -5  -5   7    0.79    0.11 
   5   5  -7    0.81    0.34 
   4  -5  -7    4.06    0.26 
   4  -5  -7    3.96    0.37 
   3  -5  -7    5.68    0.49 
  -3  -5   7    5.35    0.26 
   3  -5  -7    5.35    0.29 
   3  -5  -7    5.32    0.46 
  -3   5   7    5.79    0.48 
  -2  -5   7    6.86    0.34 
  -2  -5   7    6.80    0.49 
   2  -5  -7    6.52    0.53 
  -2  -5   7    6.47    0.29 
  -2   5   7    5.76    0.48 
  -1  -5   7   11.90    0.69 
  -1  -5   7   12.11    0.51 
  -1   5   7   11.37    0.70 
   0  -5   7    0.18    0.08 
   0  -5   7    0.29    0.20 
   0  -5  -7   -0.11    0.22 
   0   5   7    0.18    0.16 
   1  -5   7    5.80    0.42 
  -1  -5  -7    5.67    0.30 
   1  -5   7    5.68    0.25 
   2  -5   7   11.05    0.40 
   2  -5   7   11.59    0.63 
   2  -5   7   11.30    0.65 
  -2  -5  -7   10.03    0.43 
   3  -5   7    1.99    0.35 
   3  -5   7    1.98    0.25 
   3  -5   7    2.06    0.22 
  -4  -5  -7    0.09    0.10 
   4  -5   7    0.16    0.12 
   4  -5   7    0.02    0.05 
   4  -5   7    0.06    0.07 
  -6  -6   7    0.67    0.08 
  -6  -6   7    0.73    0.08 
  -5  -6   7    0.66    0.09 
   5  -6  -7    1.06    0.19 
   5   6  -7    0.06    0.16 
   4  -6  -7    6.13    0.42 
  -3  -6   7    5.17    0.27 
   3  -6  -7    4.91    0.35 
   3  -6  -7    5.22    0.43 
  -3  -6   7    5.32    0.36 
  -2  -6   7   10.98    0.45 
  -2  -6   7   12.24    0.67 
   2  -6  -7   11.93    0.71 
   2  -6  -7   11.75    0.67 
   1  -6  -7    9.24    0.59 
   1  -6  -7    7.98    0.52 
  -1  -6   7    8.88    0.37 
   0  -6  -7    0.33    0.16 
   0  -6   7    0.38    0.17 
   0  -6   7    0.35    0.07 
   0  -6  -7    0.44    0.17 
   0  -6  -7    0.25    0.15 
  -1  -6  -7    2.35    0.25 
   2  -6   7   -0.03    0.09 
  -2  -6  -7    0.05    0.09 
   2  -6   7    0.12    0.07 
   2   6   7    0.84    0.30 
   2  -7  -7    1.09    0.13 
   9   0  -8    0.03    0.23 
   9   0  -8    0.04    0.31 
   8   0  -8    4.24    0.65 
   7   0  -8    6.08    0.40 
   6   0  -8   31.89    1.51 
   6   0  -8   32.38    1.29 
   5   0  -8    3.90    0.31 
  -4   0   8    4.92    0.34 
  -3   0   8    7.26    0.41 
  -2   0   8   10.43    0.37 
  -1   0   8   11.03    0.39 
   1   0  -8   10.75    0.44 
   0   0   8    1.46    0.13 
   0   0  -8    1.36    0.14 
  -1   0  -8    6.83    0.36 
   1   0   8    6.82    0.31 
   2   0   8    2.44    0.29 
   2   0   8    2.30    0.17 
   2   0   8    2.26    0.17 
  -2   0  -8    2.61    0.21 
   3   0   8    1.23    0.17 
   3   0   8    1.39    0.14 
   3   0   8    1.30    0.29 
   3   0   8    1.30    0.14 
   3   0   8    1.38    0.24 
   3   0   8    1.44    0.18 
  -3   0  -8    1.33    0.16 
   4   0   8    0.98    0.14 
   4   0   8    0.79    0.21 
   4   0   8    1.56    0.35 
   4   0   8    1.08    0.15 
   4   0   8    0.96    0.12 
   4   0   8    1.03    0.14 
   9  -1  -8    0.41    0.27 
   8  -1  -8    0.04    0.26 
   8  -1  -8    0.09    0.19 
   8   1  -8    0.15    0.40 
   8   1  -8    0.08    0.33 
   8   1  -8    0.18    0.13 
   8   1  -8    0.22    0.11 
   7  -1  -8   10.91    1.09 
   7   1  -8   24.80    1.05 
   7   1  -8   24.84    1.97 
   7   1  -8   24.43    0.97 
   6  -1  -8   10.49    0.74 
   6   1  -8   31.70    1.28 
   6   1  -8   31.15    1.48 
  -5   1   8    7.88    0.45 
   5   1  -8    7.19    0.46 
  -4  -1   8   15.17    0.51 
  -4   1   8   14.89    0.72 
  -3  -1   8    5.15    0.24 
  -3   1   8    5.27    0.35 
  -2  -1   8    9.50    0.36 
  -2   1   8    9.49    0.50 
  -1  -1   8   38.82    1.13 
   1  -1  -8   39.68    1.28 
  -1   1   8   35.44    1.38 
   0  -1  -8   11.56    0.49 
   0  -1   8   11.02    0.42 
   0   1   8   10.81    0.40 
   0   1  -8   10.64    0.45 
   1  -1   8   16.56    0.57 
  -1  -1  -8   16.11    0.65 
   1   1   8   15.86    0.53 
  -1   1  -8   15.00    0.60 
   1   1   8   13.96    0.53 
   1   1   8   14.60    0.69 
   2  -1   8   19.70    0.68 
   2  -1   8   19.62    1.05 
  -2  -1  -8   20.88    0.78 
   2  -1   8   20.59    0.68 
   2   1   8   18.66    0.83 
   2   1   8   19.03    0.64 
  -2   1  -8   19.75    0.74 
   2   1   8   18.85    0.66 
   3  -1   8   26.25    1.31 
   3  -1   8   24.50    0.92 
   3  -1   8   25.11    0.81 
   3  -1   8   23.60    1.32 
   3  -1   8   26.51    1.30 
   3  -1   8   25.94    1.36 
  -3  -1  -8   25.13    0.93 
   3  -1   8   25.27    0.83 
  -3   1  -8   23.97    0.87 
   3   1   8   23.86    1.31 
   3   1   8   24.33    0.93 
   3   1   8   22.51    0.74 
   3   1   8   23.64    1.22 
   3   1   8   23.88    0.97 
   3   1   8   23.83    0.79 
   3   1   8   23.25    0.76 
   3   1   8   23.18    0.87 
   4  -1   8   21.29    0.70 
   4  -1   8   21.88    0.73 
   4  -1   8   22.56    1.18 
   4  -1   8   22.18    0.80 
   4   1   8   20.86    0.68 
   4   1   8   19.81    0.66 
   4   1   8   20.55    1.09 
   4   1   8   21.62    0.79 
   4   1   8   20.83    0.71 
   4   1   8   21.87    1.17 
   4   1   8   21.53    0.81 
   5  -1   8    2.33    0.27 
   5  -1   8    2.87    0.18 
   5   1   8    1.31    0.22 
   6   1   8    3.17    0.16 
   9  -2  -8    0.04    0.16 
   9   2  -8    0.04    0.21 
   9   2  -8   -0.04    0.07 
   9   2  -8    0.06    0.06 
   9   2  -8   -0.02    0.17 
   8  -2  -8    2.94    0.51 
   8   2  -8    5.86    0.36 
   8   2  -8    4.80    0.89 
   8   2  -8    5.66    0.33 
   7  -2  -8    7.87    0.64 
   7  -2  -8    7.61    0.92 
   7   2  -8   13.26    0.62 
   7   2  -8   12.14    1.20 
   7   2  -8   13.97    0.66 
   6   2  -8   33.63    1.27 
   6   2  -8   34.78    1.36 
   5  -2  -8   87.17    2.51 
  -5  -2   8   88.51    2.39 
  -5   2   8   79.91    2.75 
   5   2  -8   76.95    2.78 
  -4  -2   8   71.50    1.97 
   4   2  -8   29.38    1.17 
  -3  -2   8   11.13    0.42 
  -3   2   8   11.37    0.57 
   2  -2  -8   53.47    1.72 
  -2  -2   8   54.54    1.51 
  -2   2   8   50.94    1.94 
   1  -2  -8   65.32    2.01 
  -1  -2   8   62.01    1.76 
  -1   2   8   60.71    2.18 
   0  -2   8   46.61    1.35 
   0  -2  -8   48.24    1.56 
   0   2   8   42.85    1.61 
   1  -2   8   57.74    1.62 
  -1  -2  -8   57.70    1.86 
   1  -2   8   56.67    2.57 
   1   2   8   49.96    1.83 
   1   2   8   48.21    1.48 
   1   2   8   50.47    1.41 
  -2  -2  -8   43.71    1.43 
   2  -2   8   41.06    2.01 
   2  -2   8   40.59    1.87 
   2  -2   8   43.41    1.98 
   2  -2   8   41.15    1.27 
   2  -2   8   42.48    2.06 
   2  -2   8   44.22    2.03 
   2  -2   8   42.42    1.23 
   2  -2   8   41.00    1.40 
   2   2   8   36.66    1.90 
   2   2   8   36.91    1.27 
   2   2   8   38.37    1.36 
   2   2   8   35.92    1.11 
   2   2   8   38.63    1.18 
   2   2   8   37.77    1.11 
   2   2   8   39.08    1.45 
   3  -2   8   13.03    0.47 
   3  -2   8   12.26    0.52 
   3  -2   8   11.60    0.72 
   3  -2   8   12.99    0.79 
   3  -2   8   14.00    0.79 
   3  -2   8   13.40    0.49 
   3  -2   8   13.35    0.82 
   3  -2   8   12.77    0.78 
   3   2   8   11.97    0.52 
   3   2   8   12.75    0.60 
   3   2   8   12.37    0.45 
   3   2   8   11.75    0.55 
   3   2   8   11.71    0.78 
   3   2   8   11.99    0.48 
   3   2   8   11.94    0.73 
   3   2   8   11.58    0.45 
   4  -2   8   25.48    0.83 
   4  -2   8   28.28    1.35 
   4  -2   8   26.17    1.29 
   4   2   8   26.22    1.24 
   4   2   8   23.70    0.95 
   4   2   8   22.86    0.78 
   4   2   8   24.37    0.85 
   4   2   8   25.07    0.91 
   4   2   8   24.85    0.74 
   4   2   8   22.46    0.74 
   5  -2   8    0.46    0.14 
   5  -2   8    0.08    0.12 
   5   2   8    0.67    0.11 
   5   2   8    0.68    0.18 
   5   2   8    0.96    0.11 
   5   2   8    0.75    0.11 
   9  -3  -8    0.02    0.11 
   8  -3  -8    2.03    0.47 
   8   3  -8    3.31    0.27 
   8   3  -8    2.98    0.23 
   7  -3  -8    2.99    0.51 
   7   3  -8   12.83    0.60 
   7   3  -8   13.03    0.58 
   7   3  -8   11.64    1.13 
   6  -3  -8    4.12    0.52 
  -6  -3   8    3.65    0.23 
   6  -3  -8    3.71    0.24 
   6  -3  -8    3.63    0.45 
   6   3  -8    3.32    0.28 
   6   3  -8    3.46    0.28 
   5  -3  -8   13.78    0.87 
  -5  -3   8   14.23    0.51 
   5  -3  -8   13.58    0.96 
   5  -3  -8   14.33    0.91 
   5  -3  -8   14.15    0.56 
   5   3  -8   12.15    0.57 
   4  -3  -8    1.90    0.20 
  -4  -3   8    2.02    0.17 
  -3  -3   8   53.69    1.52 
   2  -3  -8   19.16    0.73 
  -2  -3   8   18.70    0.63 
  -2   3   8   17.89    0.79 
   1  -3  -8   44.26    1.46 
  -1  -3   8   42.87    1.26 
  -1   3   8   40.63    1.54 
   0  -3   8   90.73    2.42 
   0  -3   8   86.90    3.88 
   0  -3  -8   90.38    2.77 
   0   3   8   80.76    2.85 
   1  -3   8    7.12    0.51 
   1  -3   8    7.32    0.59 
   1  -3   8    6.92    0.37 
   1  -3   8    6.70    0.36 
   1  -3   8    6.46    0.30 
   1   3   8    6.44    0.41 
   1   3   8    6.10    0.30 
   1   3   8    5.50    0.30 
   1   3   8    6.18    0.50 
   1   3   8    6.05    0.36 
   2  -3   8   27.37    1.45 
   2  -3   8   27.29    1.43 
   2  -3   8   28.39    0.90 
   2  -3   8   28.18    0.87 
   2  -3   8   29.03    1.41 
   2  -3   8   32.17    1.41 
   2  -3   8   28.00    1.45 
   2   3   8   24.72    0.96 
   2   3   8   24.85    0.79 
   2   3   8   24.51    0.84 
   2   3   8   26.55    1.04 
   3  -3   8    2.59    0.18 
   3  -3   8    2.56    0.45 
   3  -3   8    2.66    0.26 
   3  -3   8    2.81    0.34 
   3  -3   8    2.51    0.29 
   3  -3   8    2.03    0.26 
   3   3   8    1.61    0.24 
   3   3   8    2.23    0.19 
   3   3   8    2.24    0.17 
   3   3   8    2.54    0.24 
   3   3   8    2.35    0.21 
   3   3   8    2.36    0.20 
   4  -3   8    0.49    0.15 
   4  -3   8    0.16    0.15 
   4  -3   8    0.05    0.11 
   4  -3   8    0.02    0.19 
   4  -3   8    0.41    0.13 
   4   3   8    0.42    0.12 
   4   3   8    0.28    0.08 
   4   3   8    0.29    0.16 
   4   3   8    0.24    0.07 
   4   3   8    0.61    0.11 
   5  -3   8   -0.01    0.07 
   5  -3   8    0.04    0.11 
   5   3   8    0.31    0.07 
   5   3   8    0.15    0.05 
   8  -4  -8    0.10    0.11 
   8  -4  -8    0.21    0.14 
   7  -4  -8    0.19    0.19 
   7  -4  -8    0.20    0.14 
   7  -4  -8   -0.01    0.16 
   7   4  -8    0.83    0.31 
  -6  -4   8    6.56    0.29 
   6  -4  -8    6.81    0.60 
   6  -4  -8    6.48    0.53 
   6   4  -8    4.86    0.67 
   6   4  -8    5.45    0.35 
   5  -4  -8    0.18    0.22 
   5  -4  -8    0.54    0.25 
   5   4  -8    1.14    0.18 
  -4  -4   8   12.85    0.46 
   4  -4  -8   12.33    0.50 
   4  -4  -8   11.00    0.75 
   3  -4  -8    3.24    0.23 
   3  -4  -8    2.78    0.22 
   3  -4  -8    3.15    0.45 
  -3  -4   8    3.10    0.26 
  -3  -4   8    3.21    0.22 
   3   4  -8    3.18    0.49 
  -2  -4   8    2.80    0.22 
  -2  -4   8    3.22    0.20 
   2  -4  -8    2.92    0.23 
   2  -4  -8    2.88    0.38 
  -2  -4   8    2.89    0.25 
   2  -4  -8    3.26    0.22 
  -2   4   8    3.36    0.42 
  -1  -4   8    9.73    0.61 
   1  -4  -8    9.62    0.48 
  -1  -4   8    9.42    0.43 
  -1  -4   8    9.48    0.43 
  -1  -4   8   10.05    0.38 
  -1   4   8    9.24    0.61 
   0  -4   8    1.29    0.13 
   0  -4   8    1.51    0.28 
   0  -4   8    1.46    0.17 
   0  -4  -8    1.40    0.17 
   0   4   8    1.67    0.26 
   0   4   8    1.09    0.14 
   0   4   8    1.45    0.18 
   1  -4   8    8.42    0.54 
   1  -4   8    8.56    0.61 
  -1  -4  -8    8.34    0.37 
   1   4   8    7.57    0.33 
   1   4   8    7.90    0.44 
   2  -4   8    0.29    0.14 
   2  -4   8    0.31    0.19 
  -2  -4  -8    0.19    0.10 
   2  -4   8   -0.02    0.22 
   2  -4   8    0.12    0.06 
   2   4   8    0.12    0.07 
   2   4   8    0.23    0.12 
   3  -4   8    0.01    0.08 
   3  -4   8   -0.04    0.13 
  -3  -4  -8    0.04    0.06 
   3  -4   8    0.03    0.19 
   3  -4   8    0.12    0.10 
   3  -4   8    0.03    0.11 
   3   4   8    0.05    0.09 
   3   4   8    0.05    0.07 
   3   4   8    0.09    0.06 
   4  -4   8    0.75    0.13 
   4  -4   8    0.81    0.19 
   7  -5  -8    0.02    0.07 
   7  -5  -8    0.09    0.10 
   5  -5  -8    4.92    0.41 
   5  -5  -8    5.93    0.51 
   4  -5  -8    5.69    0.42 
  -4  -5   8    5.68    0.30 
  -4  -5   8    5.29    0.25 
   4  -5  -8    6.40    0.53 
  -4   5   8    5.15    0.42 
  -3  -5   8    1.60    0.13 
   3  -5  -8    1.29    0.24 
  -3  -5   8    2.04    0.20 
   3  -5  -8    1.36    0.23 
  -3  -5   8    1.98    0.18 
   3  -5  -8    1.63    0.30 
  -3   5   8    1.54    0.24 
  -2  -5   8    2.96    0.27 
  -2  -5   8    2.53    0.19 
   2  -5  -8    2.85    0.34 
   2  -5  -8    2.60    0.29 
  -2  -5   8    2.58    0.16 
  -2  -5   8    2.70    0.20 
  -2   5   8    2.40    0.29 
  -1  -5   8    1.57    0.16 
  -1  -5   8    1.77    0.27 
  -1   5   8    1.80    0.25 
   0  -5   8    5.83    0.40 
   0  -5  -8    4.74    0.40 
   0  -5   8    5.27    0.27 
   1  -5   8   13.93    0.74 
   2  -5   8    3.52    0.30 
   2  -5   8    3.75    0.29 
   2   5   8    2.95    0.19 
   3  -5   8    0.09    0.12 
   3  -5   8    0.05    0.09 
   3  -5   8    0.12    0.07 
  -5  -6   8    0.30    0.06 
  -5  -6   8    0.42    0.06 
   4  -6  -8    6.45    0.39 
  -4  -6   8    6.10    0.26 
   3  -6  -8    1.46    0.19 
   3  -6  -8    1.48    0.20 
  -3  -6   8    1.49    0.13 
   3  -6  -8    1.35    0.17 
  -2  -6   8    0.15    0.06 
  -2  -6   8    0.26    0.13 
   2  -6  -8    0.00    0.10 
   2  -6  -8    0.15    0.13 
  -1  -6   8    0.43    0.08 
   1  -6  -8    0.31    0.15 
   1  -6  -8    0.34    0.14 
  -1  -6   8    0.33    0.14 
   0  -6   8    1.33    0.17 
   0  -6  -8    1.26    0.19 
   0   6  -8    0.06    0.11 
  -1   6  -8    2.13    0.21 
   8   0  -9    0.15    0.26 
   7   0  -9    1.77    0.25 
   7   0  -9    1.05    0.48 
   6   0  -9    2.78    0.25 
   6   0  -9    3.21    0.31 
   6   0  -9    3.33    0.56 
  -5   0   9    0.09    0.10 
  -4   0   9    9.77    0.51 
  -3   0   9    4.45    0.31 
  -2   0   9    0.65    0.09 
  -2   0   9    0.71    0.14 
  -1   0   9    2.82    0.18 
  -1   0   9    2.75    0.24 
   0   0   9   11.43    0.43 
   0   0   9   10.81    0.55 
   0   0  -9   11.32    0.49 
   1   0   9   17.63    0.69 
   1   0   9   18.20    1.07 
   1   0   9   16.79    0.73 
  -1   0  -9   17.51    0.69 
   1   0   9   18.17    0.61 
   2   0   9    2.77    0.36 
   2   0   9    3.35    0.29 
   2   0   9    2.92    0.19 
   2   0   9    3.27    0.24 
   2   0   9    3.28    0.32 
   2   0   9    3.36    0.22 
  -2   0  -9    3.25    0.25 
   2   0   9    3.04    0.39 
   3   0   9    8.24    0.34 
   3   0   9    8.52    0.41 
   3   0   9    7.83    0.35 
   3   0   9    8.11    0.57 
   3   0   9    8.17    0.39 
   3   0   9    8.49    0.55 
   4   0   9    9.03    0.39 
   4   0   9    9.87    0.40 
   4   0   9    8.97    0.35 
   5   0   9    2.59    0.23 
   9   1  -9    0.23    0.19 
   8  -1  -9    0.49    0.34 
   8  -1  -9    0.02    0.18 
   8   1  -9    1.70    0.19 
   8   1  -9    1.72    0.20 
  -8   1   9    1.82    0.22 
   7  -1  -9    0.20    0.29 
   7   1  -9    0.12    0.13 
  -7   1   9    0.03    0.08 
   7   1  -9    0.15    0.10 
   7   1  -9   -0.23    0.17 
   6  -1  -9    3.00    0.46 
   6  -1  -9    2.35    0.40 
   6   1  -9    1.36    0.22 
   6   1  -9    1.89    0.38 
  -6   1   9    1.75    0.21 
   6   1  -9    1.67    0.22 
   5  -1  -9   20.64    1.13 
   5   1  -9   18.88    0.86 
  -5   1   9   20.09    0.85 
  -4  -1   9   21.60    0.67 
  -4  -1   9   19.75    0.87 
  -4   1   9   21.15    0.90 
  -3  -1   9   17.18    0.55 
  -3  -1   9   15.20    0.71 
  -3   1   9   16.02    0.72 
  -2  -1   9    7.51    0.42 
  -2  -1   9    8.35    0.33 
  -2   1   9    7.97    0.46 
   1  -1  -9    1.23    0.16 
  -1  -1   9    1.56    0.15 
  -1   1   9    1.47    0.19 
   0  -1  -9    9.13    0.44 
   0  -1   9   10.05    0.39 
   0   1   9    9.37    0.37 
   0   1   9    9.46    0.50 
   1  -1   9    5.49    0.53 
  -1  -1  -9    5.47    0.32 
   1  -1   9    5.41    0.27 
   1  -1   9    5.00    0.32 
   1  -1   9    5.81    0.32 
  -1   1  -9    4.89    0.30 
   1   1   9    4.97    0.34 
   1   1   9    5.12    0.27 
   1   1   9    5.31    0.36 
   1   1   9    5.11    0.30 
   1   1   9    5.08    0.26 
  -2  -1  -9   37.82    1.30 
   2  -1   9   39.21    1.86 
   2  -1   9   39.75    1.82 
   2  -1   9   38.83    1.31 
   2  -1   9   36.84    1.17 
   2  -1   9   40.27    1.15 
   2  -1   9   37.48    1.90 
   2   1   9   37.52    1.08 
   2   1   9   34.50    1.12 
   2   1   9   37.71    1.32 
   2   1   9   35.06    1.82 
   2   1   9   38.55    1.40 
   2   1   9   35.65    1.23 
   2   1   9   35.52    1.06 
   3  -1   9   11.23    0.66 
   3  -1   9   10.60    0.41 
   3  -1   9   11.27    0.71 
   3  -1   9   12.02    0.75 
   3  -1   9   10.81    0.42 
   3  -1   9   10.92    0.47 
   3   1   9   10.50    0.40 
   3   1   9   10.16    0.69 
   3   1   9    9.81    0.40 
   3   1   9    9.59    0.48 
   3   1   9    9.83    0.37 
   3   1   9   10.46    0.45 
   3   1   9   10.78    0.64 
   3   1   9   11.02    0.50 
   4  -1   9    4.10    0.38 
   4  -1   9    3.75    0.22 
   4  -1   9    4.07    0.33 
   4   1   9    3.93    0.26 
   4   1   9    3.86    0.32 
   4   1   9    3.48    0.33 
   4   1   9    3.93    0.23 
   5   1   9    2.56    0.14 
   5   1   9    2.47    0.15 
   9  -2  -9    0.01    0.10 
   9   2  -9    0.03    0.12 
   8   2  -9   17.84    0.70 
   8   2  -9   17.75    0.75 
   7  -2  -9    0.33    0.21 
   7  -2  -9    0.03    0.20 
   7   2  -9    1.83    0.25 
   7   2  -9    1.65    0.21 
   6  -2  -9   11.24    0.48 
   6  -2  -9   12.88    0.82 
   6   2  -9   10.97    0.56 
   6   2  -9   11.89    0.59 
  -5  -2   9    8.61    0.35 
   5  -2  -9    7.60    0.56 
   5  -2  -9    8.41    0.39 
   5  -2  -9    8.18    0.72 
   5   2  -9    7.55    0.46 
  -5   2   9    8.63    0.45 
   5   2  -9    6.86    0.42 
   5   2  -9    8.55    0.71 
  -4  -2   9    2.69    0.20 
  -4  -2   9    3.05    0.24 
  -4  -2   9    2.72    0.24 
  -4   2   9    2.76    0.27 
  -3  -2   9   54.97    1.55 
  -3   2   9   51.01    1.88 
  -2  -2   9    5.54    0.27 
   2  -2  -9    5.29    0.31 
  -2   2   9    4.85    0.35 
  -1  -2   9   17.71    0.59 
   1  -2  -9   17.15    0.69 
  -1   2   9   16.44    0.75 
   0  -2   9    7.65    0.33 
   0  -2   9    7.20    0.67 
   0  -2  -9    7.31    0.39 
   0  -2   9    7.20    0.37 
   0   2   9    7.53    0.35 
   0   2   9    6.80    0.39 
   0   2   9    7.25    0.44 
   1  -2   9    5.51    0.27 
   1  -2   9    5.12    0.32 
   1  -2   9    5.48    0.53 
   1  -2   9    5.29    0.41 
  -1  -2  -9    5.42    0.32 
   1   2   9    4.90    0.26 
   1   2   9    4.99    0.32 
   1   2   9    4.94    0.34 
   2  -2   9    4.92    0.43 
   2  -2   9    5.28    0.30 
   2  -2   9    5.50    0.44 
   2  -2   9    4.99    0.41 
   2  -2   9    5.20    0.26 
   2  -2   9    6.02    0.51 
   2  -2   9    4.93    0.25 
   2   2   9    5.38    0.34 
   2   2   9    4.53    0.26 
   2   2   9    4.60    0.27 
   2   2   9    4.67    0.24 
   2   2   9    5.22    0.34 
   2   2   9    4.82    0.25 
   3  -2   9    3.46    0.19 
   3  -2   9    3.01    0.32 
   3  -2   9    4.59    0.49 
   3  -2   9    3.96    0.33 
   3  -2   9    3.82    0.25 
   3   2   9    3.50    0.22 
   3   2   9    3.45    0.25 
   3   2   9    3.68    0.22 
   3   2   9    3.53    0.19 
   3   2   9    3.28    0.24 
   3   2   9    3.37    0.21 
   3   2   9    3.54    0.31 
   4  -2   9    2.64    0.25 
   4  -2   9    2.76    0.33 
   4  -2   9    3.18    0.28 
   4   2   9    2.95    0.19 
   4   2   9    3.01    0.18 
   4   2   9    2.80    0.19 
   8  -3  -9    0.08    0.12 
   8  -3  -9    0.08    0.13 
   8   3  -9    2.34    0.18 
   8   3  -9    2.23    0.18 
   7  -3  -9    2.95    0.35 
   7   3  -9   11.91    0.56 
   7   3  -9   12.16    0.54 
  -6  -3   9    1.88    0.15 
   6  -3  -9    1.49    0.15 
   6  -3  -9    2.01    0.33 
   6  -3  -9    1.96    0.34 
   6  -3  -9    2.06    0.37 
   6   3  -9    1.63    0.24 
   6   3  -9    1.57    0.21 
   5  -3  -9    4.74    0.28 
  -5  -3   9    5.11    0.27 
   5  -3  -9    5.33    0.51 
   5  -3  -9    4.93    0.47 
   4  -3  -9    4.79    0.47 
  -4  -3   9    5.35    0.27 
   4  -3  -9    5.05    0.47 
  -4  -3   9    5.08    0.32 
  -4  -3   9    5.15    0.28 
   4   3  -9    5.46    0.60 
   3  -3  -9   60.15    2.67 
  -3  -3   9   62.34    1.67 
  -3  -3   9   58.73    1.90 
   3  -3  -9   59.50    1.88 
  -3  -3   9   55.92    1.97 
  -3  -3   9   58.23    1.85 
  -3   3   9   58.89    2.10 
   3   3  -9   56.73    2.87 
   2  -3  -9   17.55    0.70 
  -2  -3   9   18.52    0.61 
  -2  -3   9   16.77    0.68 
  -2  -3   9   18.05    0.67 
  -2   3   9   17.43    0.60 
   2   3  -9   17.13    1.10 
  -2   3   9   17.57    0.78 
  -2   3   9   15.81    0.91 
  -1  -3   9   46.13    1.54 
   1  -3  -9   46.71    1.56 
  -1  -3   9   49.24    1.36 
  -1  -3   9   47.98    2.23 
  -1  -3   9   46.41    1.52 
  -1   3   9   45.32    1.30 
  -1   3   9   44.91    1.69 
  -1   3   9   45.38    2.03 
   0  -3  -9    6.40    0.36 
   0  -3   9    6.32    0.29 
   0  -3   9    6.79    0.57 
   0  -3   9    6.73    0.35 
   0  -3   9    6.30    0.45 
   0  -3   9    6.34    0.35 
   0   3   9    5.84    0.45 
   0   3   9    6.33    0.40 
   0   3   9    5.59    0.30 
   1  -3   9   18.90    0.98 
   1  -3   9   19.91    1.07 
   1  -3   9   18.17    0.70 
   1  -3   9   19.05    0.62 
   1   3   9   17.05    0.59 
   1   3   9   17.92    0.77 
   1   3   9   16.40    0.69 
   2  -3   9    4.50    0.27 
   2  -3   9    4.45    0.44 
   2  -3   9    4.86    0.43 
   2  -3   9    4.74    0.40 
   2   3   9    4.39    0.30 
   2   3   9    4.34    0.27 
   2   3   9    4.47    0.23 
   3  -3   9    2.69    0.33 
   3  -3   9    2.47    0.25 
   3  -3   9    1.96    0.23 
   3  -3   9    2.87    0.30 
   3   3   9    2.27    0.19 
   3   3   9    2.55    0.16 
   3   3   9    2.36    0.21 
   3   3   9    2.36    0.16 
   4  -3   9    0.00    0.09 
   4  -3   9    0.07    0.08 
   4   3   9    0.80    0.08 
   4   3   9    0.91    0.11 
   6  -4  -9    2.87    0.35 
   6  -4  -9    2.55    0.41 
   6   4  -9    2.01    0.19 
  -5  -4   9    2.91    0.24 
  -5  -4   9    3.03    0.19 
  -5  -4   9    3.28    0.23 
  -4  -4   9    0.34    0.10 
  -4  -4   9    0.37    0.09 
  -4  -4   9    0.27    0.10 
   4  -4  -9    0.68    0.25 
   4  -4  -9    0.55    0.23 
   4  -4  -9    0.35    0.09 
  -4   4   9    0.33    0.24 
  -3  -4   9    3.25    0.25 
   3  -4  -9    2.74    0.36 
   3  -4  -9    3.44    0.22 
  -3  -4   9    3.08    0.19 
  -3  -4   9    3.52    0.23 
   3   4  -9    3.33    0.40 
  -3   4   9    3.22    0.35 
  -2  -4   9   17.45    0.65 
  -2  -4   9   17.57    0.68 
  -2  -4   9   17.48    0.58 
   2  -4  -9   17.81    1.01 
  -2   4   9   17.00    0.94 
   2   4  -9   17.84    1.09 
  -1  -4   9   12.97    0.51 
  -1  -4   9   12.74    0.45 
  -1  -4   9   12.50    0.74 
   1  -4  -9   12.85    0.77 
  -1  -4   9   13.14    0.53 
  -1   4   9   12.03    0.58 
  -1   4   9   12.48    0.71 
   0  -4   9   13.03    0.51 
   0  -4   9   12.90    0.52 
   0  -4   9   13.61    0.72 
   0  -4   9   12.57    0.45 
   0   4   9   11.60    0.42 
   0   4   9   12.55    0.70 
   0   4   9   11.19    0.54 
   1  -4   9    7.59    0.59 
   1  -4   9    7.12    0.47 
   1   4   9    6.32    0.37 
   1   4   9    6.44    0.28 
   2  -4   9    5.98    0.40 
   2  -4   9    6.38    0.52 
   2   4   9    4.43    0.26 
   2   4   9    4.98    0.22 
   3  -4   9    3.34    0.29 
   3   4   9    2.18    0.13 
   6  -5  -9   -0.02    0.10 
  -6  -5   9    0.25    0.05 
   6  -5  -9   -0.01    0.09 
  -6  -5   9    0.21    0.06 
   5  -5  -9    2.37    0.27 
   5  -5  -9    2.40    0.27 
  -5  -5   9    2.31    0.16 
  -5  -5   9    2.08    0.16 
  -5   5   9    1.01    0.16 
   4  -5  -9    4.20    0.39 
  -4  -5   9    5.36    0.26 
   4  -5  -9    4.94    0.37 
  -4  -5   9    5.49    0.28 
  -4   5   9    4.27    0.36 
   3  -5  -9    0.67    0.22 
  -3  -5   9    0.68    0.10 
  -3  -5   9    0.86    0.12 
  -3   5   9    0.58    0.17 
  -2  -5   9    2.31    0.17 
   2  -5  -9    2.20    0.24 
  -2  -5   9    2.23    0.16 
   2  -5  -9    1.68    0.29 
  -1  -5   9    0.69    0.11 
  -1  -5   9    0.44    0.15 
   1  -5  -9    0.21    0.17 
   1   5  -9    0.05    0.17 
  -1   5   9    0.57    0.16 
   0  -5   9    5.43    0.36 
   0   5  -9    4.68    0.42 
  -2  -5  -9   -0.02    0.07 
  -2   5  -9    0.01    0.09 
  -4  -6   9    2.17    0.12 
  -6   0  10   20.66    0.86 
   6   0 -10   18.87    1.16 
  -6   0  10   18.86    0.76 
   5   0 -10    0.78    0.33 
  -5   0  10    0.54    0.14 
   5   0 -10    0.76    0.29 
  -5   0  10    0.73    0.15 
   4   0 -10   11.55    0.84 
   4   0 -10   11.12    0.76 
  -4   0  10   11.35    0.57 
  -4   0  10   11.12    0.52 
   3   0 -10    2.01    0.45 
  -3   0  10    1.06    0.17 
  -3   0  10    1.22    0.19 
  -2   0  10    4.51    0.31 
  -2   0  10    4.84    0.28 
  -2   0  10    5.01    0.33 
  -2   0  10    4.61    0.24 
   2   0 -10    4.90    0.44 
  -1   0  10    3.34    0.29 
  -1   0  10    3.52    0.27 
  -1   0  10    3.49    0.22 
  -1   0  10    3.69    0.22 
  -1   0  10    3.37    0.23 
   0   0 -10    0.63    0.12 
   0   0  10    0.45    0.13 
   0   0  10    0.53    0.13 
   0   0  10    0.59    0.10 
   0   0  10    0.57    0.40 
   0   0  10    0.45    0.13 
   0   0  10    0.40    0.09 
   1   0  10   12.72    0.56 
   1   0  10   12.55    0.54 
   1   0  10   12.69    0.80 
   1   0  10   12.39    0.46 
   2   0  10    2.07    0.31 
   2   0  10    1.78    0.19 
   2   0  10    2.13    0.18 
   2   0  10    1.87    0.15 
   3   0  10    0.95    0.12 
   3   0  10    0.92    0.17 
   3   0  10    0.98    0.14 
   3   0  10    0.94    0.20 
   4   0  10    0.22    0.09 
   4   0  10    0.08    0.09 
  -8  -1  10    0.62    0.12 
  -8  -1  10    0.71    0.11 
   8   1 -10   -0.01    0.13 
  -8   1  10    0.63    0.11 
  -7  -1  10    3.63    0.30 
  -7  -1  10    3.72    0.26 
   5  -1 -10   18.79    1.14 
  -5  -1  10   18.94    0.82 
  -5  -1  10   19.02    0.77 
  -5   1  10   19.00    0.85 
   5   1 -10   19.64    1.20 
  -4  -1  10   17.25    0.78 
  -4  -1  10   17.79    0.75 
   4  -1 -10   17.18    1.07 
   4  -1 -10   18.29    1.03 
   4   1 -10   17.43    1.10 
  -4   1  10   16.93    0.70 
  -4   1  10   17.53    0.78 
  -3  -1  10    4.02    0.21 
  -3  -1  10    3.81    0.29 
  -3  -1  10    4.09    0.32 
  -3  -1  10    3.75    0.26 
   3  -1 -10    3.95    0.43 
  -3   1  10    3.87    0.25 
   3   1 -10    3.76    0.44 
  -3   1  10    3.54    0.31 
   3   1 -10    3.47    0.38 
  -3   1  10    3.80    0.27 
  -2  -1  10    1.15    0.13 
  -2  -1  10    1.31    0.18 
  -2  -1  10    1.08    0.13 
  -2  -1  10    1.33    0.17 
  -2   1  10    1.11    0.18 
  -2   1  10    1.23    0.17 
  -2   1  10    1.13    0.14 
   2   1 -10    0.89    0.31 
   1  -1 -10    3.79    0.40 
  -1  -1  10    4.29    0.23 
  -1  -1  10    3.74    0.46 
   1  -1 -10    4.33    0.28 
  -1  -1  10    4.19    0.27 
  -1  -1  10    3.91    0.28 
   1   1 -10    3.82    0.49 
  -1   1  10    4.15    0.30 
  -1   1  10    3.88    0.30 
  -1   1  10    3.84    0.24 
   0  -1  10    0.27    0.11 
   0  -1 -10    0.09    0.07 
   0  -1  10    0.08    0.38 
   0  -1 -10    0.36    0.24 
   0  -1  10    0.17    0.09 
   0  -1  10    0.25    0.08 
   0   1  10    0.17    0.07 
   0   1  10    0.07    0.07 
   0   1  10    0.15    0.12 
   0   1  10    0.16    0.11 
   0   1  10    0.12    0.12 
   1  -1  10    1.60    0.17 
   1  -1  10    1.66    0.22 
   1  -1  10    1.66    0.15 
   1  -1  10    2.01    0.40 
   1   1  10    1.55    0.17 
   1   1  10    1.44    0.19 
   1   1  10    1.43    0.13 
   1   1  10    1.52    0.18 
   1   1  10    1.40    0.17 
   2  -1  10    1.24    0.38 
   2  -1  10    1.05    0.22 
   2  -1  10    0.95    0.11 
   2  -1  10    0.94    0.13 
   2   1  10    0.90    0.14 
   2   1  10    0.84    0.10 
   2   1  10    0.93    0.14 
   2   1  10    0.63    0.12 
   2   1  10    0.81    0.18 
   2   1  10    0.80    0.10 
   3  -1  10    0.46    0.14 
   3  -1  10    0.39    0.09 
   3  -1  10    0.62    0.18 
   3   1  10    0.24    0.06 
   3   1  10    0.41    0.09 
   3   1  10    0.24    0.12 
   4  -1  10    1.22    0.15 
  -7  -2  10    7.43    0.40 
   7  -2 -10    7.40    0.57 
   7   2 -10    0.35    0.17 
  -6  -2  10    2.61    0.23 
   6  -2 -10    2.89    0.48 
   6  -2 -10    2.89    0.44 
  -5  -2  10    1.58    0.21 
   5  -2 -10    1.51    0.15 
  -5  -2  10    1.59    0.14 
  -5  -2  10    1.73    0.17 
   5  -2 -10    1.59    0.35 
   5  -2 -10    2.48    0.39 
   5  -2 -10    1.92    0.36 
  -5  -2  10    1.77    0.20 
  -5   2  10    1.92    0.21 
  -5   2  10    1.66    0.18 
  -4  -2  10    0.28    0.08 
  -4  -2  10    0.27    0.09 
  -4  -2  10    0.30    0.13 
   4  -2 -10    0.50    0.35 
  -4   2  10    0.28    0.11 
  -4   2  10    0.33    0.09 
   4   2 -10    0.53    0.33 
  -3  -2  10    0.43    0.12 
  -3  -2  10    0.47    0.12 
  -3  -2  10    0.43    0.09 
   3  -2 -10    0.60    0.38 
   3   2 -10    0.54    0.25 
  -3   2  10    0.64    0.14 
  -3   2  10    0.36    0.11 
  -2  -2  10    4.93    0.33 
  -2  -2  10    4.75    0.54 
  -2  -2  10    5.07    0.31 
   2  -2 -10    4.73    0.45 
  -2  -2  10    4.87    0.26 
  -2  -2  10    5.33    0.26 
  -2   2  10    4.92    0.34 
  -2   2  10    4.74    0.30 
   2   2 -10    4.79    0.50 
  -2   2  10    4.91    0.44 
  -2   2  10    5.21    0.29 
  -1  -2  10    0.55    0.11 
  -1  -2  10    0.46    0.11 
   1  -2 -10    0.75    0.34 
  -1  -2  10    0.15    0.36 
  -1  -2  10    0.45    0.11 
   1  -2 -10    0.57    0.11 
  -1   2  10    0.55    0.13 
   1   2 -10    0.41    0.22 
  -1   2  10    0.68    0.12 
  -1   2  10    0.48    0.13 
   0  -2  10    4.91    0.26 
   0  -2  10    4.36    0.48 
   0  -2  10    4.28    0.27 
   0   2  10    4.26    0.31 
   0   2 -10    3.86    0.42 
   0   2  10    4.29    0.24 
   0   2  10    4.08    0.30 
   1  -2  10    2.23    0.16 
   1  -2  10    2.45    0.20 
   1  -2  10    2.44    0.38 
   1  -2  10    2.24    0.28 
   1   2  10    2.28    0.24 
   1   2  10    2.12    0.21 
   1   2  10    2.47    0.20 
   2  -2  10    7.64    0.47 
   2   2  10    9.41    0.43 
   2   2  10    8.28    0.37 
   2   2  10    9.08    0.44 
   2   2  10    9.41    0.35 
   3  -2  10    1.82    0.20 
   3  -2  10    1.75    0.13 
   3  -2  10    1.19    0.17 
   3   2  10    1.54    0.12 
   3   2  10    1.60    0.15 
   3   2  10    1.61    0.14 
   3   2  10    1.66    0.13 
   4   2  10    0.95    0.09 
  -8  -3  10    2.05    0.15 
  -7  -3  10    3.92    0.20 
  -7  -3  10    4.06    0.25 
  -7  -3  10    4.19    0.24 
   7  -3 -10    3.04    0.35 
   6  -3 -10    1.18    0.25 
   6  -3 -10    1.69    0.29 
  -5  -3  10    0.55    0.13 
   5  -3 -10    0.09    0.19 
  -5  -3  10    0.49    0.13 
  -5  -3  10    0.39    0.08 
   5  -3 -10    0.18    0.20 
   5   3 -10    0.39    0.21 
   4  -3 -10    0.48    0.10 
  -4  -3  10    0.88    0.15 
   4  -3 -10    0.60    0.32 
  -4  -3  10    0.72    0.12 
  -4  -3  10    0.70    0.10 
   4   3 -10    0.63    0.31 
  -4   3  10    0.48    0.13 
  -3  -3  10    3.95    0.25 
  -3  -3  10    4.04    0.26 
  -3  -3  10    3.94    0.26 
   3  -3 -10    4.08    0.41 
  -3  -3  10    4.14    0.24 
  -3   3  10    4.01    0.38 
  -3   3  10    3.87    0.24 
  -3   3  10    3.97    0.29 
   3   3 -10    4.13    0.55 
  -2  -3  10    2.61    0.21 
   2  -3 -10    1.96    0.37 
  -2  -3  10    2.69    0.20 
  -2  -3  10    2.97    0.20 
  -2   3  10    2.45    0.18 
  -2   3  10    2.67    0.24 
  -2   3  10    2.78    0.36 
   2   3 -10    3.46    0.53 
  -1  -3  10    9.96    0.42 
  -1  -3  10    8.34    0.64 
  -1  -3  10   10.53    0.39 
  -1  -3  10   10.43    0.45 
  -1   3  10    8.87    0.37 
  -1   3  10    9.60    0.60 
  -1   3  10    9.82    0.49 
   1   3 -10    9.58    0.74 
   0  -3  10    3.17    0.24 
   0  -3  10    3.40    0.20 
   0  -3  10    2.96    0.39 
   0   3  10    3.23    0.23 
   0   3  10    2.90    0.25 
   0   3  10    3.00    0.33 
   0   3 -10    3.21    0.39 
   0   3  10    3.22    0.20 
   1  -3  10   13.98    0.75 
   1  -3  10   14.54    0.84 
   1  -3  10   13.95    0.55 
   1   3  10   13.11    0.44 
   1   3  10   12.41    0.56 
  -1   3 -10   12.21    0.76 
   1   3  10   11.62    0.50 
   2  -3  10    5.10    0.34 
   2  -3  10    4.98    0.25 
   2   3  10    4.42    0.26 
   2   3  10    4.32    0.24 
   2   3  10    4.47    0.21 
   3   3  10    0.87    0.10 
  -7  -4  10    0.14    0.05 
   7  -4 -10   -0.05    0.09 
   6  -4 -10    0.36    0.15 
  -6  -4  10    0.35    0.09 
   6  -4 -10    0.41    0.17 
  -6  -4  10    0.28    0.08 
  -6   4  10    0.10    0.11 
  -5  -4  10    4.06    0.24 
   5  -4 -10    4.30    0.43 
  -5  -4  10    4.42    0.23 
  -5  -4  10    4.44    0.24 
  -5   4  10    4.12    0.34 
  -4  -4  10    3.58    0.21 
   4  -4 -10    3.41    0.36 
  -4  -4  10    3.39    0.22 
   4   4 -10    2.03    0.31 
  -4   4  10    2.99    0.35 
  -3  -4  10    3.99    0.23 
  -3  -4  10    3.95    0.20 
  -3  -4  10    4.09    0.26 
   3   4 -10    1.81    0.32 
  -2  -4  10   -0.04    0.07 
  -2  -4  10    0.10    0.08 
  -2  -4  10   -0.01    0.05 
   2  -4 -10   -0.02    0.18 
  -2   4  10    0.18    0.20 
   2   4 -10   -0.05    0.28 
  -1  -4  10    1.79    0.16 
  -1  -4  10    1.78    0.16 
  -1   4  10    1.62    0.23 
  -1   4  10    1.28    0.15 
   1   4 -10    0.93    0.24 
  -1   4  10    1.51    0.16 
   0  -4  10    2.70    0.19 
   0  -4  10    2.62    0.23 
   0  -4  10    2.34    0.29 
   0   4 -10    2.79    0.35 
   0   4  10    2.30    0.19 
   0   4  10    2.27    0.17 
   1   4  10    6.52    0.26 
  -1   4 -10    6.54    0.46 
   1   4  10    6.19    0.32 
   2  -4  10    2.07    0.17 
   2   4  10    2.54    0.13 
  -2   4 -10    2.50    0.23 
  -5  -5  10    0.11    0.05 
   5  -5 -10   -0.02    0.08 
  -4  -5  10    0.20    0.06 
   4  -5 -10    0.13    0.13 
  -4  -5  10    0.06    0.05 
  -3  -5  10    1.24    0.12 
   3  -5 -10    1.21    0.21 
  -3  -5  10    1.17    0.11 
  -3   5  10    0.45    0.12 
   2  -5 -10    3.81    0.25 
   2   5 -10    9.57    0.58 
  -2   5  10    9.78    0.52 
   1  -5 -10    6.57    0.37 
   1   5 -10    1.81    0.24 
   0  -5 -10    2.84    0.21 
   0   5 -10    0.28    0.12 
   8   0 -11   -0.04    0.11 
  -8   0  11    0.00    0.06 
  -7   0  11    0.54    0.12 
   7   0 -11    0.08    0.17 
  -6   0  11   20.39    0.78 
   6   0 -11   20.51    1.21 
  -6   0  11   20.59    0.86 
   5   0 -11   -0.01    0.29 
  -5   0  11    0.16    0.10 
  -5   0  11    0.17    0.10 
   5   0 -11    0.27    0.29 
  -4   0  11    1.62    0.19 
  -4   0  11    1.89    0.21 
   4   0 -11    1.56    0.36 
   4   0 -11    1.77    0.31 
   3   0 -11    5.77    0.52 
   3   0 -11    6.05    0.56 
  -3   0  11    6.39    0.38 
  -3   0  11    6.10    0.29 
  -3   0  11    6.17    0.38 
  -2   0  11    3.27    0.29 
  -2   0  11    3.50    0.27 
  -2   0  11    3.37    0.23 
   2   0 -11    3.08    0.38 
  -1   0  11   14.74    0.51 
  -1   0  11   14.76    0.58 
  -1   0  11   15.11    0.51 
  -1   0  11   14.47    0.62 
  -1   0  11   14.88    0.66 
   1   0 -11   14.29    0.83 
   0   0  11    3.84    0.21 
   0   0  11    4.07    0.22 
   0   0 -11    4.07    0.39 
   0   0  11    4.05    0.25 
   0   0  11    4.31    0.31 
   1   0  11    9.08    0.43 
  -1   0 -11    9.13    0.56 
   1   0  11    9.60    0.41 
   2   0  11    0.60    0.11 
   2   0  11    0.63    0.11 
   3   0  11    3.48    0.18 
   8  -1 -11    0.05    0.12 
  -8  -1  11    0.39    0.08 
  -8   1  11    0.20    0.05 
   8   1 -11   -0.06    0.09 
  -7  -1  11    0.84    0.13 
   7  -1 -11    0.71    0.21 
  -7  -1  11    0.85    0.13 
  -7   1  11    0.89    0.15 
   7   1 -11    0.62    0.20 
   6  -1 -11    1.58    0.33 
  -6  -1  11    1.73    0.19 
  -6  -1  11    1.65    0.19 
  -6   1  11    1.55    0.22 
   6   1 -11    1.81    0.34 
  -5  -1  11    4.50    0.29 
   5  -1 -11    3.38    0.43 
  -5  -1  11    4.53    0.32 
  -5   1  11    4.66    0.27 
   5   1 -11    4.10    0.47 
  -5   1  11    4.76    0.34 
   4  -1 -11    1.61    0.33 
   4  -1 -11    1.89    0.34 
  -4  -1  11    1.78    0.20 
  -4  -1  11    1.82    0.20 
   4   1 -11    1.95    0.37 
  -4   1  11    1.74    0.21 
  -4   1  11    1.98    0.20 
  -4   1  11    1.88    0.24 
   4   1 -11    1.89    0.39 
  -3  -1  11    2.43    0.16 
  -3  -1  11    2.41    0.19 
  -3  -1  11    2.66    0.26 
  -3  -1  11    2.67    0.25 
   3  -1 -11    2.32    0.44 
  -3  -1  11    2.49    0.18 
   3   1 -11    2.52    0.46 
  -3   1  11    2.45    0.19 
  -3   1  11    2.30    0.21 
  -3   1  11    2.71    0.25 
   3   1 -11    2.38    0.41 
  -2  -1  11   10.99    0.43 
  -2  -1  11   12.57    0.44 
  -2  -1  11   11.87    0.51 
  -2  -1  11   11.82    0.53 
   2  -1 -11   11.27    0.72 
   2   1 -11   12.18    0.77 
  -2   1  11   12.01    0.46 
   2   1 -11   11.66    0.82 
  -2   1  11   12.10    0.60 
  -2   1  11   11.72    0.54 
  -1  -1  11    6.01    0.27 
  -1  -1  11    5.93    0.33 
   1  -1 -11    5.71    0.46 
  -1  -1  11    5.55    0.33 
  -1   1  11    5.75    0.34 
  -1   1  11    5.60    0.28 
  -1   1  11    5.93    0.38 
   0  -1  11    7.93    0.32 
   0  -1  11    6.72    0.58 
   0  -1 -11    8.38    0.53 
   0  -1  11    8.08    0.38 
   0  -1  11    8.49    0.42 
   0   1  11    7.75    0.41 
   0   1  11    7.39    0.36 
   0   1  11    8.12    0.40 
   0   1  11    7.93    0.32 
   1  -1  11    3.07    0.22 
   1  -1  11    3.63    0.24 
   1  -1  11    3.54    0.39 
   1   1  11    3.28    0.21 
   1   1  11    3.30    0.25 
   1   1  11    3.41    0.24 
   1   1  11    3.02    0.18 
   2  -1  11    0.07    0.09 
   2   1  11    0.20    0.06 
   2   1  11    0.14    0.07 
   2   1  11    0.15    0.08 
   3  -1  11    0.26    0.05 
   3   1  11    0.11    0.04 
   3   1  11    0.42    0.07 
  -8  -2  11    0.72    0.09 
   7   2 -11    0.00    0.10 
  -6  -2  11    1.90    0.19 
   6  -2 -11    1.85    0.35 
  -6  -2  11    1.74    0.20 
   6  -2 -11    1.85    0.31 
  -6   2  11    1.72    0.18 
   6   2 -11    2.12    0.35 
  -6   2  11    1.94    0.17 
  -5  -2  11   10.52    0.49 
  -5  -2  11   10.70    0.48 
   5  -2 -11   11.03    0.67 
  -5  -2  11   10.86    0.45 
   5  -2 -11    9.96    0.70 
  -5   2  11   11.19    0.40 
  -5   2  11   10.51    0.53 
  -4  -2  11    4.72    0.23 
  -4  -2  11    4.74    0.32 
  -4  -2  11    4.85    0.27 
   4  -2 -11    4.44    0.40 
  -4   2  11    4.86    0.32 
  -4   2  11    4.85    0.26 
   4   2 -11    3.80    0.45 
  -3  -2  11    0.01    0.07 
  -3  -2  11    0.07    0.06 
   3  -2 -11    0.00    0.21 
  -3  -2  11    0.07    0.09 
  -3   2  11    0.11    0.12 
  -3   2  11   -0.04    0.19 
   3   2 -11    0.00    0.19 
  -3   2  11    0.14    0.10 
   3   2 -11    0.21    0.21 
  -2  -2  11    0.51    0.09 
  -2  -2  11    0.63    0.13 
  -2  -2  11    0.50    0.11 
   2  -2 -11    0.58    0.22 
   2   2 -11    0.21    0.28 
  -2   2  11    0.34    0.14 
   2   2 -11    0.27    0.30 
  -2   2  11    0.28    0.11 
  -2   2  11    0.51    0.11 
  -1  -2  11    2.17    0.17 
  -1  -2  11    1.50    0.35 
   1  -2 -11    2.33    0.29 
  -1  -2  11    2.36    0.19 
  -1  -2  11    2.27    0.22 
  -1   2  11    2.13    0.20 
   1   2 -11    2.25    0.35 
  -1   2  11    2.26    0.17 
  -1   2  11    2.12    0.21 
   0  -2  11    2.17    0.18 
   0  -2  11    2.09    0.35 
   0  -2  11    1.77    0.14 
   0   2  11    2.08    0.22 
   0   2  11    1.81    0.16 
   0   2 -11    1.29    0.28 
   0   2  11    1.93    0.19 
   1  -2  11    5.56    0.28 
   1   2  11    5.16    0.28 
   1   2  11    5.36    0.24 
   1   2  11    5.19    0.30 
   2  -2  11    2.98    0.28 
   2   2  11    3.06    0.18 
  -7  -3  11    0.34    0.08 
   7  -3 -11    0.06    0.11 
  -6  -3  11    0.58    0.09 
   6  -3 -11    0.07    0.14 
  -6  -3  11    0.61    0.14 
   6   3 -11    0.03    0.11 
  -5  -3  11    1.97    0.21 
   5  -3 -11    1.96    0.25 
  -5  -3  11    1.95    0.16 
   5  -3 -11    1.53    0.28 
   5   3 -11    1.29    0.27 
  -4  -3  11    4.18    0.26 
   4  -3 -11    4.25    0.38 
  -4  -3  11    3.80    0.25 
   4  -3 -11    4.16    0.39 
  -4   3  11    4.04    0.28 
  -4   3  11    4.04    0.20 
  -4   3  11    4.03    0.34 
  -3  -3  11    2.09    0.15 
  -3  -3  11    1.93    0.18 
   3  -3 -11    2.26    0.30 
   3  -3 -11    1.85    0.28 
  -3  -3  11    2.20    0.18 
  -3  -3  11    1.80    0.15 
  -3   3  11    2.06    0.22 
   3   3 -11    2.02    0.36 
  -3   3  11    1.98    0.15 
  -3   3  11    2.05    0.31 
  -2  -3  11    1.84    0.20 
  -2  -3  11    1.73    0.13 
  -2   3  11    1.86    0.25 
  -2   3  11    1.73    0.15 
   2   3 -11    1.88    0.35 
  -2   3  11    1.74    0.18 
  -1  -3  11    1.46    0.15 
  -1   3  11    0.77    0.19 
   1   3 -11    1.04    0.23 
  -1   3  11    1.33    0.13 
  -1   3  11    1.43    0.16 
   0  -3  11    5.17    0.27 
   0  -3  11    5.05    0.43 
   0   3  11    4.47    0.27 
   0   3 -11    4.58    0.41 
   0   3  11    4.66    0.26 
   0   3  11    4.70    0.22 
   1  -3  11    0.19    0.06 
   1  -3  11    0.31    0.18 
   1   3  11    0.06    0.05 
  -1   3 -11    0.11    0.11 
   1   3  11    0.18    0.09 
   1   3  11    0.11    0.06 
   2   3  11    0.41    0.06 
  -6  -4  11    1.54    0.11 
  -6   4  11    0.08    0.08 
   5  -4 -11    1.90    0.22 
  -5   4  11    0.30    0.11 
  -4  -4  11    1.22    0.12 
   4  -4 -11    1.14    0.20 
   4  -4 -11    1.43    0.24 
  -4   4  11    0.90    0.17 
  -3  -4  11    0.41    0.08 
  -3  -4  11    0.43    0.09 
   3  -4 -11    0.11    0.15 
  -3   4  11    0.52    0.15 
   3   4 -11    0.27    0.16 
   2  -4 -11    0.14    0.15 
  -2  -4  11    0.09    0.07 
  -2   4  11    0.07    0.11 
   2   4 -11    0.09    0.16 
   1  -4 -11    0.04    0.08 
   1  -4 -11    0.03    0.13 
  -1  -4  11    0.01    0.07 
   1   4 -11    0.02    0.13 
  -1   4  11    0.05    0.05 
   0  -4  11    0.19    0.05 
   0   4 -11    0.26    0.13 
   0   4  11    0.41    0.06 
  -7   0  12    2.31    0.14 
  -7   0  12    2.27    0.17 
   6   0 -12    0.51    0.26 
  -6   0  12    0.37    0.11 
  -6   0  12    0.44    0.10 
  -6   0  12    0.43    0.09 
   5   0 -12    4.09    0.41 
  -5   0  12    4.07    0.22 
   5   0 -12    3.99    0.42 
  -5   0  12    3.95    0.27 
  -5   0  12    3.96    0.28 
  -4   0  12   13.05    0.59 
   4   0 -12   12.78    0.74 
  -4   0  12   12.94    0.46 
  -4   0  12   13.78    0.55 
   4   0 -12   13.00    0.82 
  -3   0  12    0.26    0.08 
   3   0 -12    0.38    0.24 
  -3   0  12    0.21    0.09 
   3   0 -12    0.19    0.22 
  -3   0  12    0.25    0.13 
  -2   0  12    1.73    0.22 
  -2   0  12    1.48    0.14 
   2   0 -12    1.20    0.29 
  -2   0  12    1.41    0.16 
  -1   0  12    0.10    0.07 
   1   0 -12    0.16    0.21 
  -1   0  12   -0.01    0.06 
  -1   0  12    0.12    0.07 
  -1   0  12    0.06    0.08 
   0   0  12    0.29    0.12 
   0   0 -12    0.40    0.20 
   0   0  12    0.26    0.08 
   1   0  12    5.18    0.26 
   1   0  12    6.08    0.27 
  -1   0 -12    5.82    0.35 
   7  -1 -12    1.09    0.22 
  -7  -1  12    1.13    0.12 
   6  -1 -12    8.78    0.57 
   6  -1 -12   10.07    0.63 
  -6  -1  12    9.65    0.41 
  -6  -1  12    9.24    0.43 
   6   1 -12   10.27    0.65 
  -6   1  12   10.15    0.36 
  -6   1  12    9.30    0.45 
  -5  -1  12    2.65    0.24 
  -5  -1  12    2.88    0.25 
  -5  -1  12    2.81    0.18 
   5  -1 -12    2.92    0.35 
   5   1 -12    2.91    0.37 
  -5   1  12    2.75    0.18 
  -5   1  12    2.80    0.25 
  -4  -1  12    1.17    0.17 
   4  -1 -12    1.37    0.27 
  -4  -1  12    0.76    0.12 
  -4  -1  12    1.11    0.15 
   4   1 -12    1.11    0.24 
  -4   1  12    0.86    0.17 
   4   1 -12    1.44    0.28 
  -4   1  12    1.07    0.14 
  -4   1  12    0.91    0.14 
  -3  -1  12    1.49    0.13 
  -3  -1  12    1.72    0.19 
  -3  -1  12    1.61    0.17 
   3  -1 -12    1.92    0.30 
  -3   1  12    1.75    0.18 
  -3   1  12    1.80    0.16 
  -3   1  12    1.61    0.19 
   3   1 -12    1.69    0.33 
   3   1 -12    1.82    0.30 
  -2  -1  12    0.54    0.12 
  -2  -1  12    0.49    0.10 
   2  -1 -12    0.50    0.25 
  -2   1  12    0.55    0.12 
   2   1 -12    0.02    0.22 
   2   1 -12    0.50    0.24 
  -2   1  12    0.39    0.10 
  -2   1  12    0.52    0.14 
  -1  -1  12    0.91    0.14 
  -1  -1  12    0.81    0.12 
   1  -1 -12    1.03    0.24 
  -1   1  12    0.64    0.12 
  -1   1  12    0.69    0.13 
   1   1 -12    0.71    0.24 
  -1   1  12    0.70    0.10 
   0  -1  12    3.71    0.21 
   0  -1  12    3.84    0.23 
   0  -1 -12    4.37    0.35 
   0   1  12    3.91    0.19 
   0   1  12    3.76    0.23 
   0   1 -12    4.33    0.35 
   0   1  12    3.58    0.24 
   1  -1  12    1.58    0.12 
   1  -1  12    1.44    0.12 
   1   1  12    1.39    0.10 
  -1   1 -12    1.68    0.20 
   1   1  12    1.23    0.13 
   1   1  12    1.38    0.10 
  -7  -2  12    1.29    0.09 
  -7  -2  12    1.07    0.11 
   6  -2 -12    0.19    0.11 
  -6  -2  12    0.34    0.09 
  -6  -2  12    0.32    0.07 
   6  -2 -12    0.28    0.15 
   6   2 -12    0.05    0.12 
  -6   2  12    0.27    0.06 
  -5  -2  12    5.56    0.29 
  -5  -2  12    4.96    0.22 
  -5  -2  12    5.38    0.25 
   5  -2 -12    5.38    0.41 
   5   2 -12    5.70    0.47 
  -5   2  12    5.43    0.24 
  -4  -2  12    0.24    0.08 
  -4  -2  12    0.28    0.10 
   4  -2 -12    0.21    0.18 
   4  -2 -12    0.24    0.17 
  -4   2  12    0.17    0.13 
  -4   2  12    0.18    0.09 
  -4   2  12    0.24    0.07 
   4   2 -12    0.12    0.18 
  -3  -2  12    1.09    0.15 
  -3  -2  12    1.27    0.16 
   3  -2 -12    1.51    0.32 
   3   2 -12    1.59    0.27 
  -3   2  12    1.17    0.15 
  -3   2  12    1.17    0.13 
   3   2 -12    1.15    0.22 
  -2  -2  12    1.53    0.19 
   2  -2 -12    1.84    0.25 
  -2  -2  12    1.99    0.16 
  -2   2  12    1.59    0.17 
   2   2 -12    1.83    0.25 
  -2   2  12    1.63    0.14 
   2   2 -12    1.87    0.31 
  -2   2  12    1.57    0.15 
  -1  -2  12    2.61    0.20 
   1  -2 -12    2.77    0.28 
  -1  -2  12    2.43    0.18 
  -1   2  12    2.38    0.18 
   1   2 -12    1.66    0.28 
  -1   2  12    2.33    0.19 
   1   2 -12    2.63    0.29 
  -1   2  12    2.49    0.16 
   0  -2  12    2.80    0.17 
   0   2  12    2.14    0.16 
   0   2  12    2.77    0.15 
   0   2  12    2.36    0.19 
   0   2 -12    3.05    0.32 
   1  -2  12    0.34    0.06 
   1   2  12    0.31    0.06 
  -1   2 -12    0.42    0.13 
   1   2  12    0.20    0.04 
   6  -3 -12    0.58    0.14 
  -6  -3  12    0.72    0.09 
  -6   3  12    0.38    0.10 
  -5  -3  12    0.88    0.09 
  -5  -3  12    0.92    0.11 
   5  -3 -12    1.04    0.20 
   5   3 -12    0.78    0.16 
  -4  -3  12    2.30    0.16 
   4  -3 -12    2.87    0.27 
   4  -3 -12    2.96    0.28 
  -4  -3  12    2.63    0.17 
  -4   3  12    2.62    0.14 
   4   3 -12    2.32    0.30 
   3  -3 -12    4.76    0.35 
  -3  -3  12    4.33    0.22 
  -3  -3  12    3.67    0.21 
   3   3 -12    4.43    0.38 
  -3   3  12    4.07    0.29 
  -3   3  12    4.25    0.24 
  -2  -3  12    2.86    0.19 
   2   3 -12    2.73    0.31 
  -2   3  12    2.52    0.14 
  -2   3  12    2.24    0.17 
  -2   3  12    2.33    0.20 
   1  -3 -12    4.31    0.31 
   1   3 -12    7.09    0.44 
  -1   3  12    5.64    0.31 
  -1   3  12    6.47    0.24 
   0  -3  12    7.37    0.28 
   0   3 -12    2.63    0.20 
  -4  -4  12    0.92    0.09 
  -3  -4  12    2.44    0.13 
   3  -4 -12    1.91    0.18 
  -6   0  13    0.14    0.05 
  -6   0  13    0.12    0.05 
   6   0 -13    0.13    0.11 
  -5   0  13    1.16    0.12 
  -5   0  13    1.18    0.11 
  -5   0  13    1.00    0.12 
  -4   0  13    0.65    0.12 
  -4   0  13    0.81    0.11 
  -4   0  13    0.67    0.09 
   4   0 -13    0.38    0.14 
   4   0 -13    1.09    0.26 
  -3   0  13    5.47    0.23 
   3   0 -13    5.71    0.43 
  -3   0  13    5.04    0.29 
  -3   0  13    5.68    0.28 
  -2   0  13    1.01    0.10 
  -2   0  13    1.15    0.13 
  -1   0  13    0.10    0.04 
   1   0 -13    0.16    0.14 
  -1   0  13    0.14    0.07 
  -1   0  13    0.09    0.04 
   0   0  13    1.68    0.12 
  -6  -1  13    5.14    0.19 
   5  -1 -13    0.47    0.12 
  -5   1  13    0.43    0.07 
  -4  -1  13    6.21    0.23 
   4  -1 -13    6.11    0.41 
  -4  -1  13    6.29    0.29 
   4   1 -13    6.67    0.46 
  -4   1  13    6.36    0.25 
  -4   1  13    5.90    0.27 
  -4   1  13    6.02    0.31 
  -3  -1  13    1.23    0.13 
  -3  -1  13    1.28    0.10 
  -3   1  13    1.13    0.11 
   3   1 -13    1.30    0.23 
   3   1 -13    1.33    0.20 
  -2  -1  13    0.31    0.07 
  -2  -1  13    0.35    0.08 
   2  -1 -13    0.40    0.17 
  -2   1  13    0.47    0.07 
   2   1 -13    0.37    0.16 
  -2   1  13    0.42    0.09 
  -1  -1  13    0.00    0.05 
   1  -1 -13    0.17    0.11 
  -1  -1  13    0.09    0.05 
   1   1 -13    0.07    0.12 
   0   1  13    0.68    0.08 
  -5  -2  13    9.56    0.37 
  -5   2  13    9.58    0.30 
   5   2 -13    9.38    0.55 
  -4  -2  13    1.99    0.13 
   4  -2 -13    1.35    0.17 
   4   2 -13    1.89    0.23 
  -3  -2  13    3.84    0.19 
   3   2 -13    3.97    0.28 
   3   2 -13    5.19    0.36 
   2  -2 -13    4.78    0.29 
   2   2 -13    6.50    0.41 
   2   2 -13    6.10    0.37 
  -2   2  13    6.97    0.24 
   1  -2 -13    3.44    0.24 
   1   2 -13    3.09    0.24 
   0   0   0    0.00    0.00 
;
_shelx_hkl_checksum              39556
#END Tags that were not found in dictionaries
loop_
_space_group_symop_operation_xyz
'x, y, z'
'-x, y+1/2, -z'
loop_
_atom_site_label
_atom_site_type_symbol
_atom_site_fract_x
_atom_site_fract_y
_atom_site_fract_z
_atom_site_U_iso_or_equiv
_atom_site_adp_type
_atom_site_occupancy
_atom_site_site_symmetry_order
_atom_site_calc_flag
_atom_site_refinement_flags_posn
_atom_site_refinement_flags_adp
O1 O 0.6404(8) -0.0080(9) 0.2984(5) 0.0698(18) Uani 1 1 d . .
O2 O 0.4904(7) 0.1202(11) 0.4047(5) 0.0681(16) Uani 1 1 d . .
O3 O 0.8513(7) -0.0938(7) 0.5973(4) 0.0534(14) Uani 1 1 d . .
N1 N 0.6231(8) 0.1075(9) 0.3787(5) 0.0504(15) Uani 1 1 d . .
C1 C 0.7099(7) 0.1781(6) 0.8263(4) 0.0539(18) Uani 1 1 d G .
H1 H 0.6723 0.3003 0.7803 0.065 Uiso 1 1 calc R U
C2 C 0.6927(7) 0.1514(8) 0.9453(4) 0.065(2) Uani 1 1 d G .
H2A H 0.6434 0.2554 0.9807 0.078 Uiso 1 1 calc R U
C3 C 0.7477(8) -0.0274(9) 1.0127(4) 0.067(2) Uani 1 1 d G .
H3 H 0.7360 -0.0456 1.0940 0.080 Uiso 1 1 calc R U
C4 C 0.8199(8) -0.1796(7) 0.9610(4) 0.071(2) Uani 1 1 d G .
H4 H 0.8575 -0.3018 1.0071 0.085 Uiso 1 1 calc R U
C5 C 0.8371(7) -0.1529(7) 0.8420(4) 0.059(2) Uani 1 1 d G .
H5 H 0.8864 -0.2569 0.8067 0.070 Uiso 1 1 calc R U
C6 C 0.7821(7) 0.0259(7) 0.7747(3) 0.0462(16) Uani 1 1 d G .
C7 C 0.8049(9) 0.0510(9) 0.6471(6) 0.0442(15) Uani 1 1 d . .
C8 C 0.7818(9) 0.2579(9) 0.5868(6) 0.0430(15) Uani 1 1 d . .
H8 H 0.6804 0.3225 0.5974 0.052 Uiso 1 1 calc R U
C9 C 0.7623(8) 0.2500(9) 0.4453(6) 0.0410(14) Uani 1 1 d . .
H9 H 0.8680 0.1974 0.4355 0.049 Uiso 1 1 calc R U
C10 C 0.7223(10) 0.4559(11) 0.3793(6) 0.0506(17) Uani 1 1 d . .
H10A H 0.6157 0.5059 0.3867 0.061 Uiso 1 1 calc R U
H10B H 0.8103 0.5540 0.4240 0.061 Uiso 1 1 calc R U
C11 C 0.7086(12) 0.4516(13) 0.2395(7) 0.061(2) Uani 1 1 d . .
H11A H 0.6187 0.3590 0.1935 0.091 Uiso 1 1 calc R U
H11B H 0.8140 0.4040 0.2311 0.091 Uiso 1 1 calc R U
H11C H 0.6844 0.5890 0.2038 0.091 Uiso 1 1 calc R U
C12 C 0.9345(10) 0.3862(11) 0.6569(6) 0.0522(17) Uani 1 1 d . .
H12A H 1.0303 0.3403 0.6333 0.078 Uiso 1 1 calc R U
H12B H 0.9589 0.3706 0.7487 0.078 Uiso 1 1 calc R U
H12C H 0.9118 0.5298 0.6337 0.078 Uiso 1 1 calc R U
loop_
_atom_site_aniso_label
_atom_site_aniso_U_11
_atom_site_aniso_U_22
_atom_site_aniso_U_33
_atom_site_aniso_U_23
_atom_site_aniso_U_13
_atom_site_aniso_U_12
O1 0.090(4) 0.060(3) 0.057(3) -0.025(3) 0.021(3) -0.015(3)
O2 0.062(3) 0.079(4) 0.065(3) -0.004(3) 0.023(3) -0.018(3)
O3 0.084(4) 0.032(2) 0.048(2) -0.001(2) 0.028(2) 0.008(2)
N1 0.065(4) 0.045(3) 0.039(3) -0.002(3) 0.013(2) -0.009(3)
C1 0.065(5) 0.055(4) 0.041(3) 0.000(3) 0.016(3) 0.008(3)
C2 0.073(5) 0.081(6) 0.040(4) 0.001(4) 0.017(3) 0.010(4)
C3 0.081(6) 0.081(6) 0.037(3) 0.004(4) 0.016(3) -0.008(5)
C4 0.101(7) 0.067(6) 0.047(4) 0.011(3) 0.029(4) 0.013(5)
C5 0.089(6) 0.040(4) 0.046(4) 0.006(3) 0.021(4) 0.012(3)
C6 0.058(4) 0.043(3) 0.034(3) 0.002(3) 0.009(3) 0.002(3)
C7 0.058(4) 0.036(3) 0.037(3) -0.001(2) 0.013(3) 0.002(3)
C8 0.059(4) 0.030(3) 0.041(3) -0.002(3) 0.017(3) 0.001(3)
C9 0.051(3) 0.032(3) 0.040(3) -0.005(3) 0.014(2) -0.007(3)
C10 0.065(4) 0.046(4) 0.041(3) 0.000(3) 0.016(3) -0.007(3)
C11 0.078(5) 0.059(5) 0.042(3) 0.007(3) 0.015(3) -0.004(4)
C12 0.075(5) 0.034(3) 0.042(3) -0.006(3) 0.011(3) -0.008(3)
loop_
_atom_type_symbol
_atom_type_description
_atom_type_scat_dispersion_real
_atom_type_scat_dispersion_imag
_atom_type_scat_source
C C 0.0181 0.0091 'International Tables Vol C Tables 4.2.6.8 and 6.1.1.4'
H H 0.0000 0.0000 'International Tables Vol C Tables 4.2.6.8 and 6.1.1.4'
N N 0.0311 0.0180 'International Tables Vol C Tables 4.2.6.8 and 6.1.1.4'
O O 0.0492 0.0322 'International Tables Vol C Tables 4.2.6.8 and 6.1.1.4'
loop_
_geom_angle_atom_site_label_1
_geom_angle_atom_site_label_2
_geom_angle_atom_site_label_3
_geom_angle
O1 N1 O2 122.8(6)
O1 N1 C9 119.3(6)
O2 N1 C9 117.9(6)
C2 C1 C6 120.0
C1 C2 C3 120.0
C2 C3 C4 120.0
C5 C4 C3 120.0
C6 C5 C4 120.0
C5 C6 C1 120.0
C5 C6 C7 118.6(3)
C1 C6 C7 121.4(3)
O3 C7 C8 121.0(5)
O3 C7 C6 120.0(5)
C8 C7 C6 118.9(5)
C7 C8 C9 112.6(5)
C7 C8 C12 107.7(5)
C9 C8 C12 109.6(5)
N1 C9 C10 107.4(5)
N1 C9 C8 109.6(5)
C10 C9 C8 113.5(5)
C11 C10 C9 114.0(6)
loop_
_geom_bond_atom_site_label_1
_geom_bond_atom_site_label_2
_geom_bond_distance
O1 N1 1.217(8)
O2 N1 1.253(9)
O3 C7 1.227(8)
N1 C9 1.501(8)
C1 C2 1.3900
C1 C6 1.3900
C2 C3 1.3900
C3 C4 1.3900
C4 C5 1.3900
C5 C6 1.3900
C6 C7 1.504(7)
C7 C8 1.500(9)
C8 C9 1.531(8)
C8 C12 1.531(9)
C9 C10 1.523(9)
C10 C11 1.524(9)
loop_
_geom_torsion_atom_site_label_1
_geom_torsion_atom_site_label_2
_geom_torsion_atom_site_label_3
_geom_torsion_atom_site_label_4
_geom_torsion
C6 C1 C2 C3 0.0
C1 C2 C3 C4 0.0
C2 C3 C4 C5 0.0
C3 C4 C5 C6 0.0
C4 C5 C6 C1 0.0
C4 C5 C6 C7 179.1(5)
C2 C1 C6 C5 0.0
C2 C1 C6 C7 -179.1(5)
C5 C6 C7 O3 9.2(8)
C1 C6 C7 O3 -171.7(6)
C5 C6 C7 C8 -166.6(5)
C1 C6 C7 C8 12.5(8)
O3 C7 C8 C9 19.8(9)
C6 C7 C8 C9 -164.5(5)
O3 C7 C8 C12 -101.2(8)
C6 C7 C8 C12 74.6(7)
O1 N1 C9 C10 97.9(8)
O2 N1 C9 C10 -78.8(7)
O1 N1 C9 C8 -138.4(6)
O2 N1 C9 C8 44.9(8)
C7 C8 C9 N1 54.6(7)
C12 C8 C9 N1 174.4(5)
C7 C8 C9 C10 174.5(6)
C12 C8 C9 C10 -65.6(7)
N1 C9 C10 C11 -60.8(8)
C8 C9 C10 C11 177.9(6)
