#------------------------------------------------------------------------------
#$Date: 2016-02-14 16:26:36 +0200 (Sun, 14 Feb 2016) $
#$Revision: 176435 $
#$URL: svn://www.crystallography.net/cod/cif/1/51/62/1516203.cif $
#------------------------------------------------------------------------------
#
# This file is available in the Crystallography Open Database (COD),
# http://www.crystallography.net/
#
# All data on this site have been placed in the public domain by the
# contributors.
#
data_1516203
loop_
_publ_author_name
'Migliorati, Valentina'
'Ballirano, Paolo'
'Gontrani, Lorenzo'
'Russina, Olga'
'Caminiti, Ruggero'
_publ_section_title
;
 Crystal polymorphism of propylammonium chloride and structural properties
 of its mixture with water.
;
_journal_issue                   41
_journal_name_full               'The journal of physical chemistry. B'
_journal_page_first              11805
_journal_page_last               11815
_journal_paper_doi               10.1021/jp206831d
_journal_volume                  115
_journal_year                    2011
_chemical_formula_sum            'C3 Cl N'
_chemical_formula_weight         85.49
_chemical_name_systematic        ' ?'
_space_group_IT_number           129
_symmetry_cell_setting           tetragonal
_symmetry_space_group_name_Hall  '-P 4a 2a'
_symmetry_space_group_name_H-M   'P 4/n m m :2'
_audit_creation_date             2011-07-21T08:57
_audit_creation_method           'from EXP file using GSAS2CIF'
_audit_update_record
' 2011-07-21T08:57  Initial CIF as created by GSAS2CIF'
_cell_angle_alpha                90.0
_cell_angle_beta                 90.0
_cell_angle_gamma                90.0
_cell_formula_units_Z            2
_cell_length_a                   6.27406(7)
_cell_length_b                   6.27406
_cell_length_c                   7.41752(18)
_cell_volume                     291.982(8)
_computing_structure_refinement  GSAS
_diffrn_radiation_probe          x-ray
_exptl_absorpt_correction_T_max  0.81791
_exptl_absorpt_correction_T_min  0.81483
_exptl_absorpt_process_details
;   GSAS Absorption/surface roughness correction: function number 0
 Debye-Scherrer absorption correction
Term (= MU.r/wave) =     0.78580E-01
Correction is not refined.
;
_pd_block_id                     2011-07-21T08:57|95|paolo|Bruker_AXS_D8_Advance
_pd_calc_method                  'Rietveld Refinement'
_pd_instr_location               ' ?'
_pd_meas_2theta_range_inc        0.022
_pd_meas_2theta_range_max        89.988
_pd_meas_2theta_range_min        3.0
_pd_meas_number_of_points        3955
_pd_phase_name                   'Propylammonium chloride'
_pd_proc_2theta_range_inc        0.022
_pd_proc_2theta_range_max        89.988
_pd_proc_2theta_range_min        3.0
_pd_proc_info_datetime           2011-07-21T08:57:40
_pd_proc_info_excluded_regions   ' ?'
_pd_proc_ls_background_function
;   GSAS Background function number 1 with 30 terms.
 Shifted Chebyshev function of 1st kind
      1:    522.869     2:   -332.871     3:    29.3026     4:    82.8779    
      5:   -75.9864     6:   0.415912     7:    70.6782     8:   -77.0232    
      9:    33.8258    10:    11.6813    11:   -31.4177    12:    26.9501    
     13:   -6.69947    14:   -8.21188    15:    2.21351    16:    2.01251    
     17:   -3.75645    18:  -4.943770E-0219:   0.624772    20:    1.32008    
     21:   -6.54174    22:    3.44186    23:   -1.51118    24:   -1.12307    
     25:    3.30520    26:   -1.95040    27:   -1.28165    28:    1.74721    
     29:   -1.79241    30:    1.67979    
;
_pd_proc_ls_peak_cutoff          0.00100
_pd_proc_ls_profile_function
;
 CW Profile function number 3 with  19 terms
 Pseudovoigt profile coefficients as parameterized in
 P. Thompson, D.E. Cox & J.B. Hastings (1987). J. Appl. Cryst.,20,79-83.
 Asymmetry correction of L.W. Finger, D.E. Cox & A. P. Jephcoat (1994).
 J. Appl. Cryst.,27,892-900.
 Peak tails are ignored  where the intensity is below 0.0010 times the peak
   Aniso. broadening axis   0.0   1.0   0.0
;
_pd_proc_ls_prof_R_factor        0.0424
_pd_proc_ls_prof_wR_expected     0.0406
_pd_proc_ls_prof_wR_factor       0.0554
_pd_proc_number_of_points        3955
_pd_spec_mounting                ' ?'
_refine_ls_goodness_of_fit_all   1.38
_refine_ls_matrix_type           full
_refine_ls_number_parameters     47
_refine_ls_number_restraints     8
_refine_ls_R_Fsqd_factor         0.13867
_refine_ls_shift/su_max          0.09
_refine_ls_shift/su_mean         0.01
_reflns_d_resolution_high        1.097
_reflns_d_resolution_low         7.418
_reflns_limit_h_max              5
_reflns_limit_h_min              0
_reflns_limit_k_max              4
_reflns_limit_k_min              0
_reflns_limit_l_max              6
_reflns_limit_l_min              0
_reflns_number_total             174
_cod_data_source_file            368K.cif
_cod_data_source_block           95_publ
_cod_depositor_comments
;
The following automatic conversions were performed:

'_geom_bond_publ_flag' value 'N' changed to 'n' according to
/usr/data/users/saulius/automatic-downloads/retrospective/ACS/lib/dictionaries/cif_core.dic
dictionary named 'cif_core.dic' version 2.4.2 from 2011-04-26 (24
times).

'_geom_angle_publ_flag' value 'N' changed to 'n' according
to
/usr/data/users/saulius/automatic-downloads/retrospective/ACS/lib/dictionaries/cif_core.dic
dictionary named 'cif_core.dic' version 2.4.2 from 2011-04-26 (68
times).

Automatic conversion script
Id: cif_fix_values 2281 2013-09-26 08:29:07Z andrius 
;
_cod_original_cell_volume        291.982(9)
_cod_original_sg_symbol_H-M      'p 4/n m m'
_cod_original_formula_sum        'C3.00 Cl N'
_cod_database_code               1516203
#BEGIN Tags that were not found in dictionaries:
_gsas_exptl_extinct_corr_t_min   1.00000
_gsas_exptl_extinct_corr_t_max   1.00000
#END Tags that were not found in dictionaries
loop_
_symmetry_equiv_pos_site_id
_symmetry_equiv_pos_as_xyz
1 +x,+y,+z
2 -y+1/2,+x,+z
3 -x+1/2,-y+1/2,+z
4 +y,-x+1/2,+z
5 -x+1/2,+y,+z
6 -y+1/2,-x+1/2,+z
7 +x,-y+1/2,+z
8 +y,+x,+z
-1 -x,-y,-z
-2 +y+1/2,-x,-z
-3 +x+1/2,+y+1/2,-z
-4 -y,+x+1/2,-z
-5 +x+1/2,-y,-z
-6 +y+1/2,+x+1/2,-z
-7 -x,+y+1/2,-z
-8 -y,-x,-z
loop_
_atom_site_type_symbol
_atom_site_label
_atom_site_fract_x
_atom_site_fract_y
_atom_site_fract_z
_atom_site_occupancy
_atom_site_thermal_displace_type
_atom_site_U_iso_or_equiv
_atom_site_symmetry_multiplicity
Cl CL1 0.25 -0.25 0.0 1.0 Uiso 0.1187(9) 2
C C(1) 0.25 0.3328(6) 0.29192(31) 0.25 Uiso 0.0726(16) 8
N N 0.25 0.25 0.10678(27) 1.0 Uiso 0.0726(16) 2
C C(2) 0.25 0.1495(5) 0.43025(27) 0.25 Uiso 0.0726(16) 8
C C(3) 0.25 0.25 0.6216(4) 1.0 Uiso 0.0726(16) 2
loop_
_atom_type_symbol
_atom_type_number_in_cell
_atom_type_scat_dispersion_real
_atom_type_scat_dispersion_imag
_atom_type_scat_Cromer_Mann_a1
_atom_type_scat_Cromer_Mann_a2
_atom_type_scat_Cromer_Mann_a3
_atom_type_scat_Cromer_Mann_a4
_atom_type_scat_Cromer_Mann_b1
_atom_type_scat_Cromer_Mann_b2
_atom_type_scat_Cromer_Mann_b3
_atom_type_scat_Cromer_Mann_b4
_atom_type_scat_Cromer_Mann_c
_atom_type_scat_source
Cl 2.0 0.000 0.000 11.4604 0.01040 7.19640 1.16620 6.25560 18.5194 1.64550
47.7784 -9.5574 International_Tables_Vol_C
C 6.0 0.000 0.000 2.31000 20.8439 1.02000 10.2075 1.58860 0.56870 0.86500
51.6512 0.21560 International_Tables_Vol_C
N 2.0 0.000 0.000 12.2126 0.00570 3.13220 9.89330 2.01250 28.9975 1.16630
0.58260 -11.529 International_Tables_Vol_C
loop_
_diffrn_radiation_wavelength
_diffrn_radiation_wavelength_wt
_diffrn_radiation_type
_diffrn_radiation_wavelength_id
1.540598 1.000 K\a~1~ 1
1.544390 0.500 K\a~2~ 2
loop_
_geom_angle_atom_site_label_1
_geom_angle_atom_site_label_2
_geom_angle_atom_site_label_3
_geom_angle
_geom_angle_site_symmetry_1
_geom_angle_site_symmetry_3
_geom_angle_publ_flag
C(1) C(1) C(1) 45.0 2_555 3_555 n
C(1) C(1) C(1) 90.0 2_555 4_555 n
C(1) C(1) N 75.52(9) 2_555 1_555 n
C(1) C(1) C(2) 58.16(8) 2_555 1_555 n
C(1) C(1) C(2) 93.44(15) 2_555 2_555 n
C(1) C(1) C(2) 94.37(19) 2_555 3_555 n
C(1) C(1) C(2) 51.69(14) 2_555 4_555 n
C(1) C(1) C(1) 45.0 3_555 4_555 n
C(1) C(1) N 69.29(13) 3_555 1_555 n
C(1) C(1) C(2) 41.75(14) 3_555 1_555 n
C(1) C(1) C(2) 66.68(15) 3_555 2_555 n
C(1) C(1) C(2) 96.19(26) 3_555 3_555 n
C(1) C(1) C(2) 66.68(15) 3_555 4_555 n
C(1) C(1) N 75.52(9) 4_555 1_555 n
C(1) C(1) C(2) 58.16(8) 4_555 1_555 n
C(1) C(1) C(2) 51.69(14) 4_555 2_555 n
C(1) C(1) C(2) 94.37(19) 4_555 3_555 n
C(1) C(1) C(2) 93.44(15) 4_555 4_555 n
N C(1) C(2) 111.04(24) 1_555 1_555 n
N C(1) C(2) 126.28(23) 1_555 2_555 n
N C(1) C(2) 165.5(4) 1_555 3_555 n
N C(1) C(2) 126.28(23) 1_555 4_555 n
C(2) C(1) C(2) 35.28(16) 1_555 2_555 n
C(2) C(1) C(2) 54.44(30) 1_555 3_555 n
C(2) C(1) C(2) 35.28(16) 1_555 4_555 n
C(2) C(1) C(2) 42.68(22) 2_555 3_555 n
C(2) C(1) C(2) 57.47(28) 2_555 4_555 n
C(2) C(1) C(2) 42.68(22) 3_555 4_555 n
C(1) N C(1) 28.96(18) 1_555 2_555 n
C(1) N C(1) 41.42(27) 1_555 3_555 n
C(1) N C(1) 28.96(18) 1_555 4_555 n
C(1) N C(1) 28.96(18) 2_555 3_555 n
C(1) N C(1) 41.42(27) 2_555 4_555 n
C(1) N C(1) 28.96(18) 3_555 4_555 n
C(1) C(2) C(1) 28.40(17) 1_555 2_555 n
C(1) C(2) C(1) 42.07(30) 1_555 3_555 n
C(1) C(2) C(1) 28.40(17) 1_555 4_555 n
C(1) C(2) C(2) 58.16(8) 1_555 2_555 n
C(1) C(2) C(2) 41.75(14) 1_555 3_555 n
C(1) C(2) C(2) 58.16(8) 1_555 4_555 n
C(1) C(2) C(3) 107.80(22) 1_555 1_555 n
C(1) C(2) C(1) 33.94(24) 2_555 3_555 n
C(1) C(2) C(1) 46.65(30) 2_555 4_555 n
C(1) C(2) C(2) 86.56(15) 2_555 2_555 n
C(1) C(2) C(2) 61.27(14) 2_555 3_555 n
C(1) C(2) C(2) 51.69(14) 2_555 4_555 n
C(1) C(2) C(3) 121.32(22) 2_555 1_555 n
C(1) C(2) C(1) 33.94(24) 3_555 4_555 n
C(1) C(2) C(2) 85.63(19) 3_555 2_555 n
C(1) C(2) C(2) 83.81(26) 3_555 3_555 n
C(1) C(2) C(2) 85.63(19) 3_555 4_555 n
C(1) C(2) C(3) 149.86(35) 3_555 1_555 n
C(1) C(2) C(2) 51.69(14) 4_555 2_555 n
C(1) C(2) C(2) 61.27(14) 4_555 3_555 n
C(1) C(2) C(2) 86.56(15) 4_555 4_555 n
C(1) C(2) C(3) 121.32(22) 4_555 1_555 n
C(2) C(2) C(2) 45.0 2_555 3_555 n
C(2) C(2) C(2) 90.0 2_555 4_555 n
C(2) C(2) C(3) 73.32(8) 2_555 1_555 n
C(2) C(2) C(2) 45.0 3_555 4_555 n
C(2) C(2) C(3) 66.05(12) 3_555 1_555 n
C(2) C(2) C(3) 73.32(8) 4_555 1_555 n
C(2) C(3) C(2) 33.36(16) 1_555 2_555 n
C(2) C(3) C(2) 47.90(24) 1_555 3_555 n
C(2) C(3) C(2) 33.36(16) 1_555 4_555 n
C(2) C(3) C(2) 33.36(16) 2_555 3_555 n
C(2) C(3) C(2) 47.90(24) 2_555 4_555 n
C(2) C(3) C(2) 33.36(16) 3_555 4_555 n
loop_
_geom_bond_atom_site_label_1
_geom_bond_atom_site_label_2
_geom_bond_distance
_geom_bond_site_symmetry_2
_geom_bond_publ_flag
C(1) C(1) 0.734(5) 2_555 n
C(1) C(1) 1.038(7) 3_555 n
C(1) C(1) 0.734(5) 4_555 n
C(1) N 1.4682(31) 1_555 n
C(1) C(2) 1.541(4) 1_555 n
C(1) C(2) 1.3115(31) 2_555 n
C(1) C(2) 1.0321(31) 3_555 n
C(1) C(2) 1.3115(31) 4_555 n
N C(1) 1.4682(31) 1_555 n
N C(1) 1.4682(31) 2_555 n
N C(1) 1.4682(31) 3_555 n
N C(1) 1.4682(31) 4_555 n
C(2) C(1) 1.541(4) 1_555 n
C(2) C(1) 1.3115(31) 2_555 n
C(2) C(1) 1.0321(31) 3_555 n
C(2) C(1) 1.3115(31) 4_555 n
C(2) C(2) 0.892(5) 2_555 n
C(2) C(2) 1.261(6) 3_555 n
C(2) C(2) 0.892(5) 4_555 n
C(2) C(3) 1.5532(33) 1_555 n
C(3) C(2) 1.5532(33) 1_555 n
C(3) C(2) 1.5532(33) 2_555 n
C(3) C(2) 1.5532(33) 3_555 n
C(3) C(2) 1.5532(33) 4_555 n
loop_
_pd_meas_counts_total
_pd_proc_ls_weight
_pd_proc_intensity_bkg_calc
_pd_calc_intensity_total
21181.0 0.0 -34833108.00000 .
20661.0 0.0 -33959436.00000 .
19870.0 0.0 -33106286.00000 .
19179.0 0.0 -32273162.00000 .
18738.0 0.0 -31459652.00000 .
18003.0 0.0 -30665310.00000 .
17219.0 0.0 -29889744.00000 .
16544.0 0.0 -29132512.00000 .
16131.0 0.0 -28393212.00000 .
15583.0 0.0 -27671464.00000 .
14964.0 0.0 -26966868.00000 .
14743.0 0.0 -26279030.00000 .
14128.0 0.0 -25607600.00000 .
13846.0 0.0 -24952214.00000 .
13335.0 0.0 -24312484.00000 .
12936.0 0.0 -23688092.00000 .
12510.0 0.0 -23078670.00000 .
12326.0 0.0 -22483930.00000 .
11780.0 0.0 -21903490.00000 .
11417.0 0.0 -21337050.00000 .
11156.0 0.0 -20784290.00000 .
10729.0 0.0 -20244906.00000 .
10356.0 0.0 -19718600.00000 .
10280.0 0.0 -19205064.00000 .
9727.0 0.0 -18704022.00000 .
9500.0 0.0 -18215190.00000 .
9578.0 0.0 -17738270.00000 .
9003.0 0.0 -17273018.00000 .
8856.0 0.0 -16819160.00000 .
8666.0 0.0 -16376433.00000 .
8513.0 0.0 -15944582.00000 .
8258.0 0.0 -15523349.00000 .
8001.0 0.0 -15112514.00000 .
7949.0 0.0 -14711821.00000 .
7653.0 0.0 -14321038.00000 .
7544.0 0.0 -13939943.00000 .
7331.0 0.0 -13568303.00000 .
7163.0 0.0 -13205906.00000 .
7059.0 0.0 -12852538.00000 .
6997.0 0.0 -12507987.00000 .
6613.0 0.0 -12172043.00000 .
6572.0 0.0 -11844517.00000 .
6474.0 0.0 -11525207.00000 .
6278.0 0.0 -11213920.00000 .
6136.0 0.0 -10910477.00000 .
6181.0 0.0 -10614679.00000 .
6081.0 0.0 -10326361.00000 .
5893.0 0.0 -10045339.00000 .
5790.0 0.0 -9771439.00000 .
5751.0 0.0 -9504500.00000 .
5655.0 0.0 -9244358.00000 .
5449.0 0.0 -8990840.00000 .
5331.0 0.0 -8743801.00000 .
5270.0 0.0 -8503092.00000 .
5207.0 0.0 -8268548.00000 .
5043.0 0.0 -8040023.50000 .
5087.0 0.0 -7817380.00000 .
4952.0 0.0 -7600486.00000 .
4942.0 0.0 -7389181.50000 .
5015.0 0.0 -7183351.00000 .
4715.0 0.0 -6982853.50000 .
4715.0 0.0 -6787568.50000 .
4606.0 0.0 -6597360.50000 .
4621.0 0.0 -6412112.50000 .
4453.0 0.0 -6231704.00000 .
4441.0 0.0 -6056020.00000 .
4315.0 0.0 -5884938.00000 .
4298.0 0.0 -5718352.50000 .
4264.0 0.0 -5556150.00000 .
4271.0 0.0 -5398231.50000 .
4134.0 0.0 -5244476.50000 .
4086.0 0.0 -5094795.50000 .
4030.0 0.0 -4949086.50000 .
3950.0 0.0 -4807254.00000 .
4008.0 0.0 -4669196.50000 .
3975.0 0.0 -4534820.50000 .
3906.0 0.0 -4404039.00000 .
3877.0 0.0 -4276761.50000 .
3798.0 0.0 -4152897.25000 .
3793.0 0.0 -4032367.50000 .
3704.0 0.0 -3915085.75000 .
3637.0 0.0 -3800970.25000 .
3594.0 0.0 -3689945.25000 .
3546.0 0.0 -3581927.75000 .
3461.0 0.0 -3476846.50000 .
3554.0 0.0 -3374627.00000 .
3512.0 0.0 -3275193.25000 .
3391.0 0.0 -3178482.00000 .
3469.0 0.0 -3084419.00000 .
3270.0 0.0 -2992937.00000 .
3333.0 0.0 -2903970.50000 .
3376.0 0.0 -2817455.50000 .
3364.0 0.0 -2733334.25000 .
3104.0 0.0 -2651541.50000 .
3232.0 0.0 -2572015.50000 .
3156.0 0.0 -2494699.50000 .
3246.0 0.0 -2419540.50000 .
3199.0 0.0 -2346476.00000 .
3087.0 0.0 -2275458.00000 .
2965.0 0.0 -2206433.00000 .
3020.0 0.0 -2139344.75000 .
3028.0 0.0 -2074146.75000 .
2981.0 0.0 -2010785.50000 .
2925.0 0.0 -1949220.50000 .
2975.0 0.0 -1889402.62500 .
2980.0 0.0 -1831277.75000 .
2851.0 0.0 -1774811.87500 .
2791.0 0.0 -1719953.75000 .
2788.0 0.0 -1666666.12500 .
2813.0 0.0 -1614907.25000 .
2822.0 0.0 -1564632.87500 .
2738.0 0.0 -1515808.25000 .
2785.0 0.0 -1468389.25000 .
2740.0 0.0 -1422343.25000 .
2700.0 0.0 -1377634.50000 .
2705.0 0.0 -1334220.50000 .
2702.0 0.0 -1292073.50000 .
2640.0 0.0 -1251154.25000 .
2662.0 0.0 -1211434.00000 .
2603.0 0.0 -1172880.00000 .
2689.0 0.0 -1135455.25000 .
2517.0 0.0 -1099135.62500 .
2553.0 0.0 -1063887.50000 .
2538.0 0.0 -1029682.93750 .
2492.0 0.0 -996494.62500 .
2465.0 0.0 -964291.00000 .
2399.0 0.0 -933049.62500 .
2384.0 0.0 -902739.81250 .
2400.0 0.0 -873338.50000 .
2451.0 0.0 -844822.25000 .
2389.0 0.0 -817161.81250 .
2296.0 0.0 -790337.87500 .
2282.0 0.0 -764323.43750 .
2273.0 0.0 -739098.87500 .
2362.0 0.0 -714642.62500 .
2368.0 0.0 -690929.75000 .
2338.0 0.0 -667942.43750 .
2278.0 0.0 -645658.18750 .
2300.0 0.0 -624058.81250 .
2282.0 0.0 -603125.62500 .
2238.0 0.0 -582836.87500 .
2290.0 0.0 -563176.87500 .
2266.0 0.0 -544125.12500 .
2137.0 0.0 -525666.87500 .
2153.0 0.0 -507785.46875 .
2142.0 0.0 -490461.40625 .
2209.0 0.0 -473681.87500 .
2137.0 0.0 -457428.43750 .
2141.0 0.0 -441687.31250 .
2056.0 0.0 -426444.84375 .
2040.0 0.0 -411683.68750 .
2043.0 0.0 -397392.59375 .
2091.0 0.0 -383555.56250 .
2015.0 0.0 -370161.37500 .
1985.0 0.0 -357196.53125 .
1929.0 0.0 -344646.84375 .
2033.0 0.0 -332501.78125 .
1925.0 0.0 -320748.46875 .
2021.0 0.0 -309376.31250 .
1983.0 0.0 -298373.59375 .
1967.0 0.0 -287728.50000 .
1929.0 0.0 -277431.46875 .
1923.0 0.0 -267471.15625 .
1883.0 0.0 -257837.93750 .
1907.0 0.0 -248522.81250 .
1907.0 0.0 -239514.29688 .
1860.0 0.0 -230804.85938 .
1884.0 0.0 -222384.15625 .
1816.0 0.0 -214244.07813 .
1750.0 0.0 -206376.59375 .
1846.0 0.0 -198772.29688 .
1746.0 0.0 -191423.76563 .
1747.0 0.0 -184322.65625 .
1779.0 0.0 -177461.90625 .
1758.0 0.0 -170834.14063 .
1708.0 0.0 -164431.34375 .
1729.0 0.0 -158247.18750 .
1787.0 0.0 -152274.70313 .
1769.0 0.0 -146507.14063 .
1749.0 0.0 -140938.70313 .
1677.0 0.0 -135562.00000 .
1684.0 0.0 -130372.07813 .
1755.0 0.0 -125362.17969 .
1638.0 0.0 -120527.16406 .
1662.0 0.0 -115861.57031 .
1651.0 0.0 -111359.28906 .
1673.0 0.0 -107015.89844 .
1531.0 0.0 -102825.56250 .
1605.0 0.0 -98784.00781 .
1599.0 0.0 -94886.23438 .
1602.0 0.0 -91127.24219 .
1577.0 0.0 -87502.90625 .
1571.0 0.0 -84008.60156 .
1522.0 0.0 -80640.37500 .
1576.0 0.0 -77394.05469 .
1494.0 0.0 -74265.20313 .
1541.0 0.0 -71250.40625 .
1451.0 0.0 -68345.55469 .
1515.0 0.0 -65547.28906 .
1526.0 0.0 -62852.14844 .
1470.0 0.0 -60256.20313 .
1443.0 0.0 -57756.56641 .
1388.0 0.0 -55349.73438 .
1467.0 0.0 -53032.67578 .
1382.0 0.0 -50802.54688 .
1467.0 0.0 -48656.05469 .
1452.0 0.0 -46590.63281 .
1428.0 0.0 -44603.27734 .
1421.0 0.0 -42691.48438 .
1396.0 0.0 -40852.68750 .
1368.0 0.0 -39084.08984 .
1401.0 0.0 -37383.55859 .
1391.0 0.0 -35748.56641 .
1408.0 0.0 -34176.87109 .
1401.0 0.0 -32666.32227 .
1355.0 0.0 -31214.62891 .
1365.0 0.0 -29819.86523 .
1306.0 0.0 -28479.84961 .
1370.0 0.0 -27192.77930 .
1282.0 0.0 -25956.80664 .
1331.0 0.0 -24769.91211 .
1273.0 0.0 -23630.51172 .
1347.0 0.0 -22536.77734 .
1297.0 0.0 -21487.12109 .
1220.0 0.0 -20479.95313 .
1336.0 0.0 -19513.66797 .
1288.0 0.0 -18586.82031 .
1216.0 0.0 -17697.89063 .
1273.0 0.0 -16845.56641 .
1186.0 0.0 -16028.53613 .
1152.0 0.0 -15245.30371 .
1145.0 0.0 -14494.78906 .
1225.0 0.0 -13775.65723 .
1186.0 0.0 -13086.76953 .
1214.0 0.0 -12427.04004 .
1169.0 0.0 -11795.23047 .
1186.0 0.0 -11190.40332 .
1112.0 0.0 -10611.43262 .
1143.0 0.0 -10057.41699 .
1130.0 0.0 -9527.34766 .
1087.0 0.0 -9020.28711 .
1147.0 0.0 -8535.38086 .
1032.0 0.0 -8071.68994 .
1102.0 0.0 -7628.46387 .
1081.0 0.0 -7204.89551 .
1080.0 0.0 -6800.12646 .
1020.0 0.0 -6413.49463 .
1153.0 0.0 -6044.23047 .
1100.0 0.0 -5691.65332 .
1084.0 0.0 -5355.09961 .
1095.0 0.0 -5033.90479 .
1079.0 0.0 -4727.46582 .
1010.0 0.0 -4435.14307 .
1041.0 0.0 -4156.40039 .
1064.0 0.0 -3890.66772 .
1024.0 0.0 -3637.38477 .
1034.0 0.0 -3396.05249 .
1009.0 0.0 -3166.16309 .
1024.0 0.0 -2947.24512 .
971.0 0.0 -2738.84790 .
1011.0 0.0 -2540.48242 .
961.0 0.0 -2351.76392 .
951.0 0.0 -2172.25586 .
963.0 0.0 -2001.56555 .
981.0 0.0 -1839.32397 .
1005.0 0.0 -1685.14795 .
1005.0 0.0 -1538.69397 .
964.0 0.0 -1399.61047 .
975.0 0.0 -1267.58862 .
947.0 0.0 -1142.30908 .
917.0 0.0 -1023.46094 .
969.0 0.0 -910.76123 .
978.0 0.0 -803.93329 .
960.0 0.0 -702.71051 .
916.0 0.0 -606.84314 .
930.0 0.0 -516.06665 .
950.0 0.0 -430.16382 .
939.0 0.0 -348.89719 .
945.0 0.0 -272.05380 .
886.0 0.0 -199.42593 .
946.0 0.0 -130.81258 .
980.0 0.0 -66.02369 .
952.0 0.0 -4.87065 .
921.0 0.0 52.81569 .
946.0 0.0 107.20148 .
952.0 0.0 158.45850 .
894.0 0.0 206.73047 .
943.0 0.0 252.17209 .
937.0 0.0 294.92139 .
905.0 0.0 335.11057 .
936.0 0.0 372.87759 .
955.0 0.0 408.33740 .
925.0 0.0 441.61353 .
905.0 0.0 472.81671 .
911.0 0.0 502.05402 .
910.0 0.0 529.43005 .
982.0 0.0 555.04169 .
896.0 0.0 578.98535 .
841.0 0.0 601.34753 .
898.0 0.0 622.21326 .
991.0 0.0 641.66766 .
907.0 0.0 659.78467 .
817.0 0.0 676.64038 .
862.0 0.0 692.30426 .
882.0 0.0 706.84326 .
905.0 0.0 720.32184 .
861.0 0.0 732.79999 .
888.0 0.0 744.33667 .
895.0 0.0 754.98517 .
883.0 0.0 764.79834 .
923.0 0.0 773.82611 .
898.0 0.0 782.11523 .
901.0 0.0 789.71088 .
833.0 0.0 796.65466 .
882.0 0.0 802.98633 .
880.0 0.0 808.74579 .
842.0 0.0 813.96747 .
840.0 0.0 818.68634 .
818.0 0.001222 822.93445 822.93365
809.0 0.001236 826.74237 826.74170
847.0 0.001181 830.13934 830.13873
816.0 0.001225 833.15234 833.15179
905.0 0.001105 835.80762 835.80719
816.0 0.001225 838.12909 838.12866
845.0 0.001183 840.14001 840.13965
824.0 0.001214 841.86206 841.86169
824.0 0.001214 843.31555 843.31531
899.0 0.001112 844.51984 844.51959
869.0 0.001151 845.49298 845.49274
844.0 0.001185 846.25183 846.25165
891.0 0.001122 846.81268 846.81250
834.0 0.001199 847.19037 847.19019
792.0 0.001263 847.39893 847.39880
841.0 0.001189 847.45178 847.45166
873.0 0.001145 847.36108 847.36096
894.0 0.001119 847.13855 847.13843
819.0 0.001221 846.79498 846.79486
891.0 0.001122 846.34045 846.34033
815.0 0.001227 845.78448 845.78436
818.0 0.001222 845.13586 845.13574
858.0 0.001166 844.40277 844.40265
827.0 0.001209 843.59277 843.59265
871.0 0.001148 842.71313 842.71301
824.0 0.001214 841.77026 841.77014
814.0 0.001229 840.77051 840.77032
819.0 0.001221 839.71930 839.71912
832.0 0.001202 838.62195 838.62177
774.0 0.001292 837.48328 837.48309
829.0 0.001206 836.30774 836.30756
787.0 0.001271 835.09955 835.09930
815.0 0.001227 833.86230 833.86206
833.0 0.001200 832.59955 832.59924
805.0 0.001242 831.31445 831.31415
830.0 0.001205 830.00989 830.00964
866.0 0.001155 828.68866 828.68835
813.0 0.001230 827.35284 827.35254
806.0 0.001241 826.00482 826.00452
819.0 0.001221 824.64667 824.64636
852.0 0.001174 823.27991 823.27954
846.0 0.001182 821.90643 821.90607
812.0 0.001232 820.52753 820.52716
851.0 0.001175 819.14447 819.14404
844.0 0.001185 817.75836 817.75793
801.0 0.001248 816.37036 816.36993
853.0 0.001172 814.98126 814.98083
859.0 0.001164 813.59198 813.59155
837.0 0.001195 812.20288 815.40112
776.0 0.001289 810.81494 815.74371
804.0 0.001244 809.42847 814.61591
800.0 0.001250 808.04401 813.51105
768.0 0.001302 806.66174 812.43170
851.0 0.001175 805.28210 811.38098
769.0 0.001300 803.90533 810.36212
802.0 0.001247 802.53149 809.37878
751.0 0.001332 801.16107 808.43536
835.0 0.001198 799.79388 807.53662
798.0 0.001253 798.42999 806.68823
820.0 0.001220 797.06964 805.89667
795.0 0.001258 795.71265 805.16968
831.0 0.001203 794.35925 804.51660
845.0 0.001183 793.00934 803.94800
815.0 0.001227 791.66266 803.47705
837.0 0.001195 790.31952 803.11981
812.0 0.001232 788.97968 802.89563
811.0 0.001233 787.64307 802.82825
864.0 0.001157 786.30975 802.94781
809.0 0.001236 784.97955 803.29156
830.0 0.001205 783.65247 803.90735
866.0 0.001155 782.32831 804.85699
834.0 0.001199 781.00726 806.22119
799.0 0.001252 779.68915 808.10791
871.0 0.001148 778.37378 810.66388
805.0 0.001242 777.06140 814.09290
919.0 0.001088 775.75177 818.68768
926.0 0.001080 774.44501 824.88263
920.0 0.001087 773.14105 833.38806
899.0 0.001112 771.83972 845.65747
989.0 0.001011 770.54138 865.48230
948.0 0.001055 769.24579 902.48541
988.0 0.001012 767.95300 975.44238
1124.0 0.000890 766.66321 1108.76099
1275.0 0.000784 765.37634 1323.56177
1536.0 0.000651 764.09259 1635.18848
1910.0 0.000524 762.81183 2070.78662
2550.0 0.000392 761.53442 2694.26392
3602.0 0.0002776 760.26025 3604.54810
4761.0 0.0002100 758.98950 4782.46240
5748.0 0.0001740 757.72241 5762.94678
5663.0 0.0001766 756.45898 5661.72559
4217.0 0.0002371 755.19946 4362.78711
2592.0 0.000386 753.94391 2782.14478
1600.0 0.000625 752.69257 1697.30249
1050.0 0.000952 751.44562 1188.06677
933.0 0.001072 750.20319 993.35297
858.0 0.001166 748.96558 914.33649
805.0 0.001242 747.73291 871.90082
821.0 0.001218 746.50543 843.89539
803.0 0.001245 745.28339 823.79572
786.0 0.001272 744.06689 808.72333
763.0 0.001311 742.85632 797.03949
746.0 0.001340 741.65192 787.72406
785.0 0.001274 740.45367 780.11493
747.0 0.001339 739.26221 773.76794
742.0 0.001348 738.07745 768.37451
738.0 0.001355 736.89996 763.71637
715.0 0.001399 735.72968 759.63446
739.0 0.001353 734.56702 756.01099
757.0 0.001321 733.41229 752.75793
774.0 0.001292 732.26563 749.80719
791.0 0.001264 731.12744 747.10663
735.0 0.001361 729.99786 744.61499
782.0 0.001279 728.87726 742.29962
704.0 0.001420 727.76575 740.13446
726.0 0.001377 726.66370 738.09827
714.0 0.001401 725.57135 736.17407
754.0 0.001326 724.48895 734.34747
722.0 0.001385 723.41669 732.60681
774.0 0.001292 722.35498 730.94257
719.0 0.001391 721.30383 729.34637
714.0 0.001401 720.26367 727.81146
692.0 0.001445 719.23468 726.33215
706.0 0.001416 718.21698 724.90332
767.0 0.001304 717.21100 723.52094
748.0 0.001337 716.21674 722.18115
716.0 0.001397 715.23456 720.88123
675.0 0.001481 714.26465 719.61823
764.0 0.001309 713.30713 718.38995
711.0 0.001406 712.36224 717.19434
701.0 0.001427 711.43018 716.02960
704.0 0.001420 710.51111 712.03076
723.0 0.001383 709.60522 709.60516
710.0 0.001408 708.71259 708.71252
669.0 0.001495 707.83350 707.83344
719.0 0.001391 706.96796 706.96790
676.0 0.001479 706.11621 706.11615
757.0 0.001321 705.27844 705.27838
736.0 0.001359 704.45459 704.45453
760.0 0.001316 703.64490 703.64484
692.0 0.001445 702.84937 702.84930
757.0 0.001321 702.06824 702.06818
696.0 0.001437 701.30151 701.30145
715.0 0.001399 700.54919 700.54919
725.0 0.001379 699.81152 699.81146
673.0 0.001486 699.08844 699.08838
708.0 0.001412 698.38000 698.38000
731.0 0.001368 697.68634 697.68634
709.0 0.001410 697.00739 697.00732
676.0 0.001479 696.34320 696.34320
693.0 0.001443 695.69379 695.69379
719.0 0.001391 695.05920 695.05920
720.0 0.001389 694.43945 694.43945
694.0 0.001441 693.83447 693.83447
653.0 0.001531 693.24426 693.24426
649.0 0.001541 692.66876 692.66876
695.0 0.001439 692.10803 692.10803
682.0 0.001466 691.56201 691.56195
701.0 0.001427 691.03052 691.03052
685.0 0.001460 690.51367 690.51367
698.0 0.001433 690.01135 690.01135
642.0 0.001558 689.52344 689.52344
687.0 0.001456 689.04993 689.04993
691.0 0.001447 688.59070 688.59064
703.0 0.001422 688.14569 688.14563
675.0 0.001481 687.71466 687.71466
708.0 0.001412 687.29773 687.29767
685.0 0.001460 686.89471 686.89465
727.0 0.001376 686.50537 686.50537
699.0 0.001431 686.12976 686.12970
719.0 0.001391 685.76764 685.76758
664.0 0.001506 685.41888 685.41888
648.0 0.001543 685.08344 685.08344
706.0 0.001416 684.76105 684.76105
697.0 0.001435 684.45166 684.45166
700.0 0.001429 684.15515 684.15509
702.0 0.001425 683.87122 683.87122
768.0 0.001302 683.59985 683.59985
711.0 0.001406 683.34082 683.34082
703.0 0.001422 683.09399 683.09393
698.0 0.001433 682.85913 682.85913
648.0 0.001543 682.63617 682.63611
690.0 0.001449 682.42487 682.42487
672.0 0.001488 682.22504 682.22504
704.0 0.001420 682.03656 682.03656
679.0 0.001473 681.85925 681.85919
681.0 0.001468 681.69281 681.69275
741.0 0.001350 681.53723 681.53717
664.0 0.001506 681.39221 681.39215
697.0 0.001435 681.25757 681.25751
685.0 0.001460 681.13318 681.13312
715.0 0.001399 681.01886 681.01874
708.0 0.001412 680.91431 680.91425
694.0 0.001441 680.81946 680.81934
733.0 0.001364 680.73407 680.73401
693.0 0.001443 680.65796 680.65790
704.0 0.001420 680.59094 680.59088
678.0 0.001475 680.53284 680.53278
708.0 0.001412 680.48352 680.48340
679.0 0.001473 680.44269 680.44257
667.0 0.001499 680.41022 680.41010
668.0 0.001497 680.38593 680.38586
705.0 0.001418 680.36963 680.36957
652.0 0.001534 680.36121 680.36108
698.0 0.001433 680.36041 680.36029
678.0 0.001475 680.36707 680.36694
684.0 0.001462 680.38098 680.38086
724.0 0.001381 680.40210 680.40198
660.0 0.001515 680.43018 680.43005
654.0 0.001529 680.46503 680.46490
661.0 0.001513 680.50653 680.50641
668.0 0.001497 680.55450 680.55438
668.0 0.001497 680.60883 680.60870
686.0 0.001458 680.66931 680.66919
648.0 0.001543 680.73590 680.73572
670.0 0.001493 680.80829 680.80811
684.0 0.001462 680.88641 680.88629
662.0 0.001511 680.97021 680.97003
678.0 0.001475 681.05945 681.05927
667.0 0.001499 681.15405 681.15387
669.0 0.001495 681.25385 681.25372
715.0 0.001399 681.35876 681.35864
689.0 0.001451 681.46869 681.46851
688.0 0.001453 681.58350 681.58331
666.0 0.001502 681.70300 681.70282
678.0 0.001475 681.82727 681.82709
697.0 0.001435 681.95605 681.95587
728.0 0.001374 682.08929 682.08911
686.0 0.001458 682.22693 682.22675
637.0 0.001570 682.36884 682.36865
640.0 0.001563 682.51501 682.51483
651.0 0.001536 682.66528 682.66510
644.0 0.001553 682.81964 682.81946
643.0 0.001555 682.97803 682.97784
653.0 0.001531 683.14032 683.14014
658.0 0.001520 683.30658 683.30634
703.0 0.001422 683.47662 683.47638
749.0 0.001335 683.65045 683.65021
691.0 0.001447 683.82800 683.82782
669.0 0.001495 684.00934 684.00909
706.0 0.001416 684.19434 684.19409
710.0 0.001408 684.38293 684.38269
698.0 0.001433 684.57520 684.57495
658.0 0.001520 684.77112 684.77087
703.0 0.001422 684.97058 684.97034
725.0 0.001379 685.17365 685.17340
725.0 0.001379 685.38031 685.38007
705.0 0.001418 685.59052 685.59033
667.0 0.001499 685.80438 685.80420
701.0 0.001427 686.02185 686.02161
661.0 0.001513 686.24298 686.24274
700.0 0.001429 686.46765 686.46741
642.0 0.001558 686.69604 686.69580
689.0 0.001451 686.92816 686.92792
726.0 0.001377 687.16400 687.16376
665.0 0.001504 687.40356 687.40332
660.0 0.001515 687.64697 687.64673
645.0 0.001550 687.89417 687.89392
696.0 0.001437 688.14532 688.14508
656.0 0.001524 688.40039 688.40015
701.0 0.001427 688.65948 688.65924
702.0 0.001425 688.92267 688.92236
707.0 0.001414 689.18994 689.18970
693.0 0.001443 689.46143 689.46118
707.0 0.001414 689.73718 689.73694
667.0 0.001499 690.01733 690.01709
702.0 0.001425 690.30182 690.30157
677.0 0.001477 690.59088 690.59064
670.0 0.001493 690.88452 690.88428
671.0 0.001490 691.18280 691.18256
662.0 0.001511 691.48590 691.48566
681.0 0.001468 691.79382 691.79358
670.0 0.001493 692.10669 692.10645
703.0 0.001422 692.42468 692.42444
671.0 0.001490 692.74780 692.74750
692.0 0.001445 693.07617 693.07587
699.0 0.001431 693.40985 693.40961
693.0 0.001443 693.74902 693.74878
663.0 0.001508 694.09387 694.09357
671.0 0.001490 694.44427 694.44403
670.0 0.001493 694.80060 694.80029
682.0 0.001466 695.16278 695.16254
688.0 0.001453 695.53101 695.53076
714.0 0.001401 695.90540 695.90509
643.0 0.001555 696.28601 696.28577
686.0 0.001458 696.67310 696.67285
737.0 0.001357 697.06665 697.06641
678.0 0.001475 697.46686 697.46661
689.0 0.001451 697.87390 697.87360
704.0 0.001420 698.28772 698.28748
666.0 0.001502 698.70862 698.70837
697.0 0.001435 699.13666 699.13641
724.0 0.001381 699.57196 699.57166
662.0 0.001511 700.01465 700.01440
685.0 0.001460 700.46484 700.46454
653.0 0.001531 700.92273 700.92242
711.0 0.001406 701.38837 701.38806
688.0 0.001453 701.86188 701.86163
686.0 0.001458 702.34344 702.34314
685.0 0.001460 702.83313 702.83289
700.0 0.001429 703.33118 703.33087
673.0 0.001486 703.83759 703.83728
717.0 0.001395 704.35248 704.35223
696.0 0.001437 704.87610 704.87585
710.0 0.001408 705.40845 705.40820
722.0 0.001385 705.94977 705.94952
669.0 0.001495 706.50006 706.49982
692.0 0.001445 707.05951 707.05920
736.0 0.001359 707.62823 707.62793
702.0 0.001425 708.20630 708.20605
730.0 0.001370 708.79388 708.79364
737.0 0.001357 709.39105 709.39081
705.0 0.001418 709.99799 709.99768
767.0 0.001304 710.61469 710.61444
705.0 0.001418 711.24133 711.24109
730.0 0.001370 711.87811 711.87787
733.0 0.001364 712.52502 712.52472
664.0 0.001506 713.18213 713.18188
723.0 0.001383 713.84967 713.84937
751.0 0.001332 714.52759 714.52734
693.0 0.001443 715.21619 715.21588
730.0 0.001370 715.91534 715.91504
670.0 0.001493 716.62518 716.62494
731.0 0.001368 717.34601 717.34576
687.0 0.001456 718.07764 718.07733
758.0 0.001319 718.82031 718.82007
686.0 0.001458 719.57404 719.57379
696.0 0.001437 720.33893 720.33862
703.0 0.001422 721.11499 721.11475
726.0 0.001377 721.90253 721.90222
778.0 0.001285 722.70129 722.70099
755.0 0.001325 723.51147 723.51123
763.0 0.001311 724.33325 724.33295
802.0 0.001247 725.16663 725.16632
730.0 0.001370 726.01154 726.01129
734.0 0.001362 726.86816 726.86792
766.0 0.001305 727.73651 727.73621
723.0 0.001383 728.61658 728.61633
677.0 0.001477 729.50861 729.50830
734.0 0.001362 730.41235 730.41205
688.0 0.001453 731.32806 731.32782
763.0 0.001311 732.25568 732.25537
726.0 0.001377 733.19519 733.19495
727.0 0.001376 734.14673 734.14642
730.0 0.001370 735.11029 735.11005
775.0 0.001290 736.08588 736.08557
741.0 0.001350 737.07343 737.07318
750.0 0.001333 738.07306 741.11377
752.0 0.001330 739.08484 742.27869
776.0 0.001289 740.10858 744.97443
725.0 0.001379 741.14447 746.26422
793.0 0.001261 742.19232 747.58630
779.0 0.001284 743.25226 748.94312
742.0 0.001348 744.32428 750.33728
750.0 0.001333 745.40826 751.77155
760.0 0.001316 746.50439 753.24939
786.0 0.001272 747.61230 754.77466
768.0 0.001302 748.73224 756.35187
750.0 0.001333 749.86420 757.98639
734.0 0.001362 751.00800 759.68408
822.0 0.001217 752.16357 761.45258
763.0 0.001311 753.33099 763.30011
758.0 0.001319 754.51019 765.23700
823.0 0.001215 755.70117 767.27582
796.0 0.001256 756.90381 769.43085
810.0 0.001235 758.11810 771.72064
825.0 0.001212 759.34387 774.16669
824.0 0.001214 760.58112 776.79645
754.0 0.001326 761.82990 779.64429
831.0 0.001203 763.08990 782.75269
835.0 0.001198 764.36139 786.17688
860.0 0.001163 765.64386 789.98724
883.0 0.001133 766.93750 794.27686
894.0 0.001119 768.24231 799.16962
829.0 0.001206 769.55792 804.83276
877.0 0.001140 770.88440 811.49878
830.0 0.001205 772.22162 819.49579
854.0 0.001171 773.56964 829.30402
857.0 0.001167 774.92810 841.66199
870.0 0.001149 776.29700 857.85590
910.0 0.001099 777.67639 880.70557
948.0 0.001055 779.06586 917.46954
1089.0 0.000918 780.46545 986.08984
1187.0 0.000842 781.87518 1124.20105
1466.0 0.000682 783.29468 1396.60376
1928.0 0.000519 784.72406 1892.72498
2720.0 0.000368 786.16290 2696.46924
3696.0 0.0002706 787.61127 3772.56323
4384.0 0.0002281 789.06909 4805.64795
5078.0 0.0001969 790.53607 5213.91553
4800.0 0.0002083 792.01208 4719.68359
3950.0 0.0002532 793.49707 3724.93188
2836.0 0.000353 794.99103 2633.20459
1905.0 0.000525 796.49341 1785.76135
1274.0 0.000785 798.00439 1295.37439
1001.0 0.000999 799.52380 1066.08496
880.0 0.001136 801.05127 969.65216
922.0 0.001085 802.58685 925.33221
809.0 0.001236 804.13037 899.99695
839.0 0.001192 805.68152 883.11346
848.0 0.001179 807.24030 871.14758
881.0 0.001135 808.80634 862.45581
811.0 0.001233 810.37964 856.06049
835.0 0.001198 811.96008 851.32703
775.0 0.001290 813.54730 847.82660
828.0 0.001208 815.14117 845.26025
769.0 0.001300 816.74170 843.41577
867.0 0.001153 818.34851 842.13733
797.0 0.001255 819.96143 841.30945
846.0 0.001182 821.58032 840.84546
805.0 0.001242 823.20514 840.67816
760.0 0.001316 824.83545 840.75574
795.0 0.001258 826.47119 841.03705
823.0 0.001215 828.11230 841.48962
824.0 0.001214 829.75830 842.08704
842.0 0.001188 831.40930 843.45435
829.0 0.001206 833.06482 844.31427
817.0 0.001224 834.72485 845.58588
849.0 0.001178 836.38928 846.63843
782.0 0.001279 838.05762 847.76483
821.0 0.001218 839.72986 848.95697
859.0 0.001164 841.40594 850.20856
855.0 0.001170 843.08533 851.51373
873.0 0.001145 844.76807 852.86774
863.0 0.001159 846.45386 854.26727
790.0 0.001266 848.14270 855.70905
833.0 0.001200 849.83405 857.19067
842.0 0.001188 851.52789 858.71051
859.0 0.001164 853.22424 860.26746
797.0 0.001255 854.92242 861.86084
840.0 0.001190 856.62274 860.53461
881.0 0.001135 858.32446 862.33838
871.0 0.001148 860.02777 862.69366
850.0 0.001176 861.73242 864.62842
869.0 0.001151 863.43805 866.59515
871.0 0.001148 865.14465 868.59998
835.0 0.001198 866.85181 870.64978
848.0 0.001179 868.55939 872.75372
862.0 0.001160 870.26727 874.92358
892.0 0.001121 871.97516 877.17438
890.0 0.001124 873.68304 879.52637
874.0 0.001144 875.39044 882.00586
889.0 0.001125 877.09735 884.64911
844.0 0.001185 878.80359 887.50671
901.0 0.001110 880.50873 890.64954
969.0 0.001032 882.21289 894.18231
929.0 0.001076 883.91553 898.26593
852.0 0.001174 885.61670 903.18524
871.0 0.001148 887.31616 909.57263
875.0 0.001143 889.01361 919.06616
990.0 0.001010 890.70905 935.75708
993.0 0.001007 892.40204 968.42139
1098.0 0.000911 894.09247 1032.54980
1194.0 0.000838 895.78021 1148.45215
1450.0 0.000690 897.46515 1329.80750
1713.0 0.000584 899.14691 1555.07886
2066.0 0.000484 900.82532 1743.76355
2239.0 0.000447 902.50031 1784.90967
2159.0 0.000463 904.17175 1665.36462
1872.0 0.000534 905.83923 1470.80188
1432.0 0.000698 907.50281 1264.57385
1231.0 0.000812 909.16205 1105.07153
1075.0 0.000930 910.81683 1011.40277
953.0 0.001049 912.46729 966.96680
905.0 0.001105 914.11279 948.56610
912.0 0.001096 915.75360 940.80042
916.0 0.001092 917.38910 936.98187
886.0 0.001129 919.01935 934.88678
956.0 0.001046 920.64417 933.77313
889.0 0.001125 922.26349 933.30878
919.0 0.001088 923.87695 933.29858
856.0 0.001168 925.48444 933.61652
887.0 0.001127 927.08588 934.17639
928.0 0.001078 928.68115 934.91852
930.0 0.001075 930.26990 935.79950
922.0 0.001085 931.85217 936.78809
911.0 0.001098 933.42761 937.86078
851.0 0.001175 934.99615 938.99969
888.0 0.001126 936.55774 940.19116
879.0 0.001138 938.11249 941.42493
945.0 0.001058 939.65936 942.69171
895.0 0.001117 941.19904 943.98535
900.0 0.001111 942.73090 945.29993
929.0 0.001076 944.25507 946.63141
870.0 0.001149 945.77179 947.97626
867.0 0.001153 947.27979 949.33044
853.0 0.001172 948.78021 950.69257
920.0 0.001087 950.27179 952.05939
887.0 0.001127 951.75543 953.43018
936.0 0.001068 953.23059 954.80273
876.0 0.001142 954.69678 956.17548
932.0 0.001073 956.15436 957.54779
917.0 0.001091 957.60291 958.91815
910.0 0.001099 959.04248 960.28607
956.0 0.001046 960.47333 961.65088
911.0 0.001098 961.89447 963.01111
933.0 0.001072 963.30652 964.36688
952.0 0.001050 964.70886 965.71704
921.0 0.001086 966.10181 966.44464
966.0 0.001035 967.48547 967.81171
963.0 0.001038 968.85876 968.85852
939.0 0.001065 970.22272 970.22247
962.0 0.001040 971.57642 971.57617
993.0 0.001007 972.92017 972.91992
976.0 0.001025 974.25409 974.25385
976.0 0.001025 975.57745 975.57721
988.0 0.001012 976.89081 976.89056
1002.0 0.000998 978.19360 978.19336
1039.0 0.000962 979.48602 979.48578
1049.0 0.000953 980.76831 980.76807
1007.0 0.000993 982.03961 982.03937
1001.0 0.000999 983.30042 983.30023
988.0 0.001012 984.55042 984.55017
1016.0 0.000984 985.78967 985.78943
1001.0 0.000999 987.01849 987.01825
1001.0 0.000999 988.23584 988.23560
988.0 0.001012 989.44263 989.44244
1042.0 0.000960 990.63818 990.63800
949.0 0.001054 991.82281 991.82257
961.0 0.001041 992.99652 992.99628
954.0 0.001048 994.15881 994.15857
982.0 0.001018 995.31012 995.30988
1022.0 0.000978 996.45001 996.44977
956.0 0.001046 997.57874 997.57849
999.0 0.001001 998.69641 998.69623
937.0 0.001067 999.80249 999.80225
976.0 0.001025 1000.89734 1000.89709
982.0 0.001018 1001.98059 1001.98041
992.0 0.001008 1003.05261 1003.05237
1030.0 0.000971 1004.11340 1004.11316
1038.0 0.000963 1005.16235 1005.16211
1040.0 0.000962 1006.20013 1006.19989
963.0 0.001038 1007.22620 1007.22601
1003.0 0.000997 1008.24084 1008.24066
967.0 0.001034 1009.24420 1009.24396
972.0 0.001029 1010.23572 1010.23553
974.0 0.001027 1011.21594 1011.21576
988.0 0.001012 1012.18445 1012.18427
1029.0 0.000972 1013.14154 1013.14130
1020.0 0.000980 1014.08734 1014.08710
984.0 0.001016 1015.02124 1015.02106
1000.0 0.001000 1015.94385 1015.94366
1031.0 0.000970 1016.85480 1016.85455
1009.0 0.000991 1017.75427 1017.75403
908.0 0.001101 1018.64252 1018.64233
1020.0 0.000980 1019.51892 1019.51874
1013.0 0.000987 1020.38416 1020.38391
1045.0 0.000957 1021.23773 1021.23749
990.0 0.001010 1022.07996 1022.07971
1009.0 0.000991 1022.91089 1022.91071
971.0 0.001030 1023.73029 1023.73010
960.0 0.001042 1024.53857 1024.53833
959.0 0.001043 1025.33521 1025.33496
1009.0 0.000991 1026.12061 1026.12048
985.0 0.001015 1026.89502 1026.89490
940.0 0.001064 1027.65796 1027.65784
995.0 0.001005 1028.40991 1028.40967
1047.0 0.000955 1029.15039 1035.94763
1070.0 0.000935 1029.88000 1036.95020
1010.0 0.000990 1030.59863 1041.25806
1079.0 0.000927 1031.30603 1042.40405
1011.0 0.000989 1032.00244 1043.56689
1081.0 0.000925 1032.68787 1044.74841
1033.0 0.000968 1033.36255 1045.95190
1068.0 0.000936 1034.02637 1047.18042
1054.0 0.000949 1034.67920 1048.43665
1110.0 0.000901 1035.32153 1049.72485
1018.0 0.000982 1035.95288 1051.04871
1075.0 0.000930 1036.57373 1052.41321
1083.0 0.000923 1037.18408 1053.82373
1105.0 0.000905 1037.78381 1055.28540
1146.0 0.000873 1038.37305 1056.80579
1084.0 0.000923 1038.95178 1058.39185
1061.0 0.000943 1039.52026 1060.05261
1118.0 0.000894 1040.07861 1061.79834
1143.0 0.000875 1040.62646 1063.63916
1042.0 0.000960 1041.16431 1065.58923
1152.0 0.000868 1041.69189 1067.66309
1152.0 0.000868 1042.20959 1069.87891
1183.0 0.000845 1042.71729 1072.25757
1161.0 0.000861 1043.21509 1074.82190
1154.0 0.000867 1043.70313 1077.60181
1178.0 0.000849 1044.18115 1080.63025
1200.0 0.000833 1044.64966 1083.94849
1174.0 0.000852 1045.10864 1087.60608
1172.0 0.000853 1045.55786 1092.43359
1186.0 0.000843 1045.99768 1096.98926
1164.0 0.000859 1046.42810 1102.10498
1195.0 0.000837 1046.84924 1108.28235
1178.0 0.000849 1047.26123 1114.89893
1162.0 0.000861 1047.66382 1122.50244
1226.0 0.000816 1048.05750 1131.32446
1197.0 0.000835 1048.44202 1141.65747
1241.0 0.000806 1048.81763 1153.89600
1222.0 0.000818 1049.18445 1168.56897
1246.0 0.000803 1049.54236 1186.38892
1282.0 0.000780 1049.89160 1208.37390
1254.0 0.000797 1050.23218 1235.96484
1355.0 0.000738 1050.56433 1271.34912
1292.0 0.000774 1050.88806 1318.17224
1457.0 0.000686 1051.20313 1383.86108
1579.0 0.000633 1051.51013 1487.29333
1814.0 0.000551 1051.80872 1678.25256
2230.0 0.000448 1052.09937 2074.98267
2904.0 0.0003444 1052.38184 2907.25293
4342.0 0.0002303 1052.65637 4496.59082
6610.0 0.0001513 1052.92297 7051.28906
9556.0 0.0001046 1053.18164 10285.10059
12820.0 0.0000780 1053.43274 13125.24512
13880.0 0.0000720 1053.67615 14113.16406
13392.0 0.0000747 1053.91199 12918.41211
11036.0 0.0000906 1054.14026 10606.38770
7917.0 0.0001263 1054.36121 7869.79639
5320.0 0.0001880 1054.57471 5285.78906
3456.0 0.0002894 1054.78113 3412.12598
2283.0 0.000438 1054.98022 2319.55176
1679.0 0.000596 1055.17236 1782.06494
1458.0 0.000686 1055.35742 1538.04871
1305.0 0.000766 1055.53552 1417.83813
1273.0 0.000786 1055.70691 1346.18005
1247.0 0.000802 1055.87134 1296.73840
1258.0 0.000795 1056.02917 1260.28503
1204.0 0.000831 1056.18042 1232.70056
1139.0 0.000878 1056.32520 1211.58020
1128.0 0.000887 1056.46350 1195.39294
1130.0 0.000885 1056.59534 1183.15747
1226.0 0.000816 1056.72095 1174.26160
1188.0 0.000842 1056.84033 1168.42761
1130.0 0.000885 1056.95361 1165.74976
1158.0 0.000864 1057.06079 1167.07581
1200.0 0.000833 1057.16199 1175.22827
1230.0 0.000813 1057.25732 1197.97461
1305.0 0.000766 1057.34668 1252.95508
1514.0 0.000661 1057.43042 1371.40918
1656.0 0.000604 1057.50842 1589.41052
2202.0 0.000454 1057.58081 1914.27771
2669.0 0.000375 1057.64758 2281.32544
2843.0 0.000352 1057.70898 2541.69312
2683.0 0.000373 1057.76489 2556.25781
2444.0 0.000409 1057.81555 2364.40186
2179.0 0.000459 1057.86084 2084.93359
1769.0 0.000565 1057.90100 1773.94617
1470.0 0.000680 1057.93604 1499.79919
1290.0 0.000775 1057.96594 1311.06885
1164.0 0.000859 1057.99097 1204.51257
1097.0 0.000912 1058.01086 1152.59424
1129.0 0.000886 1058.02600 1128.14453
1167.0 0.000857 1058.03638 1115.07104
1109.0 0.000902 1058.04199 1106.58435
1037.0 0.000964 1058.04285 1100.33301
1062.0 0.000942 1058.03906 1095.45789
1101.0 0.000908 1058.03088 1091.53723
1035.0 0.000966 1058.01807 1088.31665
1049.0 0.000953 1058.00073 1085.62219
1147.0 0.000872 1057.97913 1083.33301
1048.0 0.000954 1057.95313 1081.36230
1104.0 0.000906 1057.92285 1079.64526
1078.0 0.000928 1057.88831 1078.13379
1012.0 0.000988 1057.84961 1076.79041
1043.0 0.000959 1057.80688 1075.58655
1099.0 0.000910 1057.76001 1067.82861
1110.0 0.000901 1057.70911 1067.09131
1053.0 0.000950 1057.65417 1066.42456
1054.0 0.000949 1057.59534 1062.54041
1083.0 0.000923 1057.53259 1062.10596
1149.0 0.000870 1057.46606 1061.70801
1076.0 0.000929 1057.39563 1061.34131
1041.0 0.000961 1057.32166 1061.00061
1076.0 0.000929 1057.24377 1060.68250
1053.0 0.000950 1057.16223 1060.38354
975.0 0.001026 1057.07715 1060.10083
1063.0 0.000941 1056.98840 1059.83215
1086.0 0.000921 1056.89612 1059.57568
994.0 0.001006 1056.80029 1059.32947
1046.0 0.000956 1056.70105 1059.09204
999.0 0.001001 1056.59827 1058.86230
1017.0 0.000983 1056.49207 1058.63892
1052.0 0.000951 1056.38257 1058.42102
1028.0 0.000973 1056.26965 1058.20776
1055.0 0.000948 1056.15344 1057.99829
1025.0 0.000976 1056.03394 1057.79224
972.0 0.001029 1055.91113 1057.58887
1049.0 0.000953 1055.78503 1057.38757
1029.0 0.000972 1055.65576 1057.18811
994.0 0.001006 1055.52319 1056.98987
1101.0 0.000908 1055.38757 1056.79260
1059.0 0.000944 1055.24866 1056.59607
1081.0 0.000925 1055.10669 1056.39978
1084.0 0.000923 1054.96167 1056.20349
1018.0 0.000982 1054.81348 1055.23914
1082.0 0.000924 1054.66223 1055.07117
1067.0 0.000937 1054.50781 1054.50769
1031.0 0.000970 1054.35046 1054.35034
1078.0 0.000928 1054.19006 1054.18994
1043.0 0.000959 1054.02649 1054.02637
1061.0 0.000943 1053.85999 1053.85999
1041.0 0.000961 1053.69055 1053.69043
995.0 0.001005 1053.51807 1053.51794
1057.0 0.000946 1053.34253 1053.34253
972.0 0.001029 1053.16406 1053.16394
1033.0 0.000968 1052.98267 1052.98254
1086.0 0.000921 1052.79822 1052.79810
997.0 0.001003 1052.61084 1052.61072
1072.0 0.000933 1052.42041 1052.42041
1021.0 0.000979 1052.22705 1052.22705
1026.0 0.000975 1052.03088 1052.03076
1101.0 0.000908 1051.83154 1051.83142
988.0 0.001012 1051.62927 1051.62927
946.0 0.001057 1051.42407 1051.42407
1072.0 0.000933 1051.21594 1051.21582
1011.0 0.000989 1051.00476 1051.00464
1036.0 0.000965 1050.79053 1050.79053
1084.0 0.000923 1050.57349 1050.57336
1001.0 0.000999 1050.35327 1050.35327
1019.0 0.000981 1050.13013 1050.13000
1067.0 0.000937 1049.90393 1049.90381
1018.0 0.000982 1049.67468 1049.67468
1054.0 0.000949 1049.44250 1049.44238
1104.0 0.000906 1049.20715 1049.20715
1070.0 0.000935 1048.96875 1048.96875
1042.0 0.000960 1048.72742 1048.72729
1080.0 0.000926 1048.48279 1048.48267
1100.0 0.000909 1048.23523 1048.23511
1046.0 0.000956 1047.98438 1047.98438
1073.0 0.000932 1047.73047 1047.73035
1045.0 0.000957 1047.47339 1047.47327
1021.0 0.000979 1047.21313 1047.21301
1019.0 0.000981 1046.94971 1046.94958
1024.0 0.000977 1046.68298 1046.68286
1034.0 0.000967 1046.41296 1046.41284
977.0 0.001024 1046.13977 1046.13965
1001.0 0.000999 1045.86328 1045.86316
991.0 0.001009 1045.58350 1045.58337
998.0 0.001002 1045.30042 1045.30029
1035.0 0.000966 1045.01379 1045.01367
1002.0 0.000998 1044.72400 1044.72388
1039.0 0.000962 1044.43066 1044.43054
981.0 0.001019 1044.13391 1044.13391
1030.0 0.000971 1043.83374 1043.83362
1019.0 0.000981 1043.53003 1043.52991
1029.0 0.000972 1043.22278 1043.22266
1047.0 0.000955 1042.91199 1042.91199
1031.0 0.000970 1042.59766 1042.59766
1007.0 0.000993 1042.27979 1042.27966
987.0 0.001013 1041.95801 1041.95801
1054.0 0.000949 1041.63281 1041.63269
977.0 0.001024 1041.30383 1041.30371
1016.0 0.000984 1040.97107 1040.97107
1057.0 0.000946 1040.63464 1040.63464
986.0 0.001014 1040.29431 1040.29419
993.0 0.001007 1039.95020 1039.95020
1041.0 0.000961 1039.60217 1039.60205
1013.0 0.000987 1039.25037 1039.25024
1041.0 0.000961 1038.89453 1038.89441
985.0 0.001015 1038.53467 1038.53455
989.0 0.001011 1038.17090 1038.17078
1031.0 0.000970 1037.80298 1037.80286
1031.0 0.000970 1037.43103 1037.43091
981.0 0.001019 1037.05505 1037.05493
1022.0 0.000978 1036.67480 1036.67468
1003.0 0.000997 1036.29041 1036.29028
1023.0 0.000978 1035.90173 1035.90161
1040.0 0.000962 1035.50891 1035.50879
1060.0 0.000943 1035.11169 1035.11157
1005.0 0.000995 1034.71008 1034.70996
1065.0 0.000939 1034.30420 1034.58362
964.0 0.001037 1033.89380 1034.18445
1043.0 0.000959 1033.47913 1033.78149
1031.0 0.000970 1033.05994 1033.51294
1036.0 0.000965 1032.63611 1033.10791
1034.0 0.000967 1032.20776 1032.69971
1034.0 0.000967 1031.77478 1032.28821
1048.0 0.000954 1031.33728 1031.87354
1019.0 0.000981 1030.89502 1031.45557
1015.0 0.000985 1030.44788 1031.03467
1006.0 0.000994 1029.99622 1030.61096
1061.0 0.000943 1029.53967 1030.18445
1039.0 0.000962 1029.07837 1029.75537
1086.0 0.000921 1028.61206 1029.32385
1023.0 0.000978 1028.14087 1028.89014
1023.0 0.000978 1027.66492 1028.45483
990.0 0.001010 1027.18372 1028.01746
1020.0 0.000980 1026.69763 1027.57922
1017.0 0.000983 1026.20654 1027.14001
1039.0 0.000962 1025.71021 1026.70032
1034.0 0.000967 1025.20886 1026.26099
1096.0 0.000912 1024.70227 1025.82227
1068.0 0.000936 1024.19055 1025.38550
1033.0 0.000968 1023.67365 1029.12866
1045.0 0.000957 1023.15118 1028.86462
1047.0 0.000955 1022.62366 1028.61584
1058.0 0.000945 1022.09064 1030.44421
1064.0 0.000940 1021.55237 1030.31506
1030.0 0.000971 1021.00867 1030.21448
1063.0 0.000941 1020.45929 1030.14673
1020.0 0.000980 1019.90472 1030.11682
1082.0 0.000924 1019.34436 1030.13098
1046.0 0.000956 1018.77869 1030.19678
1070.0 0.000935 1018.20728 1030.32300
1102.0 0.000907 1017.63019 1030.52112
1079.0 0.000927 1017.04755 1030.80530
1050.0 0.000952 1016.45911 1031.19312
1055.0 0.000948 1015.86511 1031.70813
1064.0 0.000940 1015.26532 1032.38086
1058.0 0.000945 1014.65948 1033.25317
1033.0 0.000968 1014.04810 1034.38208
1008.0 0.000992 1013.43079 1035.85217
1055.0 0.000948 1012.80768 1037.80017
1078.0 0.000928 1012.17859 1040.50464
1076.0 0.000929 1011.54346 1044.66467
1057.0 0.000946 1010.90247 1052.12000
1097.0 0.000912 1010.25549 1067.20764
1162.0 0.000861 1009.60254 1098.05005
1162.0 0.000861 1008.94354 1155.33362
1329.0 0.000752 1008.27832 1244.95630
1358.0 0.000736 1007.60718 1355.78845
1500.0 0.000667 1006.92981 1454.12598
1546.0 0.000647 1006.24646 1496.10547
1524.0 0.000656 1005.55682 1471.22571
1567.0 0.000638 1004.86084 1411.84998
1392.0 0.000718 1004.15887 1339.00574
1269.0 0.000788 1003.45050 1258.60339
1209.0 0.000827 1002.73602 1186.10876
1125.0 0.000889 1002.01526 1134.83862
1183.0 0.000845 1001.28796 1106.54675
1136.0 0.000880 1000.55457 1095.97974
1125.0 0.000889 999.81476 1096.48950
1167.0 0.000857 999.06873 1103.59888
1117.0 0.000895 998.31622 1115.56970
1083.0 0.000923 997.55725 1132.57312
1137.0 0.000880 996.79205 1156.19141
1266.0 0.000790 996.02020 1190.38892
1325.0 0.000755 995.24225 1245.59766
1419.0 0.000705 994.45770 1349.67322
1736.0 0.000576 993.66644 1567.76379
2175.0 0.000460 992.86902 2020.08362
3025.0 0.0003306 992.06506 2861.18481
4366.0 0.0002290 991.25464 4169.21484
6236.0 0.0001604 990.43768 5772.70410
7409.0 0.0001350 989.61401 7173.09717
7152.0 0.0001398 988.78406 7740.72705
7373.0 0.0001356 987.94751 7342.54443
7123.0 0.0001404 987.10449 6451.87793
5261.0 0.0001901 986.25488 5366.31104
3876.0 0.0002580 985.39862 4155.65869
3107.0 0.0003219 984.53601 3030.29663
2350.0 0.000426 983.66663 2187.99463
1675.0 0.000597 982.79102 1663.32129
1304.0 0.000767 981.90857 1382.88684
1225.0 0.000816 981.01953 1245.78857
1157.0 0.000864 980.12415 1176.54980
1043.0 0.000959 979.22205 1135.85254
1048.0 0.000954 978.31360 1107.83093
1039.0 0.000962 977.39844 1086.67053
1041.0 0.000961 976.47650 1069.98145
1028.0 0.000973 975.54834 1056.49536
1065.0 0.000939 974.61353 1045.38391
1011.0 0.000989 973.67230 1036.08301
1039.0 0.000962 972.72443 1028.18079
989.0 0.001011 971.76984 1021.37750
992.0 0.001008 970.80914 1015.45325
1018.0 0.000982 969.84161 1010.23444
978.0 0.001022 968.86792 1005.59302
1016.0 0.000984 967.88745 1001.42456
1051.0 0.000951 966.90045 997.64893
1005.0 0.000995 965.90723 994.20349
934.0 0.001071 964.90741 991.03448
931.0 0.001074 963.90125 988.10095
896.0 0.001116 962.88861 985.08911
1019.0 0.000981 961.86932 982.53717
958.0 0.001044 960.84406 980.13330
987.0 0.001013 959.81213 977.71692
925.0 0.001081 958.77411 975.55640
937.0 0.001067 957.72961 973.49170
968.0 0.001033 956.67853 971.51062
912.0 0.001096 955.62158 969.60394
1008.0 0.000992 954.55804 967.76154
913.0 0.001095 953.48853 965.97668
970.0 0.001031 952.41266 964.24194
917.0 0.001091 951.33038 962.55164
909.0 0.001100 950.24225 960.90131
939.0 0.001065 949.14777 959.28577
935.0 0.001070 948.04730 957.70160
1037.0 0.000964 946.94061 956.14508
993.0 0.001007 945.82758 954.61285
928.0 0.001078 944.70892 953.10315
907.0 0.001103 943.58405 951.61261
949.0 0.001054 942.45331 950.13977
968.0 0.001033 941.31653 948.68219
886.0 0.001129 940.17358 947.23816
932.0 0.001073 939.02521 945.80682
956.0 0.001046 937.87054 940.22772
954.0 0.001048 936.71039 938.97314
936.0 0.001068 935.54431 937.71814
929.0 0.001076 934.37225 934.37219
926.0 0.001080 933.19476 933.19470
992.0 0.001008 932.01141 932.01135
910.0 0.001099 930.82263 930.82257
910.0 0.001099 929.62811 929.62805
918.0 0.001089 928.42773 928.42767
958.0 0.001044 927.22217 927.22211
930.0 0.001075 926.01099 927.38776
883.0 0.001133 924.79449 926.22571
920.0 0.001087 923.57251 925.06152
901.0 0.001110 922.34479 923.89508
980.0 0.001020 921.11230 923.42529
917.0 0.001091 919.87415 922.28436
897.0 0.001115 918.63104 921.14471
923.0 0.001083 917.38263 920.00659
936.0 0.001068 916.12885 918.87048
923.0 0.001083 914.87030 917.73773
995.0 0.001005 913.60645 916.60852
883.0 0.001133 912.33783 915.48425
962.0 0.001040 911.06415 914.36566
926.0 0.001080 909.78522 913.25354
917.0 0.001091 908.50183 912.14990
964.0 0.001037 907.21344 911.05573
905.0 0.001105 905.92053 909.97278
902.0 0.001109 904.62274 908.90277
945.0 0.001058 903.32001 907.84766
917.0 0.001091 902.01318 906.81049
837.0 0.001195 900.70135 905.79321
922.0 0.001085 899.38538 904.79968
931.0 0.001074 898.06482 905.06830
906.0 0.001104 896.73962 904.18195
948.0 0.001055 895.41046 903.33539
865.0 0.001156 894.07666 902.53436
923.0 0.001083 892.73907 902.41095
878.0 0.001139 891.39709 901.75012
869.0 0.001151 890.05060 901.16309
888.0 0.001126 888.70056 900.66327
899.0 0.001112 887.34625 900.26593
894.0 0.001119 885.98822 899.99036
927.0 0.001079 884.62622 899.86047
927.0 0.001079 883.26001 899.90588
860.0 0.001163 881.89050 900.16425
944.0 0.001059 880.51703 900.68408
965.0 0.001036 879.14020 901.52734
903.0 0.001107 877.75958 902.77673
915.0 0.001093 876.37524 904.54279
926.0 0.001080 874.98779 906.97449
859.0 0.001164 873.59656 910.28271
970.0 0.001031 872.20245 914.77234
945.0 0.001058 870.80481 920.93817
961.0 0.001041 869.40356 929.75397
982.0 0.001018 867.99969 943.58801
1008.0 0.000992 866.59241 968.70490
1037.0 0.000964 865.18237 1020.16577
1145.0 0.000873 863.76929 1127.63635
1404.0 0.000712 862.35284 1334.03943
1764.0 0.000567 860.93408 1674.15564
2136.0 0.000468 859.51233 2131.48364
2658.0 0.000376 858.08807 2599.67456
2964.0 0.0003374 856.66101 2901.09424
3052.0 0.0003277 855.23114 2913.56274
2743.0 0.000365 853.79907 2715.12183
2444.0 0.000409 852.36426 2441.92773
2010.0 0.000498 850.92749 2127.48877
1704.0 0.000587 849.48816 1781.27063
1451.0 0.000689 848.04620 1463.82373
1157.0 0.000864 846.60260 1225.47510
1016.0 0.000984 845.15656 1074.76831
965.0 0.001036 843.70868 993.05566
968.0 0.001033 842.25873 953.56769
878.0 0.001139 840.80646 935.57318
908.0 0.001101 839.35278 927.94269
898.0 0.001114 837.89709 926.46387
950.0 0.001053 836.43994 931.04663
932.0 0.001073 834.98096 945.64899
1026.0 0.000975 833.52020 981.49457
1052.0 0.000951 832.05823 1061.96191
1200.0 0.000833 830.59442 1223.13831
1500.0 0.000667 829.12970 1498.78894
1924.0 0.000520 827.66333 1885.61572
2382.0 0.000420 826.19556 2306.28320
2599.0 0.000385 824.72693 2612.07178
2626.0 0.000381 823.25696 2673.28027
2689.0 0.000372 821.78613 2524.19800
2405.0 0.000416 820.31421 2292.31567
1986.0 0.000504 818.84100 2025.74878
1680.0 0.000595 817.36737 1724.30237
1432.0 0.000698 815.89276 1430.27808
1241.0 0.000806 814.41766 1195.66772
1022.0 0.000978 812.94177 1037.98071
959.0 0.001043 811.46490 946.50757
945.0 0.001058 809.98810 898.54907
851.0 0.001175 808.51038 873.51056
831.0 0.001203 807.03278 858.86884
846.0 0.001182 805.55438 848.79688
822.0 0.001217 804.07568 841.00916
800.0 0.001250 802.59711 834.61542
808.0 0.001238 801.11823 829.19122
827.0 0.001209 799.63947 824.48883
858.0 0.001166 798.16058 820.33728
840.0 0.001190 796.68140 816.61462
808.0 0.001238 795.20282 813.23364
829.0 0.001206 793.72418 810.12531
793.0 0.001261 792.24609 807.23987
759.0 0.001318 790.76819 804.53687
785.0 0.001274 789.29028 801.98505
783.0 0.001277 787.81342 799.56146
813.0 0.001230 786.33673 797.24493
830.0 0.001205 784.86072 795.02020
832.0 0.001202 783.38538 792.87415
778.0 0.001285 781.91052 790.79565
763.0 0.001311 780.43665 787.40393
802.0 0.001247 778.96356 785.48773
766.0 0.001305 777.49139 783.61414
735.0 0.001361 776.02020 781.08002
771.0 0.001297 774.54974 779.30316
809.0 0.001236 773.08087 777.55499
798.0 0.001253 771.61261 775.83130
756.0 0.001323 770.14606 774.13068
783.0 0.001277 768.68054 772.44995
768.0 0.001302 767.21582 770.78699
750.0 0.001333 765.75323 769.14148
755.0 0.001325 764.29156 767.51068
788.0 0.001269 762.83191 765.89410
732.0 0.001366 761.37354 764.29022
731.0 0.001368 759.91632 762.69739
744.0 0.001344 758.46149 761.11633
783.0 0.001277 757.00787 759.54486
732.0 0.001366 755.55658 757.98340
755.0 0.001325 754.10681 756.43054
731.0 0.001368 752.65875 754.88568
774.0 0.001292 751.21283 753.34906
757.0 0.001321 749.76874 751.81958
756.0 0.001323 748.32715 749.04645
716.0 0.001397 746.88745 747.57788
786.0 0.001272 745.44971 746.11298
757.0 0.001321 744.01447 744.65210
752.0 0.001330 742.58142 742.58130
726.0 0.001377 741.15076 741.15063
742.0 0.001348 739.72241 739.72235
738.0 0.001355 738.29633 738.29620
784.0 0.001276 736.87299 736.87286
746.0 0.001340 735.45215 735.45203
775.0 0.001290 734.03387 734.03375
677.0 0.001477 732.61829 732.61816
727.0 0.001376 731.20514 731.20502
722.0 0.001385 729.79523 729.79510
742.0 0.001348 728.38757 728.38745
720.0 0.001389 726.98328 726.98322
736.0 0.001359 725.58142 725.58130
709.0 0.001410 724.18243 724.18231
761.0 0.001314 722.78693 722.78680
700.0 0.001429 721.39398 721.39386
714.0 0.001401 720.00458 720.28168
751.0 0.001332 718.61804 718.90607
713.0 0.001403 717.23419 717.53387
760.0 0.001316 715.85431 716.16632
696.0 0.001437 714.47711 714.94055
706.0 0.001416 713.10376 713.58667
733.0 0.001364 711.73346 712.23700
671.0 0.001490 710.36609 710.89172
698.0 0.001433 709.00287 709.55206
720.0 0.001389 707.64264 708.21692
708.0 0.001412 706.28632 706.88751
712.0 0.001404 704.93335 705.56342
729.0 0.001372 703.58374 704.24475
711.0 0.001406 702.23798 702.93231
704.0 0.001420 700.89594 701.62616
676.0 0.001479 699.55750 700.32648
755.0 0.001325 698.22284 699.03375
670.0 0.001493 696.89172 697.74811
720.0 0.001389 695.56464 696.47040
703.0 0.001422 694.24139 695.20099
722.0 0.001385 692.92206 693.94037
698.0 0.001433 691.60663 692.68921
690.0 0.001449 690.29492 691.44812
671.0 0.001490 688.98767 690.21851
693.0 0.001443 687.68396 689.00067
675.0 0.001481 686.38452 687.79645
736.0 0.001359 685.08917 686.60693
675.0 0.001481 683.79773 685.43378
678.0 0.001475 682.51086 684.27960
645.0 0.001550 681.22772 683.14594
675.0 0.001481 679.94928 682.03668
652.0 0.001534 678.67480 680.95490
663.0 0.001508 677.40411 679.90497
685.0 0.001460 676.13843 678.89362
727.0 0.001376 674.87665 677.92700
693.0 0.001443 673.61963 677.01532
648.0 0.001543 672.36676 676.16986
663.0 0.001508 671.11792 675.40643
689.0 0.001451 669.87408 674.74689
668.0 0.001497 668.63428 674.21960
716.0 0.001397 667.39941 673.86536
680.0 0.001471 666.16876 673.74487
694.0 0.001441 664.94250 673.96442
673.0 0.001486 663.72095 674.75305
694.0 0.001441 662.50397 676.69324
666.0 0.001502 661.29163 681.24420
667.0 0.001499 660.08386 691.60364
727.0 0.001376 658.88055 713.34674
743.0 0.001346 657.68201 753.38385
743.0 0.001346 656.48822 815.89209
869.0 0.001151 655.29913 895.63123
917.0 0.001091 654.11475 973.26935
907.0 0.001103 652.93488 1020.44989
948.0 0.001055 651.76013 1019.99487
982.0 0.001018 650.58978 985.95575
865.0 0.001156 649.42438 941.36053
827.0 0.001209 648.26379 892.34283
747.0 0.001339 647.10785 836.35797
743.0 0.001346 645.95709 779.14020
709.0 0.001410 644.81079 730.57898
652.0 0.001534 643.66974 695.51971
665.0 0.001504 642.53333 673.44714
680.0 0.001471 641.40143 660.86255
673.0 0.001486 640.27502 653.83624
629.0 0.001590 639.15314 649.54822
629.0 0.001590 638.03650 646.50024
618.0 0.001618 636.92468 644.03839
603.0 0.001658 635.81732 641.90399
619.0 0.001616 634.71552 639.98816
614.0 0.001629 633.61835 638.23114
645.0 0.001550 632.52649 636.59656
612.0 0.001634 631.43939 635.05737
627.0 0.001595 630.35706 633.59454
615.0 0.001626 629.27997 632.19415
650.0 0.001538 628.20764 630.84473
621.0 0.001610 627.14075 629.53864
615.0 0.001626 626.07861 628.26849
627.0 0.001595 625.02130 627.02917
610.0 0.001639 623.96924 625.81696
617.0 0.001621 622.92218 624.62811
664.0 0.001506 621.88019 623.46014
581.0 0.001721 620.84320 622.31067
637.0 0.001570 619.81104 621.17761
637.0 0.001570 618.78412 620.05988
554.0 0.001805 617.76227 618.95599
648.0 0.001543 616.74536 617.86475
628.0 0.001592 615.73358 616.78534
626.0 0.001597 614.72668 615.71674
620.0 0.001613 613.72516 614.65875
619.0 0.001616 612.72833 613.61029
595.0 0.001681 611.73688 612.57129
581.0 0.001721 610.75024 611.54095
627.0 0.001595 609.76843 610.51868
606.0 0.001650 608.79211 609.50494
613.0 0.001631 607.82050 608.49866
598.0 0.001672 606.85425 607.50018
600.0 0.001667 605.89288 606.50891
590.0 0.001695 604.93616 605.52429
576.0 0.001736 603.98505 604.54706
590.0 0.001695 603.03857 603.81573
597.0 0.001675 602.09747 602.86139
630.0 0.001587 601.16119 601.91394
602.0 0.001661 600.22980 600.97321
615.0 0.001626 599.30359 600.15784
587.0 0.001704 598.38214 598.95941
561.0 0.001783 597.46606 598.05487
629.0 0.001590 596.55481 597.15668
601.0 0.001664 595.64838 596.26495
615.0 0.001626 594.74707 595.24304
555.0 0.001802 593.85077 594.37018
547.0 0.001828 592.95935 593.50385
638.0 0.001567 592.07294 592.64447
577.0 0.001733 591.19128 591.79199
615.0 0.001626 590.31476 590.94678
603.0 0.001658 589.44312 590.10901
591.0 0.001692 588.57642 589.27899
644.0 0.001553 587.71460 588.45691
608.0 0.001645 586.85748 587.64319
564.0 0.001773 586.00562 586.83850
632.0 0.001582 585.15833 586.04272
574.0 0.001742 584.31616 585.25708
590.0 0.001695 583.47858 584.48157
540.0 0.001852 582.64581 583.71735
542.0 0.001845 581.81818 582.96539
590.0 0.001695 580.99506 582.22644
546.0 0.001832 580.17700 581.50208
584.0 0.001712 579.36365 580.79346
596.0 0.001678 578.55481 580.10229
632.0 0.001582 577.75110 579.43140
582.0 0.001718 576.95190 578.78302
603.0 0.001658 576.15765 578.16083
559.0 0.001789 575.36804 577.56866
574.0 0.001742 574.58289 577.01160
576.0 0.001736 573.80280 576.49707
606.0 0.001650 573.02716 576.03296
554.0 0.001805 572.25641 575.63098
600.0 0.001667 571.49017 575.30579
565.0 0.001770 570.72845 575.07751
556.0 0.001799 569.97150 574.97388
624.0 0.001603 569.21918 575.03595
622.0 0.001608 568.47137 575.33124
587.0 0.001704 567.72815 575.99921
561.0 0.001783 566.98938 577.37830
593.0 0.001686 566.25531 580.31006
610.0 0.001639 565.52570 586.68488
597.0 0.001675 564.80060 599.98596
686.0 0.001458 564.08002 625.08636
738.0 0.001355 563.36377 666.20978
865.0 0.001156 562.65222 722.88129
952.0 0.001050 561.94482 785.80957
1046.0 0.000956 561.24200 836.28577
996.0 0.001004 560.54358 855.22308
992.0 0.001008 559.84943 840.98975
971.0 0.001030 559.15991 810.82684
903.0 0.001107 558.47443 778.42749
833.0 0.001200 557.79352 741.96027
737.0 0.001357 557.11682 700.14276
653.0 0.001531 556.44421 658.00293
646.0 0.001548 555.77612 622.87592
628.0 0.001592 555.11212 597.04285
615.0 0.001626 554.45258 580.61316
620.0 0.001613 553.79712 571.15900
583.0 0.001715 553.14563 565.90564
591.0 0.001692 552.49866 562.80402
531.0 0.001883 551.85553 560.70764
595.0 0.001681 551.21686 559.09583
602.0 0.001661 550.58215 557.75372
612.0 0.001634 549.95142 556.59064
567.0 0.001764 549.32489 555.56128
536.0 0.001866 548.70239 554.63721
563.0 0.001776 548.08392 553.79926
595.0 0.001681 547.46948 553.03369
541.0 0.001848 546.85889 552.33063
532.0 0.001880 546.25238 551.68347
574.0 0.001742 545.64984 551.08728
552.0 0.001812 545.05121 550.53876
572.0 0.001748 544.45654 550.03656
549.0 0.001821 543.86560 549.57996
565.0 0.001770 543.27869 549.16998
552.0 0.001812 542.69550 548.80829
527.0 0.001898 542.11621 548.49780
513.0 0.001949 541.54065 548.24286
570.0 0.001754 540.96881 548.04901
554.0 0.001805 540.40100 547.92358
579.0 0.001727 539.83661 547.87567
589.0 0.001698 539.27625 547.91711
568.0 0.001761 538.71942 548.06274
567.0 0.001764 538.16608 548.33160
534.0 0.001873 537.61664 548.74768
520.0 0.001923 537.07068 549.34241
568.0 0.001761 536.52850 550.15643
557.0 0.001795 535.98981 551.24359
587.0 0.001704 535.45447 552.67651
590.0 0.001695 534.92303 554.55408
502.0 0.001992 534.39484 557.02203
542.0 0.001845 533.87036 560.31726
562.0 0.001779 533.34930 564.91632
508.0 0.001969 532.83154 571.95245
586.0 0.001706 532.31738 584.21368
595.0 0.001681 531.80652 607.99005
654.0 0.001529 531.29919 655.08777
706.0 0.001416 530.79517 742.72614
859.0 0.001164 530.29443 887.30811
1077.0 0.000929 529.79706 1092.16467
1250.0 0.000800 529.30298 1331.13745
1427.0 0.000701 528.81219 1542.74023
1561.0 0.000641 528.32471 1651.72144
1479.0 0.000676 527.84033 1630.12415
1577.0 0.000634 527.35925 1529.48596
1369.0 0.000730 526.88141 1410.03479
1100.0 0.000909 526.40674 1284.87573
1071.0 0.000934 525.93518 1140.62012
914.0 0.001094 525.46667 982.95129
820.0 0.001220 525.00146 837.74652
717.0 0.001395 524.53912 723.81165
624.0 0.001603 524.08008 646.19806
569.0 0.001757 523.62396 599.48053
541.0 0.001848 523.17072 573.69354
550.0 0.001818 522.72064 559.72821
550.0 0.001818 522.27350 551.58710
544.0 0.001838 521.82941 546.18750
559.0 0.001789 521.38818 542.14813
525.0 0.001905 520.94971 538.91205
517.0 0.001934 520.51440 536.22461
491.0 0.002037 520.08179 533.94287
559.0 0.001789 519.65216 531.97528
500.0 0.002000 519.22528 530.25452
516.0 0.001938 518.80121 528.73169
498.0 0.002008 518.37988 527.36975
521.0 0.001919 517.96136 526.13940
500.0 0.002000 517.54565 525.01837
482.0 0.002075 517.13263 523.98853
487.0 0.002053 516.72223 523.03577
568.0 0.001761 516.31464 522.14868
567.0 0.001764 515.90961 521.31793
522.0 0.001916 515.50732 520.53589
551.0 0.001815 515.10760 519.79602
502.0 0.001992 514.71045 519.09302
488.0 0.002049 514.31592 518.42267
522.0 0.001916 513.92395 517.78119
492.0 0.002033 513.53448 517.16541
512.0 0.001953 513.14758 516.57263
493.0 0.002028 512.76312 516.00031
497.0 0.002012 512.38129 515.44678
478.0 0.002092 512.00177 514.91016
519.0 0.001927 511.62482 514.38928
541.0 0.001848 511.25015 513.88232
490.0 0.002041 510.87790 513.38855
504.0 0.001984 510.50812 512.90704
486.0 0.002058 510.14063 512.43671
529.0 0.001890 509.77557 511.97711
493.0 0.002028 509.41275 511.52744
488.0 0.002049 509.05215 511.08704
533.0 0.001876 508.69403 510.65582
521.0 0.001919 508.33801 510.23315
492.0 0.002033 507.98438 509.81897
521.0 0.001919 507.63290 509.41287
443.0 0.002257 507.28354 509.01468
511.0 0.001957 506.93652 507.69409
532.0 0.001880 506.59155 507.34677
495.0 0.002020 506.24887 507.00598
527.0 0.001898 505.90826 506.67218
538.0 0.001859 505.56970 505.87634
514.0 0.001946 505.23328 505.57651
531.0 0.001883 504.89896 505.28568
516.0 0.001938 504.56668 505.00565
506.0 0.001976 504.23645 504.73901
515.0 0.001942 503.90817 504.48953
468.0 0.002137 503.58197 504.45844
508.0 0.001969 503.25775 504.27539
474.0 0.002110 502.93549 504.16016
490.0 0.002041 502.61517 504.18744
476.0 0.002101 502.29678 504.61423
531.0 0.001883 501.98038 505.54785
483.0 0.002070 501.66577 507.49576
512.0 0.001953 501.35309 510.84656
519.0 0.001927 501.04227 515.66406
562.0 0.001779 500.73325 521.34399
539.0 0.001855 500.42618 526.45166
557.0 0.001795 500.12076 529.16559
534.0 0.001873 499.81729 528.65192
564.0 0.001773 499.51553 526.01300
595.0 0.001681 499.21542 522.81958
570.0 0.001754 498.91724 519.59296
510.0 0.001961 498.62064 515.99597
473.0 0.002114 498.32587 512.83142
550.0 0.001818 498.03275 508.83426
495.0 0.002020 497.74121 505.44455
507.0 0.001972 497.45148 502.91705
505.0 0.001980 497.16330 501.66150
521.0 0.001919 496.87680 500.60648
451.0 0.002217 496.59189 499.94537
515.0 0.001942 496.30856 499.49747
502.0 0.001992 496.02682 499.15677
507.0 0.001972 495.74667 498.87219
443.0 0.002257 495.46808 498.62192
512.0 0.001953 495.19098 498.39691
507.0 0.001972 494.91537 498.19312
477.0 0.002096 494.64130 498.00848
497.0 0.002012 494.36874 497.84201
506.0 0.001976 494.09766 497.69324
500.0 0.002000 493.82800 497.56229
506.0 0.001976 493.55975 497.44965
508.0 0.001969 493.29303 497.35617
490.0 0.002041 493.02762 497.28305
544.0 0.001838 492.76364 497.23203
513.0 0.001949 492.50107 497.20514
518.0 0.001931 492.23978 497.20490
527.0 0.001898 491.97998 497.23453
526.0 0.001901 491.72141 497.29770
530.0 0.001887 491.46423 497.39920
525.0 0.001905 491.20831 497.54465
496.0 0.002016 490.95364 497.74115
490.0 0.002041 490.70035 497.99747
510.0 0.001961 490.44827 498.32471
510.0 0.001961 490.19751 498.73676
458.0 0.002183 489.94791 499.25180
498.0 0.002008 489.69949 499.89383
539.0 0.001855 489.45239 500.69504
546.0 0.001832 489.20642 501.70334
547.0 0.001828 488.96170 502.99945
547.0 0.001828 488.71811 504.75153
503.0 0.001988 488.47565 507.35269
532.0 0.001880 488.23434 511.71289
566.0 0.001767 487.99414 519.72699
595.0 0.001681 487.75516 534.66382
580.0 0.001724 487.51721 560.89966
613.0 0.001631 487.28030 602.22192
695.0 0.001439 487.04453 658.66766
703.0 0.001422 486.80981 723.32837
790.0 0.001266 486.57614 780.96515
808.0 0.001238 486.34354 812.91608
776.0 0.001289 486.11188 811.38751
847.0 0.001181 485.88129 788.33722
728.0 0.001374 485.65170 760.25818
637.0 0.001570 485.42310 733.02057
682.0 0.001466 485.19547 703.27649
662.0 0.001511 484.96875 669.52313
645.0 0.001550 484.74310 637.14630
647.0 0.001546 484.51825 614.71228
584.0 0.001712 484.29443 610.72247
607.0 0.001647 484.07150 635.76056
641.0 0.001560 483.84937 704.78516
748.0 0.001337 483.62827 835.11566
1049.0 0.000953 483.40796 1038.33704
1306.0 0.000766 483.18857 1305.16455
1562.0 0.000640 482.97003 1592.61206
1692.0 0.000591 482.75223 1823.11401
1692.0 0.000591 482.53537 1917.90930
1813.0 0.000552 482.31927 1866.80298
1677.0 0.000596 482.10406 1738.88721
1435.0 0.000697 481.88959 1599.07190
1238.0 0.000808 481.67587 1459.29382
1036.0 0.000965 481.46298 1299.65100
993.0 0.001007 481.25079 1117.38428
870.0 0.001149 481.03943 938.13885
673.0 0.001486 480.82877 787.15668
586.0 0.001706 480.61880 676.05524
588.0 0.001701 480.40958 603.74670
537.0 0.001862 480.20111 561.18726
519.0 0.001927 479.99329 537.56689
501.0 0.001996 479.78616 524.30493
534.0 0.001873 479.57971 516.18994
531.0 0.001883 479.37387 510.59076
510.0 0.001961 479.16879 506.33981
519.0 0.001927 478.96426 502.92633
502.0 0.001992 478.76041 500.10590
515.0 0.001942 478.55716 497.73639
499.0 0.002004 478.35452 495.72101
520.0 0.001923 478.15250 494.31396
497.0 0.002012 477.95108 492.82623
501.0 0.001996 477.75018 491.53128
485.0 0.002062 477.54987 490.39822
477.0 0.002096 477.35016 489.40253
494.0 0.002024 477.15097 488.68823
500.0 0.002000 476.95233 487.92038
521.0 0.001919 476.75421 487.24554
534.0 0.001873 476.55664 486.65524
486.0 0.002058 476.35953 486.14316
521.0 0.001919 476.16299 485.70557
558.0 0.001792 475.96686 485.34045
506.0 0.001976 475.77124 485.04819
515.0 0.001942 475.57614 484.83130
481.0 0.002079 475.38144 484.69482
517.0 0.001934 475.18726 484.64713
486.0 0.002058 474.99344 484.70059
519.0 0.001927 474.80008 484.87302
489.0 0.002045 474.60718 485.19095
493.0 0.002028 474.41467 485.69644
488.0 0.002049 474.22260 486.46765
525.0 0.001905 474.03088 487.67685
517.0 0.001934 473.83954 489.73080
522.0 0.001916 473.64865 493.55084
560.0 0.001786 473.45804 500.98227
522.0 0.001916 473.26788 514.88568
526.0 0.001901 473.07803 539.56793
560.0 0.001786 472.88852 578.00134
614.0 0.001629 472.69937 629.90637
676.0 0.001479 472.51053 688.89087
683.0 0.001464 472.32199 741.25372
692.0 0.001445 472.13376 770.43909
705.0 0.001418 471.94586 768.71637
689.0 0.001451 471.75824 746.01031
611.0 0.001637 471.57092 717.55560
594.0 0.001684 471.38388 689.91974
589.0 0.001698 471.19708 660.40240
561.0 0.001783 471.01053 625.59027
595.0 0.001681 470.82428 588.28992
524.0 0.001908 470.63821 554.15741
547.0 0.001828 470.45242 527.03931
502.0 0.001992 470.26685 508.05078
503.0 0.001988 470.08145 495.31628
469.0 0.002132 469.89636 488.61060
510.0 0.001961 469.71140 485.01181
458.0 0.002183 469.52667 483.09674
449.0 0.002227 469.34210 481.60623
517.0 0.001934 469.15768 481.07971
476.0 0.002101 468.97354 480.89703
515.0 0.001942 468.78946 481.00986
500.0 0.002000 468.60559 481.42023
520.0 0.001923 468.42184 482.16730
515.0 0.001942 468.23822 483.34476
503.0 0.001988 468.05481 485.17108
543.0 0.001842 467.87146 488.17401
514.0 0.001946 467.68829 493.56955
472.0 0.002119 467.50519 503.87085
545.0 0.001835 467.32217 523.44562
588.0 0.001701 467.13928 558.31366
673.0 0.001486 466.95651 614.29291
775.0 0.001290 466.77380 693.14276
975.0 0.001026 466.59116 788.27118
1145.0 0.000873 466.40860 881.86328
1133.0 0.000883 466.22610 947.54730
1184.0 0.000845 466.04367 965.36346
1163.0 0.000860 465.86130 940.96008
1043.0 0.000959 465.67896 897.22498
957.0 0.001045 465.49664 848.79749
840.0 0.001190 465.31439 794.78448
806.0 0.001241 465.13211 731.46967
713.0 0.001403 464.94992 664.85547
669.0 0.001495 464.76770 604.62891
605.0 0.001653 464.58545 556.88336
531.0 0.001883 464.40329 523.24683
509.0 0.001965 464.22107 501.93512
496.0 0.002016 464.03885 489.49841
522.0 0.001916 463.85660 482.47867
494.0 0.002024 463.67429 478.37061
488.0 0.002049 463.49203 475.71432
507.0 0.001972 463.30966 473.78677
488.0 0.002049 463.12735 472.26550
470.0 0.002128 462.94489 471.00497
491.0 0.002037 462.76239 469.93250
448.0 0.002232 462.57986 469.00418
442.0 0.002262 462.39725 468.18948
476.0 0.002101 462.21460 467.46637
475.0 0.002105 462.03183 466.81744
420.0 0.002381 461.84903 466.22968
488.0 0.002049 461.66611 465.69272
468.0 0.002137 461.48306 465.19809
494.0 0.002024 461.29999 464.73938
466.0 0.002146 461.11676 464.31100
467.0 0.002141 460.93347 463.90863
457.0 0.002188 460.75003 463.52869
461.0 0.002169 460.56650 462.97440
434.0 0.002304 460.38284 462.63654
451.0 0.002217 460.19904 462.31308
477.0 0.002096 460.01511 462.00223
478.0 0.002092 459.83105 461.70245
442.0 0.002262 459.64685 461.31644
494.0 0.002024 459.46249 461.03812
451.0 0.002217 459.27802 460.76736
465.0 0.002151 459.09335 460.50333
456.0 0.002193 458.90857 460.24539
436.0 0.002294 458.72357 459.99277
430.0 0.002326 458.53845 459.74506
432.0 0.002315 458.35309 459.50165
415.0 0.002410 458.16757 459.26212
437.0 0.002288 457.98193 459.02625
442.0 0.002262 457.79608 458.79349
448.0 0.002232 457.61005 458.56369
442.0 0.002262 457.42380 458.33646
452.0 0.002212 457.23734 458.11160
457.0 0.002188 457.05072 457.90414
444.0 0.002252 456.86386 457.68390
443.0 0.002257 456.67685 457.46561
449.0 0.002227 456.48956 457.24887
423.0 0.002364 456.30209 457.03369
452.0 0.002212 456.11441 456.81992
408.0 0.002451 455.92648 456.61511
443.0 0.002257 455.73837 456.40405
435.0 0.002299 455.54999 456.19403
422.0 0.002370 455.36142 455.98505
417.0 0.002398 455.17258 455.77698
445.0 0.002247 454.98349 455.56973
400.0 0.002500 454.79422 455.36331
478.0 0.002092 454.60464 454.82874
447.0 0.002237 454.41483 454.63385
446.0 0.002242 454.22479 454.43915
424.0 0.002358 454.03448 454.24457
398.0 0.002513 453.84396 454.05014
431.0 0.002320 453.65314 453.69394
436.0 0.002294 453.46204 453.50461
448.0 0.002232 453.27075 453.31525
426.0 0.002347 453.07913 453.12567
441.0 0.002268 452.88730 452.93604
426.0 0.002347 452.69513 452.74622
431.0 0.002320 452.50269 452.55630
442.0 0.002262 452.31006 452.36636
435.0 0.002299 452.11710 452.17636
450.0 0.002222 451.92389 451.98633
440.0 0.002273 451.73035 451.79617
460.0 0.002174 451.53653 451.60605
427.0 0.002342 451.34250 451.41608
452.0 0.002212 451.14810 451.22604
436.0 0.002294 450.95352 451.03683
465.0 0.002151 450.75854 450.84714
437.0 0.002288 450.56329 450.65771
423.0 0.002364 450.36783 450.46857
434.0 0.002304 450.17197 450.27975
419.0 0.002387 449.97592 450.09180
425.0 0.002353 449.77951 449.90405
477.0 0.002096 449.58279 449.71704
441.0 0.002268 449.38580 449.53091
453.0 0.002208 449.18854 449.34586
453.0 0.002208 448.99094 449.16220
462.0 0.002165 448.79303 448.98001
449.0 0.002227 448.59485 448.79993
439.0 0.002278 448.39636 448.62222
457.0 0.002188 448.19757 448.44757
421.0 0.002375 447.99847 448.27679
424.0 0.002358 447.79907 448.11069
454.0 0.002203 447.59933 447.95062
425.0 0.002353 447.39935 447.79846
461.0 0.002169 447.19904 447.65680
428.0 0.002336 446.99841 447.53061
454.0 0.002203 446.79749 447.42996
393.0 0.002545 446.59622 447.37811
390.0 0.002564 446.39471 447.42682
445.0 0.002247 446.19284 447.67950
456.0 0.002193 445.99072 448.31213
477.0 0.002096 445.78824 449.56488
503.0 0.001988 445.58545 451.67007
453.0 0.002208 445.38242 454.71011
462.0 0.002165 445.17902 458.45706
430.0 0.002326 444.97537 462.25839
468.0 0.002137 444.77133 465.07132
498.0 0.002008 444.56702 465.92532
485.0 0.002062 444.36246 464.84464
476.0 0.002101 444.15753 462.80609
451.0 0.002217 443.95239 460.69565
458.0 0.002183 443.74683 458.75290
458.0 0.002183 443.54105 456.67911
478.0 0.002092 443.33493 454.20499
422.0 0.002370 443.12854 451.50470
433.0 0.002309 442.92184 448.94620
449.0 0.002227 442.71481 446.79630
423.0 0.002364 442.50751 445.16397
452.0 0.002212 442.29993 444.01843
481.0 0.002079 442.09204 443.24561
453.0 0.002208 441.88385 442.71481
432.0 0.002315 441.67538 442.32156
414.0 0.002415 441.46661 441.99973
467.0 0.002141 441.25760 441.96399
420.0 0.002381 441.04822 441.70605
412.0 0.002427 440.83859 441.46057
391.0 0.002558 440.62869 441.22400
399.0 0.002506 440.41849 440.99469
451.0 0.002217 440.20804 440.89441
412.0 0.002427 439.99728 440.68301
433.0 0.002309 439.78629 440.48169
467.0 0.002141 439.57495 440.29556
486.0 0.002058 439.36334 440.13278
457.0 0.002188 439.15155 440.00250
467.0 0.002141 438.93939 439.91022
498.0 0.002008 438.72705 439.85208
472.0 0.002119 438.51437 439.80963
467.0 0.002141 438.30145 439.74814
469.0 0.002132 438.08832 439.62601
521.0 0.001919 437.87485 439.42517
487.0 0.002053 437.66122 439.17169
497.0 0.002012 437.44724 438.90509
503.0 0.001988 437.23306 438.64676
471.0 0.002123 437.01865 438.39316
441.0 0.002268 436.80392 438.12997
489.0 0.002045 436.58905 437.85526
467.0 0.002141 436.37387 437.58102
436.0 0.002294 436.15845 437.32050
452.0 0.002212 435.94284 437.08154
435.0 0.002299 435.72696 436.86600
446.0 0.002242 435.51086 436.67160
433.0 0.002309 435.29456 436.49384
418.0 0.002392 435.07800 436.68427
448.0 0.002232 434.86124 436.54019
435.0 0.002299 434.64426 436.40503
457.0 0.002188 434.42706 436.27859
440.0 0.002273 434.20969 436.16132
426.0 0.002347 433.99203 436.05414
467.0 0.002141 433.77426 436.13754
453.0 0.002208 433.55621 436.06018
427.0 0.002342 433.33804 435.99774
452.0 0.002212 433.11960 435.95221
450.0 0.002222 432.90097 435.92624
427.0 0.002342 432.68222 435.92300
425.0 0.002353 432.46323 435.94620
462.0 0.002165 432.24414 436.00058
445.0 0.002247 432.02478 436.09195
457.0 0.002188 431.80524 436.22745
489.0 0.002045 431.58563 436.60367
452.0 0.002212 431.36575 436.86319
444.0 0.002252 431.14581 437.18756
460.0 0.002174 430.92563 437.62735
450.0 0.002222 430.70532 438.19476
467.0 0.002141 430.48489 438.93240
424.0 0.002358 430.26425 440.01291
476.0 0.002101 430.04355 441.40704
475.0 0.002105 429.82263 443.59052
457.0 0.002188 429.60159 447.34845
453.0 0.002208 429.38046 454.21130
460.0 0.002174 429.15918 466.71149
455.0 0.002198 428.93781 488.21704
444.0 0.002252 428.71628 521.98114
546.0 0.001832 428.49463 569.23718
627.0 0.001595 428.27289 627.04291
750.0 0.001333 428.05106 686.84265
812.0 0.001232 427.82910 734.50482
786.0 0.001272 427.60706 755.53748
790.0 0.001266 427.38489 747.19287
772.0 0.001295 427.16269 721.61816
797.0 0.001255 426.94034 692.80017
721.0 0.001387 426.71799 666.91125
602.0 0.001661 426.49548 641.48694
646.0 0.001548 426.27292 611.18658
587.0 0.001704 426.05035 575.69250
529.0 0.001890 425.82764 539.61401
539.0 0.001855 425.60495 507.67926
508.0 0.001969 425.38211 482.60767
487.0 0.002053 425.15924 465.02631
427.0 0.002342 424.93640 453.93848
403.0 0.002481 424.71344 447.58463
423.0 0.002364 424.49051 444.25589
465.0 0.002151 424.26749 442.70224
457.0 0.002188 424.04443 442.19809
466.0 0.002146 423.82144 442.41647
493.0 0.002028 423.59833 443.31866
434.0 0.002304 423.37531 445.14978
467.0 0.002141 423.15219 448.60245
455.0 0.002198 422.92911 455.15784
466.0 0.002146 422.70602 467.50229
471.0 0.002123 422.48294 489.70941
458.0 0.002183 422.25989 526.57788
534.0 0.001873 422.03677 581.80170
646.0 0.001548 421.81372 655.07611
766.0 0.001305 421.59073 739.42218
831.0 0.001203 421.36774 819.91046
862.0 0.001160 421.14478 875.41089
852.0 0.001174 420.92188 889.77594
849.0 0.001178 420.69897 867.42584
838.0 0.001193 420.47617 828.38318
801.0 0.001248 420.25336 789.31488
738.0 0.001355 420.03064 754.88269
690.0 0.001449 419.80798 719.49725
651.0 0.001536 419.58536 677.23871
631.0 0.001585 419.36285 630.94379
565.0 0.001770 419.14038 589.23322
537.0 0.001862 418.91806 560.41077
541.0 0.001848 418.69574 549.90576
524.0 0.001908 418.47351 559.16541
596.0 0.001678 418.25143 584.95502
674.0 0.001484 418.02942 619.46698
688.0 0.001453 417.80756 651.13684
679.0 0.001473 417.58572 667.68573
724.0 0.001381 417.36401 663.78656
729.0 0.001372 417.14249 645.61041
637.0 0.001570 416.92102 623.33350
629.0 0.001590 416.69974 602.94818
577.0 0.001733 416.47852 584.23486
554.0 0.001805 416.25748 563.30853
567.0 0.001764 416.03659 538.22369
551.0 0.001815 415.81583 511.26553
483.0 0.002070 415.59525 486.00635
472.0 0.002119 415.37476 464.96106
426.0 0.002347 415.15448 449.18021
419.0 0.002387 414.93436 438.40323
402.0 0.002488 414.71439 431.55511
420.0 0.002381 414.49463 427.35876
436.0 0.002294 414.27502 424.74161
431.0 0.002320 414.05554 422.98782
409.0 0.002445 413.83636 421.69110
435.0 0.002299 413.61728 420.40063
406.0 0.002463 413.39844 419.51785
425.0 0.002353 413.17981 418.74185
437.0 0.002288 412.96133 418.04706
420.0 0.002381 412.74313 417.41699
395.0 0.002532 412.52512 416.71542
394.0 0.002538 412.30734 416.18600
408.0 0.002451 412.08972 415.69324
407.0 0.002457 411.87238 415.23160
411.0 0.002433 411.65530 414.79666
425.0 0.002353 411.43839 414.38452
407.0 0.002457 411.22180 413.99240
440.0 0.002273 411.00537 413.61752
429.0 0.002331 410.78922 413.25793
386.0 0.002591 410.57339 412.91214
375.0 0.002667 410.35773 412.57834
443.0 0.002257 410.14243 412.25543
413.0 0.002421 409.92731 411.94229
421.0 0.002375 409.71249 411.63818
390.0 0.002564 409.49796 411.34235
421.0 0.002375 409.28366 411.05408
405.0 0.002469 409.06973 410.77316
423.0 0.002364 408.85599 410.49896
434.0 0.002304 408.64261 410.29129
426.0 0.002347 408.42953 410.03217
399.0 0.002506 408.21674 409.77951
408.0 0.002451 408.00424 409.53354
382.0 0.002618 407.79208 409.29456
365.0 0.002740 407.58020 409.06320
389.0 0.002571 407.36865 408.50613
432.0 0.002315 407.15744 408.30606
380.0 0.002632 406.94653 408.11945
411.0 0.002433 406.73599 407.95450
421.0 0.002375 406.52573 407.82886
392.0 0.002551 406.31589 407.77789
369.0 0.002710 406.10629 407.68674
341.0 0.002933 405.89713 408.01743
415.0 0.002410 405.68823 408.70770
427.0 0.002342 405.47971 409.86624
437.0 0.002288 405.27161 411.52332
406.0 0.002463 405.06378 413.56244
425.0 0.002353 404.85641 415.67142
391.0 0.002558 404.64932 417.35532
396.0 0.002525 404.44263 418.10336
408.0 0.002451 404.23636 417.76019
423.0 0.002364 404.03040 416.48428
403.0 0.002481 403.82492 415.16550
415.0 0.002410 403.61972 413.92081
417.0 0.002398 403.41498 412.75702
394.0 0.002538 403.21063 411.49426
384.0 0.002604 403.00662 410.02112
412.0 0.002427 402.80310 408.33215
394.0 0.002538 402.59991 406.79019
433.0 0.002309 402.39716 405.44424
405.0 0.002469 402.19482 404.36621
408.0 0.002451 401.99292 403.55826
429.0 0.002331 401.79141 402.97549
382.0 0.002618 401.59033 402.55386
410.0 0.002439 401.38965 402.23447
410.0 0.002439 401.18942 401.97479
424.0 0.002358 400.98962 401.74890
366.0 0.002732 400.79028 401.54324
402.0 0.002488 400.59134 401.35120
402.0 0.002488 400.39285 401.17041
418.0 0.002392 400.19485 400.99988
438.0 0.002283 399.99722 400.83951
380.0 0.002632 399.80014 400.69000
415.0 0.002410 399.60339 400.55222
382.0 0.002618 399.40717 400.42780
410.0 0.002439 399.21143 400.31882
404.0 0.002475 399.01608 400.22815
380.0 0.002632 398.82129 400.15970
385.0 0.002597 398.62689 400.11917
455.0 0.002198 398.43295 400.11578
378.0 0.002646 398.23956 400.16690
427.0 0.002342 398.04660 400.30865
387.0 0.002584 397.85419 400.61902
403.0 0.002481 397.66217 401.25790
419.0 0.002387 397.47064 402.52051
376.0 0.002660 397.27966 404.87878
389.0 0.002571 397.08911 408.95859
409.0 0.002445 396.89914 415.38065
391.0 0.002558 396.70959 424.46649
411.0 0.002433 396.52057 435.86703
401.0 0.002494 396.33203 448.26727
458.0 0.002183 396.14401 459.34494
421.0 0.002375 395.95651 466.19504
444.0 0.002252 395.76950 467.05389
446.0 0.002242 395.58301 463.00662
428.0 0.002336 395.39703 456.87137
392.0 0.002551 395.21158 450.85239
427.0 0.002342 395.02664 445.58429
390.0 0.002564 394.84222 440.29840
430.0 0.002326 394.65829 433.95822
355.0 0.002817 394.47498 426.53842
414.0 0.002415 394.29208 418.89688
395.0 0.002532 394.10980 411.94357
406.0 0.002463 393.92804 406.24930
394.0 0.002538 393.74677 402.00830
391.0 0.002558 393.56610 399.09735
378.0 0.002646 393.38589 397.21112
386.0 0.002591 393.20633 396.01288
355.0 0.002817 393.02722 395.22614
376.0 0.002660 392.84866 394.66678
401.0 0.002494 392.67072 394.22882
429.0 0.002331 392.49326 393.85751
441.0 0.002268 392.31641 393.51990
410.0 0.002439 392.14005 393.21310
364.0 0.002747 391.96426 392.93097
374.0 0.002674 391.78909 392.66519
374.0 0.002674 391.61441 392.41266
405.0 0.002469 391.44037 392.17123
374.0 0.002674 391.26682 392.09155
384.0 0.002604 391.09384 391.87173
382.0 0.002618 390.92148 391.65884
412.0 0.002427 390.74966 391.45203
400.0 0.002500 390.57840 391.25046
362.0 0.002762 390.40771 391.05371
403.0 0.002481 390.23761 390.93918
390.0 0.002564 390.06808 390.75262
382.0 0.002618 389.89914 390.56970
383.0 0.002611 389.73077 390.39014
385.0 0.002597 389.56299 390.21378
410.0 0.002439 389.39575 390.04047
385.0 0.002597 389.22919 389.87006
427.0 0.002342 389.06311 389.70248
376.0 0.002660 388.89767 389.53775
368.0 0.002717 388.73282 389.37592
407.0 0.002457 388.56854 389.21689
381.0 0.002625 388.40488 389.06104
373.0 0.002681 388.24179 388.90829
394.0 0.002538 388.07935 388.75912
398.0 0.002513 387.91742 388.61395
404.0 0.002475 387.75610 388.47379
384.0 0.002604 387.59546 388.34045
401.0 0.002494 387.43533 388.21811
396.0 0.002525 387.27588 388.11496
410.0 0.002439 387.11697 388.04651
415.0 0.002410 386.95868 388.03818
401.0 0.002494 386.80103 388.12488
386.0 0.002591 386.64392 388.34476
361.0 0.002770 386.48749 388.72382
422.0 0.002370 386.33163 389.25629
425.0 0.002353 386.17639 389.88528
397.0 0.002519 386.02176 390.49503
416.0 0.002404 385.86774 390.92126
396.0 0.002525 385.71439 391.01709
388.0 0.002577 385.56155 390.77209
375.0 0.002667 385.40939 390.32535
429.0 0.002331 385.25784 389.77679
408.0 0.002451 385.10693 389.33597
400.0 0.002500 384.95663 388.93420
376.0 0.002660 384.80695 388.50711
420.0 0.002381 384.65784 388.01093
378.0 0.002646 384.50940 387.46954
380.0 0.002632 384.36160 386.90942
401.0 0.002494 384.21439 386.44083
353.0 0.002833 384.06784 386.06030
373.0 0.002681 383.92188 385.77444
375.0 0.002667 383.77658 385.57355
396.0 0.002525 383.63187 385.43979
398.0 0.002513 383.48785 385.35544
361.0 0.002770 383.34439 385.30698
376.0 0.002660 383.20160 385.28656
414.0 0.002415 383.05945 385.29117
431.0 0.002320 382.91791 385.32077
369.0 0.002710 382.77704 385.37778
381.0 0.002625 382.63675 385.46585
373.0 0.002681 382.49710 385.59033
396.0 0.002525 382.35812 385.91019
388.0 0.002577 382.21976 386.13412
361.0 0.002770 382.08206 386.42200
405.0 0.002469 381.94498 386.79007
457.0 0.002188 381.80853 387.26306
402.0 0.002488 381.67273 387.88367
404.0 0.002475 381.53757 388.73740
388.0 0.002577 381.40308 390.07892
435.0 0.002299 381.26917 392.12338
418.0 0.002392 381.13593 395.64209
399.0 0.002506 381.00336 401.81235
414.0 0.002415 380.87140 412.35034
413.0 0.002421 380.74011 429.27740
422.0 0.002370 380.60944 454.30771
488.0 0.002049 380.47940 487.83478
565.0 0.001770 380.35004 527.90979
629.0 0.001590 380.22131 569.61725
648.0 0.001543 380.09326 605.05432
716.0 0.001397 379.96582 625.35425
684.0 0.001462 379.83902 626.19141
719.0 0.001391 379.71289 612.00543
632.0 0.001582 379.58740 591.71301
626.0 0.001597 379.46259 572.12085
552.0 0.001812 379.33838 555.27368
541.0 0.001848 379.21481 538.91949
502.0 0.001992 379.09195 519.50616
499.0 0.002004 378.96970 496.18805
527.0 0.001898 378.84811 471.27948
453.0 0.002208 378.72717 447.75433
439.0 0.002278 378.60687 427.77625
399.0 0.002506 378.48724 412.36099
413.0 0.002421 378.36826 401.45850
415.0 0.002410 378.24994 394.30734
403.0 0.002481 378.13223 389.85812
391.0 0.002558 378.01517 387.14001
371.0 0.002695 377.89883 385.43478
418.0 0.002392 377.78308 384.28793
409.0 0.002445 377.66803 383.44775
391.0 0.002558 377.55362 382.78510
389.0 0.002571 377.43985 382.23700
412.0 0.002427 377.32672 381.76749
377.0 0.002653 377.21426 381.36615
370.0 0.002703 377.10248 381.01740
362.0 0.002762 376.99130 380.71307
394.0 0.002538 376.88080 380.44702
393.0 0.002545 376.77097 380.21469
380.0 0.002632 376.66177 380.01071
406.0 0.002463 376.55325 379.83655
351.0 0.002849 376.44537 379.68845
375.0 0.002667 376.33813 379.56531
423.0 0.002364 376.23157 379.46683
409.0 0.002445 376.12561 379.39310
353.0 0.002833 376.02036 379.34497
394.0 0.002538 375.91574 379.32382
387.0 0.002584 375.81177 379.33182
373.0 0.002681 375.70847 379.37207
389.0 0.002571 375.60580 379.44858
378.0 0.002646 375.50381 379.56653
418.0 0.002392 375.40244 379.73297
363.0 0.002755 375.30173 379.95700
386.0 0.002591 375.20169 380.25119
349.0 0.002865 375.10226 380.63416
419.0 0.002387 375.00354 381.13638
381.0 0.002625 374.90543 381.81622
394.0 0.002538 374.80798 382.79269
385.0 0.002597 374.71121 384.31036
415.0 0.002410 374.61502 386.84708
395.0 0.002532 374.51956 391.24438
422.0 0.002370 374.42468 398.81076
384.0 0.002604 374.33051 411.25479
437.0 0.002288 374.23694 430.32086
446.0 0.002242 374.14404 457.09540
495.0 0.002020 374.05179 491.07022
551.0 0.001815 373.96014 529.42535
513.0 0.001949 373.86917 566.63684
611.0 0.001637 373.77887 594.99030
567.0 0.001764 373.68918 607.41626
584.0 0.001712 373.60016 602.72229
567.0 0.001764 373.51175 586.89478
543.0 0.001842 373.42401 567.79578
500.0 0.002000 373.33691 550.40106
465.0 0.002151 373.25043 535.44818
460.0 0.002174 373.16458 520.32513
491.0 0.002037 373.07941 502.01929
475.0 0.002105 372.99484 480.29544
484.0 0.002066 372.91095 457.42285
422.0 0.002370 372.82767 436.00092
393.0 0.002545 372.74503 417.87512
376.0 0.002660 372.66302 403.87631
408.0 0.002451 372.58163 393.93866
392.0 0.002551 372.50092 387.37680
415.0 0.002410 372.42078 383.26401
383.0 0.002611 372.34134 380.74710
369.0 0.002710 372.26245 379.19022
356.0 0.002809 372.18423 378.04312
393.0 0.002545 372.10663 377.40622
400.0 0.002500 372.02966 377.08148
411.0 0.002433 371.95334 376.90460
378.0 0.002646 371.87759 376.89737
375.0 0.002667 371.80252 377.00757
394.0 0.002538 371.72803 377.07721
388.0 0.002577 371.65417 377.15671
386.0 0.002591 371.58093 377.09418
381.0 0.002625 371.50830 376.80130
385.0 0.002597 371.43628 376.37274
383.0 0.002611 371.36490 375.90887
360.0 0.002778 371.29413 375.47839
396.0 0.002525 371.22394 375.09692
419.0 0.002387 371.15439 374.73334
361.0 0.002770 371.08542 374.34412
387.0 0.002584 371.01706 373.91663
382.0 0.002618 370.94931 373.47501
366.0 0.002732 370.88217 373.05319
385.0 0.002597 370.81561 372.67682
372.0 0.002688 370.74966 372.35925
379.0 0.002639 370.68433 372.10165
396.0 0.002525 370.61957 371.89594
362.0 0.002762 370.55542 371.73013
394.0 0.002538 370.49185 371.59216
392.0 0.002551 370.42883 371.47250
385.0 0.002597 370.36646 371.36481
379.0 0.002639 370.30463 371.26505
361.0 0.002770 370.24341 371.17120
371.0 0.002695 370.18277 371.08203
383.0 0.002611 370.12268 370.99695
358.0 0.002793 370.06320 370.91556
388.0 0.002577 370.00427 370.83752
398.0 0.002513 369.94592 370.76270
348.0 0.002874 369.88815 370.69083
336.0 0.002976 369.83093 370.62189
361.0 0.002770 369.77426 370.55585
348.0 0.002874 369.71817 370.49249
375.0 0.002667 369.66266 370.43195
384.0 0.002604 369.60767 370.37408
350.0 0.002857 369.55325 370.31891
358.0 0.002793 369.49939 370.26654
370.0 0.002703 369.44608 370.21701
365.0 0.002740 369.39331 370.17041
346.0 0.002890 369.34106 370.12686
398.0 0.002513 369.28937 370.08646
369.0 0.002710 369.23822 370.04953
364.0 0.002747 369.18759 370.01611
370.0 0.002703 369.13751 369.98666
367.0 0.002725 369.08795 369.96143
361.0 0.002770 369.03891 369.94080
390.0 0.002564 368.99042 369.92532
371.0 0.002695 368.94241 369.91550
379.0 0.002639 368.89496 369.91214
380.0 0.002632 368.84799 369.91605
353.0 0.002833 368.80151 369.92828
356.0 0.002809 368.75558 369.95004
380.0 0.002632 368.71011 369.82910
384.0 0.002604 368.66519 369.87918
378.0 0.002646 368.62073 369.94473
375.0 0.002667 368.57678 370.02881
396.0 0.002525 368.53333 370.13580
382.0 0.002618 368.49033 370.27173
362.0 0.002762 368.44785 370.44638
377.0 0.002653 368.40579 370.60236
372.0 0.002688 368.36426 370.92844
379.0 0.002639 368.32318 371.41928
395.0 0.002532 368.28256 372.21442
359.0 0.002786 368.24243 373.56042
361.0 0.002770 368.20273 375.84854
353.0 0.002833 368.16351 379.61102
385.0 0.002597 368.12473 385.44064
371.0 0.002695 368.08640 393.80978
368.0 0.002717 368.04849 404.79190
415.0 0.002410 368.01102 417.81097
457.0 0.002188 367.97403 431.45679
454.0 0.002203 367.93744 443.49374
437.0 0.002288 367.90128 451.29117
454.0 0.002203 367.86554 453.13370
457.0 0.002188 367.83020 449.66974
391.0 0.002558 367.79529 443.36310
435.0 0.002299 367.76080 436.63861
424.0 0.002358 367.72668 430.77087
396.0 0.002525 367.69299 425.69809
450.0 0.002222 367.65970 420.41107
405.0 0.002469 367.62677 413.95383
416.0 0.002404 367.59427 406.32950
407.0 0.002457 367.56210 398.30515
408.0 0.002451 367.53036 390.74942
404.0 0.002475 367.49896 384.28021
367.0 0.002725 367.46793 379.20117
381.0 0.002625 367.43726 375.52075
347.0 0.002882 367.40695 373.03040
392.0 0.002551 367.37698 371.43097
361.0 0.002770 367.34738 370.42819
386.0 0.002591 367.31808 369.79132
397.0 0.002519 367.28915 369.36609
353.0 0.002833 367.26056 369.06226
355.0 0.002817 367.23230 368.82227
384.0 0.002604 367.20435 368.62430
342.0 0.002924 367.17670 368.45511
392.0 0.002551 367.14938 368.30746
354.0 0.002825 367.12234 368.17670
376.0 0.002660 367.09564 368.06042
393.0 0.002545 367.06921 367.95721
355.0 0.002817 367.04306 367.86185
398.0 0.002513 367.01721 367.77466
381.0 0.002625 366.99164 367.69458
352.0 0.002841 366.96634 367.62064
336.0 0.002976 366.94128 367.55200
396.0 0.002525 366.91653 367.48804
353.0 0.002833 366.89200 367.42810
381.0 0.002625 366.86774 367.37173
338.0 0.002959 366.84372 367.31863
326.0 0.003067 366.81992 367.26822
384.0 0.002604 366.79636 367.22049
355.0 0.002817 366.77304 367.17502
375.0 0.002667 366.74994 367.13156
353.0 0.002833 366.72702 367.09003
334.0 0.002994 366.70435 367.05017
328.0 0.003049 366.68185 367.01184
367.0 0.002725 366.65958 366.97495
343.0 0.002915 366.63748 366.93927
363.0 0.002755 366.61560 366.90488
337.0 0.002967 366.59387 366.87155
367.0 0.002725 366.57230 366.83936
332.0 0.003012 366.55090 366.80798
370.0 0.002703 366.52969 366.77753
402.0 0.002488 366.50861 366.74792
381.0 0.002625 366.48767 366.71906
337.0 0.002967 366.46689 366.69098
376.0 0.002660 366.44626 366.66351
380.0 0.002632 366.42572 366.63678
388.0 0.002577 366.40533 366.61063
384.0 0.002604 366.38504 366.58508
370.0 0.002703 366.36487 366.60864
367.0 0.002725 366.34479 366.58548
372.0 0.002688 366.32483 366.56296
319.0 0.003135 366.30496 366.54092
347.0 0.002882 366.28516 366.51956
358.0 0.002793 366.26544 366.49872
356.0 0.002809 366.24579 366.47839
335.0 0.002985 366.22623 366.48282
370.0 0.002703 366.20670 366.46429
359.0 0.002786 366.18723 366.44650
380.0 0.002632 366.16779 366.42932
350.0 0.002857 366.14841 366.41284
357.0 0.002801 366.12906 366.39709
380.0 0.002632 366.10974 366.43472
373.0 0.002681 366.09042 366.42206
350.0 0.002857 366.07111 366.41043
396.0 0.002525 366.05185 366.39996
355.0 0.002817 366.03253 366.39087
356.0 0.002809 366.01324 366.32373
392.0 0.002551 365.99393 366.31931
376.0 0.002660 365.97458 366.34280
354.0 0.002825 365.95523 366.34348
386.0 0.002591 365.93585 366.34723
372.0 0.002688 365.91641 366.35541
382.0 0.002618 365.89694 366.37042
354.0 0.002825 365.87738 366.36774
340.0 0.002941 365.85779 366.41565
403.0 0.002481 365.83813 366.50021
391.0 0.002558 365.81839 366.64664
354.0 0.002825 365.79858 366.89090
379.0 0.002639 365.77869 367.27551
347.0 0.002882 365.75870 367.83936
369.0 0.002710 365.73859 368.60205
361.0 0.002770 365.71841 369.54382
361.0 0.002770 365.69809 370.59198
374.0 0.002674 365.67764 371.61386
351.0 0.002849 365.65710 372.42865
390.0 0.002564 365.63641 372.86182
330.0 0.003030 365.61557 372.84872
349.0 0.002865 365.59460 372.49149
404.0 0.002475 365.57346 371.97968
351.0 0.002849 365.55219 371.47159
377.0 0.002653 365.53073 371.03830
351.0 0.002849 365.50912 370.66058
376.0 0.002660 365.48734 370.26120
376.0 0.002660 365.46533 369.77509
374.0 0.002674 365.44318 369.20416
361.0 0.002770 365.42081 368.60330
346.0 0.002890 365.39822 368.03613
353.0 0.002833 365.37543 367.54984
379.0 0.002639 365.35245 367.17007
373.0 0.002681 365.32922 366.90097
390.0 0.002564 365.30579 366.73059
415.0 0.002410 365.28210 366.69836
380.0 0.002632 365.25818 366.66681
383.0 0.002611 365.23401 366.67673
367.0 0.002725 365.20959 366.71695
372.0 0.002688 365.18491 366.78146
357.0 0.002801 365.15997 366.86838
336.0 0.002976 365.13477 366.97910
357.0 0.002801 365.10928 367.14508
350.0 0.002857 365.08353 367.32343
367.0 0.002725 365.05746 367.55432
352.0 0.002841 365.03110 367.87390
373.0 0.002681 365.00446 368.34821
369.0 0.002710 364.97751 369.09622
336.0 0.002976 364.95026 370.31418
372.0 0.002688 364.92267 372.29187
377.0 0.002653 364.89478 375.39600
371.0 0.002695 364.86655 380.00760
356.0 0.002809 364.83798 386.39224
384.0 0.002604 364.80908 394.53714
376.0 0.002660 364.77982 404.00818
427.0 0.002342 364.75024 413.85107
366.0 0.002732 364.72028 422.62216
394.0 0.002538 364.68997 428.63483
405.0 0.002469 364.65933 430.74905
399.0 0.002506 364.62827 429.29160
380.0 0.002632 364.59689 425.94733
391.0 0.002558 364.56509 422.56418
403.0 0.002481 364.53290 420.57904
402.0 0.002488 364.50034 420.63013
359.0 0.002786 364.46738 422.60526
405.0 0.002469 364.43405 425.94012
404.0 0.002475 364.40027 430.11234
476.0 0.002101 364.36609 434.76666
412.0 0.002427 364.33154 439.25858
511.0 0.001957 364.29654 442.47040
470.0 0.002128 364.26114 443.01596
421.0 0.002375 364.22528 440.18393
478.0 0.002092 364.18903 434.68069
499.0 0.002004 364.15231 428.11868
426.0 0.002347 364.11520 421.93283
444.0 0.002252 364.07761 416.82196
379.0 0.002639 364.03958 412.65186
377.0 0.002653 364.00110 408.66708
456.0 0.002193 363.96219 404.04199
386.0 0.002591 363.92282 398.51718
409.0 0.002445 363.88297 392.47427
373.0 0.002681 363.84268 386.51196
364.0 0.002747 363.80191 381.14249
363.0 0.002755 363.76065 376.68634
378.0 0.002646 363.71896 373.25592
351.0 0.002849 363.67676 370.79288
375.0 0.002667 363.63409 369.12582
387.0 0.002584 363.59094 368.04739
359.0 0.002786 363.54730 367.36670
344.0 0.002907 363.50317 366.93710
357.0 0.002801 363.45859 366.66135
366.0 0.002732 363.41345 366.48129
377.0 0.002653 363.36783 366.36572
372.0 0.002688 363.32175 366.30014
344.0 0.002907 363.27515 366.27875
370.0 0.002703 363.22806 366.30124
360.0 0.002778 363.18042 366.38510
372.0 0.002688 363.13229 366.54935
370.0 0.002703 363.08368 366.84158
351.0 0.002849 363.03455 367.35239
431.0 0.002320 362.98489 368.24030
382.0 0.002618 362.93472 369.75586
386.0 0.002591 362.88403 372.24847
434.0 0.002304 362.83286 376.14011
369.0 0.002710 362.78113 381.82758
343.0 0.002915 362.72888 389.53333
409.0 0.002445 362.67612 399.13766
444.0 0.002252 362.62283 410.02051
471.0 0.002123 362.56903 420.99344
500.0 0.002000 362.51468 430.35855
491.0 0.002037 362.45984 436.25391
490.0 0.002041 362.40445 437.57813
497.0 0.002012 362.34851 434.83127
481.0 0.002079 362.29208 429.75287
453.0 0.002208 362.23511 424.15387
428.0 0.002336 362.17761 419.15903
457.0 0.002188 362.11960 414.98984
437.0 0.002288 362.06104 411.09512
424.0 0.002358 362.00195 406.62869
436.0 0.002294 361.94235 401.14999
392.0 0.002551 361.88223 394.91736
416.0 0.002404 361.82156 388.55081
356.0 0.002809 361.76035 382.66284
406.0 0.002463 361.69864 377.70023
365.0 0.002740 361.63638 373.91519
396.0 0.002525 361.57361 371.40292
399.0 0.002506 361.51031 370.16257
354.0 0.002825 361.44650 370.17972
362.0 0.002762 361.38217 371.47067
384.0 0.002604 361.31729 374.07474
390.0 0.002564 361.25192 377.98245
414.0 0.002415 361.18600 383.04156
458.0 0.002183 361.11960 388.86072
420.0 0.002381 361.05267 394.71301
493.0 0.002028 360.98520 399.75452
450.0 0.002222 360.91727 402.90607
492.0 0.002033 360.84879 403.54547
492.0 0.002033 360.77982 401.92487
454.0 0.002203 360.71033 398.99173
441.0 0.002268 360.64035 395.74930
428.0 0.002336 360.56985 392.81143
429.0 0.002331 360.49887 390.37534
423.0 0.002364 360.42737 388.13397
431.0 0.002320 360.35541 385.61365
433.0 0.002309 360.28293 382.53052
420.0 0.002381 360.20999 378.98837
360.0 0.002778 360.13657 375.26340
367.0 0.002725 360.06262 371.79596
363.0 0.002755 359.98825 368.77692
346.0 0.002890 359.91336 366.33249
371.0 0.002695 359.83801 364.47916
362.0 0.002762 359.76221 363.14905
335.0 0.002985 359.68591 362.23108
381.0 0.002625 359.60916 361.58087
325.0 0.003077 359.53198 361.14905
358.0 0.002793 359.45432 360.83521
363.0 0.002755 359.37622 360.59073
376.0 0.002660 359.29767 360.38705
380.0 0.002632 359.21866 360.20795
360.0 0.002778 359.13925 360.04480
378.0 0.002646 359.05939 359.89328
335.0 0.002985 358.97910 359.75046
373.0 0.002681 358.89838 359.61459
391.0 0.002558 358.81726 359.48453
372.0 0.002688 358.73569 359.36148
357.0 0.002801 358.65375 359.24039
342.0 0.002924 358.57138 359.12271
323.0 0.003096 358.48862 359.00806
357.0 0.002801 358.40549 358.89590
338.0 0.002959 358.32193 358.78583
327.0 0.003058 358.23801 358.67776
346.0 0.002890 358.15369 358.57123
397.0 0.002519 358.06900 358.46729
367.0 0.002725 357.98398 358.36343
316.0 0.003165 357.89856 358.26068
363.0 0.002755 357.81281 358.16000
409.0 0.002445 357.72668 358.05902
351.0 0.002849 357.64020 357.95874
371.0 0.002695 357.55344 357.85901
360.0 0.002778 357.46628 357.75989
388.0 0.002577 357.37881 357.66119
379.0 0.002639 357.29105 357.56290
331.0 0.003021 357.20294 357.46558
350.0 0.002857 357.11456 357.36798
330.0 0.003030 357.02585 357.27066
339.0 0.002950 356.93686 357.17358
359.0 0.002786 356.84756 357.02206
361.0 0.002770 356.75800 356.92297
362.0 0.002762 356.66815 356.82782
306.0 0.003268 356.57803 356.73279
341.0 0.002933 356.48767 356.63785
365.0 0.002740 356.39703 356.54297
373.0 0.002681 356.30615 356.44809
358.0 0.002793 356.21506 356.32581
297.0 0.003367 356.12369 356.22977
367.0 0.002725 356.03214 356.13577
350.0 0.002857 355.94031 356.04169
356.0 0.002809 355.84830 355.94766
345.0 0.002899 355.75610 355.85361
357.0 0.002801 355.66370 355.75958
378.0 0.002646 355.57108 355.66559
350.0 0.002857 355.47827 355.57156
367.0 0.002725 355.38531 355.47763
339.0 0.002950 355.29218 355.38379
378.0 0.002646 355.19891 355.28992
400.0 0.002500 355.10547 355.19620
323.0 0.003096 355.01187 355.10260
344.0 0.002907 354.91812 355.00912
360.0 0.002778 354.82431 354.91595
335.0 0.002985 354.73029 354.82300
324.0 0.003086 354.63620 354.73041
360.0 0.002778 354.54202 354.60526
367.0 0.002725 354.44769 354.51508
330.0 0.003030 354.35330 354.42664
337.0 0.002967 354.25882 354.34082
368.0 0.002717 354.16428 354.25967
314.0 0.003185 354.06964 354.18539
359.0 0.002786 353.97495 354.12122
337.0 0.002967 353.88025 354.05353
322.0 0.003106 353.78546 354.01834
354.0 0.002825 353.69064 353.99881
359.0 0.002786 353.59579 353.99179
346.0 0.002890 353.50092 353.99063
342.0 0.002924 353.40607 353.98441
323.0 0.003096 353.31119 353.95996
356.0 0.002809 353.21634 353.90540
376.0 0.002660 353.12146 353.81796
358.0 0.002793 353.02661 353.70734
342.0 0.002924 352.93179 353.59015
343.0 0.002915 352.83701 353.48331
367.0 0.002725 352.74228 353.40076
314.0 0.003185 352.64758 353.35309
319.0 0.003135 352.55295 353.34818
369.0 0.002710 352.45840 353.39273
340.0 0.002941 352.36392 353.49353
345.0 0.002899 352.26953 353.65411
314.0 0.003185 352.17520 353.86804
341.0 0.002933 352.08099 354.12897
324.0 0.003086 351.98688 354.36548
365.0 0.002740 351.89288 354.54016
364.0 0.002747 351.79904 354.60281
353.0 0.002833 351.70529 354.53629
323.0 0.003096 351.61169 354.37381
356.0 0.002809 351.51825 354.17932
338.0 0.002959 351.42493 354.01132
319.0 0.003135 351.33182 353.92084
391.0 0.002558 351.23883 353.87076
377.0 0.002653 351.14600 353.84875
362.0 0.002762 351.05341 353.80148
386.0 0.002591 350.96097 353.68362
355.0 0.002817 350.86877 353.49997
403.0 0.002481 350.77673 353.19870
350.0 0.002857 350.68491 352.84564
399.0 0.002506 350.59332 352.47729
392.0 0.002551 350.50195 352.13544
344.0 0.002907 350.41083 351.84052
323.0 0.003096 350.31995 351.59378
329.0 0.003040 350.22931 351.38135
366.0 0.002732 350.13892 351.18213
354.0 0.002825 350.04877 350.98013
344.0 0.002907 349.95892 350.77142
363.0 0.002755 349.86935 350.56149
323.0 0.003096 349.78003 350.35846
354.0 0.002825 349.69104 350.16922
341.0 0.002933 349.60233 349.99814
341.0 0.002933 349.51389 349.84637
361.0 0.002770 349.42578 349.71283
361.0 0.002770 349.33798 349.59445
337.0 0.002967 349.25052 349.48792
356.0 0.002809 349.16336 349.38971
342.0 0.002924 349.07654 349.29730
333.0 0.003003 348.99005 349.20871
329.0 0.003040 348.90390 349.12283
363.0 0.002755 348.81812 349.03894
364.0 0.002747 348.73267 348.95663
360.0 0.002778 348.64761 348.87585
341.0 0.002933 348.56290 348.79626
362.0 0.002762 348.47855 348.71799
347.0 0.002882 348.39459 348.64108
316.0 0.003165 348.31097 348.56552
349.0 0.002865 348.22781 348.49136
335.0 0.002985 348.14499 348.41858
336.0 0.002976 348.06253 348.34738
356.0 0.002809 347.98056 348.27774
316.0 0.003165 347.89893 348.20978
334.0 0.002994 347.81772 348.14374
333.0 0.003003 347.73694 348.07980
314.0 0.003185 347.65652 348.01895
362.0 0.002762 347.57660 347.95956
336.0 0.002976 347.49707 347.90271
355.0 0.002817 347.41797 347.84900
330.0 0.003030 347.33929 347.79852
317.0 0.003155 347.26105 347.75198
335.0 0.002985 347.18326 347.70975
329.0 0.003040 347.10590 347.67255
355.0 0.002817 347.02899 347.64212
342.0 0.002924 346.95251 347.61838
323.0 0.003096 346.87653 347.60455
336.0 0.002976 346.80096 347.60406
347.0 0.002882 346.72586 347.62454
325.0 0.003077 346.65121 347.67813
327.0 0.003058 346.57703 347.78833
348.0 0.002874 346.50333 347.99106
349.0 0.002865 346.43008 348.34048
348.0 0.002874 346.35727 348.90906
341.0 0.002933 346.28494 349.78030
344.0 0.002907 346.21307 351.03391
371.0 0.002695 346.14172 352.71860
384.0 0.002604 346.07080 354.82169
367.0 0.002725 346.00040 357.24643
400.0 0.002500 345.93042 359.79306
387.0 0.002584 345.86093 362.16672
378.0 0.002646 345.79193 364.01358
372.0 0.002688 345.72339 365.04230
388.0 0.002577 345.65533 365.21527
363.0 0.002755 345.58777 364.82770
381.0 0.002625 345.52066 364.36584
374.0 0.002674 345.45404 364.31772
330.0 0.003030 345.38788 365.04129
354.0 0.002825 345.32220 366.71646
358.0 0.002793 345.25699 369.31216
387.0 0.002584 345.19226 372.60852
403.0 0.002481 345.12802 376.26743
419.0 0.002387 345.06424 379.90213
390.0 0.002564 345.00092 382.98007
387.0 0.002584 344.93811 384.95267
393.0 0.002545 344.87570 385.31656
433.0 0.002309 344.81378 384.04962
380.0 0.002632 344.75235 381.59189
371.0 0.002695 344.69138 378.60016
377.0 0.002653 344.63086 375.65778
366.0 0.002732 344.57077 373.11127
403.0 0.002481 344.51114 370.97961
361.0 0.002770 344.45200 369.05606
370.0 0.002703 344.39328 366.98737
376.0 0.002660 344.33502 364.59952
355.0 0.002817 344.27719 361.82996
357.0 0.002801 344.21976 358.88446
351.0 0.002849 344.16284 355.98560
350.0 0.002857 344.10629 353.33041
336.0 0.002976 344.05020 351.05511
354.0 0.002825 343.99454 349.21899
343.0 0.002915 343.93927 347.81573
322.0 0.003106 343.88443 346.80814
374.0 0.002674 343.82999 346.08432
357.0 0.002801 343.77597 345.58078
363.0 0.002755 343.72232 345.22787
334.0 0.002994 343.66910 344.97269
339.0 0.002950 343.61624 344.77859
351.0 0.002849 343.56378 344.62225
365.0 0.002740 343.51172 344.48999
351.0 0.002849 343.45999 344.37354
309.0 0.003236 343.40863 344.26859
326.0 0.003067 343.35764 344.17236
351.0 0.002849 343.30701 344.08334
351.0 0.002849 343.25674 344.00046
362.0 0.002762 343.20679 343.92276
354.0 0.002825 343.15717 343.84982
330.0 0.003030 343.10788 343.78119
348.0 0.002874 343.05893 343.71652
295.0 0.003390 343.01025 343.65570
333.0 0.003003 342.96191 343.59875
353.0 0.002833 342.91385 343.54593
329.0 0.003040 342.86609 343.49829
328.0 0.003049 342.81863 343.45728
337.0 0.002967 342.77142 343.42590
358.0 0.002793 342.72449 343.40817
348.0 0.002874 342.67780 343.41022
330.0 0.003030 342.63135 343.43854
324.0 0.003086 342.58514 343.50009
373.0 0.002681 342.53922 343.59952
343.0 0.002915 342.49347 343.73672
333.0 0.003003 342.44794 343.90509
317.0 0.003155 342.40262 344.09064
367.0 0.002725 342.35751 344.26828
329.0 0.003040 342.31256 344.40894
340.0 0.002941 342.26779 344.48315
352.0 0.002841 342.22321 344.47571
347.0 0.002882 342.17874 344.39609
359.0 0.002786 342.13446 344.27274
342.0 0.002924 342.09030 344.13730
330.0 0.003030 342.04626 344.01294
317.0 0.003155 342.00235 343.90839
324.0 0.003086 341.95856 343.82062
333.0 0.003003 341.91483 343.73682
320.0 0.003125 341.87122 343.64313
366.0 0.002732 341.82764 343.53433
348.0 0.002874 341.78412 343.41534
349.0 0.002865 341.74069 343.28082
363.0 0.002755 341.69727 343.17480
350.0 0.002857 341.65390 343.08945
350.0 0.002857 341.61053 343.03006
330.0 0.003030 341.56717 342.99957
350.0 0.002857 341.52383 342.99841
366.0 0.002732 341.48044 343.02603
335.0 0.002985 341.43704 343.08182
372.0 0.002688 341.39359 343.19864
357.0 0.002801 341.35007 343.32220
333.0 0.003003 341.30649 343.49634
356.0 0.002809 341.26285 343.74808
322.0 0.003106 341.21912 344.12460
370.0 0.002703 341.17526 344.70294
311.0 0.003215 341.13132 345.59854
343.0 0.002915 341.08722 346.96906
356.0 0.002809 341.04300 349.02426
356.0 0.002809 340.99863 351.93826
339.0 0.002950 340.95407 355.89941
338.0 0.002959 340.90936 360.98532
370.0 0.002703 340.86447 367.12604
345.0 0.002899 340.81934 374.01144
374.0 0.002674 340.77402 381.12228
370.0 0.002703 340.72845 387.73242
346.0 0.002890 340.68265 393.06168
359.0 0.002786 340.63660 396.56464
405.0 0.002469 340.59024 398.18906
387.0 0.002584 340.54364 398.43588
387.0 0.002584 340.49673 398.21732
389.0 0.002571 340.44952 398.52557
361.0 0.002770 340.40201 400.03430
393.0 0.002545 340.35413 402.90836
436.0 0.002294 340.30591 406.73703
428.0 0.002336 340.25732 410.66794
442.0 0.002262 340.20834 413.62173
422.0 0.002370 340.15900 414.53653
457.0 0.002188 340.10925 412.77429
468.0 0.002137 340.05908 408.37753
494.0 0.002024 340.00848 402.22989
438.0 0.002283 339.95746 395.47861
386.0 0.002591 339.90598 389.12610
350.0 0.002857 339.85400 383.75534
384.0 0.002604 339.80154 379.48853
404.0 0.002475 339.74860 376.03387
368.0 0.002717 339.69516 372.86111
370.0 0.002703 339.64117 369.48700
366.0 0.002732 339.58667 365.72662
382.0 0.002618 339.53162 361.70673
360.0 0.002778 339.47598 357.68945
334.0 0.002994 339.41977 353.93539
401.0 0.002494 339.36298 350.63934
384.0 0.002604 339.30560 347.90845
359.0 0.002786 339.24756 345.76614
331.0 0.003021 339.18893 344.16379
333.0 0.003003 339.12964 343.01028
324.0 0.003086 339.06973 342.19974
364.0 0.002747 339.00909 341.63214
328.0 0.003049 338.94778 341.22733
318.0 0.003145 338.88583 340.92667
353.0 0.002833 338.82312 340.69186
356.0 0.002809 338.75974 340.49951
334.0 0.002994 338.69556 340.33676
384.0 0.002604 338.63071 340.19730
344.0 0.002907 338.56503 340.07935
411.0 0.002433 338.49860 339.98404
309.0 0.003236 338.43140 339.91458
373.0 0.002681 338.36340 339.87479
341.0 0.002933 338.29462 339.86841
309.0 0.003236 338.22498 339.89682
317.0 0.003155 338.15451 340.01385
332.0 0.003012 338.08322 340.10040
327.0 0.003058 338.01105 340.19809
348.0 0.002874 337.93805 340.28748
347.0 0.002882 337.86414 340.34576
340.0 0.002941 337.78934 340.35345
345.0 0.002899 337.71368 340.30414
364.0 0.002747 337.63705 340.21057
345.0 0.002899 337.55954 340.09622
330.0 0.003030 337.48108 340.01318
366.0 0.002732 337.40167 339.92511
345.0 0.002899 337.32132 339.86890
340.0 0.002941 337.23999 339.84875
355.0 0.002817 337.15768 339.86838
360.0 0.002778 337.07440 339.94205
345.0 0.002899 336.99011 340.10718
350.0 0.002857 336.90482 340.43420
344.0 0.002907 336.81851 341.02963
329.0 0.003040 336.73120 342.03452
324.0 0.003086 336.64282 343.61349
348.0 0.002874 336.55338 345.93045
323.0 0.003096 336.46292 349.10834
393.0 0.002545 336.37140 353.18097
380.0 0.002632 336.27881 358.03848
427.0 0.002342 336.18512 363.39856
455.0 0.002198 336.09033 368.78754
429.0 0.002331 335.99448 373.56473
411.0 0.002433 335.89749 377.02301
413.0 0.002421 335.79944 378.62683
424.0 0.002358 335.70020 378.33347
431.0 0.002320 335.59985 376.66116
400.0 0.002500 335.49841 374.40775
411.0 0.002433 335.39578 372.30209
374.0 0.002674 335.29205 370.81534
417.0 0.002398 335.18713 370.09131
371.0 0.002695 335.08105 369.95181
393.0 0.002545 334.97382 369.98065
412.0 0.002427 334.86539 369.71564
361.0 0.002770 334.75580 368.82819
377.0 0.002653 334.64499 367.19208
380.0 0.002632 334.53305 364.81232
404.0 0.002475 334.41986 361.82510
388.0 0.002577 334.30551 358.51447
397.0 0.002519 334.18991 355.24124
363.0 0.002755 334.07315 352.28986
372.0 0.002688 333.95514 349.87042
366.0 0.002732 333.83591 347.97253
335.0 0.002985 333.71548 346.52975
351.0 0.002849 333.59381 345.34225
327.0 0.003058 333.47095 344.21210
334.0 0.002994 333.34680 343.00925
356.0 0.002809 333.22147 341.71014
342.0 0.002924 333.09485 340.36652
344.0 0.002907 332.96704 339.04617
327.0 0.003058 332.83792 337.83606
293.0 0.003413 332.70758 336.76605
361.0 0.002770 332.57605 335.84467
322.0 0.003106 332.44324 335.13199
342.0 0.002924 332.30920 334.57590
346.0 0.002890 332.17389 334.14862
351.0 0.002849 332.03729 333.81998
357.0 0.002801 331.89954 333.56262
295.0 0.003390 331.76047 333.35455
361.0 0.002770 331.62021 333.18039
346.0 0.002890 331.47864 333.02994
351.0 0.002849 331.33585 332.88058
328.0 0.003049 331.19183 332.76355
364.0 0.002747 331.04654 332.66016
332.0 0.003012 330.90005 332.57065
317.0 0.003155 330.75226 332.49619
359.0 0.002786 330.60327 332.43890
335.0 0.002985 330.45306 332.40234
311.0 0.003215 330.30157 332.39249
325.0 0.003077 330.14893 332.42029
349.0 0.002865 329.99496 332.50491
346.0 0.002890 329.83981 332.68057
310.0 0.003226 329.68347 333.00607
335.0 0.002985 329.52588 333.57632
323.0 0.003096 329.36713 334.53519
318.0 0.003145 329.20712 336.08310
317.0 0.003155 329.04593 338.47128
317.0 0.003155 328.88358 341.97583
314.0 0.003185 328.71997 346.84796
330.0 0.003030 328.55524 353.24469
370.0 0.002703 328.38931 361.10251
375.0 0.002667 328.22217 370.12723
349.0 0.002865 328.05392 379.70352
371.0 0.002695 327.88449 388.91144
390.0 0.002564 327.71396 396.57660
401.0 0.002494 327.54221 401.51501
380.0 0.002632 327.36932 402.99207
362.0 0.002762 327.19537 401.17786
394.0 0.002538 327.02023 397.07529
359.0 0.002786 326.84409 391.95374
340.0 0.002941 326.66675 386.87766
340.0 0.002941 326.48831 382.46378
347.0 0.002882 326.30887 378.82495
373.0 0.002681 326.12827 375.62506
367.0 0.002725 325.94669 372.26941
329.0 0.003040 325.76398 368.22961
336.0 0.002976 325.58029 363.34885
358.0 0.002793 325.39551 357.85889
353.0 0.002833 325.20978 352.17004
315.0 0.003175 325.02295 346.69135
335.0 0.002985 324.83517 341.73804
348.0 0.002874 324.64642 337.50940
329.0 0.003040 324.45667 334.08319
298.0 0.003356 324.26599 331.43124
329.0 0.003040 324.07431 329.45456
305.0 0.003279 323.88174 328.01730
308.0 0.003247 323.68820 326.98129
314.0 0.003185 323.49384 326.22672
337.0 0.002967 323.29846 325.66144
326.0 0.003067 323.10223 325.22351
336.0 0.002976 322.90518 324.87653
320.0 0.003125 322.70721 324.60373
305.0 0.003279 322.50848 324.40369
294.0 0.003401 322.30887 324.25360
348.0 0.002874 322.10849 324.24509
290.0 0.003448 321.90726 324.32153
318.0 0.003145 321.70526 324.50674
285.0 0.00351 321.50253 324.78732
321.0 0.003115 321.29898 325.13885
314.0 0.003185 321.09479 325.51566
320.0 0.003125 320.88983 325.85312
304.0 0.003289 320.68414 326.07410
307.0 0.003257 320.47784 326.09244
330.0 0.003030 320.27081 325.91312
337.0 0.002967 320.06320 325.52786
318.0 0.003145 319.85489 325.00586
307.0 0.003257 319.64594 324.44763
317.0 0.003155 319.43649 323.90497
297.0 0.003367 319.22638 323.41049
279.0 0.00358 319.01578 322.96628
297.0 0.003367 318.80457 322.54697
336.0 0.002976 318.59283 322.11407
310.0 0.003226 318.38068 321.63593
317.0 0.003155 318.16794 321.10516
339.0 0.002950 317.95480 320.53275
311.0 0.003215 317.74115 319.95599
350.0 0.002857 317.52707 319.39499
322.0 0.003106 317.31265 318.86948
328.0 0.003049 317.09778 318.39169
307.0 0.003257 316.88260 317.96634
314.0 0.003185 316.66699 317.59177
301.0 0.003322 316.45105 317.26172
317.0 0.003155 316.23486 316.96780
306.0 0.003268 316.01834 316.70132
325.0 0.003077 315.80161 316.45468
309.0 0.003236 315.58453 316.22198
314.0 0.003185 315.36725 315.99936
317.0 0.003155 315.14981 315.78418
306.0 0.003268 314.93213 315.57523
297.0 0.003367 314.71436 315.37216
290.0 0.003448 314.49634 315.17542
328.0 0.003049 314.27823 314.98648
325.0 0.003077 314.06006 314.80859
333.0 0.003003 313.84177 314.64694
268.0 0.00373 313.62344 314.51114
302.0 0.003311 313.40503 314.41675
324.0 0.003086 313.18668 314.38751
289.0 0.003460 312.96823 314.45740
322.0 0.003106 312.74985 314.67099
311.0 0.003215 312.53156 315.07999
330.0 0.003030 312.31326 315.73691
313.0 0.003195 312.09515 316.68213
328.0 0.003049 311.87704 317.92944
285.0 0.00351 311.65918 319.45111
324.0 0.003086 311.44141 321.16501
338.0 0.002959 311.22385 322.93170
345.0 0.002899 311.00644 324.55463
308.0 0.003247 310.78922 325.80045
326.0 0.003067 310.57236 326.45547
348.0 0.002874 310.35568 326.41644
365.0 0.002740 310.13934 325.75766
308.0 0.003247 309.92328 324.69165
332.0 0.003012 309.70758 323.46393
329.0 0.003040 309.49219 322.26932
319.0 0.003135 309.27722 321.21747
307.0 0.003257 309.06259 320.26749
313.0 0.003195 308.84839 319.46628
353.0 0.002833 308.63470 318.64078
327.0 0.003058 308.42142 317.68594
301.0 0.003322 308.20865 316.56512
346.0 0.002890 307.99637 315.31622
302.0 0.003311 307.78458 314.01733
308.0 0.003247 307.57343 312.74963
301.0 0.003322 307.36276 311.57874
296.0 0.003378 307.15280 310.52197
326.0 0.003067 306.94333 309.65811
294.0 0.003401 306.73453 308.96191
315.0 0.003175 306.52643 308.42328
311.0 0.003215 306.31897 308.02634
321.0 0.003115 306.11227 307.75934
294.0 0.003401 305.90619 307.62170
319.0 0.003135 305.70087 307.63019
290.0 0.003448 305.49640 307.82202
293.0 0.003413 305.29263 308.25446
326.0 0.003067 305.08975 308.99936
302.0 0.003311 304.88760 310.13205
320.0 0.003125 304.68628 311.71155
323.0 0.003096 304.48593 313.75864
347.0 0.002882 304.28638 316.23474
310.0 0.003226 304.08780 319.02023
337.0 0.002967 303.89008 321.91095
399.0 0.002506 303.69327 324.61609
352.0 0.002841 303.49753 326.78754
403.0 0.002481 303.30267 328.09814
326.0 0.003067 303.10892 328.36993
376.0 0.002660 302.91608 327.67285
355.0 0.002817 302.72427 326.28522
313.0 0.003195 302.53360 324.56183
339.0 0.002950 302.34396 322.81055
298.0 0.003356 302.15546 321.22940
314.0 0.003185 301.96799 319.87909
320.0 0.003125 301.78168 318.68839
328.0 0.003049 301.59653 317.50983
334.0 0.002994 301.41251 316.17606
354.0 0.002825 301.22971 314.60306
316.0 0.003165 301.04807 312.81305
307.0 0.003257 300.86761 310.90210
316.0 0.003165 300.68845 308.98886
351.0 0.002849 300.51047 307.17950
326.0 0.003067 300.33380 305.55490
301.0 0.003322 300.15836 304.15842
339.0 0.002950 299.98425 303.00809
314.0 0.003185 299.81140 302.08829
324.0 0.003086 299.63992 301.36755
281.0 0.00356 299.46973 300.80658
290.0 0.003448 299.30087 300.36560
297.0 0.003367 299.13342 300.01016
306.0 0.003268 298.96732 299.71292
316.0 0.003165 298.80261 299.45419
305.0 0.003279 298.63928 299.22064
319.0 0.003135 298.47742 299.00388
309.0 0.003236 298.31693 298.79855
308.0 0.003247 298.15790 298.60184
302.0 0.003311 298.00031 298.41168
290.0 0.003448 297.84415 298.22702
297.0 0.003367 297.68951 298.04724
344.0 0.002907 297.53632 297.87186
302.0 0.003311 297.38467 297.70074
291.0 0.003436 297.23447 297.53369
287.0 0.003484 297.08585 297.37085
311.0 0.003215 296.93869 297.21243
332.0 0.003012 296.79303 297.05878
302.0 0.003311 296.64899 296.91028
298.0 0.003356 296.50644 296.77222
324.0 0.003086 296.36551 296.63629
268.0 0.00373 296.22610 296.50446
282.0 0.00355 296.08826 296.37735
299.0 0.003344 295.95203 296.25378
276.0 0.00362 295.81735 296.13187
300.0 0.003333 295.68430 296.00931
305.0 0.003279 295.55283 295.88373
297.0 0.003367 295.42294 295.75327
305.0 0.003279 295.29471 295.61777
291.0 0.003436 295.16806 295.48108
290.0 0.003448 295.04306 295.34143
271.0 0.00369 294.91968 295.20209
293.0 0.003413 294.79788 295.06558
306.0 0.003268 294.67780 294.92014
275.0 0.00364 294.55927 294.79089
293.0 0.003413 294.44244 294.66434
331.0 0.003021 294.32721 294.53912
308.0 0.003247 294.21362 294.41422
319.0 0.003135 294.10175 294.28949
310.0 0.003226 293.99142 294.16507
304.0 0.003289 293.88281 294.04208
281.0 0.00356 293.77585 293.92123
302.0 0.003311 293.67050 293.80301
317.0 0.003155 293.56683 293.68195
299.0 0.003344 293.46478 293.57047
308.0 0.003247 293.36441 293.46252
290.0 0.003448 293.26569 293.35770
314.0 0.003185 293.16858 293.25595
254.0 0.00394 293.07315 293.15692
289.0 0.003460 292.97934 293.06046
290.0 0.003448 292.88718 292.96613
283.0 0.00353 292.79663 292.87387
309.0 0.003236 292.70773 292.78357
295.0 0.003390 292.62048 292.69516
275.0 0.00364 292.53482 292.60858
283.0 0.00353 292.45084 292.52377
302.0 0.003311 292.36841 292.44067
324.0 0.003086 292.28763 292.35938
264.0 0.00379 292.20840 292.27979
304.0 0.003289 292.13083 292.20190
299.0 0.003344 292.05484 292.12576
286.0 0.003497 291.98041 292.05130
284.0 0.00352 291.90759 291.97852
277.0 0.00361 291.83630 291.90747
280.0 0.00357 291.76663 291.83813
270.0 0.00370 291.69849 291.77036
293.0 0.003413 291.63193 291.70441
275.0 0.00364 291.56683 291.64011
284.0 0.00352 291.50333 291.55884
294.0 0.003401 291.44131 291.49832
284.0 0.00352 291.38083 291.43945
293.0 0.003413 291.32187 291.38028
261.0 0.00383 291.26434 291.32477
311.0 0.003215 291.20834 291.27100
268.0 0.00373 291.15378 291.21884
290.0 0.003448 291.10071 291.16843
294.0 0.003401 291.04904 291.11975
313.0 0.003195 290.99884 291.07275
289.0 0.003460 290.95007 291.01843
284.0 0.00352 290.90268 290.97519
325.0 0.003077 290.85669 290.93274
297.0 0.003367 290.81207 290.89322
262.0 0.00382 290.76886 290.85556
276.0 0.00362 290.72699 290.81989
299.0 0.003344 290.68643 290.78616
289.0 0.003460 290.64722 290.75464
289.0 0.003460 290.60931 290.72534
287.0 0.003484 290.57272 290.69849
288.0 0.003472 290.53741 290.67432
276.0 0.00362 290.50336 290.65308
276.0 0.00362 290.47055 290.63544
277.0 0.00361 290.43896 290.62247
258.0 0.00388 290.40863 290.61581
310.0 0.003226 290.37949 290.61823
295.0 0.003390 290.35150 290.63437
298.0 0.003356 290.32471 290.67142
289.0 0.003460 290.29904 290.73999
280.0 0.00357 290.27454 290.85431
305.0 0.003279 290.25113 291.03210
279.0 0.00358 290.22882 291.29379
301.0 0.003322 290.20761 291.65881
318.0 0.003145 290.18744 292.14209
290.0 0.003448 290.16830 292.74860
300.0 0.003333 290.15021 293.46768
292.0 0.003425 290.13309 294.27020
285.0 0.00351 290.11697 295.10501
336.0 0.002976 290.10181 295.90125
308.0 0.003247 290.08759 296.57184
303.0 0.003300 290.07431 297.02975
294.0 0.003401 290.06192 297.21594
309.0 0.003236 290.05042 297.12958
290.0 0.003448 290.03979 296.83047
309.0 0.003236 290.03000 296.41019
311.0 0.003215 290.02103 295.95807
268.0 0.00373 290.01285 295.53854
301.0 0.003322 290.00549 295.18408
283.0 0.00353 289.99887 294.89322
309.0 0.003236 289.99295 294.63678
295.0 0.003390 289.98779 294.36911
267.0 0.00375 289.98334 294.04938
275.0 0.00364 289.97952 293.66122
305.0 0.003279 289.97638 293.21558
311.0 0.003215 289.97388 292.74179
304.0 0.003289 289.97195 292.26855
315.0 0.003175 289.97064 291.82431
285.0 0.00351 289.96991 291.42935
288.0 0.003472 289.96973 291.09521
306.0 0.003268 289.97003 290.82571
285.0 0.00351 289.97086 290.61774
346.0 0.002890 289.97214 290.46362
288.0 0.003472 289.97391 290.35336
311.0 0.003215 289.97610 290.27664
245.0 0.00408 289.97870 290.22504
281.0 0.00356 289.98169 290.18961
268.0 0.00373 289.98508 290.16544
330.0 0.003030 289.98877 290.14880
283.0 0.00353 289.99280 290.13708
276.0 0.00362 289.99713 290.12869
292.0 0.003425 290.00174 290.12268
272.0 0.00368 290.00659 290.11841
270.0 0.00370 290.01169 290.11557
267.0 0.00375 290.01700 290.11386
291.0 0.003436 290.02252 290.11304
303.0 0.003300 290.02820 290.11310
303.0 0.003300 290.03403 290.11380
293.0 0.003413 290.03995 290.11517
281.0 0.00356 290.04599 290.11703
291.0 0.003436 290.05212 290.11938
277.0 0.00361 290.05832 290.12216
299.0 0.003344 290.06458 290.12524
319.0 0.003135 290.07080 290.12863
279.0 0.00358 290.07706 290.13217
296.0 0.003378 290.08325 290.13602
270.0 0.00370 290.08945 290.13995
291.0 0.003436 290.09555 290.14398
268.0 0.00373 290.10156 290.14807
313.0 0.003195 290.10748 290.15234
271.0 0.00369 290.11325 290.15646
285.0 0.00351 290.11887 290.16064
310.0 0.003226 290.12433 290.16470
292.0 0.003425 290.12961 290.16876
307.0 0.003257 290.13467 290.17267
301.0 0.003322 290.13950 290.17642
282.0 0.00355 290.14407 290.18005
264.0 0.00379 290.14841 290.18347
298.0 0.003356 290.15244 290.18665
283.0 0.00353 290.15616 290.19766
271.0 0.00369 290.15958 290.20059
277.0 0.00361 290.16260 290.20325
279.0 0.00358 290.16531 290.20547
302.0 0.003311 290.16763 290.20752
297.0 0.003367 290.16956 290.20914
266.0 0.00376 290.17105 290.21048
308.0 0.003247 290.17212 290.21140
304.0 0.003289 290.17273 290.21194
305.0 0.003279 290.17288 290.21219
283.0 0.00353 290.17258 290.21188
311.0 0.003215 290.17175 290.21527
270.0 0.00370 290.17041 290.21417
271.0 0.00369 290.16852 290.21262
332.0 0.003012 290.16611 290.21063
309.0 0.003236 290.16315 290.20819
279.0 0.00358 290.15958 290.20514
318.0 0.003145 290.15543 290.20160
294.0 0.003401 290.15067 290.19757
305.0 0.003279 290.14529 290.19305
300.0 0.003333 290.13931 290.18799
294.0 0.003401 290.13266 290.18240
317.0 0.003155 290.12534 290.18011
278.0 0.00360 290.11737 290.17340
251.0 0.00398 290.10867 290.16632
273.0 0.00366 290.09930 290.15854
294.0 0.003401 290.08923 290.15518
260.0 0.00385 290.07843 290.14658
274.0 0.00365 290.06693 290.13757
308.0 0.003247 290.05463 290.12817
269.0 0.00372 290.04163 290.11862
298.0 0.003356 290.02780 290.10910
268.0 0.00373 290.01324 290.09369
323.0 0.003096 289.99789 290.08749
281.0 0.00356 289.98175 290.08118
296.0 0.003378 289.96481 290.07709
290.0 0.003448 289.94705 290.07907
323.0 0.003096 289.92847 290.08286
280.0 0.00357 289.90909 290.09167
273.0 0.00366 289.88885 290.10617
314.0 0.003185 289.86777 290.12595
277.0 0.00361 289.84586 290.15039
267.0 0.00375 289.82309 290.17456
278.0 0.00360 289.79944 290.20279
283.0 0.00353 289.77496 290.22891
292.0 0.003425 289.74957 290.25061
295.0 0.003390 289.72333 290.26688
316.0 0.003165 289.69620 290.27979
274.0 0.00365 289.66818 290.29422
284.0 0.00352 289.63931 290.31818
286.0 0.003497 289.60950 290.36050
302.0 0.003311 289.57883 290.42902
269.0 0.00372 289.54724 290.52945
255.0 0.00392 289.51474 290.66312
276.0 0.00362 289.48138 290.82602
294.0 0.003401 289.44708 291.00830
286.0 0.003497 289.41190 291.19427
282.0 0.00355 289.37579 291.36337
313.0 0.003195 289.33878 291.49310
300.0 0.003333 289.30087 291.56210
279.0 0.00358 289.26205 291.55695
306.0 0.003268 289.22232 291.47943
296.0 0.003378 289.18170 291.34604
272.0 0.00368 289.14017 291.18097
303.0 0.003300 289.09775 291.00803
298.0 0.003356 289.05441 290.84473
269.0 0.00372 289.01016 290.70020
301.0 0.003322 288.96503 290.57523
313.0 0.003195 288.91901 290.46274
328.0 0.003049 288.87213 290.35098
319.0 0.003135 288.82431 290.22775
293.0 0.003413 288.77563 290.08575
315.0 0.003175 288.72607 289.92535
314.0 0.003185 288.67563 289.75220
283.0 0.00353 288.62436 289.57504
288.0 0.003472 288.57217 289.40167
296.0 0.003378 288.51917 289.23871
276.0 0.00362 288.46530 289.09027
286.0 0.003497 288.41058 288.95859
282.0 0.00355 288.35504 288.84390
281.0 0.00356 288.29865 288.74506
279.0 0.00358 288.24146 288.66034
293.0 0.003413 288.18341 288.58737
305.0 0.003279 288.12460 288.52441
292.0 0.003425 288.06494 288.47000
254.0 0.00394 288.00452 288.42368
283.0 0.00353 287.94330 288.38629
268.0 0.00373 287.88129 288.35995
286.0 0.003497 287.81854 288.34909
273.0 0.00366 287.75504 288.36115
280.0 0.00357 287.69077 288.40720
289.0 0.003460 287.62576 288.50348
287.0 0.003484 287.56003 288.67032
292.0 0.003425 287.49356 288.93326
288.0 0.003472 287.42639 289.31921
300.0 0.003333 287.35855 289.85437
297.0 0.003367 287.29001 290.55710
291.0 0.003436 287.22079 291.43237
313.0 0.003195 287.15091 292.46616
299.0 0.003344 287.08038 293.61917
296.0 0.003378 287.00919 294.82635
301.0 0.003322 286.93738 295.99521
323.0 0.003096 286.86496 297.01212
300.0 0.003333 286.79193 297.75748
325.0 0.003077 286.71832 298.13522
295.0 0.003390 286.64410 298.12045
354.0 0.002825 286.56934 297.75217
341.0 0.002933 286.49402 297.14905
287.0 0.003484 286.41815 296.44009
289.0 0.003460 286.34177 295.73578
280.0 0.00357 286.26486 295.11099
296.0 0.003378 286.18744 294.59933
303.0 0.003300 286.10956 294.19608
294.0 0.003401 286.03116 293.86438
259.0 0.00386 285.95236 293.56473
264.0 0.00379 285.87305 293.23807
300.0 0.003333 285.79333 292.90289
286.0 0.003497 285.71323 292.57343
282.0 0.00355 285.63269 292.31909
311.0 0.003215 285.55176 292.20090
276.0 0.00362 285.47043 292.26685
289.0 0.003460 285.38876 292.54272
282.0 0.00355 285.30676 293.02502
287.0 0.003484 285.22440 293.67801
296.0 0.003378 285.14172 294.43314
310.0 0.003226 285.05875 295.20157
303.0 0.003300 284.97543 295.86774
337.0 0.002967 284.89191 296.34796
294.0 0.003401 284.80807 296.57272
323.0 0.003096 284.72400 296.52194
302.0 0.003311 284.63971 296.21170
322.0 0.003106 284.55515 295.69861
305.0 0.003279 284.47043 295.06619
271.0 0.00369 284.38547 294.39932
313.0 0.003195 284.30038 293.76083
323.0 0.003096 284.21509 293.17911
298.0 0.003356 284.12964 292.64999
275.0 0.00364 284.04407 292.14548
320.0 0.003125 283.95837 291.62842
281.0 0.00356 283.87259 291.06415
295.0 0.003390 283.78665 290.42862
283.0 0.00353 283.70068 289.71747
291.0 0.003436 283.61459 288.94861
272.0 0.00368 283.52844 288.15591
293.0 0.003413 283.44229 287.37756
307.0 0.003257 283.35605 286.64609
290.0 0.003448 283.26984 285.98505
293.0 0.003413 283.18359 285.40701
293.0 0.003413 283.09735 284.91513
235.0 0.00426 283.01111 284.50443
276.0 0.00362 282.92493 284.16388
283.0 0.00353 282.83878 283.88104
292.0 0.003425 282.75266 283.64282
294.0 0.003401 282.66660 283.43835
296.0 0.003378 282.58060 283.25922
288.0 0.003472 282.49472 283.09891
272.0 0.00368 282.40891 282.95276
289.0 0.003460 282.32324 282.81793
280.0 0.00357 282.23764 282.69232
257.0 0.00389 282.15219 282.57413
272.0 0.00368 282.06686 282.46277
286.0 0.003497 281.98166 282.35648
307.0 0.003257 281.89667 282.25476
266.0 0.00376 281.81177 282.15689
281.0 0.00356 281.72711 282.06079
284.0 0.00352 281.64258 281.96866
263.0 0.00380 281.55823 281.87872
271.0 0.00369 281.47412 281.79074
268.0 0.00373 281.39017 281.70435
289.0 0.003460 281.30649 281.61975
287.0 0.003484 281.22296 281.53671
292.0 0.003425 281.13968 281.45569
305.0 0.003279 281.05664 281.37622
274.0 0.00365 280.97382 281.29886
278.0 0.00360 280.89127 281.22318
285.0 0.00351 280.80896 281.15082
263.0 0.00380 280.72687 281.08121
287.0 0.003484 280.64508 281.01459
291.0 0.003436 280.56354 280.95117
271.0 0.00369 280.48230 280.89047
287.0 0.003484 280.40131 280.83200
320.0 0.003125 280.32056 280.77530
285.0 0.00351 280.24014 280.71948
336.0 0.002976 280.15997 280.66354
255.0 0.00392 280.08011 280.60666
260.0 0.00385 280.00052 280.54816
272.0 0.00368 279.92123 280.48856
303.0 0.003300 279.84225 280.42886
276.0 0.00362 279.76352 280.37070
291.0 0.003436 279.68515 280.31619
297.0 0.003367 279.60703 280.26724
293.0 0.003413 279.52921 280.22623
287.0 0.003484 279.45172 280.19611
310.0 0.003226 279.37448 280.18469
289.0 0.003460 279.29758 280.19025
299.0 0.003344 279.22092 280.22476
303.0 0.003300 279.14459 280.29977
251.0 0.00398 279.06857 280.43057
272.0 0.00368 278.99280 280.63562
277.0 0.00361 278.91736 280.93564
298.0 0.003356 278.84219 281.35178
319.0 0.003135 278.76730 281.90271
272.0 0.00368 278.69272 282.60205
254.0 0.00394 278.61841 283.45663
300.0 0.003333 278.54434 284.46652
297.0 0.003367 278.47058 285.61807
292.0 0.003425 278.39709 286.89444
299.0 0.003344 278.32382 288.26956
263.0 0.00380 278.25085 289.70746
292.0 0.003425 278.17813 291.20276
311.0 0.003215 278.10562 292.74976
261.0 0.00383 278.03339 294.37714
284.0 0.00352 277.96140 296.12219
286.0 0.003497 277.88965 297.99973
275.0 0.00364 277.81808 299.96985
288.0 0.003472 277.74677 301.92902
318.0 0.003145 277.67563 303.71008
295.0 0.003390 277.60474 305.10831
323.0 0.003096 277.53400 305.92551
302.0 0.003311 277.46347 306.04395
306.0 0.003268 277.39313 305.44742
300.0 0.003333 277.32294 304.24338
302.0 0.003311 277.25293 302.62686
303.0 0.003300 277.18307 300.81955
293.0 0.003413 277.11337 299.01761
290.0 0.003448 277.04379 297.35190
289.0 0.003460 276.97437 295.87881
286.0 0.003497 276.90503 294.58145
303.0 0.003300 276.83582 293.38651
311.0 0.003215 276.76672 292.19839
302.0 0.003311 276.69769 290.93094
308.0 0.003247 276.62875 289.55252
257.0 0.00389 276.55991 288.06812
309.0 0.003236 276.49109 286.51822
308.0 0.003247 276.42236 284.97623
293.0 0.003413 276.35364 283.49936
242.0 0.00413 276.28494 282.13925
310.0 0.003226 276.21631 280.93185
246.0 0.00407 276.14764 279.89566
268.0 0.00373 276.07901 279.04050
260.0 0.00385 276.01031 278.34274
266.0 0.00376 275.94162 277.78784
273.0 0.00366 275.87292 277.35602
313.0 0.003195 275.80414 277.02014
292.0 0.003425 275.73532 276.75473
259.0 0.00386 275.66641 276.54538
281.0 0.00356 275.59744 276.37408
260.0 0.00385 275.52841 276.22955
277.0 0.00361 275.45923 276.10388
276.0 0.00362 275.38995 275.99194
274.0 0.00365 275.32056 275.89111
268.0 0.00373 275.25101 275.80344
263.0 0.00380 275.18134 275.72214
276.0 0.00362 275.11151 275.65094
292.0 0.003425 275.04150 275.59064
273.0 0.00366 274.97131 275.54257
257.0 0.00389 274.90094 275.50696
271.0 0.00369 274.83038 275.48340
273.0 0.00366 274.75961 275.47046
282.0 0.00355 274.68863 275.46527
239.0 0.00418 274.61737 275.46365
233.0 0.00429 274.54590 275.45993
235.0 0.00426 274.47421 275.44720
262.0 0.00382 274.40222 275.41858
269.0 0.00372 274.32999 275.36859
252.0 0.00397 274.25748 275.29453
268.0 0.00373 274.18466 275.19907
274.0 0.00365 274.11154 275.08807
273.0 0.00366 274.03812 274.96899
288.0 0.003472 273.96445 274.84888
291.0 0.003436 273.89032 274.73221
274.0 0.00365 273.81598 274.62213
287.0 0.003484 273.74118 274.51880
296.0 0.003378 273.66611 274.42081
261.0 0.00383 273.59073 274.32489
289.0 0.003460 273.51489 274.22739
292.0 0.003425 273.43875 274.12570
269.0 0.00372 273.36215 274.01929
291.0 0.003436 273.28522 273.91019
259.0 0.00386 273.20798 273.80157
278.0 0.00360 273.13022 273.69772
268.0 0.00373 273.05212 273.60400
271.0 0.00369 272.97357 273.52609
269.0 0.00372 272.89462 273.47089
270.0 0.00370 272.81537 273.44601
283.0 0.00353 272.73553 273.46005
264.0 0.00379 272.65536 273.52185
275.0 0.00364 272.57471 273.64008
271.0 0.00369 272.49365 273.82104
255.0 0.00392 272.41223 274.06723
279.0 0.00358 272.33026 274.37668
263.0 0.00380 272.24792 274.73880
322.0 0.003106 272.16510 275.13620
297.0 0.003367 272.08185 275.54221
266.0 0.00376 271.99823 275.92203
276.0 0.00362 271.91406 276.23642
313.0 0.003195 271.82953 276.44437
281.0 0.00356 271.74448 276.51535
297.0 0.003367 271.65903 276.44067
290.0 0.003448 271.57318 276.23788
254.0 0.00394 271.48679 275.94437
276.0 0.00362 271.40005 275.60419
294.0 0.003401 271.31281 275.25623
301.0 0.003322 271.22513 274.92911
255.0 0.00392 271.13715 274.63806
269.0 0.00372 271.04858 274.38382
295.0 0.003390 270.95966 274.15649
261.0 0.00383 270.87027 273.93600
299.0 0.003344 270.78049 273.70023
285.0 0.00351 270.69040 273.43262
254.0 0.00394 270.59976 273.12711
305.0 0.003279 270.50882 272.79019
279.0 0.00358 270.41736 272.43402
269.0 0.00372 270.32562 272.06787
293.0 0.003413 270.23352 271.71780
277.0 0.00361 270.14096 271.38751
266.0 0.00376 270.04813 271.08554
288.0 0.003472 269.95480 270.81555
261.0 0.00383 269.86121 270.57913
276.0 0.00362 269.76730 270.37454
301.0 0.003322 269.67300 270.19839
268.0 0.00373 269.57846 270.04672
280.0 0.00357 269.48349 269.90472
266.0 0.00376 269.38828 269.79010
270.0 0.00370 269.29282 269.67877
287.0 0.003484 269.19699 269.59174
262.0 0.00382 269.10098 269.51889
258.0 0.00388 269.00461 269.46329
272.0 0.00368 268.90802 269.43054
256.0 0.00391 268.81131 269.42883
278.0 0.00360 268.71417 269.46951
288.0 0.003472 268.61697 269.56577
285.0 0.00351 268.51950 269.73328
264.0 0.00379 268.42184 269.98145
283.0 0.00353 268.32413 270.33307
289.0 0.003460 268.22607 270.78677
292.0 0.003425 268.12799 271.34787
291.0 0.003436 268.02969 272.00043
259.0 0.00386 267.93127 272.71741
298.0 0.003356 267.83292 273.45828
280.0 0.00357 267.73425 274.17096
266.0 0.00376 267.63562 274.78949
268.0 0.00373 267.53687 275.24707
270.0 0.00370 267.43808 275.49121
277.0 0.00361 267.33936 275.48532
261.0 0.00383 267.24048 275.25040
259.0 0.00386 267.14166 274.84061
289.0 0.003460 267.04279 274.32687
305.0 0.003279 266.94397 273.77921
254.0 0.00394 266.84528 273.25226
258.0 0.00388 266.74652 272.77872
283.0 0.00353 266.64786 272.37161
262.0 0.00382 266.54926 272.02084
286.0 0.003497 266.45078 271.70044
244.0 0.00410 266.35248 271.37408
260.0 0.00385 266.25418 271.01041
244.0 0.00410 266.15610 270.58600
277.0 0.00361 266.05811 270.10370
265.0 0.00377 265.96030 269.58075
261.0 0.00383 265.86276 269.04105
275.0 0.00364 265.76532 268.50714
250.0 0.00400 265.66812 268.00009
269.0 0.00372 265.57108 267.53394
264.0 0.00379 265.47430 267.11829
266.0 0.00376 265.37790 266.75616
259.0 0.00386 265.28159 266.44461
278.0 0.00360 265.18564 266.17838
268.0 0.00373 265.08987 265.94891
275.0 0.00364 264.99445 265.74750
267.0 0.00375 264.89941 265.56818
263.0 0.00380 264.80457 265.40445
272.0 0.00368 264.71011 265.25323
258.0 0.00388 264.61594 265.11179
269.0 0.00372 264.52216 264.97891
283.0 0.00353 264.42877 264.85318
230.0 0.00435 264.33563 264.73322
265.0 0.00377 264.24298 264.61804
245.0 0.00408 264.15057 264.50577
279.0 0.00358 264.05862 264.39529
243.0 0.00412 263.96713 264.28500
274.0 0.00365 263.87592 264.17416
267.0 0.00375 263.78519 264.06256
269.0 0.00372 263.69479 263.95038
277.0 0.00361 263.60483 263.83829
279.0 0.00358 263.51532 263.72726
221.0 0.00452 263.42615 263.61771
261.0 0.00383 263.33749 263.51035
259.0 0.00386 263.24918 263.40543
240.0 0.00417 263.16132 263.30322
241.0 0.00415 263.07391 263.20386
247.0 0.00405 262.98685 263.10684
279.0 0.00358 262.90030 263.01230
280.0 0.00357 262.81409 262.91980
291.0 0.003436 262.72833 262.82895
246.0 0.00407 262.64304 262.73981
266.0 0.00376 262.55804 262.65167
273.0 0.00366 262.47357 262.56479
261.0 0.00383 262.38940 262.47870
292.0 0.003425 262.30566 262.39343
241.0 0.00415 262.22238 262.30902
289.0 0.003460 262.13940 262.22519
262.0 0.00382 262.05682 262.13812
293.0 0.003413 261.97455 262.05551
294.0 0.003401 261.89270 261.97357
285.0 0.00351 261.81125 261.89221
252.0 0.00397 261.73001 261.81131
268.0 0.00373 261.64917 261.73096
255.0 0.00392 261.56860 261.65115
299.0 0.003344 261.48834 261.57184
234.0 0.00427 261.40845 261.49319
263.0 0.00380 261.32870 261.41489
281.0 0.00356 261.24930 261.33719
270.0 0.00370 261.17004 261.25803
245.0 0.00408 261.09106 261.18137
274.0 0.00365 261.01236 261.10858
233.0 0.00429 260.93375 261.03299
274.0 0.00365 260.85535 260.95801
237.0 0.00422 260.77707 260.88358
254.0 0.00394 260.69894 260.80978
252.0 0.00397 260.62100 260.73669
296.0 0.003378 260.54303 260.66418
283.0 0.00353 260.46521 260.59259
238.0 0.00420 260.38739 260.52176
237.0 0.00422 260.30963 260.45203
246.0 0.00407 260.23193 260.38495
286.0 0.003497 260.15411 260.31808
257.0 0.00389 260.07632 260.25540
238.0 0.00420 259.99844 260.19449
241.0 0.00415 259.92047 260.13852
269.0 0.00372 259.84247 260.09006
274.0 0.00365 259.76425 260.05237
254.0 0.00394 259.68591 260.03033
257.0 0.00389 259.60733 260.03040
276.0 0.00362 259.52859 260.06021
263.0 0.00380 259.44971 260.12912
251.0 0.00398 259.37042 260.24716
247.0 0.00405 259.29095 260.42374
268.0 0.00373 259.21112 260.66733
278.0 0.00360 259.13098 260.98041
254.0 0.00394 259.05057 261.36163
268.0 0.00373 258.96967 261.80322
249.0 0.00402 258.88846 262.28717
264.0 0.00379 258.80670 262.78870
265.0 0.00377 258.72461 263.27301
270.0 0.00370 258.64206 263.69934
260.0 0.00385 258.55893 264.02478
252.0 0.00397 258.47540 264.21039
251.0 0.00398 258.39124 264.22791
256.0 0.00391 258.30655 264.09534
279.0 0.00358 258.22134 263.83524
265.0 0.00377 258.13547 263.49118
243.0 0.00412 258.04907 263.10983
262.0 0.00382 257.96194 262.72913
237.0 0.00422 257.87424 262.37646
266.0 0.00376 257.78595 262.06473
264.0 0.00379 257.69687 261.79288
259.0 0.00386 257.60721 261.54849
284.0 0.00352 257.51672 261.30939
272.0 0.00368 257.42563 261.05185
270.0 0.00370 257.33389 260.75568
283.0 0.00353 257.24127 260.41510
251.0 0.00398 257.14807 260.03406
269.0 0.00372 257.05402 259.62479
241.0 0.00415 256.95929 259.20392
277.0 0.00361 256.86392 258.78745
268.0 0.00373 256.76767 258.38742
259.0 0.00386 256.67078 258.01456
241.0 0.00415 256.57312 257.67413
262.0 0.00382 256.47473 257.36932
267.0 0.00375 256.37576 257.09982
227.0 0.00441 256.27594 256.86230
269.0 0.00372 256.17551 256.65332
276.0 0.00362 256.07437 256.46872
255.0 0.00392 255.97256 256.30225
228.0 0.00439 255.87027 256.15088
266.0 0.00376 255.76721 256.01022
261.0 0.00383 255.66364 255.87791
263.0 0.00380 255.55943 255.75139
272.0 0.00368 255.45473 255.62930
251.0 0.00398 255.34967 255.51038
277.0 0.00361 255.24397 255.39357
260.0 0.00385 255.13794 255.28127
259.0 0.00386 255.03145 255.16763
276.0 0.00362 254.92465 255.05499
256.0 0.00391 254.81767 254.94347
256.0 0.00391 254.71030 254.83263
247.0 0.00405 254.60281 254.72263
286.0 0.003497 254.49513 254.61343
213.0 0.00469 254.38739 254.50522
248.0 0.00403 254.27974 254.39815
278.0 0.00360 254.17200 254.29214
251.0 0.00398 254.06444 254.18747
252.0 0.00397 253.95699 254.08414
251.0 0.00398 253.84984 253.98354
256.0 0.00391 253.74312 253.88315
267.0 0.00375 253.63667 253.78375
226.0 0.00442 253.53078 253.68550
240.0 0.00417 253.42540 253.58777
256.0 0.00391 253.32074 253.49036
256.0 0.00391 253.21689 253.39285
235.0 0.00426 253.11380 253.29475
256.0 0.00391 253.01173 253.19614
273.0 0.00366 252.91058 253.09689
234.0 0.00427 252.81068 252.99783
271.0 0.00369 252.71207 252.89932
280.0 0.00357 252.61473 252.80212
243.0 0.00412 252.51895 252.70697
230.0 0.00435 252.42465 252.61421
246.0 0.00407 252.33209 252.52440
263.0 0.00380 252.24141 252.43774
251.0 0.00398 252.15257 252.35437
260.0 0.00385 252.06587 252.27455
268.0 0.00373 251.98128 252.19856
264.0 0.00379 251.89900 252.12679
255.0 0.00392 251.81921 252.06050
237.0 0.00422 251.74193 252.00102
253.0 0.00395 251.66739 251.95102
284.0 0.00352 251.59561 251.91367
281.0 0.00356 251.52678 251.89339
241.0 0.00415 251.46114 251.89560
257.0 0.00389 251.39859 251.92670
248.0 0.00403 251.33948 251.99391
265.0 0.00377 251.28380 252.10458
221.0 0.00452 251.23177 252.26532
274.0 0.00365 251.18352 252.48093
266.0 0.00376 251.13910 252.75394
253.0 0.00395 251.09872 253.08186
271.0 0.00369 251.06248 253.45833
251.0 0.00398 251.03055 253.87050
252.0 0.00397 251.00302 254.30011
263.0 0.00380 250.98000 254.72507
252.0 0.00397 250.96164 255.11736
266.0 0.00376 250.94806 255.44958
252.0 0.00397 250.93939 255.69771
259.0 0.00386 250.93571 255.85036
220.0 0.00455 250.93716 255.91341
237.0 0.00422 250.94385 255.90828
257.0 0.00389 250.95584 255.86511
258.0 0.00388 250.97328 255.81345
266.0 0.00376 250.99622 255.77600
233.0 0.00429 251.02478 255.76512
238.0 0.00420 251.05901 255.78181
241.0 0.00415 251.09901 255.81621
253.0 0.00395 251.14484 255.84946
262.0 0.00382 251.19649 255.85803
261.0 0.00383 251.25417 255.82036
294.0 0.003401 251.31776 255.72354
264.0 0.00379 251.38741 255.56737
244.0 0.00410 251.46307 255.36409
254.0 0.00394 251.54469 255.13329
245.0 0.00408 251.63249 254.89549
268.0 0.00373 251.72626 254.66493
236.0 0.00424 251.82613 254.46555
262.0 0.00382 251.93196 254.30101
258.0 0.00388 252.04361 254.17439
260.0 0.00385 252.16132 254.08339
239.0 0.00418 252.28477 254.02296
272.0 0.00368 252.41403 253.98662
250.0 0.00400 252.54890 253.96930
277.0 0.00361 252.68915 253.96832
228.0 0.00439 252.83499 253.98378
252.0 0.00397 252.98590 254.01724
249.0 0.00402 253.14212 254.07202
233.0 0.00429 253.30307 254.14838
238.0 0.00420 253.46867 254.25551
270.0 0.00370 253.63893 254.39497
267.0 0.00375 253.81325 254.57053
242.0 0.00413 253.99181 254.78632
264.0 0.00379 254.17389 255.04462
243.0 0.00412 254.35931 255.34689
277.0 0.00361 254.54803 255.69321
258.0 0.00388 254.73932 256.07990
284.0 0.00352 254.93321 256.50198
265.0 0.00377 255.12904 256.95001
234.0 0.00427 255.32635 257.41061
255.0 0.00392 255.52505 257.86951
265.0 0.00377 255.72427 258.30719
263.0 0.00380 255.92397 258.70520
262.0 0.00382 256.12335 259.04507
265.0 0.00377 256.32175 259.31500
257.0 0.00389 256.51917 259.51401
283.0 0.00353 256.71448 259.65121
266.0 0.00376 256.90747 259.74493
272.0 0.00368 257.09735 259.81598
241.0 0.00415 257.28326 259.88489
281.0 0.00356 257.46512 259.96872
255.0 0.00392 257.64163 260.08026
249.0 0.00402 257.81250 260.22681
237.0 0.00422 257.97681 260.41110
255.0 0.00392 258.13361 260.63086
266.0 0.00376 258.28259 260.88083
235.0 0.00426 258.42258 261.15216
251.0 0.00398 258.55292 261.43719
256.0 0.00391 258.67267 261.72897
251.0 0.00398 258.78091 262.02155
286.0 0.003497 258.87701 262.30933
285.0 0.00351 258.95984 262.58197
263.0 0.00380 259.02863 262.82657
264.0 0.00379 259.08234 263.02551
283.0 0.00353 259.12003 263.15945
269.0 0.00372 259.14087 263.21106
284.0 0.00352 259.14380 263.17029
282.0 0.00355 259.12784 263.03894
261.0 0.00383 259.09207 262.83026
235.0 0.00426 259.03555 262.56516
255.0 0.00392 258.95715 262.26474
261.0 0.00383 258.85605 261.94843
289.0 0.003460 258.73114 261.62872
263.0 0.00380 258.58157 261.31308
279.0 0.00358 258.40656 261.00201
250.0 0.00400 258.20471 260.68887
260.0 0.00385 257.97552 260.36331
243.0 0.00412 257.71783 260.01102
275.0 0.00364 257.43094 259.61819
265.0 0.00377 257.11435 259.17548
253.0 0.00395 256.76645 258.67773
266.0 0.00376 256.38724 258.12820
249.0 0.00402 255.97543 257.53195
253.0 0.00395 255.53082 256.89746
260.0 0.00385 255.05321 256.23233
246.0 0.00407 254.54089 255.54140
265.0 0.00377 253.99449 254.83104
246.0 0.00407 253.41289 254.10361
238.0 0.00420 252.79662 253.36172
229.0 0.00437 252.14536 252.60530
275.0 0.00364 251.45811 251.83232
240.0 0.00417 250.73640 251.04247
269.0 0.00372 249.97862 250.23158
233.0 0.00429 249.18692 249.39926
254.0 0.00394 248.36130 248.54288
245.0 0.00408 247.50124 247.65961
245.0 0.00408 246.60931 246.75009
257.0 0.00389 245.68468 245.81198
253.0 0.00395 244.72978 244.84653
237.0 . . .
loop_
_refln_index_h
_refln_index_k
_refln_index_l
_pd_refln_wavelength_id
_refln_observed_status
_refln_F_squared_meas
_refln_F_squared_calc
_refln_phase_calc
_refln_d_spacing
_gsas_i100_meas
0 0 1 1 o 415.569 422.620 0.00 7.41752 33.67
0 0 1 2 o 405.299 422.620 0.00 7.41752 16.36
1 0 1 1 o 163.887 163.021 180.00 4.79026 30.95
1 0 1 2 o 165.347 163.021 180.00 4.79026 15.53
1 1 0 1 o 97.180 85.301 180.00 4.43643 7.31
1 1 0 2 o 98.855 85.301 180.00 4.43643 3.71
1 1 1 1 o 915.313 908.232 0.00 3.80739 100.00
1 1 1 2 o 928.113 908.232 0.00 3.80739 50.41
0 0 2 1 o 692.551 605.297 0.00 3.70876 13.05
0 0 2 2 o 614.390 605.297 0.00 3.70876 5.79
1 0 2 1 o 73.392 59.689 180.00 3.19267 4.73
1 0 2 2 o 73.425 59.689 180.00 3.19267 2.35
2 0 0 1 o 2313.770 2235.606 180.00 3.13703 59.13
2 0 0 2 o 2249.827 2235.606 180.00 3.13703 28.62
2 0 1 1 o 268.003 254.440 180.00 2.88926 19.50
2 0 1 2 o 249.951 254.440 180.00 2.88926 9.09
1 1 2 1 o 344.287 340.711 0.00 2.84544 16.85
1 1 2 2 o 344.423 340.711 0.00 2.84544 8.38
2 1 1 1 o 28.809 35.997 0.00 2.62436 2.87
2 1 1 2 o 24.010 35.997 0.00 2.62436 1.19
0 0 3 1 o 663.628 377.841 0.00 2.47251 5.07
0 0 3 2 o 612.427 377.841 0.00 2.47251 2.33
2 0 2 1 o 231.963 260.310 180.00 2.39513 10.42
2 0 2 2 o 224.248 260.310 180.00 2.39513 5.02
1 0 3 1 o 19.089 10.259 180.00 2.30033 0.57
1 0 3 2 o 19.260 10.259 180.00 2.30033 0.28
2 1 2 1 o 57.420 52.560 0.00 2.23763 3.70
2 1 2 2 o 51.493 52.560 0.00 2.23763 1.65
2 2 0 1 o 784.235 838.644 0.00 2.21821 14.67
2 2 0 2 o 711.409 838.644 0.00 2.21821 6.64
1 1 3 1 o 108.552 121.463 0.00 2.15974 3.00
1 1 3 2 o 96.979 121.463 0.00 2.15974 1.35
2 2 1 1 o 218.488 158.163 0.00 2.12522 7.50
2 2 1 2 o 192.720 158.163 0.00 2.12522 3.31
3 0 1 1 o -0.160 9.651 0.00 2.01288 0.00
3 0 1 2 o -0.160 9.651 0.00 2.01288 0.00
3 1 0 1 o 15.913 0.201 0.00 1.98403 0.30
3 1 0 2 o 13.220 0.201 0.00 1.98403 0.12
2 0 3 1 o 213.732 171.820 180.00 1.94186 4.89
2 0 3 2 o 213.847 171.820 180.00 1.94186 2.43
3 1 1 1 o 120.006 124.002 180.00 1.91665 5.57
3 1 1 2 o 117.598 124.002 180.00 1.91665 2.71
2 2 2 1 o 136.566 125.112 0.00 1.90370 3.23
2 2 2 2 o 129.163 125.112 0.00 1.90370 1.52
2 1 3 1 o 0.218 2.963 0.00 1.85504 0.01
0 0 4 1 o 0.573 13.020 0.00 1.85438 0.01
2 1 3 2 o 1.814 2.963 0.00 1.85504 0.03
0 0 4 2 o 10.311 13.020 0.00 1.85438 0.02
3 0 2 1 o 17.942 37.622 0.00 1.82168 0.45
3 0 2 2 o 8.938 37.622 0.00 1.82168 0.12
1 0 4 1 o 15.046 3.813 180.00 1.77833 0.23
1 0 4 2 o 9.053 3.813 180.00 1.77833 0.07
3 1 2 1 o 102.425 77.270 180.00 1.74943 4.36
3 1 2 2 o 97.682 77.270 180.00 1.74943 2.07
1 1 4 1 o 211.175 213.073 0.00 1.71093 3.21
1 1 4 2 o 197.931 213.073 0.00 1.71093 1.50
3 2 1 1 o 3.386 1.207 180.00 1.69412 0.12
3 2 1 2 o 4.470 1.207 180.00 1.69412 0.08
2 2 3 1 o 65.487 84.839 0.00 1.65112 0.97
2 2 3 2 o 75.869 84.839 0.00 1.65112 0.55
3 0 3 1 o 0.120 1.113 0.00 1.59675 0.00
2 0 4 1 o -0.849 5.164 180.00 1.59633 0.01
3 0 3 2 o 0.617 1.113 0.00 1.59675 0.01
2 0 4 2 o 3.076 5.164 180.00 1.59633 0.03
3 2 2 1 o 14.618 31.917 180.00 1.57533 0.45
3 2 2 2 o 23.717 31.917 180.00 1.57533 0.36
4 0 0 1 o 231.652 197.947 0.00 1.56851 1.20
4 0 0 2 o 197.642 197.947 0.00 1.56851 0.51
3 1 3 1 o 61.226 35.645 180.00 1.54743 1.78
2 1 4 1 o 5.359 3.233 0.00 1.54704 0.12
3 1 3 2 o 55.282 35.645 180.00 1.54743 0.80
2 1 4 2 o 4.867 3.233 0.00 1.54704 0.06
4 0 1 1 o 119.342 50.190 0.00 1.53458 1.47
4 0 1 2 o 90.476 50.190 0.00 1.53458 0.56
4 1 1 1 o -0.014 0.447 180.00 1.49064 0.00
4 1 1 2 o -0.014 0.447 180.00 1.49064 0.00
0 0 5 1 o -2.169 17.494 0.00 1.48350 0.00
0 0 5 2 o 74.193 17.494 0.00 1.48350 0.08
3 3 0 1 o 16.827 2.431 0.00 1.47881 0.12
3 3 0 2 o -0.886 2.431 0.00 1.47881 0.00
3 3 1 1 o 22.235 20.876 0.00 1.45027 0.32
4 0 2 2 o 30.511 37.433 0.00 1.44463 0.22
3 3 1 2 o 17.064 20.876 0.00 1.45027 0.12
1 0 5 2 o 6.524 8.576 180.00 1.44370 0.03
4 0 2 1 o 36.960 37.433 0.00 1.44463 0.53
1 0 5 1 o 8.370 8.576 180.00 1.44370 0.08
3 2 3 1 o -0.010 0.191 180.00 1.42302 0.00
2 2 4 1 o -0.726 1.898 0.00 1.42272 0.00
3 2 3 2 o -0.010 0.191 180.00 1.42302 0.00
2 2 4 2 o -0.726 1.898 0.00 1.42272 0.00
4 1 2 1 o 13.653 19.774 180.00 1.40779 0.33
1 1 5 1 o 37.738 49.708 0.00 1.40693 0.36
4 1 2 2 o 23.045 19.774 180.00 1.40779 0.27
1 1 5 2 o 65.615 49.708 0.00 1.40693 0.30
4 2 0 1 o 123.092 89.229 180.00 1.40292 1.16
4 2 0 2 o 129.565 89.229 180.00 1.40292 0.61
3 0 4 1 o 4.239 2.250 0.00 1.38750 0.04
3 0 4 2 o 7.419 2.250 0.00 1.38750 0.04
4 2 1 1 o 77.528 35.958 180.00 1.37848 1.53
4 2 1 2 o 65.102 35.958 180.00 1.37848 0.64
3 3 2 1 o 41.873 22.453 0.00 1.37364 0.49
3 3 2 2 o 27.188 22.453 0.00 1.37364 0.16
3 1 4 1 o 39.341 71.646 180.00 1.35476 0.79
3 1 4 2 o 26.388 71.646 180.00 1.35476 0.27
2 0 5 1 o -1.281 9.830 180.00 1.34110 0.00
2 0 5 2 o -1.281 9.830 180.00 1.34110 0.00
4 0 3 1 o 26.095 24.475 0.00 1.32448 0.31
4 0 3 2 o 28.879 24.475 0.00 1.32448 0.17
4 2 2 1 o 47.057 20.895 180.00 1.31218 0.93
2 1 5 1 o 6.259 3.021 0.00 1.31148 0.10
4 2 2 2 o 53.255 20.895 180.00 1.31218 0.52
2 1 5 2 o 8.837 3.021 0.00 1.31148 0.07
4 1 3 1 o -0.008 0.159 180.00 1.29592 0.00
4 1 3 2 o 5.985 0.159 180.00 1.29592 0.06
3 3 3 1 o 9.413 12.198 0.00 1.26913 0.09
3 2 4 1 o 1.408 1.949 180.00 1.26892 0.02
3 3 3 2 o 12.724 12.198 0.00 1.26913 0.06
3 2 4 2 o 2.565 1.949 180.00 1.26892 0.02
4 3 1 1 o -0.002 0.366 180.00 1.23723 0.00
5 0 1 1 o -0.003 0.045 180.00 1.23723 0.00
0 0 6 1 o -0.313 0.703 0.00 1.23625 0.00
4 3 1 2 o -0.002 0.366 180.00 1.23723 0.00
5 0 1 2 o -0.003 0.045 180.00 1.23723 0.00
0 0 6 2 o 0.006 0.703 0.00 1.23625 0.00
2 2 5 1 o 2.386 5.646 0.00 1.23314 0.02
5 1 0 1 o 1.328 0.069 0.00 1.23044 0.01
2 2 5 2 o 41.860 5.646 0.00 1.23314 0.14
5 1 0 2 o -0.154 0.069 0.00 1.23044 0.00
4 2 3 1 o 24.478 13.357 180.00 1.22018 0.42
4 2 3 2 o 5.624 13.357 180.00 1.22018 0.06
5 1 1 1 o 11.566 7.975 0.00 1.21386 0.16
1 0 6 1 o 38.589 22.689 0.00 1.21293 0.23
5 1 1 2 o 12.292 7.975 0.00 1.21386 0.08
3 0 5 1 o 1.454 1.225 0.00 1.20999 0.01
1 0 6 2 o 26.592 22.689 0.00 1.21293 0.08
3 0 5 2 o 0.196 1.225 0.00 1.20999 0.00
4 0 4 1 o 3.632 0.142 0.00 1.19757 0.03
4 0 4 2 o 2.526 0.142 0.00 1.19757 0.01
1 1 6 1 o 35.352 27.434 0.00 1.19088 0.22
5 0 2 1 o 8.149 8.529 180.00 1.18862 0.07
4 3 2 1 o 13.264 13.882 0.00 1.18862 0.22
3 1 5 1 o 15.395 15.773 180.00 1.18810 0.22
1 1 6 2 o 26.950 27.434 0.00 1.19088 0.09
5 0 2 2 o 8.507 8.529 180.00 1.18862 0.03
4 3 2 2 o 13.846 13.882 0.00 1.18862 0.11
3 1 5 2 o 13.889 15.773 180.00 1.18810 0.10
4 1 4 1 o -0.027 1.091 180.00 1.17633 0.00
4 1 4 2 o 5.810 1.091 180.00 1.17633 0.04
5 1 2 1 o 18.736 6.308 0.00 1.16785 0.29
5 1 2 2 o 28.198 6.308 0.00 1.16785 0.21
3 3 4 1 o 53.125 27.702 0.00 1.15618 0.34
3 3 4 2 o 8.416 27.702 0.00 1.15618 0.03
5 2 1 1 o 0.155 0.106 180.00 1.15095 0.00
2 0 6 1 o 0.965 0.752 180.00 1.15016 0.01
5 2 1 2 o 0.000 0.106 180.00 1.15095 0.00
2 0 6 2 o -0.239 0.752 180.00 1.15016 0.00
2 1 6 1 o 13.353 11.606 180.00 1.13131 0.16
3 2 5 1 o 0.629 0.262 180.00 1.12893 0.01
2 1 6 2 o 30.781 11.606 180.00 1.13131 0.18
3 2 5 2 o 1.515 0.262 180.00 1.12893 0.01
4 3 3 1 o 0.001 0.004 180.00 1.11896 0.00
5 0 3 1 o -0.006 0.101 180.00 1.11896 0.00
4 2 4 1 o -0.059 0.005 180.00 1.11881 0.00
4 3 3 2 o 0.051 0.004 180.00 1.11896 0.00
5 0 3 2 o 1.618 0.101 180.00 1.11896 0.01
4 2 4 2 o 0.940 0.005 180.00 1.11881 0.01
5 2 2 1 o 11.769 7.995 0.00 1.11151 0.16
4 4 0 1 o 12.090 10.772 0.00 1.10911 0.05
5 2 2 2 o 9.766 7.995 0.00 1.11151 0.07
4 4 0 2 o 2.052 10.772 0.00 1.10911 0.01
5 1 3 1 o 9.553 4.109 0.00 1.10158 0.15
5 1 3 2 o 1.511 4.109 0.00 1.10158 0.02
4 4 1 1 o 23.168 11.185 0.00 1.09691 0.18
4 4 1 2 o 8.247 11.185 0.00 1.09691 0.03
