#------------------------------------------------------------------------------
#$Date: 2016-02-14 16:26:36 +0200 (Sun, 14 Feb 2016) $
#$Revision: 176435 $
#$URL: svn://www.crystallography.net/cod/cif/1/51/62/1516207.cif $
#------------------------------------------------------------------------------
#
# This file is available in the Crystallography Open Database (COD),
# http://www.crystallography.net/
#
# All data on this site have been placed in the public domain by the
# contributors.
#
data_1516207
loop_
_publ_author_name
'Migliorati, Valentina'
'Ballirano, Paolo'
'Gontrani, Lorenzo'
'Russina, Olga'
'Caminiti, Ruggero'
_publ_section_title
;
 Crystal polymorphism of propylammonium chloride and structural properties
 of its mixture with water.
;
_journal_issue                   41
_journal_name_full               'The journal of physical chemistry. B'
_journal_page_first              11805
_journal_page_last               11815
_journal_paper_doi               10.1021/jp206831d
_journal_volume                  115
_journal_year                    2011
_chemical_formula_sum            'C3 Cl N'
_chemical_formula_weight         85.49
_chemical_name_systematic        ' ?'
_space_group_IT_number           129
_symmetry_cell_setting           tetragonal
_symmetry_space_group_name_Hall  '-P 4a 2a'
_symmetry_space_group_name_H-M   'P 4/n m m :2'
_audit_creation_date             2011-07-21T08:58
_audit_creation_method           'from EXP file using GSAS2CIF'
_audit_update_record
' 2011-07-21T08:58  Initial CIF as created by GSAS2CIF'
_cell_angle_alpha                90.0
_cell_angle_beta                 90.0
_cell_angle_gamma                90.0
_cell_formula_units_Z            2
_cell_length_a                   6.27959(7)
_cell_length_b                   6.27959
_cell_length_c                   7.42355(18)
_cell_volume                     292.735(8)
_computing_structure_refinement  GSAS
_diffrn_radiation_probe          x-ray
_exptl_absorpt_correction_T_max  0.81796
_exptl_absorpt_correction_T_min  0.81483
_exptl_absorpt_process_details
;   GSAS Absorption/surface roughness correction: function number 0
 Debye-Scherrer absorption correction
Term (= MU.r/wave) =     0.78580E-01
Correction is not refined.
;
_pd_block_id
2011-07-21T08:58|105|paolo|Bruker_AXS_D8_Advance
_pd_calc_method                  'Rietveld Refinement'
_pd_instr_location               ' ?'
_pd_meas_2theta_range_inc        0.022
_pd_meas_2theta_range_max        89.988
_pd_meas_2theta_range_min        3.0
_pd_meas_number_of_points        3955
_pd_phase_name                   'Propylammonium chloride'
_pd_proc_2theta_range_inc        0.022
_pd_proc_2theta_range_max        89.988
_pd_proc_2theta_range_min        3.0
_pd_proc_info_datetime           2011-07-21T08:58:18
_pd_proc_info_excluded_regions   ' ?'
_pd_proc_ls_background_function
;   GSAS Background function number 1 with 30 terms.
 Shifted Chebyshev function of 1st kind
      1:    524.093     2:   -333.501     3:    28.2744     4:    82.3892    
      5:   -75.1924     6:   -1.91730     7:    72.7034     8:   -79.8404    
      9:    36.1589    10:    10.2640    11:   -28.9658    12:    24.7427    
     13:   -6.00946    14:   -8.75381    15:    4.70022    16:    1.53210    
     17:   -2.20123    18:  -0.596169    19:    2.69196    20:   0.851905    
     21:   -4.44405    22:    2.65081    23:    1.15511    24:   -2.36361    
     25:    4.11580    26:   -2.05686    27:   -1.16708    28:    1.53195    
     29:   -1.70097    30:    1.38895    
;
_pd_proc_ls_peak_cutoff          0.00100
_pd_proc_ls_profile_function
;
 CW Profile function number 3 with  19 terms
 Pseudovoigt profile coefficients as parameterized in
 P. Thompson, D.E. Cox & J.B. Hastings (1987). J. Appl. Cryst.,20,79-83.
 Asymmetry correction of L.W. Finger, D.E. Cox & A. P. Jephcoat (1994).
 J. Appl. Cryst.,27,892-900.
 Peak tails are ignored  where the intensity is below 0.0010 times the peak
   Aniso. broadening axis   0.0   1.0   0.0
;
_pd_proc_ls_prof_R_factor        0.0424
_pd_proc_ls_prof_wR_expected     0.0406
_pd_proc_ls_prof_wR_factor       0.0554
_pd_proc_number_of_points        3955
_pd_spec_mounting                ' ?'
_refine_ls_goodness_of_fit_all   1.38
_refine_ls_matrix_type           full
_refine_ls_number_parameters     47
_refine_ls_number_restraints     8
_refine_ls_R_Fsqd_factor         0.18507
_refine_ls_shift/su_max          0.08
_refine_ls_shift/su_mean         0.01
_reflns_d_resolution_high        1.098
_reflns_d_resolution_low         7.424
_reflns_limit_h_max              5
_reflns_limit_h_min              0
_reflns_limit_k_max              4
_reflns_limit_k_min              0
_reflns_limit_l_max              6
_reflns_limit_l_min              0
_reflns_number_total             174
_cod_data_source_file            378K.cif
_cod_data_source_block           105_publ
_cod_depositor_comments
;
The following automatic conversions were performed:

'_geom_bond_publ_flag' value 'N' changed to 'n' according to
/usr/data/users/saulius/automatic-downloads/retrospective/ACS/lib/dictionaries/cif_core.dic
dictionary named 'cif_core.dic' version 2.4.2 from 2011-04-26 (24
times).

'_geom_angle_publ_flag' value 'N' changed to 'n' according
to
/usr/data/users/saulius/automatic-downloads/retrospective/ACS/lib/dictionaries/cif_core.dic
dictionary named 'cif_core.dic' version 2.4.2 from 2011-04-26 (68
times).

Automatic conversion script
Id: cif_fix_values 2281 2013-09-26 08:29:07Z andrius 
;
_cod_original_cell_volume        292.735(10)
_cod_original_sg_symbol_H-M      'p 4/n m m'
_cod_original_formula_sum        'C3.00 Cl N'
_cod_database_code               1516207
#BEGIN Tags that were not found in dictionaries:
_gsas_exptl_extinct_corr_t_min   1.00000
_gsas_exptl_extinct_corr_t_max   1.00000
#END Tags that were not found in dictionaries
loop_
_symmetry_equiv_pos_site_id
_symmetry_equiv_pos_as_xyz
1 +x,+y,+z
2 -y+1/2,+x,+z
3 -x+1/2,-y+1/2,+z
4 +y,-x+1/2,+z
5 -x+1/2,+y,+z
6 -y+1/2,-x+1/2,+z
7 +x,-y+1/2,+z
8 +y,+x,+z
-1 -x,-y,-z
-2 +y+1/2,-x,-z
-3 +x+1/2,+y+1/2,-z
-4 -y,+x+1/2,-z
-5 +x+1/2,-y,-z
-6 +y+1/2,+x+1/2,-z
-7 -x,+y+1/2,-z
-8 -y,-x,-z
loop_
_atom_site_type_symbol
_atom_site_label
_atom_site_fract_x
_atom_site_fract_y
_atom_site_fract_z
_atom_site_occupancy
_atom_site_thermal_displace_type
_atom_site_U_iso_or_equiv
_atom_site_symmetry_multiplicity
Cl CL1 0.25 -0.25 0.0 1.0 Uiso 0.1220(9) 2
C C(1) 0.25 0.3326(6) 0.29033(31) 0.25 Uiso 0.0771(16) 8
N N 0.25 0.25 0.10544(27) 1.0 Uiso 0.0771(16) 2
C C(2) 0.25 0.1493(5) 0.42847(27) 0.25 Uiso 0.0771(16) 8
C C(3) 0.25 0.25 0.6196(4) 1.0 Uiso 0.0771(16) 2
loop_
_atom_type_symbol
_atom_type_number_in_cell
_atom_type_scat_dispersion_real
_atom_type_scat_dispersion_imag
_atom_type_scat_Cromer_Mann_a1
_atom_type_scat_Cromer_Mann_a2
_atom_type_scat_Cromer_Mann_a3
_atom_type_scat_Cromer_Mann_a4
_atom_type_scat_Cromer_Mann_b1
_atom_type_scat_Cromer_Mann_b2
_atom_type_scat_Cromer_Mann_b3
_atom_type_scat_Cromer_Mann_b4
_atom_type_scat_Cromer_Mann_c
_atom_type_scat_source
Cl 2.0 0.000 0.000 11.4604 0.01040 7.19640 1.16620 6.25560 18.5194 1.64550
47.7784 -9.5574 International_Tables_Vol_C
C 6.0 0.000 0.000 2.31000 20.8439 1.02000 10.2075 1.58860 0.56870 0.86500
51.6512 0.21560 International_Tables_Vol_C
N 2.0 0.000 0.000 12.2126 0.00570 3.13220 9.89330 2.01250 28.9975 1.16630
0.58260 -11.529 International_Tables_Vol_C
loop_
_diffrn_radiation_wavelength
_diffrn_radiation_wavelength_wt
_diffrn_radiation_type
_diffrn_radiation_wavelength_id
1.540598 1.000 K\a~1~ 1
1.544390 0.500 K\a~2~ 2
loop_
_geom_angle_atom_site_label_1
_geom_angle_atom_site_label_2
_geom_angle_atom_site_label_3
_geom_angle
_geom_angle_site_symmetry_1
_geom_angle_site_symmetry_3
_geom_angle_publ_flag
C(1) C(1) C(1) 45.0 2_555 3_555 n
C(1) C(1) C(1) 90.0 2_555 4_555 n
C(1) C(1) N 75.53(9) 2_555 1_555 n
C(1) C(1) C(2) 58.14(8) 2_555 1_555 n
C(1) C(1) C(2) 93.52(15) 2_555 2_555 n
C(1) C(1) C(2) 94.47(19) 2_555 3_555 n
C(1) C(1) C(2) 51.65(14) 2_555 4_555 n
C(1) C(1) C(1) 45.0 3_555 4_555 n
C(1) C(1) N 69.30(13) 3_555 1_555 n
C(1) C(1) C(2) 41.70(14) 3_555 1_555 n
C(1) C(1) C(2) 66.71(15) 3_555 2_555 n
C(1) C(1) C(2) 96.33(26) 3_555 3_555 n
C(1) C(1) C(2) 66.71(15) 3_555 4_555 n
C(1) C(1) N 75.53(9) 4_555 1_555 n
C(1) C(1) C(2) 58.14(8) 4_555 1_555 n
C(1) C(1) C(2) 51.65(14) 4_555 2_555 n
C(1) C(1) C(2) 94.47(19) 4_555 3_555 n
C(1) C(1) C(2) 93.52(15) 4_555 4_555 n
N C(1) C(2) 111.01(24) 1_555 1_555 n
N C(1) C(2) 126.28(23) 1_555 2_555 n
N C(1) C(2) 165.6(4) 1_555 3_555 n
N C(1) C(2) 126.28(23) 1_555 4_555 n
C(2) C(1) C(2) 35.38(16) 1_555 2_555 n
C(2) C(1) C(2) 54.63(30) 1_555 3_555 n
C(2) C(1) C(2) 35.38(16) 1_555 4_555 n
C(2) C(1) C(2) 42.82(22) 2_555 3_555 n
C(2) C(1) C(2) 57.64(28) 2_555 4_555 n
C(2) C(1) C(2) 42.82(22) 3_555 4_555 n
C(1) N C(1) 28.94(18) 1_555 2_555 n
C(1) N C(1) 41.39(27) 1_555 3_555 n
C(1) N C(1) 28.94(18) 1_555 4_555 n
C(1) N C(1) 28.94(18) 2_555 3_555 n
C(1) N C(1) 41.39(27) 2_555 4_555 n
C(1) N C(1) 28.94(18) 3_555 4_555 n
C(1) C(2) C(1) 28.35(17) 1_555 2_555 n
C(1) C(2) C(1) 41.96(30) 1_555 3_555 n
C(1) C(2) C(1) 28.35(17) 1_555 4_555 n
C(1) C(2) C(2) 58.14(8) 1_555 2_555 n
C(1) C(2) C(2) 41.70(14) 1_555 3_555 n
C(1) C(2) C(2) 58.14(8) 1_555 4_555 n
C(1) C(2) C(3) 107.68(22) 1_555 1_555 n
C(1) C(2) C(1) 33.87(24) 2_555 3_555 n
C(1) C(2) C(1) 46.57(30) 2_555 4_555 n
C(1) C(2) C(2) 86.48(15) 2_555 2_555 n
C(1) C(2) C(2) 61.18(14) 2_555 3_555 n
C(1) C(2) C(2) 51.65(14) 2_555 4_555 n
C(1) C(2) C(3) 121.19(22) 2_555 1_555 n
C(1) C(2) C(1) 33.87(24) 3_555 4_555 n
C(1) C(2) C(2) 85.53(19) 3_555 2_555 n
C(1) C(2) C(2) 83.67(26) 3_555 3_555 n
C(1) C(2) C(2) 85.53(19) 3_555 4_555 n
C(1) C(2) C(3) 149.65(35) 3_555 1_555 n
C(1) C(2) C(2) 51.65(14) 4_555 2_555 n
C(1) C(2) C(2) 61.18(14) 4_555 3_555 n
C(1) C(2) C(2) 86.48(15) 4_555 4_555 n
C(1) C(2) C(3) 121.19(22) 4_555 1_555 n
C(2) C(2) C(2) 45.0 2_555 3_555 n
C(2) C(2) C(2) 90.0 2_555 4_555 n
C(2) C(2) C(3) 73.27(8) 2_555 1_555 n
C(2) C(2) C(2) 45.0 3_555 4_555 n
C(2) C(2) C(3) 65.98(12) 3_555 1_555 n
C(2) C(2) C(3) 73.27(8) 4_555 1_555 n
C(2) C(3) C(2) 33.46(16) 1_555 2_555 n
C(2) C(3) C(2) 48.05(24) 1_555 3_555 n
C(2) C(3) C(2) 33.46(16) 1_555 4_555 n
C(2) C(3) C(2) 33.46(16) 2_555 3_555 n
C(2) C(3) C(2) 48.05(24) 2_555 4_555 n
C(2) C(3) C(2) 33.46(16) 3_555 4_555 n
loop_
_geom_bond_atom_site_label_1
_geom_bond_atom_site_label_2
_geom_bond_distance
_geom_bond_site_symmetry_2
_geom_bond_publ_flag
C(1) C(1) 0.733(5) 2_555 n
C(1) C(1) 1.037(7) 3_555 n
C(1) C(1) 0.733(5) 4_555 n
C(1) N 1.4672(31) 1_555 n
C(1) C(2) 1.541(4) 1_555 n
C(1) C(2) 1.3116(32) 2_555 n
C(1) C(2) 1.0318(31) 3_555 n
C(1) C(2) 1.3116(32) 4_555 n
N C(1) 1.4672(31) 1_555 n
N C(1) 1.4672(31) 2_555 n
N C(1) 1.4672(31) 3_555 n
N C(1) 1.4672(31) 4_555 n
C(2) C(1) 1.541(4) 1_555 n
C(2) C(1) 1.3116(32) 2_555 n
C(2) C(1) 1.0318(31) 3_555 n
C(2) C(1) 1.3116(32) 4_555 n
C(2) C(2) 0.894(5) 2_555 n
C(2) C(2) 1.265(6) 3_555 n
C(2) C(2) 0.894(5) 4_555 n
C(2) C(3) 1.5532(33) 1_555 n
C(3) C(2) 1.5532(33) 1_555 n
C(3) C(2) 1.5532(33) 2_555 n
C(3) C(2) 1.5532(33) 3_555 n
C(3) C(2) 1.5532(33) 4_555 n
loop_
_pd_meas_counts_total
_pd_proc_ls_weight
_pd_proc_intensity_bkg_calc
_pd_calc_intensity_total
21667.0 0.0 -28285312.00000 .
20864.0 0.0 -27566572.00000 .
20103.0 0.0 -26864896.00000 .
19706.0 0.0 -26179872.00000 .
18765.0 0.0 -25511150.00000 .
17928.0 0.0 -24858362.00000 .
17389.0 0.0 -24221172.00000 .
16918.0 0.0 -23599216.00000 .
16213.0 0.0 -22992154.00000 .
15550.0 0.0 -22399668.00000 .
15089.0 0.0 -21821420.00000 .
14605.0 0.0 -21257084.00000 .
14211.0 0.0 -20706366.00000 .
13876.0 0.0 -20168960.00000 .
13327.0 0.0 -19644542.00000 .
13197.0 0.0 -19132842.00000 .
12632.0 0.0 -18633558.00000 .
12322.0 0.0 -18146444.00000 .
11998.0 0.0 -17671184.00000 .
11544.0 0.0 -17207524.00000 .
11261.0 0.0 -16755197.00000 .
10755.0 0.0 -16313949.00000 .
10583.0 0.0 -15883531.00000 .
10261.0 0.0 -15463684.00000 .
9987.0 0.0 -15054179.00000 .
9717.0 0.0 -14654779.00000 .
9438.0 0.0 -14265233.00000 .
9092.0 0.0 -13885338.00000 .
8969.0 0.0 -13514864.00000 .
8701.0 0.0 -13153592.00000 .
8473.0 0.0 -12801310.00000 .
8285.0 0.0 -12457802.00000 .
8194.0 0.0 -12122883.00000 .
7952.0 0.0 -11796341.00000 .
7768.0 0.0 -11477982.00000 .
7600.0 0.0 -11167620.00000 .
7359.0 0.0 -10865060.00000 .
7150.0 0.0 -10570127.00000 .
6929.0 0.0 -10282642.00000 .
6761.0 0.0 -10002427.00000 .
6653.0 0.0 -9729309.00000 .
6635.0 0.0 -9463128.00000 .
6505.0 0.0 -9203718.00000 .
6401.0 0.0 -8950916.00000 .
6333.0 0.0 -8704573.00000 .
5970.0 0.0 -8464526.00000 .
5977.0 0.0 -8230635.00000 .
5908.0 0.0 -8002747.00000 .
5788.0 0.0 -7780718.50000 .
5727.0 0.0 -7564414.50000 .
5497.0 0.0 -7353698.50000 .
5535.0 0.0 -7148427.00000 .
5425.0 0.0 -6948479.50000 .
5316.0 0.0 -6753731.00000 .
5191.0 0.0 -6564045.50000 .
5201.0 0.0 -6379301.50000 .
5217.0 0.0 -6199384.50000 .
5048.0 0.0 -6024185.00000 .
5009.0 0.0 -5853569.50000 .
4975.0 0.0 -5687442.50000 .
4796.0 0.0 -5525687.50000 .
4896.0 0.0 -5368203.50000 .
4643.0 0.0 -5214878.50000 .
4645.0 0.0 -5065615.50000 .
4537.0 0.0 -4920314.50000 .
4409.0 0.0 -4778880.00000 .
4415.0 0.0 -4641210.00000 .
4300.0 0.0 -4507218.50000 .
4358.0 0.0 -4376810.00000 .
4270.0 0.0 -4249902.50000 .
4293.0 0.0 -4126397.25000 .
4109.0 0.0 -4006219.50000 .
4014.0 0.0 -3889285.00000 .
3966.0 0.0 -3775514.25000 .
4015.0 0.0 -3664823.50000 .
3891.0 0.0 -3557135.50000 .
3837.0 0.0 -3452378.00000 .
3884.0 0.0 -3350476.75000 .
3752.0 0.0 -3251356.75000 .
3864.0 0.0 -3154952.25000 .
3711.0 0.0 -3061192.00000 .
3579.0 0.0 -2970008.75000 .
3773.0 0.0 -2881339.75000 .
3553.0 0.0 -2795116.50000 .
3654.0 0.0 -2711280.25000 .
3511.0 0.0 -2629769.50000 .
3354.0 0.0 -2550521.75000 .
3328.0 0.0 -2473484.25000 .
3365.0 0.0 -2398596.25000 .
3370.0 0.0 -2325802.50000 .
3362.0 0.0 -2255048.75000 .
3360.0 0.0 -2186282.50000 .
3159.0 0.0 -2119456.00000 .
3126.0 0.0 -2054515.37500 .
3201.0 0.0 -1991410.25000 .
3197.0 0.0 -1930093.75000 .
3194.0 0.0 -1870522.00000 .
3138.0 0.0 -1812644.12500 .
2983.0 0.0 -1756420.37500 .
3004.0 0.0 -1701806.75000 .
3092.0 0.0 -1648757.00000 .
3047.0 0.0 -1597233.50000 .
3048.0 0.0 -1547191.75000 .
2964.0 0.0 -1498598.50000 .
2931.0 0.0 -1451413.75000 .
2968.0 0.0 -1405593.12500 .
2858.0 0.0 -1361108.50000 .
2879.0 0.0 -1317918.12500 .
2801.0 0.0 -1275991.37500 .
2793.0 0.0 -1235294.00000 .
2797.0 0.0 -1195789.87500 .
2718.0 0.0 -1157450.50000 .
2762.0 0.0 -1120239.87500 .
2678.0 0.0 -1084131.37500 .
2694.0 0.0 -1049095.37500 .
2620.0 0.0 -1015097.62500 .
2682.0 0.0 -982115.18750 .
2654.0 0.0 -950116.25000 .
2639.0 0.0 -919077.06250 .
2608.0 0.0 -888970.93750 .
2562.0 0.0 -859768.00000 .
2614.0 0.0 -831448.31250 .
2521.0 0.0 -803984.50000 .
2530.0 0.0 -777353.81250 .
2475.0 0.0 -751534.06250 .
2454.0 0.0 -726499.56250 .
2471.0 0.0 -702232.00000 .
2471.0 0.0 -678706.43750 .
2374.0 0.0 -655904.25000 .
2408.0 0.0 -633806.06250 .
2455.0 0.0 -612388.50000 .
2371.0 0.0 -591635.68750 .
2302.0 0.0 -571525.68750 .
2365.0 0.0 -552042.68750 .
2260.0 0.0 -533169.06250 .
2286.0 0.0 -514884.78125 .
2246.0 0.0 -497175.25000 .
2294.0 0.0 -480022.37500 .
2313.0 0.0 -463411.34375 .
2200.0 0.0 -447327.03125 .
2201.0 0.0 -431751.93750 .
2209.0 0.0 -416673.31250 .
2277.0 0.0 -402074.68750 .
2120.0 0.0 -387944.06250 .
2120.0 0.0 -374267.96875 .
2156.0 0.0 -361030.75000 .
2167.0 0.0 -348222.03125 .
2109.0 0.0 -335827.03125 .
2098.0 0.0 -323834.59375 .
2104.0 0.0 -312233.62500 .
2081.0 0.0 -301010.37500 .
2110.0 0.0 -290155.62500 .
2124.0 0.0 -279656.68750 .
2025.0 0.0 -269504.34375 .
2054.0 0.0 -259687.85938 .
1994.0 0.0 -250195.89063 .
1991.0 0.0 -241019.93750 .
1965.0 0.0 -232149.70313 .
1956.0 0.0 -223576.65625 .
1989.0 0.0 -215291.46875 .
1903.0 0.0 -207284.67188 .
1902.0 0.0 -199548.60938 .
1967.0 0.0 -192074.25000 .
1940.0 0.0 -184853.87500 .
1927.0 0.0 -177880.26563 .
1881.0 0.0 -171144.34375 .
1855.0 0.0 -164640.03125 .
1860.0 0.0 -158359.14063 .
1782.0 0.0 -152295.18750 .
1751.0 0.0 -146441.76563 .
1792.0 0.0 -140791.42188 .
1707.0 0.0 -135338.25000 .
1772.0 0.0 -130075.65625 .
1680.0 0.0 -124997.98438 .
1704.0 0.0 -120099.39844 .
1727.0 0.0 -115373.57031 .
1707.0 0.0 -110815.47656 .
1737.0 0.0 -106419.58594 .
1768.0 0.0 -102180.58594 .
1674.0 0.0 -98093.85156 .
1681.0 0.0 -94153.62500 .
1782.0 0.0 -90355.92188 .
1665.0 0.0 -86695.46875 .
1693.0 0.0 -83168.17969 .
1570.0 0.0 -79769.75000 .
1625.0 0.0 -76495.42188 .
1625.0 0.0 -73341.66406 .
1600.0 0.0 -70303.93750 .
1642.0 0.0 -67378.85938 .
1603.0 0.0 -64562.51172 .
1626.0 0.0 -61851.00000 .
1604.0 0.0 -59241.08203 .
1506.0 0.0 -56729.14063 .
1562.0 0.0 -54312.07422 .
1517.0 0.0 -51986.62500 .
1529.0 0.0 -49749.36719 .
1583.0 0.0 -47597.60156 .
1462.0 0.0 -45528.15625 .
1525.0 0.0 -43538.39453 .
1538.0 0.0 -41625.62500 .
1520.0 0.0 -39786.83203 .
1417.0 0.0 -38019.74219 .
1464.0 0.0 -36321.65234 .
1459.0 0.0 -34690.21875 .
1483.0 0.0 -33123.22656 .
1451.0 0.0 -31618.15039 .
1465.0 0.0 -30172.99609 .
1374.0 0.0 -28785.46094 .
1454.0 0.0 -27453.60547 .
1464.0 0.0 -26175.44531 .
1422.0 0.0 -24948.86719 .
1379.0 0.0 -23772.19336 .
1402.0 0.0 -22643.51172 .
1386.0 0.0 -21561.09570 .
1342.0 0.0 -20523.29492 .
1381.0 0.0 -19528.37109 .
1343.0 0.0 -18574.84180 .
1314.0 0.0 -17661.05664 .
1329.0 0.0 -16785.63672 .
1241.0 0.0 -15947.16699 .
1284.0 0.0 -15144.13184 .
1335.0 0.0 -14375.31445 .
1316.0 0.0 -13639.34277 .
1265.0 0.0 -12935.00586 .
1295.0 0.0 -12261.10352 .
1225.0 0.0 -11616.43066 .
1256.0 0.0 -10999.89160 .
1271.0 0.0 -10410.35156 .
1214.0 0.0 -9846.81445 .
1223.0 0.0 -9308.29492 .
1206.0 0.0 -8793.68652 .
1246.0 0.0 -8302.16699 .
1219.0 0.0 -7832.74805 .
1141.0 0.0 -7384.57715 .
1151.0 0.0 -6956.83936 .
1111.0 0.0 -6548.62842 .
1156.0 0.0 -6159.23584 .
1107.0 0.0 -5787.83643 .
1114.0 0.0 -5433.75439 .
1155.0 0.0 -5096.25000 .
1127.0 0.0 -4774.63330 .
1077.0 0.0 -4468.26953 .
1103.0 0.0 -4176.47998 .
1130.0 0.0 -3898.70361 .
1065.0 0.0 -3634.34937 .
1043.0 0.0 -3382.80151 .
1112.0 0.0 -3143.56519 .
1036.0 0.0 -2916.08740 .
1071.0 0.0 -2699.87109 .
1067.0 0.0 -2494.43530 .
1059.0 0.0 -2299.30054 .
1019.0 0.0 -2114.02930 .
999.0 0.0 -1938.16626 .
1016.0 0.0 -1771.31995 .
1071.0 0.0 -1613.08337 .
1015.0 0.0 -1463.05811 .
995.0 0.0 -1320.88562 .
997.0 0.0 -1186.20569 .
1008.0 0.0 -1058.68213 .
973.0 0.0 -937.99408 .
982.0 0.0 -823.80182 .
1041.0 0.0 -715.82727 .
977.0 0.0 -613.76782 .
959.0 0.0 -517.34668 .
975.0 0.0 -426.30435 .
970.0 0.0 -340.37555 .
1002.0 0.0 -259.32059 .
967.0 0.0 -182.89655 .
986.0 0.0 -110.88791 .
970.0 0.0 -43.07512 .
913.0 0.0 20.75391 .
911.0 0.0 80.79414 .
973.0 0.0 137.23468 .
958.0 0.0 190.25696 .
919.0 0.0 240.03149 .
909.0 0.0 286.73419 .
910.0 0.0 330.51428 .
969.0 0.0 371.52942 .
932.0 0.0 409.92282 .
916.0 0.0 445.83267 .
930.0 0.0 479.39267 .
906.0 0.0 510.72812 .
953.0 0.0 539.96271 .
908.0 0.0 567.20807 .
947.0 0.0 592.57336 .
861.0 0.0 616.16815 .
949.0 0.0 638.08759 .
881.0 0.0 658.42969 .
947.0 0.0 677.28375 .
901.0 0.0 694.73456 .
903.0 0.0 710.86810 .
933.0 0.0 725.75861 .
951.0 0.0 739.48236 .
858.0 0.0 752.10931 .
908.0 0.0 763.70587 .
948.0 0.0 774.33636 .
932.0 0.0 784.06049 .
869.0 0.0 792.93671 .
894.0 0.0 801.01794 .
878.0 0.0 808.35547 .
901.0 0.0 814.99951 .
919.0 0.0 820.99469 .
880.0 0.0 826.38544 .
952.0 0.0 831.21271 .
862.0 0.0 835.51532 .
914.0 0.0 839.33032 .
850.0 0.0 842.69220 .
875.0 0.0 845.63397 .
924.0 0.0 848.18610 .
870.0 0.0 850.37775 .
896.0 0.0 852.23645 .
841.0 0.0 853.78772 .
815.0 0.0 855.05579 .
872.0 0.0 856.06317 .
835.0 0.0 856.83124 .
873.0 0.0 857.37982 .
832.0 0.0 857.72766 .
871.0 0.0 857.89209 .
860.0 0.001163 857.88934 857.88867
868.0 0.001152 857.73474 857.73407
838.0 0.001193 857.44232 857.44171
849.0 0.001178 857.02539 857.02478
857.0 0.001167 856.49597 856.49536
898.0 0.001114 855.86560 855.86505
878.0 0.001139 855.14484 855.14429
871.0 0.001148 854.34326 854.34277
862.0 0.001160 853.47003 853.46954
875.0 0.001143 852.53339 852.53290
845.0 0.001183 851.54095 851.54047
875.0 0.001143 850.49988 850.49945
845.0 0.001183 849.41638 849.41595
842.0 0.001188 848.29657 848.29614
828.0 0.001208 847.14569 847.14532
847.0 0.001181 845.96869 845.96826
810.0 0.001235 844.76996 844.76953
854.0 0.001171 843.55353 843.55310
795.0 0.001258 842.32288 842.32245
856.0 0.001168 841.08142 841.08099
835.0 0.001198 839.83191 839.83154
842.0 0.001188 838.57703 838.57666
820.0 0.001220 837.31891 837.31848
861.0 0.001161 836.05945 836.05902
804.0 0.001244 834.80060 834.80017
782.0 0.001279 833.54352 833.54309
785.0 0.001274 832.28979 832.28937
835.0 0.001198 831.04028 831.03986
859.0 0.001164 829.79584 829.79535
810.0 0.001235 828.55719 828.55670
787.0 0.001271 827.32477 827.32428
782.0 0.001279 826.09912 826.09863
833.0 0.001200 824.88037 824.87988
815.0 0.001227 823.66864 823.66815
818.0 0.001222 822.46399 822.46350
844.0 0.001185 821.26642 821.26593
802.0 0.001247 820.07568 820.07520
820.0 0.001220 818.89154 818.89105
843.0 0.001186 817.71362 817.71313
806.0 0.001241 816.54181 816.54132
792.0 0.001263 815.37543 815.37494
833.0 0.001200 814.21423 814.21375
852.0 0.001174 813.05762 813.05713
848.0 0.001179 811.90509 811.90460
833.0 0.001200 810.75610 810.75555
822.0 0.001217 809.61011 809.60956
851.0 0.001175 808.46661 808.46606
844.0 0.001185 807.32495 810.43787
802.0 0.001247 806.18451 810.98053
837.0 0.001195 805.04480 810.09003
760.0 0.001316 803.90521 809.21954
824.0 0.001214 802.76532 808.37097
767.0 0.001304 801.62433 807.54596
783.0 0.001277 800.48181 806.74707
761.0 0.001314 799.33734 805.97699
829.0 0.001206 798.19019 805.23907
794.0 0.001259 797.04016 804.53729
823.0 0.001215 795.88666 803.87640
837.0 0.001195 794.72925 803.26202
832.0 0.001202 793.56750 802.70081
843.0 0.001186 792.40106 802.20099
781.0 0.001280 791.22968 801.77234
790.0 0.001266 790.05298 801.42645
815.0 0.001227 788.87054 801.17773
750.0 0.001333 787.68225 801.04395
847.0 0.001181 786.48785 801.04669
752.0 0.001330 785.28711 801.21283
832.0 0.001202 784.08002 801.57642
816.0 0.001225 782.86621 802.18048
870.0 0.001149 781.64575 803.08008
824.0 0.001214 780.41840 804.34778
842.0 0.001188 779.18433 806.07855
868.0 0.001152 777.94342 808.40143
921.0 0.001086 776.69562 811.49426
881.0 0.001135 775.44110 815.60785
876.0 0.001142 774.17987 821.11041
942.0 0.001062 772.91205 828.57562
900.0 0.001111 771.63782 839.07245
934.0 0.001071 770.35712 855.22388
932.0 0.001073 769.07050 883.99988
1027.0 0.000974 767.77789 940.62286
1088.0 0.000919 766.47955 1048.50073
1222.0 0.000818 765.17584 1230.58569
1385.0 0.000722 763.86694 1504.23010
1672.0 0.000598 762.55328 1889.57068
2272.0 0.000440 761.23492 2433.43115
3160.0 0.0003165 759.91248 3228.20288
4223.0 0.0002368 758.58618 4331.16943
5389.0 0.0001856 757.25635 5481.22363
6029.0 0.0001659 755.92346 5889.38086
4894.0 0.0002043 754.58783 4975.69531
3224.0 0.0003102 753.25000 3384.35669
1973.0 0.000507 751.91028 2051.45459
1270.0 0.000787 750.56915 1336.12207
985.0 0.001015 749.22711 1045.89954
840.0 0.001190 747.88440 935.52539
849.0 0.001178 746.54181 883.24652
843.0 0.001186 745.19965 850.93469
813.0 0.001230 743.85840 828.28278
791.0 0.001264 742.51855 811.51404
744.0 0.001344 741.18054 798.63489
741.0 0.001350 739.84503 788.44000
720.0 0.001389 738.51239 780.15698
788.0 0.001269 737.18304 773.27325
710.0 0.001408 735.85773 767.43896
711.0 0.001406 734.53674 762.40649
778.0 0.001285 733.22076 757.99902
720.0 0.001389 731.91010 754.08557
754.0 0.001326 730.60535 750.56848
744.0 0.001344 729.30707 747.37421
750.0 0.001333 728.01550 744.44501
719.0 0.001391 726.73151 741.73694
731.0 0.001368 725.45538 739.21448
681.0 0.001468 724.18750 736.84973
751.0 0.001332 722.92847 734.62018
772.0 0.001295 721.67871 732.50751
694.0 0.001441 720.43872 730.49695
715.0 0.001399 719.20886 728.57611
723.0 0.001383 717.98962 726.73474
726.0 0.001377 716.78149 724.96460
706.0 0.001416 715.58484 723.25848
715.0 0.001399 714.40002 721.61041
710.0 0.001408 713.22760 720.01550
706.0 0.001416 712.06781 718.46930
757.0 0.001321 710.92108 716.96838
727.0 0.001376 709.78778 715.50940
746.0 0.001340 708.66833 714.09003
707.0 0.001414 707.56299 712.70770
719.0 0.001391 706.47211 711.36053
684.0 0.001462 705.39600 710.04688
708.0 0.001412 704.33502 705.87140
704.0 0.001420 703.28949 703.28912
748.0 0.001337 702.25970 702.25934
686.0 0.001458 701.24567 701.24536
682.0 0.001466 700.24799 700.24768
726.0 0.001377 699.26672 699.26642
726.0 0.001377 698.30219 698.30182
701.0 0.001427 697.35455 697.35425
696.0 0.001437 696.42401 696.42365
694.0 0.001441 695.51080 695.51044
689.0 0.001451 694.61493 694.61456
704.0 0.001420 693.73682 693.73645
713.0 0.001403 692.87653 692.87616
652.0 0.001534 692.03400 692.03369
689.0 0.001451 691.20966 691.20929
678.0 0.001475 690.40338 690.40302
706.0 0.001416 689.61542 689.61505
706.0 0.001416 688.84583 688.84546
698.0 0.001433 688.09454 688.09418
697.0 0.001435 687.36176 687.36139
709.0 0.001410 686.64740 686.64703
645.0 0.001550 685.95166 685.95129
684.0 0.001462 685.27454 685.27417
711.0 0.001406 684.61591 684.61554
691.0 0.001447 683.97583 683.97546
688.0 0.001453 683.35431 683.35394
706.0 0.001416 682.75128 682.75092
692.0 0.001445 682.16681 682.16644
664.0 0.001506 681.60065 681.60028
744.0 0.001344 681.05298 681.05261
691.0 0.001447 680.52356 680.52319
686.0 0.001458 680.01239 680.01196
672.0 0.001488 679.51929 679.51892
712.0 0.001404 679.04425 679.04382
695.0 0.001439 678.58716 678.58673
708.0 0.001412 678.14777 678.14740
671.0 0.001490 677.72614 677.72571
686.0 0.001458 677.32202 677.32166
733.0 0.001364 676.93530 676.93494
707.0 0.001414 676.56580 676.56543
672.0 0.001488 676.21338 676.21301
695.0 0.001439 675.87787 675.87750
643.0 0.001555 675.55914 675.55878
674.0 0.001484 675.25690 675.25653
692.0 0.001445 674.97107 674.97070
688.0 0.001453 674.70142 674.70099
681.0 0.001468 674.44769 674.44733
696.0 0.001437 674.20978 674.20935
637.0 0.001570 673.98743 673.98700
663.0 0.001508 673.78040 673.77997
635.0 0.001575 673.58844 673.58801
667.0 0.001499 673.41144 673.41101
733.0 0.001364 673.24908 673.24872
667.0 0.001499 673.10120 673.10077
677.0 0.001477 672.96753 672.96710
693.0 0.001443 672.84778 672.84735
696.0 0.001437 672.74176 672.74133
662.0 0.001511 672.64923 672.64880
651.0 0.001536 672.56995 672.56958
666.0 0.001502 672.50366 672.50323
701.0 0.001427 672.45013 672.44971
688.0 0.001453 672.40906 672.40863
690.0 0.001449 672.38025 672.37982
713.0 0.001403 672.36340 672.36298
666.0 0.001502 672.35834 672.35791
696.0 0.001437 672.36475 672.36432
677.0 0.001477 672.38239 672.38196
690.0 0.001449 672.41101 672.41058
687.0 0.001456 672.45038 672.44995
682.0 0.001466 672.50018 672.49976
695.0 0.001439 672.56024 672.55981
705.0 0.001418 672.63031 672.62988
664.0 0.001506 672.71008 672.70966
714.0 0.001401 672.79938 672.79895
665.0 0.001504 672.89789 672.89746
629.0 0.001590 673.00543 673.00500
668.0 0.001497 673.12177 673.12134
674.0 0.001484 673.24664 673.24615
673.0 0.001486 673.37976 673.37933
686.0 0.001458 673.52100 673.52057
681.0 0.001468 673.67010 673.66968
661.0 0.001513 673.82678 673.82635
692.0 0.001445 673.99091 673.99048
684.0 0.001462 674.16223 674.16180
630.0 0.001587 674.34052 674.34009
720.0 0.001389 674.52557 674.52509
682.0 0.001466 674.71716 674.71667
658.0 0.001520 674.91516 674.91467
693.0 0.001443 675.11932 675.11884
688.0 0.001453 675.32941 675.32898
727.0 0.001376 675.54535 675.54492
723.0 0.001383 675.76691 675.76642
637.0 0.001570 675.99384 675.99341
706.0 0.001416 676.22607 676.22565
641.0 0.001560 676.46338 676.46295
678.0 0.001475 676.70569 676.70526
672.0 0.001488 676.95276 676.95227
661.0 0.001513 677.20441 677.20398
670.0 0.001493 677.46057 677.46014
736.0 0.001359 677.72107 677.72058
657.0 0.001522 677.98578 677.98529
699.0 0.001431 678.25452 678.25409
665.0 0.001504 678.52728 678.52679
654.0 0.001529 678.80383 678.80341
690.0 0.001449 679.08417 679.08368
679.0 0.001473 679.36804 679.36761
671.0 0.001490 679.65552 679.65503
627.0 0.001595 679.94635 679.94586
626.0 0.001597 680.24054 680.24005
660.0 0.001515 680.53790 680.53748
677.0 0.001477 680.83856 680.83807
654.0 0.001529 681.14221 681.14172
648.0 0.001543 681.44891 681.44849
661.0 0.001513 681.75867 681.75818
685.0 0.001460 682.07123 682.07074
692.0 0.001445 682.38666 682.38623
676.0 0.001479 682.70496 682.70453
698.0 0.001433 683.02600 683.02557
680.0 0.001471 683.34979 683.34937
715.0 0.001399 683.67633 683.67590
664.0 0.001506 684.00562 684.00513
724.0 0.001381 684.33746 684.33704
623.0 0.001605 684.67206 684.67157
679.0 0.001473 685.00928 685.00885
650.0 0.001538 685.34918 685.34875
665.0 0.001504 685.69177 685.69128
680.0 0.001471 686.03705 686.03656
692.0 0.001445 686.38495 686.38446
645.0 0.001550 686.73560 686.73517
704.0 0.001420 687.08899 687.08856
646.0 0.001548 687.44513 687.44470
661.0 0.001513 687.80414 687.80365
647.0 0.001546 688.16589 688.16547
686.0 0.001458 688.53058 688.53015
693.0 0.001443 688.89819 688.89777
743.0 0.001346 689.26880 689.26837
701.0 0.001427 689.64246 689.64197
652.0 0.001534 690.01917 690.01868
670.0 0.001493 690.39905 690.39862
674.0 0.001484 690.78217 690.78174
686.0 0.001458 691.16864 691.16815
708.0 0.001412 691.55841 691.55798
698.0 0.001433 691.95166 691.95123
663.0 0.001508 692.34851 692.34802
684.0 0.001462 692.74896 692.74847
652.0 0.001534 693.15314 693.15265
664.0 0.001506 693.56110 693.56067
670.0 0.001493 693.97296 693.97247
651.0 0.001536 694.38885 694.38843
689.0 0.001451 694.80884 694.80841
671.0 0.001490 695.23309 695.23260
675.0 0.001481 695.66162 695.66119
687.0 0.001456 696.09460 696.09412
680.0 0.001471 696.53210 696.53162
675.0 0.001481 696.97424 696.97375
665.0 0.001504 697.42120 697.42072
723.0 0.001383 697.87299 697.87256
682.0 0.001466 698.32983 698.32935
701.0 0.001427 698.79181 698.79138
709.0 0.001410 699.25903 699.25854
701.0 0.001427 699.73163 699.73120
673.0 0.001486 700.20978 700.20929
687.0 0.001456 700.69348 700.69299
696.0 0.001437 701.18298 701.18256
682.0 0.001466 701.67834 701.67792
711.0 0.001406 702.17975 702.17932
704.0 0.001420 702.68738 702.68689
741.0 0.001350 703.20117 703.20074
666.0 0.001502 703.72144 703.72101
680.0 0.001471 704.24823 704.24774
703.0 0.001422 704.78174 704.78125
785.0 0.001274 705.32202 705.32159
766.0 0.001305 705.86926 705.86877
668.0 0.001497 706.42358 706.42316
701.0 0.001427 706.98505 706.98462
701.0 0.001427 707.55396 707.55353
748.0 0.001337 708.13031 708.12982
727.0 0.001376 708.71423 708.71375
711.0 0.001406 709.30591 709.30548
703.0 0.001422 709.90540 709.90497
736.0 0.001359 710.51294 710.51251
739.0 0.001353 711.12860 711.12811
737.0 0.001357 711.75244 711.75195
722.0 0.001385 712.38464 712.38422
755.0 0.001325 713.02533 713.02490
744.0 0.001344 713.67474 713.67432
724.0 0.001381 714.33282 714.33240
745.0 0.001342 714.99969 714.99927
756.0 0.001323 715.67566 715.67523
765.0 0.001307 716.36060 716.36017
714.0 0.001401 717.05487 717.05444
746.0 0.001340 717.75836 717.75793
720.0 0.001389 718.47125 718.47083
688.0 0.001453 719.19379 719.19330
744.0 0.001344 719.92584 719.92535
748.0 0.001337 720.66772 720.66724
697.0 0.001435 721.41931 721.41888
688.0 0.001453 722.18091 722.18048
751.0 0.001332 722.95251 722.95209
715.0 0.001399 723.73431 723.73389
772.0 0.001295 724.52625 724.52582
691.0 0.001447 725.32855 725.32806
722.0 0.001385 726.14117 726.14075
749.0 0.001335 726.96436 726.96393
729.0 0.001372 727.79797 727.79755
721.0 0.001387 728.64233 728.64191
745.0 0.001342 729.49731 729.49689
713.0 0.001403 730.36304 730.36261
701.0 0.001427 731.23969 731.23926
724.0 0.001381 732.12714 732.12671
777.0 0.001287 733.02563 733.02521
723.0 0.001383 733.93506 733.93463
739.0 0.001353 734.85553 734.85510
704.0 0.001420 735.78717 735.78674
723.0 0.001383 736.73004 736.72961
767.0 0.001304 737.68402 737.68359
767.0 0.001304 738.64923 741.65210
713.0 0.001403 739.62567 742.77936
705.0 0.001418 740.61359 745.41827
720.0 0.001389 741.61273 746.66736
757.0 0.001321 742.62329 747.94788
704.0 0.001420 743.64520 749.26196
805.0 0.001242 744.67853 750.61224
721.0 0.001387 745.72333 752.00159
760.0 0.001316 746.77948 753.43323
772.0 0.001295 747.84711 754.91107
772.0 0.001295 748.92609 756.43945
751.0 0.001332 750.01660 758.02374
765.0 0.001307 751.11853 759.66980
801.0 0.001248 752.23187 761.38470
796.0 0.001256 753.35657 763.17694
767.0 0.001304 754.49268 765.05634
796.0 0.001256 755.64014 767.03497
754.0 0.001326 756.79907 769.12738
834.0 0.001199 757.96924 771.35071
810.0 0.001235 759.15076 773.72675
856.0 0.001168 760.34344 776.28168
795.0 0.001258 761.54736 779.04846
778.0 0.001285 762.76257 782.06903
799.0 0.001252 763.98877 785.39575
825.0 0.001212 765.22620 789.09753
858.0 0.001166 766.47449 793.26318
842.0 0.001188 767.73376 798.01166
886.0 0.001129 769.00409 803.50409
793.0 0.001261 770.28510 809.96124
820.0 0.001220 771.57690 817.69720
849.0 0.001178 772.87939 827.16663
872.0 0.001147 774.19269 839.06799
866.0 0.001155 775.51636 854.61438
958.0 0.001044 776.85046 876.44623
925.0 0.001081 778.19513 911.36322
1039.0 0.000962 779.54993 976.23462
1167.0 0.000857 780.91492 1106.80579
1461.0 0.000684 782.29016 1365.64807
2003.0 0.000499 783.67523 1840.47949
2705.0 0.000370 785.07037 2617.01465
3554.0 0.0002814 786.47516 3673.80884
4301.0 0.0002325 787.88959 4727.98340
5055.0 0.0001978 789.31378 5224.06006
4859.0 0.0002058 790.74725 4822.68506
4034.0 0.0002479 792.19012 3864.25708
2965.0 0.0003373 793.64215 2765.05005
2015.0 0.000496 795.10339 1875.66003
1349.0 0.000741 796.57349 1341.51245
1099.0 0.000910 798.05243 1084.25586
893.0 0.001120 799.54016 975.26093
916.0 0.001092 801.03632 926.68152
887.0 0.001127 802.54095 899.99420
789.0 0.001267 804.05396 882.53741
836.0 0.001196 805.57495 870.22931
807.0 0.001239 807.10406 861.29810
851.0 0.001175 808.64093 854.72614
861.0 0.001161 810.18549 849.85706
850.0 0.001176 811.73767 846.24866
880.0 0.001136 813.29712 843.59430
861.0 0.001161 814.86371 841.67517
838.0 0.001193 816.43756 840.33295
836.0 0.001196 818.01819 839.44910
788.0 0.001269 819.60553 838.93481
807.0 0.001239 821.19940 838.72223
810.0 0.001235 822.79980 838.75818
832.0 0.001202 824.40631 839.00104
800.0 0.001250 826.01886 839.41772
822.0 0.001217 827.63745 839.98163
842.0 0.001188 829.26154 841.29437
768.0 0.001302 830.89130 842.12323
846.0 0.001182 832.52631 843.35406
866.0 0.001155 834.16638 844.37781
811.0 0.001233 835.81165 845.47687
843.0 0.001186 837.46155 846.64264
853.0 0.001172 839.11603 847.86865
817.0 0.001224 840.77509 849.14954
778.0 0.001285 842.43823 850.48016
830.0 0.001205 844.10535 851.85699
806.0 0.001241 845.77643 853.27679
842.0 0.001188 847.45123 854.73749
818.0 0.001222 849.12933 856.23688
868.0 0.001152 850.81073 857.77380
810.0 0.001235 852.49542 859.34802
941.0 0.001063 854.18280 858.00873
808.0 0.001238 855.87299 859.79425
848.0 0.001179 857.56549 860.13428
839.0 0.001192 859.26038 862.05054
828.0 0.001208 860.95746 863.99890
899.0 0.001112 862.65631 865.98474
878.0 0.001139 864.35699 868.01501
876.0 0.001142 866.05902 870.09833
909.0 0.001100 867.76239 872.24591
864.0 0.001157 869.46686 874.47229
854.0 0.001171 871.17224 876.79663
882.0 0.001134 872.87848 879.24451
843.0 0.001186 874.58508 881.85046
860.0 0.001163 876.29199 884.66229
883.0 0.001133 877.99915 887.74878
879.0 0.001138 879.70612 891.20868
885.0 0.001130 881.41290 895.19739
864.0 0.001157 883.11908 899.99121
978.0 0.001022 884.82465 906.21521
884.0 0.001131 886.52942 915.49640
905.0 0.001105 888.23297 931.86737
959.0 0.001043 889.93542 963.92944
1070.0 0.000935 891.63629 1026.75623
1210.0 0.000826 893.33545 1139.91724
1527.0 0.000655 895.03284 1316.13318
1737.0 0.000576 896.72827 1534.23853
1954.0 0.000512 898.42133 1717.76355
2170.0 0.000461 900.11206 1761.73926
2248.0 0.000445 901.80011 1649.98901
1811.0 0.000552 903.48547 1462.03699
1442.0 0.000693 905.16772 1260.88782
1210.0 0.000826 906.84698 1103.44592
1045.0 0.000957 908.52271 1009.61774
947.0 0.001056 910.19489 964.45923
918.0 0.001089 911.86346 945.66718
856.0 0.001168 913.52802 937.87994
853.0 0.001172 915.18866 934.17908
895.0 0.001117 916.84479 932.21289
881.0 0.001135 918.49658 931.20935
905.0 0.001105 920.14368 930.83698
919.0 0.001088 921.78613 930.90631
869.0 0.001151 923.42346 931.29419
902.0 0.001109 925.05573 931.91748
855.0 0.001170 926.68256 932.71796
905.0 0.001105 928.30414 933.65417
913.0 0.001095 929.91992 934.69513
890.0 0.001124 931.53003 935.81842
907.0 0.001103 933.13403 937.00641
870.0 0.001149 934.73187 938.24609
907.0 0.001103 936.32343 939.52710
939.0 0.001065 937.90894 940.84137
920.0 0.001087 939.48730 942.18164
886.0 0.001129 941.05920 943.54333
917.0 0.001091 942.62390 944.92151
918.0 0.001089 944.18170 946.31305
851.0 0.001175 945.73267 947.71521
909.0 0.001100 947.27563 949.12439
879.0 0.001138 948.81165 950.53973
920.0 0.001087 950.33948 951.95831
944.0 0.001059 951.85999 953.37964
916.0 0.001092 953.37268 954.80200
921.0 0.001086 954.87695 956.22375
933.0 0.001072 956.37329 957.64453
916.0 0.001092 957.86108 959.06299
940.0 0.001064 959.34064 960.47858
905.0 0.001105 960.81189 961.89099
956.0 0.001046 962.27405 963.29871
935.0 0.001070 963.72766 964.70190
973.0 0.001028 965.17212 965.50330
962.0 0.001040 966.60767 966.92279
956.0 0.001046 968.03442 968.03406
896.0 0.001116 969.45135 969.45099
982.0 0.001018 970.85938 970.85901
970.0 0.001031 972.25763 972.25726
1060.0 0.000943 973.64636 973.64600
1053.0 0.000950 975.02576 975.02533
1045.0 0.000957 976.39496 976.39459
969.0 0.001032 977.75458 977.75421
921.0 0.001086 979.10400 979.10364
994.0 0.001006 980.44348 980.44312
992.0 0.001008 981.77319 981.77283
962.0 0.001040 983.09229 983.09186
986.0 0.001014 984.40118 984.40082
1079.0 0.000927 985.69958 985.69922
1051.0 0.000951 986.98761 986.98724
1035.0 0.000966 988.26544 988.26508
937.0 0.001067 989.53210 989.53174
993.0 0.001007 990.78851 990.78815
1012.0 0.000988 992.03394 992.03351
908.0 0.001101 993.26855 993.26819
1005.0 0.000995 994.49261 994.49219
1022.0 0.000978 995.70538 995.70496
976.0 0.001025 996.90741 996.90698
955.0 0.001047 998.09814 998.09772
942.0 0.001062 999.27789 999.27747
989.0 0.001011 1000.44678 1000.44641
983.0 0.001017 1001.60413 1001.60370
933.0 0.001072 1002.75043 1002.75000
1045.0 0.000957 1003.88519 1003.88483
974.0 0.001027 1005.00879 1005.00842
1000.0 0.001000 1006.12134 1006.12091
887.0 0.001127 1007.22198 1007.22156
1012.0 0.000988 1008.31158 1008.31116
972.0 0.001029 1009.38947 1009.38904
959.0 0.001043 1010.45593 1010.45557
971.0 0.001030 1011.51111 1011.51068
977.0 0.001024 1012.55444 1012.55402
1014.0 0.000986 1013.58643 1013.58600
936.0 0.001068 1014.60663 1014.60626
1001.0 0.000999 1015.61542 1015.61499
1017.0 0.000983 1016.61279 1016.61237
968.0 0.001033 1017.59821 1017.59778
994.0 0.001006 1018.57220 1018.57178
1046.0 0.000956 1019.53436 1019.53400
1023.0 0.000978 1020.48499 1020.48456
966.0 0.001035 1021.42426 1021.42383
962.0 0.001040 1022.35144 1022.35101
1002.0 0.000998 1023.26733 1023.26691
1029.0 0.000972 1024.17139 1024.17090
972.0 0.001029 1025.06384 1025.06335
1019.0 0.000981 1025.94482 1025.94434
1021.0 0.000979 1026.81396 1026.81360
1010.0 0.000990 1027.67175 1027.67139
1044.0 0.000958 1028.51770 1028.51721
1018.0 0.000982 1029.35217 1029.35168
1013.0 0.000987 1030.17529 1030.17493
1103.0 0.000907 1030.98657 1030.98621
1007.0 0.000993 1031.78662 1038.37695
1034.0 0.000967 1032.57495 1039.43030
1025.0 0.000976 1033.35193 1043.68811
1032.0 0.000969 1034.11768 1044.88013
1117.0 0.000895 1034.87170 1046.08716
1021.0 0.000979 1035.61462 1047.31226
1040.0 0.000962 1036.34595 1048.55762
1089.0 0.000918 1037.06604 1049.82654
1009.0 0.000991 1037.77502 1051.12231
1044.0 0.000958 1038.47266 1052.44763
1099.0 0.000910 1039.15918 1053.80762
1077.0 0.000929 1039.83435 1055.20605
1077.0 0.000929 1040.49854 1056.64868
1101.0 0.000908 1041.15186 1058.14087
1068.0 0.000936 1041.79395 1059.68884
1084.0 0.000923 1042.42505 1061.30078
1105.0 0.000905 1043.04529 1062.98413
1097.0 0.000912 1043.65466 1064.74927
1060.0 0.000943 1044.25330 1066.60779
1182.0 0.000846 1044.84094 1068.57104
1103.0 0.000907 1045.41809 1070.65515
1139.0 0.000878 1045.98438 1072.87634
1147.0 0.000872 1046.54028 1075.25574
1126.0 0.000888 1047.08557 1077.81714
1207.0 0.000829 1047.62024 1080.58740
1204.0 0.000831 1048.14478 1083.60132
1164.0 0.000859 1048.65857 1086.89722
1133.0 0.000883 1049.16223 1090.52417
1189.0 0.000841 1049.65588 1095.30310
1169.0 0.000855 1050.13904 1099.80920
1173.0 0.000853 1050.61230 1104.86609
1173.0 0.000853 1051.07532 1110.96423
1224.0 0.000817 1051.52844 1117.49182
1232.0 0.000812 1051.97180 1124.99341
1203.0 0.000831 1052.40515 1133.68958
1194.0 0.000838 1052.82874 1143.87830
1197.0 0.000835 1053.24268 1155.94275
1197.0 0.000835 1053.64697 1170.40955
1227.0 0.000815 1054.04175 1187.99768
1312.0 0.000762 1054.42700 1209.70142
1298.0 0.000770 1054.80286 1236.98267
1309.0 0.000764 1055.16931 1272.03369
1424.0 0.000702 1055.52661 1318.66809
1432.0 0.000698 1055.87476 1385.09265
1627.0 0.000615 1056.21362 1492.49121
1778.0 0.000562 1056.54358 1696.43250
2163.0 0.000462 1056.86450 2124.48486
3052.0 0.0003277 1057.17664 3013.98853
4553.0 0.0002196 1057.47998 4674.92773
6825.0 0.0001465 1057.77454 7262.35645
9810.0 0.0001019 1058.06042 10417.32031
12329.0 0.0000811 1058.33777 13038.48633
13869.0 0.0000721 1058.60657 13782.47168
13155.0 0.0000760 1058.86707 12494.43457
10526.0 0.0000950 1059.11914 10186.52832
7480.0 0.0001337 1059.36304 7498.03027
5075.0 0.0001970 1059.59863 5024.17725
3269.0 0.0003059 1059.82617 3261.20044
2070.0 0.000483 1060.04578 2241.64819
1570.0 0.000637 1060.25745 1742.07031
1435.0 0.000697 1060.46118 1514.93555
1360.0 0.000735 1060.65710 1402.83655
1234.0 0.000810 1060.84546 1335.92810
1256.0 0.000796 1061.02612 1289.67700
1280.0 0.000781 1061.19922 1255.54138
1228.0 0.000814 1061.36487 1229.66785
1251.0 0.000799 1061.52319 1209.85840
1158.0 0.000864 1061.67419 1194.69287
1210.0 0.000826 1061.81799 1183.26086
1250.0 0.000800 1061.95459 1175.01880
1165.0 0.000858 1062.08423 1169.72412
1169.0 0.000855 1062.20679 1167.53418
1190.0 0.000840 1062.32239 1169.43335
1173.0 0.000853 1062.43127 1178.61206
1209.0 0.000827 1062.53333 1203.59436
1321.0 0.000757 1062.62878 1263.16772
1457.0 0.000686 1062.71753 1389.08704
1735.0 0.000576 1062.79993 1615.29175
2234.0 0.000448 1062.87573 1943.62415
2763.0 0.000362 1062.94519 2302.90454
2860.0 0.0003497 1063.00842 2545.60938
2641.0 0.000379 1063.06531 2545.56860
2514.0 0.000398 1063.11621 2349.66333
2088.0 0.000479 1063.16089 2068.50757
1726.0 0.000579 1063.19958 1759.54883
1522.0 0.000657 1063.23242 1491.45264
1360.0 0.000735 1063.25928 1308.34204
1159.0 0.000863 1063.28040 1205.13757
1131.0 0.000884 1063.29590 1154.75916
1099.0 0.000910 1063.30566 1131.03711
1146.0 0.000873 1063.30981 1118.38757
1133.0 0.000883 1063.30847 1110.20691
1121.0 0.000892 1063.30176 1104.18347
1062.0 0.000942 1063.28955 1099.47656
1069.0 0.000935 1063.27209 1095.68640
1090.0 0.000917 1063.24939 1092.56604
1108.0 0.000903 1063.22156 1089.95178
1027.0 0.000974 1063.18848 1087.72681
1117.0 0.000895 1063.15039 1085.80725
1041.0 0.000961 1063.10742 1084.13232
1051.0 0.000951 1063.05933 1082.65479
1040.0 0.000962 1063.00647 1081.33911
1031.0 0.000970 1062.94873 1080.15759
1111.0 0.000900 1062.88635 1072.66785
1043.0 0.000959 1062.81921 1071.93433
1000.0 0.001000 1062.74744 1071.26807
1061.0 0.000943 1062.67102 1067.50586
1065.0 0.000939 1062.59021 1067.06250
1038.0 0.000963 1062.50476 1066.65381
1086.0 0.000921 1062.41492 1066.27478
1050.0 0.000952 1062.32080 1065.92041
1068.0 0.000936 1062.22229 1065.58728
1076.0 0.000929 1062.11951 1065.27209
1046.0 0.000956 1062.01257 1064.97217
1000.0 0.001000 1061.90137 1064.68530
1062.0 0.000942 1061.78601 1064.40955
1046.0 0.000956 1061.66675 1064.14319
992.0 0.001008 1061.54333 1063.88477
1012.0 0.000988 1061.41589 1063.63306
1067.0 0.000937 1061.28455 1063.38708
1087.0 0.000920 1061.14917 1063.14587
1053.0 0.000950 1061.01013 1062.90857
1073.0 0.000932 1060.86719 1062.67468
1035.0 0.000966 1060.72046 1062.44324
1071.0 0.000934 1060.56995 1062.21387
1018.0 0.000982 1060.41577 1061.98608
1039.0 0.000962 1060.25781 1061.75964
1026.0 0.000975 1060.09631 1061.53357
1080.0 0.000926 1059.93115 1061.30811
1046.0 0.000956 1059.76245 1061.08289
1101.0 0.000908 1059.59021 1060.85742
1108.0 0.000903 1059.41443 1060.63171
1052.0 0.000951 1059.23523 1059.65210
1035.0 0.000966 1059.05237 1059.45300
1074.0 0.000931 1058.86633 1058.86584
1019.0 0.000981 1058.67676 1058.67627
1024.0 0.000977 1058.48389 1058.48340
1067.0 0.000937 1058.28748 1058.28711
1030.0 0.000971 1058.08789 1058.08740
1083.0 0.000923 1057.88501 1057.88452
1011.0 0.000989 1057.67871 1057.67822
1036.0 0.000965 1057.46924 1057.46875
1026.0 0.000975 1057.25647 1057.25610
1028.0 0.000973 1057.04041 1057.04004
1076.0 0.000929 1056.82129 1056.82080
1074.0 0.000931 1056.59888 1056.59839
978.0 0.001022 1056.37329 1056.37292
1080.0 0.000926 1056.14453 1056.14404
1055.0 0.000948 1055.91260 1055.91211
1038.0 0.000963 1055.67749 1055.67712
1039.0 0.000962 1055.43933 1055.43884
1056.0 0.000947 1055.19800 1055.19751
1069.0 0.000935 1054.95349 1054.95313
1034.0 0.000967 1054.70593 1054.70544
1109.0 0.000902 1054.45520 1054.45471
1099.0 0.000910 1054.20142 1054.20093
1032.0 0.000969 1053.94458 1053.94409
1062.0 0.000942 1053.68457 1053.68408
1074.0 0.000931 1053.42139 1053.42090
1067.0 0.000937 1053.15527 1053.15479
1088.0 0.000919 1052.88599 1052.88550
1076.0 0.000929 1052.61365 1052.61316
1039.0 0.000962 1052.33813 1052.33777
1018.0 0.000982 1052.05957 1052.05920
1049.0 0.000953 1051.77795 1051.77759
1045.0 0.000957 1051.49316 1051.49280
1078.0 0.000928 1051.20544 1051.20496
1108.0 0.000903 1050.91443 1050.91394
1051.0 0.000951 1050.62024 1050.61987
1064.0 0.000940 1050.32312 1050.32263
1093.0 0.000915 1050.02283 1050.02234
1030.0 0.000971 1049.71936 1049.71887
1067.0 0.000937 1049.41272 1049.41223
1071.0 0.000934 1049.10278 1049.10229
1044.0 0.000958 1048.78979 1048.78943
1001.0 0.000999 1048.47363 1048.47314
953.0 0.001049 1048.15430 1048.15381
978.0 0.001022 1047.83179 1047.83130
1027.0 0.000974 1047.50586 1047.50537
950.0 0.001053 1047.17688 1047.17639
996.0 0.001004 1046.84448 1046.84399
1083.0 0.000923 1046.50903 1046.50854
1036.0 0.000965 1046.17004 1046.16968
1002.0 0.000998 1045.82776 1045.82739
1023.0 0.000978 1045.48230 1045.48181
1005.0 0.000995 1045.13342 1045.13293
998.0 0.001002 1044.78113 1044.78076
1081.0 0.000925 1044.42554 1044.42517
963.0 0.001038 1044.06641 1044.06592
1059.0 0.000944 1043.70398 1043.70349
1043.0 0.000959 1043.33801 1043.33752
1067.0 0.000937 1042.96863 1042.96814
954.0 0.001048 1042.59570 1042.59521
1015.0 0.000985 1042.21912 1042.21875
1083.0 0.000923 1041.83923 1041.83875
1000.0 0.001000 1041.45557 1041.45508
1064.0 0.000940 1041.06836 1041.06799
959.0 0.001043 1040.67761 1040.67712
987.0 0.001013 1040.28308 1040.28259
1005.0 0.000995 1039.88501 1039.88452
984.0 0.001016 1039.48303 1039.48267
973.0 0.001028 1039.07751 1039.07703
1009.0 0.000991 1038.66821 1038.66772
993.0 0.001007 1038.25500 1038.25452
1015.0 0.000985 1037.83801 1037.83752
959.0 0.001043 1037.41711 1037.41675
1011.0 0.000989 1036.99243 1036.99207
1014.0 0.000986 1036.56384 1036.56348
927.0 0.001079 1036.13123 1036.40088
1052.0 0.000951 1035.69482 1035.97534
1028.0 0.000973 1035.25415 1035.54614
1060.0 0.000943 1034.80957 1035.24744
976.0 0.001025 1034.36108 1034.81714
1007.0 0.000993 1033.90833 1034.38403
1034.0 0.000967 1033.45142 1033.94800
1055.0 0.000948 1032.99036 1033.50916
979.0 0.001021 1032.52527 1033.06775
962.0 0.001040 1032.05591 1032.62378
1053.0 0.000950 1031.58203 1032.17725
1008.0 0.000992 1031.10413 1031.72864
1047.0 0.000955 1030.62183 1031.27759
994.0 0.001006 1030.13525 1030.82507
1011.0 0.000989 1029.64429 1030.37061
1019.0 0.000981 1029.14868 1029.91467
1044.0 0.000958 1028.64893 1029.45776
991.0 0.001009 1028.14453 1029.00000
1033.0 0.000968 1027.63562 1028.54187
1007.0 0.000993 1027.12219 1028.08398
1057.0 0.000946 1026.60413 1027.62646
1027.0 0.000974 1026.08167 1027.17041
1016.0 0.000984 1025.55420 1030.64233
1060.0 0.000943 1025.02234 1030.34619
1083.0 0.000923 1024.48572 1030.06335
1066.0 0.000938 1023.94415 1029.79602
1036.0 0.000965 1023.39801 1031.55859
1008.0 0.000992 1022.84698 1031.41028
1046.0 0.000956 1022.29120 1031.29077
980.0 0.001020 1021.73053 1031.20459
1067.0 0.000937 1021.16473 1031.15662
1081.0 0.000925 1020.59436 1031.15320
1076.0 0.000929 1020.01868 1031.20166
1067.0 0.000937 1019.43823 1031.31128
1056.0 0.000947 1018.85266 1031.49329
1045.0 0.000957 1018.26196 1031.76245
1113.0 0.000898 1017.66632 1032.13647
1046.0 0.000956 1017.06537 1032.63940
1060.0 0.000943 1016.45947 1033.30286
1037.0 0.000964 1015.84833 1034.16943
998.0 0.001002 1015.23181 1035.29980
1059.0 0.000944 1014.61023 1036.78333
1050.0 0.000952 1013.98328 1038.77747
1110.0 0.000901 1013.35114 1041.62842
1058.0 0.000945 1012.71362 1046.24048
1031.0 0.000970 1012.07062 1054.94226
1132.0 0.000883 1011.42236 1072.85547
1153.0 0.000867 1010.76868 1108.73926
1222.0 0.000818 1010.10962 1172.38098
1364.0 0.000733 1009.44507 1265.99939
1362.0 0.000734 1008.77490 1373.39478
1561.0 0.000641 1008.09937 1458.05725
1498.0 0.000668 1007.41815 1482.29309
1481.0 0.000675 1006.73157 1447.98694
1441.0 0.000694 1006.03931 1386.67334
1371.0 0.000729 1005.34131 1313.17163
1322.0 0.000756 1004.63782 1235.36072
1244.0 0.000804 1003.92859 1169.22742
1244.0 0.000804 1003.21381 1124.78845
1107.0 0.000903 1002.49329 1101.69531
1167.0 0.000857 1001.76678 1094.29565
1151.0 0.000869 1001.03485 1096.54773
1135.0 0.000881 1000.29700 1104.74451
1159.0 0.000863 999.55353 1117.67200
1167.0 0.000857 998.80414 1135.85632
1152.0 0.000868 998.04883 1161.43433
1199.0 0.000834 997.28790 1199.90491
1301.0 0.000769 996.52087 1266.23743
1487.0 0.000672 995.74823 1398.58557
1754.0 0.000570 994.96960 1678.81494
2370.0 0.000422 994.18488 2240.53491
3258.0 0.0003069 993.39447 3220.71777
4929.0 0.0002029 992.59802 4625.64551
6687.0 0.0001495 991.79572 6179.19092
7264.0 0.0001377 990.98743 7325.19434
6898.0 0.0001450 990.17297 7551.71631
7082.0 0.0001412 989.35278 6964.47266
6449.0 0.0001551 988.52649 6020.75830
4716.0 0.0002120 987.69427 4903.36914
3548.0 0.0002818 986.85602 3718.77173
2776.0 0.000360 986.01160 2695.83984
2016.0 0.000496 985.16132 1973.72021
1525.0 0.000656 984.30481 1543.92590
1282.0 0.000780 983.44257 1321.41895
1221.0 0.000819 982.57404 1213.11292
1072.0 0.000933 981.69940 1156.75024
1094.0 0.000914 980.81891 1122.20154
1042.0 0.000960 979.93219 1097.69263
1024.0 0.000977 979.03955 1078.90649
1108.0 0.000903 978.14075 1063.95667
1019.0 0.000981 977.23572 1051.78589
1029.0 0.000972 976.32483 1041.70447
999.0 0.001001 975.40778 1033.21753
974.0 0.001027 974.48474 1025.97498
1070.0 0.000935 973.55560 1019.71326
951.0 0.001052 972.62012 1014.23596
1000.0 0.001000 971.67902 1009.39648
935.0 0.001070 970.73145 1005.07574
1013.0 0.000987 969.77820 1001.18518
979.0 0.001021 968.81860 997.65106
1006.0 0.000994 967.85291 994.41602
976.0 0.001025 966.88141 991.43481
965.0 0.001036 965.90375 988.66785
1003.0 0.000997 964.92017 985.82080
956.0 0.001046 963.93042 983.40503
985.0 0.001015 962.93451 981.12421
1030.0 0.000971 961.93286 978.82898
950.0 0.001053 960.92511 976.77271
1006.0 0.000994 959.91150 974.80554
958.0 0.001044 958.89185 972.91583
939.0 0.001065 957.86603 971.09393
964.0 0.001037 956.83459 969.33264
1016.0 0.000984 955.79700 967.62378
929.0 0.001076 954.75366 965.96204
934.0 0.001071 953.70435 964.34155
968.0 0.001033 952.64905 962.75751
900.0 0.001111 951.58807 961.20654
933.0 0.001072 950.52112 959.68427
965.0 0.001036 949.44849 958.18793
996.0 0.001004 948.37000 956.71442
972.0 0.001029 947.28540 955.26099
986.0 0.001014 946.19543 953.82623
925.0 0.001081 945.09955 952.40735
955.0 0.001047 943.99811 951.00311
958.0 0.001044 942.89087 949.61145
928.0 0.001078 941.77771 948.23083
910.0 0.001099 940.65936 942.90131
945.0 0.001058 939.53497 941.68762
885.0 0.001130 938.40533 940.47394
942.0 0.001062 937.27002 937.26953
914.0 0.001094 936.12891 936.12842
964.0 0.001037 934.98260 934.98212
876.0 0.001142 933.83069 933.83020
950.0 0.001053 932.67346 932.67297
951.0 0.001052 931.51068 931.51019
966.0 0.001035 930.34229 930.34180
898.0 0.001114 929.16888 930.52887
901.0 0.001110 927.98993 929.40417
931.0 0.001074 926.80591 928.27771
1005.0 0.000995 925.61658 927.81274
956.0 0.001046 924.42163 926.70898
927.0 0.001079 923.22205 925.60638
957.0 0.001045 922.01691 924.50446
920.0 0.001087 920.80688 923.40466
933.0 0.001072 919.59180 922.30719
997.0 0.001003 918.37140 921.21271
952.0 0.001050 917.14630 920.12225
857.0 0.001167 915.91602 919.03662
944.0 0.001059 914.68103 917.95703
904.0 0.001106 913.44110 916.88440
925.0 0.001081 912.19592 915.81976
989.0 0.001011 910.94641 914.76520
981.0 0.001019 909.69196 913.72205
963.0 0.001038 908.43298 912.69226
877.0 0.001140 907.16919 911.67780
912.0 0.001096 905.90045 910.68109
911.0 0.001098 904.62775 909.70557
907.0 0.001103 903.34998 908.75391
959.0 0.001043 902.06805 909.01959
892.0 0.001121 900.78162 908.17566
976.0 0.001025 899.49054 907.37207
977.0 0.001024 898.19537 906.61584
929.0 0.001076 896.89563 906.51550
956.0 0.001046 895.59210 905.90210
934.0 0.001071 894.28412 905.36517
916.0 0.001092 892.97156 904.91809
850.0 0.001176 891.65546 904.57794
889.0 0.001125 890.33496 904.36462
906.0 0.001104 889.01074 904.30365
912.0 0.001096 887.68250 904.42688
958.0 0.001044 886.34991 904.77466
899.0 0.001112 885.01398 905.39899
889.0 0.001125 883.67401 906.36792
934.0 0.001071 882.33051 907.77124
909.0 0.001100 880.98322 909.73035
913.0 0.001095 879.63202 912.41284
987.0 0.001013 878.27759 916.05402
921.0 0.001086 876.91925 921.01611
998.0 0.001002 875.55798 927.93640
987.0 0.001013 874.19299 938.24017
993.0 0.001007 872.82428 955.63483
982.0 0.001018 871.45276 989.58081
1121.0 0.000892 870.07776 1060.91675
1266.0 0.000790 868.69977 1205.34216
1492.0 0.000670 867.31848 1464.65833
1964.0 0.000509 865.93384 1855.67297
2384.0 0.000419 864.54663 2325.82056
2842.0 0.000352 863.15619 2736.47070
2952.0 0.0003388 861.76306 2918.28467
3031.0 0.0003299 860.36700 2829.52808
2607.0 0.000384 858.96783 2594.38403
2212.0 0.000452 857.56641 2306.72144
1857.0 0.000539 856.16187 1977.23987
1640.0 0.000610 854.75525 1639.35474
1315.0 0.000760 853.34576 1355.22583
1150.0 0.000870 851.93347 1156.04333
1029.0 0.000972 850.51929 1037.40002
912.0 0.001096 849.10242 975.96667
953.0 0.001049 847.68347 947.05469
879.0 0.001138 846.26221 934.07031
929.0 0.001076 844.83838 929.07104
917.0 0.001091 843.41284 929.66638
978.0 0.001022 841.98505 937.21130
1000.0 0.001000 840.55554 958.02051
957.0 0.001045 839.12390 1007.40454
1101.0 0.000908 837.69019 1113.38562
1348.0 0.000742 836.25500 1311.80090
1679.0 0.000596 834.81769 1624.13306
2206.0 0.000453 833.37915 2020.37366
2449.0 0.000408 831.93866 2396.53076
2565.0 0.000390 830.49646 2604.82715
2701.0 0.000370 829.05310 2573.73047
2574.0 0.000389 827.60815 2389.66016
2222.0 0.000450 826.16199 2152.00708
1867.0 0.000536 824.71442 1878.79333
1551.0 0.000645 823.26520 1584.04590
1335.0 0.000749 821.81525 1319.43811
1108.0 0.000903 820.36401 1121.94189
991.0 0.001009 818.91193 996.31891
935.0 0.001070 817.45874 926.36566
845.0 0.001183 816.00421 890.16333
905.0 0.001105 814.54944 870.76648
842.0 0.001188 813.09332 858.79120
843.0 0.001186 811.63702 850.16284
795.0 0.001258 810.17963 843.30731
799.0 0.001252 808.72150 837.58691
844.0 0.001185 807.26318 832.68170
775.0 0.001290 805.80414 828.38708
808.0 0.001238 804.34491 824.56500
848.0 0.001179 802.88513 821.11255
819.0 0.001221 801.42474 817.95428
862.0 0.001160 799.96460 815.03497
796.0 0.001256 798.50403 812.30951
754.0 0.001326 797.04352 809.74500
761.0 0.001314 795.58289 807.31390
795.0 0.001258 794.12189 804.99475
784.0 0.001276 792.66156 802.77173
773.0 0.001294 791.20105 800.62964
793.0 0.001261 789.74078 798.55774
775.0 0.001290 788.28076 795.18152
793.0 0.001261 786.82086 793.27399
779.0 0.001284 785.36157 791.41022
781.0 0.001280 783.90271 789.58423
737.0 0.001357 782.44434 787.12427
774.0 0.001292 780.98657 785.38641
794.0 0.001259 779.52911 783.67340
723.0 0.001383 778.07288 781.98334
756.0 0.001323 776.61682 780.31256
752.0 0.001330 775.16211 778.66046
780.0 0.001282 773.70801 777.02435
794.0 0.001259 772.25433 775.40247
785.0 0.001274 770.80237 773.79486
767.0 0.001304 769.35101 772.19897
741.0 0.001350 767.90112 770.61499
764.0 0.001309 766.45221 769.04120
759.0 0.001318 765.00403 767.47650
751.0 0.001332 763.55780 765.92151
723.0 0.001383 762.11249 764.37433
752.0 0.001330 760.66901 762.83557
754.0 0.001326 759.22668 761.30383
803.0 0.001245 757.78571 759.77875
777.0 0.001287 756.34644 758.26050
778.0 0.001285 754.90857 755.57928
671.0 0.001490 753.47290 754.11682
782.0 0.001279 752.03864 752.65747
777.0 0.001287 750.60596 750.60547
730.0 0.001370 749.17535 749.17480
790.0 0.001266 747.74658 747.74609
725.0 0.001379 746.31976 746.31927
708.0 0.001412 744.89502 744.89447
745.0 0.001342 743.47198 743.47150
738.0 0.001355 742.05133 742.05084
765.0 0.001307 740.63281 740.63232
759.0 0.001318 739.21655 739.21600
721.0 0.001387 737.80249 737.80200
745.0 0.001342 736.39050 736.39001
721.0 0.001387 734.98138 734.98090
740.0 0.001351 733.57416 733.57367
744.0 0.001344 732.16992 732.16943
745.0 0.001342 730.76770 730.76721
729.0 0.001372 729.36804 729.36755
737.0 0.001357 727.97144 727.97095
739.0 0.001353 726.57703 726.85150
743.0 0.001346 725.18579 725.47125
702.0 0.001425 723.79706 724.09418
704.0 0.001420 722.41071 722.72021
715.0 0.001399 721.02789 721.48779
726.0 0.001377 719.64746 720.12689
659.0 0.001517 718.27045 718.77069
735.0 0.001361 716.89624 717.41864
704.0 0.001420 715.52454 716.07068
728.0 0.001374 714.15662 714.72809
704.0 0.001420 712.79138 713.39001
673.0 0.001486 711.42975 712.05750
663.0 0.001508 710.07111 710.73016
697.0 0.001435 708.71545 709.40820
677.0 0.001477 707.36334 708.09247
695.0 0.001439 706.01453 706.78308
640.0 0.001563 704.66913 705.48016
694.0 0.001441 703.32715 704.18433
692.0 0.001445 701.98834 702.89587
757.0 0.001321 700.65332 701.61560
667.0 0.001499 699.32178 700.34412
711.0 0.001406 697.99390 699.08185
688.0 0.001453 696.66956 697.82983
669.0 0.001495 695.34863 696.58856
684.0 0.001462 694.03186 695.36011
708.0 0.001412 692.71838 694.14453
733.0 0.001364 691.40887 692.94427
681.0 0.001468 690.10315 691.76086
717.0 0.001395 688.80103 690.59637
675.0 0.001481 687.50330 689.45392
685.0 0.001460 686.20892 688.33612
705.0 0.001418 684.91901 687.24762
707.0 0.001414 683.63281 686.19305
664.0 0.001506 682.35016 685.17841
672.0 0.001488 681.07220 684.21271
650.0 0.001538 679.79785 683.30548
679.0 0.001473 678.52808 682.47089
652.0 0.001534 677.26221 681.72644
652.0 0.001534 676.00006 681.09644
676.0 0.001479 674.74280 680.61517
688.0 0.001453 673.48926 680.33112
688.0 0.001453 672.24042 680.32495
715.0 0.001399 670.99561 680.75745
630.0 0.001587 669.75494 682.02319
669.0 0.001495 668.51874 685.13110
672.0 0.001488 667.28699 692.43280
693.0 0.001443 666.05957 708.41882
719.0 0.001391 664.83655 739.57507
794.0 0.001259 663.61780 791.69202
819.0 0.001221 662.40369 864.19293
942.0 0.001062 661.19403 944.27374
971.0 0.001030 659.98895 1006.81097
963.0 0.001038 658.78839 1027.48010
1007.0 0.000993 657.59210 1006.08350
930.0 0.001075 656.40088 965.13940
899.0 0.001112 655.21381 918.54474
838.0 0.001193 654.03156 865.89551
748.0 0.001337 652.85400 808.59869
754.0 0.001326 651.68085 755.94714
692.0 0.001445 650.51282 715.15100
656.0 0.001524 649.34906 687.79517
655.0 0.001527 648.19037 671.52222
654.0 0.001529 647.03625 662.43066
643.0 0.001555 645.88654 657.16901
682.0 0.001466 644.74213 653.69556
652.0 0.001534 643.60211 651.03162
650.0 0.001538 642.46735 648.77936
668.0 0.001497 641.33716 646.77771
622.0 0.001608 640.21143 644.95172
624.0 0.001603 639.09113 643.25897
632.0 0.001582 637.97528 641.66876
636.0 0.001572 636.86475 640.16071
643.0 0.001555 635.75885 638.71832
635.0 0.001575 634.65771 637.32983
621.0 0.001610 633.56165 635.98645
683.0 0.001464 632.47034 634.68066
607.0 0.001647 631.38434 633.40753
644.0 0.001553 630.30310 632.16205
677.0 0.001477 629.22662 630.94049
629.0 0.001590 628.15527 629.74048
638.0 0.001567 627.08893 628.55945
634.0 0.001577 626.02759 627.39551
675.0 0.001481 624.97125 626.24689
623.0 0.001605 623.91968 625.11206
618.0 0.001618 622.87335 623.99048
580.0 0.001724 621.83203 622.88074
617.0 0.001621 620.79572 621.78210
633.0 0.001580 619.76440 620.69391
655.0 0.001527 618.73804 619.61542
627.0 0.001595 617.71698 618.54651
596.0 0.001678 616.70062 617.48621
602.0 0.001661 615.68970 616.43463
613.0 0.001631 614.68365 615.39099
642.0 0.001558 613.68231 614.35492
609.0 0.001642 612.68652 613.32684
583.0 0.001715 611.69550 612.30585
587.0 0.001704 610.70990 611.29230
569.0 0.001757 609.72913 610.28540
627.0 0.001595 608.75311 609.51160
606.0 0.001650 607.78271 608.52734
622.0 0.001608 606.81696 607.54980
593.0 0.001686 605.85669 606.57947
604.0 0.001656 604.90131 605.61603
624.0 0.001603 603.95081 604.50293
599.0 0.001669 603.00555 603.56799
633.0 0.001580 602.06519 602.63947
590.0 0.001695 601.13019 601.71790
621.0 0.001610 600.20013 600.66754
587.0 0.001704 599.27496 599.76422
615.0 0.001626 598.35498 598.86780
577.0 0.001733 597.44012 597.97797
590.0 0.001695 596.53021 597.09528
598.0 0.001672 595.62543 596.21960
624.0 0.001603 594.72552 595.35114
586.0 0.001706 593.83075 594.49048
596.0 0.001678 592.94104 593.63763
581.0 0.001721 592.05640 592.79309
610.0 0.001639 591.17670 591.95709
604.0 0.001656 590.30188 591.12994
561.0 0.001783 589.43243 590.31262
597.0 0.001675 588.56763 589.50507
588.0 0.001701 587.70807 588.70856
645.0 0.001550 586.85327 587.92340
582.0 0.001718 586.00342 587.15070
594.0 0.001684 585.15881 586.39185
583.0 0.001715 584.31885 585.64771
622.0 0.001608 583.48419 584.92041
617.0 0.001621 582.65430 584.21155
622.0 0.001608 581.82904 583.52319
571.0 0.001751 581.00916 582.85907
603.0 0.001658 580.19385 582.22223
609.0 0.001642 579.38373 581.61755
558.0 0.001792 578.57837 581.05048
575.0 0.001739 577.77765 580.52826
613.0 0.001631 576.98218 580.06116
545.0 0.001835 576.19128 579.66107
546.0 0.001832 575.40546 579.34528
619.0 0.001616 574.62439 579.13641
638.0 0.001567 573.84796 579.06750
597.0 0.001675 573.07648 579.18982
570.0 0.001754 572.30981 579.60181
588.0 0.001701 571.54785 580.52960
560.0 0.001786 570.79071 582.54431
653.0 0.001531 570.03821 586.99500
618.0 0.001618 569.29053 596.58356
645.0 0.001550 568.54755 615.58966
766.0 0.001305 567.80933 648.70490
837.0 0.001195 567.07581 697.92401
956.0 0.001046 566.34674 758.29767
961.0 0.001041 565.62268 815.36047
956.0 0.001046 564.90295 849.25818
930.0 0.001075 564.18805 848.95929
919.0 0.001088 563.47766 824.64221
929.0 0.001076 562.77179 793.64124
805.0 0.001242 562.07080 759.40637
708.0 0.001412 561.37408 720.35156
738.0 0.001355 560.68213 678.24908
680.0 0.001471 559.99457 639.86261
608.0 0.001645 559.31134 610.47687
610.0 0.001639 558.63293 590.30219
615.0 0.001626 557.95874 578.16382
604.0 0.001656 557.28931 571.36432
600.0 0.001667 556.62415 567.50616
540.0 0.001852 555.96320 565.07135
585.0 0.001709 555.30695 563.30096
569.0 0.001757 554.65491 561.86853
629.0 0.001590 554.00745 560.64264
596.0 0.001678 553.36420 559.56268
593.0 0.001686 552.72516 558.59509
554.0 0.001805 552.09058 557.71869
596.0 0.001678 551.46027 556.91785
560.0 0.001786 550.83423 556.18176
607.0 0.001647 550.21240 555.50281
591.0 0.001692 549.59473 554.87524
572.0 0.001748 548.98138 554.29578
551.0 0.001815 548.37225 553.76227
544.0 0.001838 547.76721 553.27374
532.0 0.001880 547.16638 552.83075
530.0 0.001887 546.56958 552.43427
553.0 0.001808 545.97705 552.08716
585.0 0.001709 545.38843 551.79285
548.0 0.001825 544.80396 551.55640
571.0 0.001751 544.22351 551.38434
543.0 0.001842 543.64703 551.28485
516.0 0.001938 543.07471 551.26855
540.0 0.001852 542.50623 551.34875
574.0 0.001742 541.94189 551.54248
531.0 0.001883 541.38135 551.87128
557.0 0.001795 540.82452 552.36304
547.0 0.001828 540.27197 553.05389
541.0 0.001848 539.72296 553.99158
542.0 0.001845 539.17810 555.23932
583.0 0.001715 538.63696 556.88422
558.0 0.001792 538.09943 559.05029
575.0 0.001739 537.56592 561.93219
563.0 0.001776 537.03601 565.90320
567.0 0.001764 536.51001 571.81946
601.0 0.001664 535.98767 581.81250
616.0 0.001623 535.46893 600.84814
594.0 0.001684 534.95398 638.77917
727.0 0.001376 534.44250 711.20972
822.0 0.001217 533.93494 835.55713
986.0 0.001014 533.43079 1020.11029
1179.0 0.000848 532.93018 1249.96204
1393.0 0.000718 532.43323 1475.28882
1576.0 0.000635 531.93982 1622.84521
1487.0 0.000672 531.44989 1642.93689
1638.0 0.000611 530.96344 1563.01172
1417.0 0.000706 530.48041 1447.45874
1236.0 0.000809 530.00092 1325.36682
1075.0 0.000930 529.52478 1188.46143
911.0 0.001098 529.05212 1033.97913
827.0 0.001209 528.58282 883.50256
715.0 0.001399 528.11676 759.19714
623.0 0.001605 527.65424 670.35815
544.0 0.001838 527.19476 614.58887
514.0 0.001946 526.73883 583.02588
526.0 0.001901 526.28601 566.00378
510.0 0.001961 525.83630 556.46729
547.0 0.001828 525.39008 550.46399
519.0 0.001927 524.94684 546.16235
519.0 0.001927 524.50696 542.78271
475.0 0.002105 524.07013 540.00244
532.0 0.001880 523.63623 537.65521
525.0 0.001905 523.20569 535.63971
509.0 0.001965 522.77814 533.88300
522.0 0.001916 522.35370 532.33368
525.0 0.001905 521.93225 530.95111
502.0 0.001992 521.51373 529.70508
498.0 0.002008 521.09821 528.57227
555.0 0.001802 520.68567 527.53351
529.0 0.001890 520.27612 526.57446
502.0 0.001992 519.86951 525.68274
509.0 0.001965 519.46564 524.84863
511.0 0.001957 519.06476 524.06445
499.0 0.002004 518.66669 523.32355
472.0 0.002119 518.27142 522.62048
500.0 0.002000 517.87903 521.95056
528.0 0.001894 517.48926 521.30988
525.0 0.001905 517.10236 520.69568
530.0 0.001887 516.71814 520.10468
483.0 0.002070 516.33667 519.53473
514.0 0.001946 515.95789 518.98389
521.0 0.001919 515.58173 518.45007
529.0 0.001890 515.20825 517.93225
485.0 0.002062 514.83734 517.42865
514.0 0.001946 514.46912 516.93854
473.0 0.002114 514.10333 516.46051
505.0 0.001980 513.74011 515.99396
478.0 0.002092 513.37952 515.53827
527.0 0.001898 513.02136 515.09247
553.0 0.001808 512.66577 514.65625
508.0 0.001969 512.31256 514.22906
540.0 0.001852 511.96167 513.81036
491.0 0.002037 511.61340 513.40015
513.0 0.001949 511.26740 512.99786
479.0 0.002088 510.92386 512.60370
511.0 0.001957 510.58261 511.30090
516.0 0.001938 510.24359 510.95639
511.0 0.001957 509.90704 510.61823
482.0 0.002075 509.57266 510.28638
508.0 0.001969 509.24066 509.49933
466.0 0.002146 508.91083 509.19977
533.0 0.001876 508.58319 508.90799
543.0 0.001842 508.25775 508.62558
477.0 0.002096 507.93454 508.35449
482.0 0.002075 507.61343 508.09756
517.0 0.001934 507.29449 508.04166
510.0 0.001961 506.97757 507.83743
504.0 0.001984 506.66284 507.68295
503.0 0.001988 506.35016 507.63013
516.0 0.001938 506.03949 507.79581
522.0 0.001916 505.73090 508.49609
474.0 0.002110 505.42422 509.89410
539.0 0.001855 505.11966 512.44958
547.0 0.001828 504.81693 516.33569
528.0 0.001894 504.51620 521.21869
580.0 0.001724 504.21741 526.05603
564.0 0.001773 503.92044 529.26715
570.0 0.001754 503.62549 529.69342
594.0 0.001684 503.33224 527.79071
580.0 0.001724 503.04099 524.99194
565.0 0.001770 502.75150 522.09546
564.0 0.001773 502.46368 518.98242
549.0 0.001821 502.17780 516.28046
523.0 0.001912 501.89359 512.62244
524.0 0.001908 501.61118 509.37433
525.0 0.001905 501.33047 506.84775
522.0 0.001916 501.05136 505.50647
540.0 0.001852 500.77408 504.38870
535.0 0.001869 500.49838 503.68875
564.0 0.001773 500.22437 503.22604
470.0 0.002128 499.95197 502.88458
501.0 0.001996 499.68112 502.60486
491.0 0.002037 499.41190 502.36090
506.0 0.001976 499.14423 502.14175
540.0 0.001852 498.87811 501.94284
536.0 0.001866 498.61349 501.76212
548.0 0.001825 498.35037 501.59848
558.0 0.001792 498.08878 501.45139
504.0 0.001984 497.82864 501.32101
501.0 0.001996 497.56998 501.20764
535.0 0.001869 497.31271 501.11212
536.0 0.001866 497.05685 501.03552
514.0 0.001946 496.80246 500.97952
481.0 0.002079 496.54935 500.94577
521.0 0.001919 496.29764 500.93674
482.0 0.002075 496.04730 500.95523
516.0 0.001938 495.79819 501.00473
536.0 0.001866 495.55051 501.08936
487.0 0.002053 495.30405 501.21439
537.0 0.001862 495.05887 501.38617
493.0 0.002028 494.81494 501.61261
493.0 0.002028 494.57217 501.90363
533.0 0.001876 494.33075 502.27182
509.0 0.001965 494.09045 502.73340
495.0 0.002020 493.85141 503.30945
510.0 0.001961 493.61346 504.02875
540.0 0.001852 493.37659 504.93289
505.0 0.001980 493.14099 506.09012
558.0 0.001792 492.90643 507.64005
476.0 0.002101 492.67303 509.90466
541.0 0.001848 492.44067 513.64197
541.0 0.001848 492.20935 520.46368
507.0 0.001972 491.97910 533.24829
575.0 0.001739 491.74988 556.05884
629.0 0.001590 491.52173 592.77350
646.0 0.001548 491.29453 644.35516
776.0 0.001289 491.06827 705.63867
762.0 0.001312 490.84305 763.57227
811.0 0.001233 490.61874 800.37976
845.0 0.001183 490.39542 805.37689
734.0 0.001362 490.17297 786.41736
859.0 0.001164 489.95142 759.67755
678.0 0.001475 489.73077 733.19922
646.0 0.001548 489.51102 705.15228
683.0 0.001464 489.29211 673.21753
649.0 0.001541 489.07407 641.30450
648.0 0.001543 488.85678 617.56403
602.0 0.001661 488.64041 610.35291
608.0 0.001645 488.42474 629.76147
639.0 0.001565 488.20996 689.81689
703.0 0.001422 487.99588 807.23907
923.0 0.001083 487.78250 994.41394
1206.0 0.000829 487.56998 1245.45532
1488.0 0.000672 487.35809 1523.60999
1576.0 0.000635 487.14700 1758.13928
1669.0 0.000599 486.93655 1871.01550
1747.0 0.000572 486.72675 1840.08984
1679.0 0.000596 486.51770 1723.58838
1466.0 0.000682 486.30923 1587.99377
1244.0 0.000804 486.10147 1452.42944
1050.0 0.000952 485.89432 1300.42041
1022.0 0.000978 485.68774 1125.71692
881.0 0.001135 485.48178 950.36145
764.0 0.001309 485.27640 799.55054
666.0 0.001502 485.07166 686.41156
556.0 0.001799 484.86743 611.40143
530.0 0.001887 484.66373 566.66376
505.0 0.001980 484.46057 541.74792
517.0 0.001934 484.25797 527.90625
498.0 0.002008 484.05582 519.62366
504.0 0.001984 483.85422 514.03693
502.0 0.001992 483.65308 509.85663
522.0 0.001916 483.45236 506.52313
525.0 0.001905 483.25220 503.77747
537.0 0.001862 483.05240 501.47318
528.0 0.001894 482.85306 499.51520
502.0 0.001992 482.65417 498.14258
493.0 0.002028 482.45566 496.69781
524.0 0.001908 482.25757 495.44031
515.0 0.001942 482.05984 494.33899
525.0 0.001905 481.86246 493.37051
514.0 0.001946 481.66547 492.66968
486.0 0.002058 481.46884 491.92047
497.0 0.002012 481.27252 491.26035
501.0 0.001996 481.07657 490.68076
505.0 0.001980 480.88086 490.17560
512.0 0.001953 480.68555 489.74112
529.0 0.001890 480.49045 489.37488
494.0 0.002024 480.29572 489.07703
496.0 0.002016 480.10114 488.84940
468.0 0.002137 479.90689 488.69632
487.0 0.002053 479.71292 488.62518
530.0 0.001887 479.51910 488.64676
486.0 0.002058 479.32559 488.77689
515.0 0.001942 479.13226 489.03860
511.0 0.001957 478.93912 489.46863
539.0 0.001855 478.74622 490.13269
514.0 0.001946 478.55347 491.17435
467.0 0.002141 478.36093 492.93167
486.0 0.002058 478.16852 496.18463
512.0 0.001953 477.97626 502.53018
475.0 0.002105 477.78421 514.52539
524.0 0.001908 477.59219 536.23804
514.0 0.001946 477.40042 570.80548
565.0 0.001770 477.20868 618.76874
611.0 0.001637 477.01706 675.15277
669.0 0.001495 476.82556 728.02911
644.0 0.001553 476.63416 761.52734
686.0 0.001458 476.44281 765.56982
671.0 0.001490 476.25150 746.62140
670.0 0.001493 476.06030 719.46960
643.0 0.001555 475.86914 692.42523
593.0 0.001686 475.67804 664.33252
603.0 0.001658 475.48697 631.50085
571.0 0.001751 475.29593 595.46112
505.0 0.001980 475.10486 561.52844
493.0 0.002028 474.91385 533.84338
526.0 0.001901 474.72281 513.96503
509.0 0.001965 474.53177 500.44073
497.0 0.002012 474.34073 493.13983
506.0 0.001976 474.14960 489.19769
478.0 0.002092 473.95853 487.10962
510.0 0.001961 473.76736 485.98526
494.0 0.002024 473.57620 484.97363
543.0 0.001842 473.38492 484.74106
446.0 0.002242 473.19357 484.79669
529.0 0.001890 473.00223 485.13632
507.0 0.001972 472.81070 485.79324
490.0 0.002041 472.61917 486.85260
546.0 0.001832 472.42752 488.51675
496.0 0.002016 472.23572 491.27548
546.0 0.001832 472.04391 496.26672
534.0 0.001873 471.85190 505.85733
532.0 0.001880 471.65985 524.18866
575.0 0.001739 471.46759 557.05243
663.0 0.001508 471.27524 610.10553
765.0 0.001307 471.08273 685.22095
901.0 0.001110 470.89008 776.25818
1091.0 0.000917 470.69727 866.23297
1116.0 0.000896 470.50427 929.79773
1183.0 0.000845 470.31113 946.91351
1150.0 0.000870 470.11786 922.17310
1118.0 0.000894 469.92435 878.91913
972.0 0.001029 469.73065 834.47498
876.0 0.001142 469.53680 790.30872
806.0 0.001241 469.34268 739.69421
686.0 0.001458 469.14844 681.79639
667.0 0.001499 468.95392 624.16382
592.0 0.001689 468.75925 574.63348
569.0 0.001757 468.56430 537.18732
491.0 0.002037 468.36911 512.01001
500.0 0.002000 468.17377 496.68497
480.0 0.002083 467.97815 487.92764
498.0 0.002008 467.78232 482.94229
481.0 0.002079 467.58618 479.89771
475.0 0.002105 467.38977 477.81186
446.0 0.002242 467.19318 476.22421
489.0 0.002045 466.99628 474.93076
450.0 0.002222 466.79916 473.83786
462.0 0.002165 466.60168 472.89374
444.0 0.002252 466.40396 472.06577
490.0 0.002041 466.20602 471.33075
443.0 0.002257 466.00772 470.67041
449.0 0.002227 465.80920 470.07172
443.0 0.002257 465.61032 469.52347
451.0 0.002217 465.41119 469.01767
463.0 0.002160 465.21173 468.54733
486.0 0.002058 465.01193 468.10703
490.0 0.002041 464.81192 467.69241
481.0 0.002079 464.61151 467.29968
467.0 0.002141 464.41083 466.74167
476.0 0.002101 464.20981 466.39001
490.0 0.002041 464.00848 466.05234
472.0 0.002119 463.80679 465.72690
498.0 0.002008 463.60480 465.41217
455.0 0.002198 463.40247 465.01550
467.0 0.002141 463.19980 464.72137
446.0 0.002242 462.99680 464.43448
467.0 0.002141 462.79343 464.15402
468.0 0.002137 462.58975 463.87927
461.0 0.002169 462.38565 463.60950
448.0 0.002232 462.18130 463.34442
453.0 0.002208 461.97650 463.08331
480.0 0.002083 461.77142 462.82593
451.0 0.002217 461.56592 462.57175
452.0 0.002212 461.36008 462.32047
459.0 0.002179 461.15390 462.07193
453.0 0.002208 460.94733 461.82565
484.0 0.002066 460.74042 461.58167
471.0 0.002123 460.53308 461.35388
418.0 0.002392 460.32541 461.11395
452.0 0.002212 460.11737 460.87567
491.0 0.002037 459.90894 460.63879
498.0 0.002008 459.70016 460.40332
430.0 0.002326 459.49097 460.16885
455.0 0.002198 459.28140 459.94287
436.0 0.002294 459.07147 459.71082
475.0 0.002105 458.86111 459.47958
423.0 0.002364 458.65045 459.24921
455.0 0.002198 458.43933 459.01950
454.0 0.002203 458.22784 458.79056
485.0 0.002062 458.01599 458.56213
496.0 0.002016 457.80371 458.01993
443.0 0.002257 457.59109 457.80231
460.0 0.002174 457.37805 457.58469
419.0 0.002387 457.16458 457.36707
427.0 0.002342 456.95078 457.14938
454.0 0.002203 456.73657 456.77530
433.0 0.002309 456.52197 456.56241
486.0 0.002058 456.30698 456.34924
464.0 0.002155 456.09155 456.13577
445.0 0.002247 455.87582 455.92215
430.0 0.002326 455.65961 455.70816
446.0 0.002242 455.44308 455.49405
462.0 0.002165 455.22610 455.27966
426.0 0.002347 455.00870 455.06506
440.0 0.002273 454.79099 454.85037
404.0 0.002475 454.57281 454.63547
431.0 0.002320 454.35434 454.42053
435.0 0.002299 454.13538 454.20538
460.0 0.002174 453.91602 453.99026
458.0 0.002183 453.69638 453.77576
446.0 0.002242 453.47626 453.56064
479.0 0.002088 453.25580 453.34573
426.0 0.002347 453.03491 453.13092
443.0 0.002257 452.81360 452.91635
444.0 0.002252 452.59201 452.70245
447.0 0.002237 452.36993 452.48868
419.0 0.002387 452.14758 452.27560
433.0 0.002309 451.92474 452.06317
458.0 0.002183 451.70157 451.85172
434.0 0.002304 451.47803 451.64142
424.0 0.002358 451.25409 451.43262
452.0 0.002212 451.02979 451.22562
432.0 0.002315 450.80508 451.02087
451.0 0.002217 450.58005 450.81897
426.0 0.002347 450.35461 450.62061
426.0 0.002347 450.12881 450.42673
442.0 0.002262 449.90265 450.23871
425.0 0.002353 449.67612 450.05817
447.0 0.002237 449.44919 449.88766
435.0 0.002299 449.22198 449.73227
412.0 0.002427 448.99432 449.60211
454.0 0.002203 448.76636 449.52090
416.0 0.002404 448.53802 449.54126
456.0 0.002193 448.30933 449.76773
459.0 0.002179 448.08035 450.37610
452.0 0.002212 447.85092 451.60309
451.0 0.002217 447.62128 453.67081
492.0 0.002033 447.39117 456.64771
486.0 0.002058 447.16074 460.28799
403.0 0.002481 446.93005 463.93323
461.0 0.002169 446.69894 466.56036
430.0 0.002326 446.46759 467.26187
466.0 0.002146 446.23581 466.11917
446.0 0.002242 446.00372 464.09021
445.0 0.002247 445.77139 462.00589
470.0 0.002128 445.53867 460.07013
459.0 0.002179 445.30573 457.98804
412.0 0.002427 445.07236 455.52078
433.0 0.002309 444.83875 452.85593
461.0 0.002169 444.60483 450.34647
426.0 0.002347 444.37061 448.24380
436.0 0.002294 444.13611 446.64719
431.0 0.002320 443.90125 445.52066
428.0 0.002336 443.66614 444.75159
445.0 0.002247 443.43076 444.21277
436.0 0.002294 443.19510 443.80374
416.0 0.002404 442.95914 443.46179
481.0 0.002079 442.72293 443.39026
472.0 0.002119 442.48639 443.10803
401.0 0.002494 442.24969 442.83765
466.0 0.002146 442.01260 442.57559
426.0 0.002347 441.77533 442.32037
442.0 0.002262 441.53781 442.18732
455.0 0.002198 441.29999 441.94928
433.0 0.002309 441.06201 441.72116
470.0 0.002128 440.82373 441.50806
464.0 0.002155 440.58527 441.31799
439.0 0.002278 440.34650 441.15927
476.0 0.002101 440.10748 441.03677
466.0 0.002146 439.86835 440.94550
457.0 0.002188 439.62891 440.86642
511.0 0.001957 439.38934 440.76584
486.0 0.002058 439.14951 440.60501
474.0 0.002110 438.90945 440.37106
505.0 0.001980 438.66928 440.09100
516.0 0.001938 438.42880 439.80112
473.0 0.002114 438.18826 439.51932
500.0 0.002000 437.94742 439.24063
508.0 0.001969 437.70648 438.95236
461.0 0.002169 437.46533 438.65405
450.0 0.002222 437.22400 438.35767
418.0 0.002392 436.98257 438.07529
452.0 0.002212 436.74091 437.81363
422.0 0.002370 436.49911 437.57413
406.0 0.002463 436.25720 437.35434
462.0 0.002165 436.01514 437.14993
423.0 0.002364 435.77295 437.29294
444.0 0.002252 435.53061 437.11993
439.0 0.002278 435.28812 436.95529
464.0 0.002155 435.04553 436.79898
421.0 0.002375 434.80283 436.65149
487.0 0.002053 434.56003 436.51367
442.0 0.002262 434.31711 436.55588
411.0 0.002433 434.07407 436.44647
458.0 0.002183 433.83099 436.35132
450.0 0.002222 433.58777 436.27243
427.0 0.002342 433.34454 436.21225
423.0 0.002364 433.10117 436.17380
437.0 0.002288 432.85773 436.16064
472.0 0.002119 432.61429 436.17731
467.0 0.002141 432.37070 436.22925
438.0 0.002283 432.12717 436.32343
384.0 0.002604 431.88348 436.64987
438.0 0.002283 431.63977 436.86276
426.0 0.002347 431.39609 437.13776
421.0 0.002375 431.15231 437.52313
409.0 0.002445 430.90860 438.03070
409.0 0.002445 430.66476 438.79065
413.0 0.002421 430.42099 439.70599
452.0 0.002212 430.17719 441.01871
432.0 0.002315 429.93335 443.11310
449.0 0.002227 429.68961 446.77515
499.0 0.002004 429.44580 453.53629
473.0 0.002114 429.20203 465.90445
488.0 0.002049 428.95831 487.18530
453.0 0.002208 428.71460 520.50452
589.0 0.001698 428.47095 566.90204
657.0 0.001522 428.22733 623.29657
718.0 0.001393 427.98370 681.04755
757.0 0.001321 427.74020 726.29535
741.0 0.001350 427.49677 745.32233
762.0 0.001312 427.25339 736.22937
801.0 0.001248 427.01007 711.07880
760.0 0.001316 426.76678 683.14868
647.0 0.001546 426.52371 658.01727
634.0 0.001577 426.28061 633.07379
655.0 0.001527 426.03772 603.31134
557.0 0.001795 425.79483 568.70496
565.0 0.001770 425.55206 533.79761
530.0 0.001887 425.30951 503.07864
486.0 0.002058 425.06699 479.09521
467.0 0.002141 424.82465 462.37686
426.0 0.002347 424.58240 451.88980
450.0 0.002222 424.34027 445.91470
479.0 0.002088 424.09839 442.79977
478.0 0.002092 423.85657 441.35510
488.0 0.002049 423.61502 440.89954
454.0 0.002203 423.37354 441.13562
439.0 0.002278 423.13223 442.05002
467.0 0.002141 422.89120 443.92389
455.0 0.002198 422.65024 447.51602
449.0 0.002227 422.40961 454.41370
467.0 0.002141 422.16904 467.43753
474.0 0.002110 421.92874 490.71643
552.0 0.001812 421.68866 528.88947
574.0 0.001742 421.44879 585.12146
610.0 0.001639 421.20917 658.20117
797.0 0.001255 420.96970 740.18524
829.0 0.001206 420.73050 815.35907
828.0 0.001208 420.49158 863.14697
873.0 0.001145 420.25290 870.47168
870.0 0.001149 420.01447 845.00354
824.0 0.001214 419.77631 806.52167
821.0 0.001218 419.53836 769.45471
673.0 0.001486 419.30078 736.41656
677.0 0.001477 419.06339 701.24707
628.0 0.001592 418.82632 659.35577
572.0 0.001748 418.58957 614.80609
565.0 0.001770 418.35303 576.18774
506.0 0.001976 418.11691 551.21429
526.0 0.001901 417.88101 544.65771
561.0 0.001783 417.64551 557.26105
557.0 0.001795 417.41025 585.14795
674.0 0.001484 417.17532 619.98761
672.0 0.001488 416.94080 650.01044
756.0 0.001323 416.70654 663.60986
706.0 0.001416 416.47269 657.23615
703.0 0.001422 416.23914 638.18713
661.0 0.001513 416.00592 616.24927
628.0 0.001592 415.77316 596.45776
623.0 0.001605 415.54068 577.84100
570.0 0.001754 415.30869 556.52789
545.0 0.001835 415.07693 531.24347
514.0 0.001946 414.84564 504.65488
492.0 0.002033 414.61475 480.20486
435.0 0.002299 414.38425 460.17340
457.0 0.002188 414.15414 445.39563
439.0 0.002278 413.92441 435.44601
440.0 0.002273 413.69513 429.19473
420.0 0.002381 413.46628 425.38095
423.0 0.002364 413.23782 422.99069
391.0 0.002558 413.00983 421.36874
378.0 0.002646 412.78226 420.15112
443.0 0.002257 412.55508 418.92667
418.0 0.002392 412.32846 418.08142
430.0 0.002326 412.10217 417.33432
409.0 0.002445 411.87640 416.66260
400.0 0.002500 411.65109 416.05121
438.0 0.002283 411.42621 415.37195
408.0 0.002451 411.20187 414.85516
372.0 0.002688 410.97797 414.37277
449.0 0.002227 410.75458 413.91977
417.0 0.002398 410.53162 413.49185
440.0 0.002273 410.30917 413.08569
408.0 0.002451 410.08728 412.69852
426.0 0.002347 409.86581 412.32785
462.0 0.002165 409.64493 411.97186
415.0 0.002410 409.42450 411.62878
409.0 0.002445 409.20456 411.29739
409.0 0.002445 408.98526 410.97647
444.0 0.002252 408.76639 410.66495
426.0 0.002347 408.54813 410.36234
401.0 0.002494 408.33032 410.06760
408.0 0.002451 408.11307 409.78033
398.0 0.002513 407.89639 409.50003
452.0 0.002212 407.68024 409.22647
381.0 0.002625 407.46472 409.01511
412.0 0.002427 407.24966 408.75601
396.0 0.002525 407.03522 408.50333
366.0 0.002732 406.82135 408.25714
382.0 0.002618 406.60803 408.01767
410.0 0.002439 406.39529 407.78558
405.0 0.002469 406.18317 407.24921
422.0 0.002370 405.97156 407.04672
422.0 0.002370 405.76059 406.85733
419.0 0.002387 405.55020 406.68900
377.0 0.002653 405.34042 406.55899
416.0 0.002404 405.13126 406.50208
403.0 0.002481 404.92264 406.41245
437.0 0.002288 404.71472 406.72339
398.0 0.002513 404.50735 407.37546
418.0 0.002392 404.30066 408.46368
416.0 0.002404 404.09451 410.00552
451.0 0.002217 403.88898 411.87579
411.0 0.002433 403.68417 413.76910
413.0 0.002421 403.47992 415.22208
401.0 0.002494 403.27637 415.79077
452.0 0.002212 403.07339 415.38318
452.0 0.002212 402.87106 414.16080
388.0 0.002577 402.66943 412.94165
425.0 0.002353 402.46838 411.79715
393.0 0.002545 402.26807 410.71231
395.0 0.002532 402.06836 409.52289
388.0 0.002577 401.86932 408.14670
378.0 0.002646 401.67096 406.58566
390.0 0.002564 401.47321 405.17834
375.0 0.002667 401.27621 403.96008
385.0 0.002597 401.07980 402.98962
410.0 0.002439 400.88412 402.26450
357.0 0.002801 400.68912 401.74026
380.0 0.002632 400.49478 401.35794
436.0 0.002294 400.30115 401.06470
371.0 0.002695 400.10818 400.82315
387.0 0.002584 399.91589 400.61102
418.0 0.002392 399.72430 400.41672
402.0 0.002488 399.53342 400.23495
370.0 0.002703 399.34326 400.06354
415.0 0.002410 399.15378 399.90192
409.0 0.002445 398.96497 399.75015
379.0 0.002639 398.77692 399.60876
400.0 0.002500 398.58954 399.47888
356.0 0.002809 398.40292 399.36209
396.0 0.002525 398.21695 399.26038
394.0 0.002538 398.03168 399.17667
411.0 0.002433 397.84720 399.11499
377.0 0.002653 397.66336 399.08112
393.0 0.002545 397.48035 399.08496
380.0 0.002632 397.29797 399.14569
359.0 0.002786 397.11630 399.30432
403.0 0.002481 396.93546 399.64917
410.0 0.002439 396.75525 400.35858
363.0 0.002755 396.57584 401.75293
393.0 0.002545 396.39713 404.32678
384.0 0.002604 396.21912 408.69916
391.0 0.002558 396.04190 415.42679
374.0 0.002674 395.86539 424.69601
421.0 0.002375 395.68967 435.94547
393.0 0.002545 395.51465 447.67984
427.0 0.002342 395.34036 457.45169
462.0 0.002165 395.16684 462.57080
425.0 0.002353 394.99405 461.98108
433.0 0.002309 394.82202 457.35474
412.0 0.002427 394.65073 451.39920
430.0 0.002326 394.48016 445.86499
419.0 0.002387 394.31039 440.96329
398.0 0.002513 394.14136 435.75949
432.0 0.002315 393.97308 429.43570
413.0 0.002421 393.80557 422.24869
393.0 0.002545 393.63876 415.09494
382.0 0.002618 393.47278 408.77451
415.0 0.002410 393.30750 403.73868
363.0 0.002755 393.14301 400.08517
381.0 0.002625 392.97925 397.63223
400.0 0.002500 392.81625 396.06738
388.0 0.002577 392.65405 395.07678
389.0 0.002571 392.49258 394.41953
387.0 0.002584 392.33191 393.94296
409.0 0.002445 392.17194 393.56238
347.0 0.002882 392.01276 393.23566
375.0 0.002667 391.85437 392.93695
407.0 0.002457 391.69669 392.66409
418.0 0.002392 391.53986 392.41327
359.0 0.002786 391.38370 392.17700
407.0 0.002457 391.22833 391.95258
377.0 0.002653 391.07379 391.73532
389.0 0.002571 390.91995 391.52765
357.0 0.002801 390.76691 391.32928
372.0 0.002688 390.61459 391.13712
424.0 0.002358 390.46307 390.95044
373.0 0.002681 390.31235 390.76868
436.0 0.002294 390.16235 390.59122
420.0 0.002381 390.01315 390.41766
389.0 0.002571 389.86465 390.24762
387.0 0.002584 389.71698 390.08087
376.0 0.002660 389.57007 389.91721
391.0 0.002558 389.42392 389.75638
367.0 0.002725 389.27853 389.59821
372.0 0.002688 389.13391 389.64908
410.0 0.002439 388.99005 389.50284
383.0 0.002611 388.84698 389.35947
391.0 0.002558 388.70465 389.21902
373.0 0.002681 388.56308 389.08154
389.0 0.002571 388.42230 388.94736
393.0 0.002545 388.28223 388.91833
375.0 0.002667 388.14301 388.79465
400.0 0.002500 388.00449 388.67563
395.0 0.002532 387.86679 388.56259
373.0 0.002681 387.72977 388.45804
365.0 0.002740 387.59354 388.36771
435.0 0.002299 387.45810 388.30319
383.0 0.002611 387.32339 388.28546
394.0 0.002538 387.18948 388.34842
393.0 0.002545 387.05630 388.53714
367.0 0.002725 386.92386 388.89804
387.0 0.002584 386.79221 389.45810
403.0 0.002481 386.66129 390.19943
366.0 0.002732 386.53116 391.03741
424.0 0.002358 386.40176 391.81427
398.0 0.002513 386.27313 392.32098
411.0 0.002433 386.14523 392.39896
404.0 0.002475 386.01810 392.07947
404.0 0.002475 385.89172 391.55420
421.0 0.002375 385.76605 390.95303
389.0 0.002571 385.64117 390.47220
403.0 0.002481 385.51703 390.02631
406.0 0.002463 385.39365 389.53183
370.0 0.002703 385.27100 388.95044
400.0 0.002500 385.14911 388.32449
376.0 0.002660 385.02792 387.69736
389.0 0.002571 384.90750 387.18076
371.0 0.002695 384.78781 386.77460
387.0 0.002584 384.66888 386.48193
404.0 0.002475 384.55069 386.28705
398.0 0.002513 384.43320 386.16678
409.0 0.002445 384.31647 386.09927
404.0 0.002475 384.20047 386.06903
412.0 0.002427 384.08521 386.06717
387.0 0.002584 383.97064 386.09012
387.0 0.002584 383.85681 386.13782
390.0 0.002564 383.74377 386.21249
391.0 0.002558 383.63138 386.31778
417.0 0.002398 383.51978 386.45901
378.0 0.002646 383.40884 386.78387
381.0 0.002625 383.29861 387.02307
379.0 0.002639 383.18918 387.32587
379.0 0.002639 383.08041 387.70911
391.0 0.002558 382.97238 388.19974
377.0 0.002653 382.86505 388.84726
432.0 0.002315 382.75842 389.82224
417.0 0.002398 382.65253 391.20117
417.0 0.002398 382.54733 393.48535
392.0 0.002551 382.44284 397.47311
378.0 0.002646 382.33905 404.46368
450.0 0.002222 382.23596 416.23495
442.0 0.002262 382.13361 434.70453
477.0 0.002096 382.03192 461.19775
467.0 0.002141 381.93094 495.40085
556.0 0.001799 381.83066 534.50641
620.0 0.001613 381.73105 572.73553
670.0 0.001493 381.63214 601.86591
637.0 0.001570 381.53394 614.32867
668.0 0.001497 381.43640 608.99945
659.0 0.001517 381.33957 592.46594
593.0 0.001686 381.24341 573.01428
594.0 0.001684 381.14795 555.54736
526.0 0.001901 381.05313 540.32495
538.0 0.001859 380.95905 524.27679
531.0 0.001883 380.86557 504.60696
487.0 0.002053 380.77280 481.80719
453.0 0.002208 380.68073 458.57004
464.0 0.002155 380.58926 437.51642
444.0 0.002252 380.49854 420.31531
409.0 0.002445 380.40842 407.52267
405.0 0.002469 380.31897 398.78854
445.0 0.002247 380.23019 393.22815
377.0 0.002653 380.14206 389.83481
384.0 0.002604 380.05463 387.77173
406.0 0.002463 379.96780 386.45987
421.0 0.002375 379.88162 385.55640
404.0 0.002475 379.79611 384.87900
391.0 0.002558 379.71124 384.33707
380.0 0.002632 379.62704 383.88647
411.0 0.002433 379.54346 383.49921
412.0 0.002427 379.46051 383.17105
412.0 0.002427 379.37820 382.88791
404.0 0.002475 379.29654 382.64316
399.0 0.002506 379.21548 382.43179
384.0 0.002604 379.13507 382.24988
400.0 0.002500 379.05530 382.09253
377.0 0.002653 378.97614 381.96225
415.0 0.002410 378.89758 381.85541
401.0 0.002494 378.81967 381.77127
386.0 0.002591 378.74237 381.70956
372.0 0.002688 378.66568 381.67072
408.0 0.002451 378.58963 381.65567
390.0 0.002564 378.51413 381.66583
392.0 0.002551 378.43930 381.70364
352.0 0.002841 378.36505 381.77209
395.0 0.002532 378.29138 381.87512
409.0 0.002445 378.21832 382.01813
418.0 0.002392 378.14584 382.20807
396.0 0.002525 378.07401 382.45419
382.0 0.002618 378.00275 382.76947
383.0 0.002611 377.93204 383.17322
381.0 0.002625 377.86194 383.69904
398.0 0.002513 377.79242 384.41306
404.0 0.002475 377.72351 385.45181
389.0 0.002571 377.65515 387.09680
373.0 0.002681 377.58734 389.88654
372.0 0.002688 377.52014 394.74567
372.0 0.002688 377.45352 403.05829
399.0 0.002506 377.38745 416.53116
448.0 0.002232 377.32193 436.75934
469.0 0.002132 377.25699 464.43356
497.0 0.002012 377.19260 498.46259
543.0 0.001842 377.12875 535.35919
533.0 0.001876 377.06549 569.04401
587.0 0.001704 377.00275 591.87976
553.0 0.001808 376.94058 598.30878
525.0 0.001905 376.87894 589.60431
568.0 0.001761 376.81784 572.75195
534.0 0.001873 376.75729 554.75208
502.0 0.001992 376.69727 539.11047
496.0 0.002016 376.63779 525.12677
468.0 0.002137 376.57883 510.16351
482.0 0.002075 376.52039 491.72238
461.0 0.002169 376.46249 470.52521
448.0 0.002232 376.40512 449.03735
413.0 0.002421 376.34824 429.59561
395.0 0.002532 376.29190 413.56967
418.0 0.002392 376.23605 401.66193
409.0 0.002445 376.18073 393.46661
391.0 0.002558 376.12589 388.19849
381.0 0.002625 376.07156 384.96548
382.0 0.002618 376.01776 383.01080
402.0 0.002488 375.96442 381.80933
369.0 0.002710 375.91162 381.05429
393.0 0.002545 375.85925 380.64545
375.0 0.002667 375.80740 380.40488
390.0 0.002564 375.75604 380.34827
373.0 0.002681 375.70517 380.43466
399.0 0.002506 375.65479 380.60046
376.0 0.002660 375.60483 380.75360
398.0 0.002513 375.55539 380.78629
378.0 0.002646 375.50641 380.65274
395.0 0.002532 375.45786 380.31805
400.0 0.002500 375.40982 379.90018
399.0 0.002506 375.36221 379.48703
390.0 0.002564 375.31506 379.12100
376.0 0.002660 375.26837 378.79245
404.0 0.002475 375.22214 378.45898
352.0 0.002841 375.17636 378.08862
379.0 0.002639 375.13101 377.68896
365.0 0.002740 375.08609 377.29138
397.0 0.002519 375.04160 376.92645
368.0 0.002717 374.99756 376.61325
397.0 0.002519 374.95395 376.35873
399.0 0.002506 374.91077 376.15881
377.0 0.002653 374.86798 376.00314
388.0 0.002577 374.82565 375.87952
362.0 0.002762 374.78372 375.77731
373.0 0.002681 374.74222 375.68884
377.0 0.002653 374.70111 375.60922
420.0 0.002381 374.66040 375.53580
382.0 0.002618 374.62012 375.46713
409.0 0.002445 374.58023 375.40234
411.0 0.002433 374.54071 375.34103
332.0 0.003012 374.50159 375.28281
389.0 0.002571 374.46286 375.22748
379.0 0.002639 374.42453 375.17493
398.0 0.002513 374.38657 375.12503
361.0 0.002770 374.34900 375.07761
344.0 0.002907 374.31180 375.03259
356.0 0.002809 374.27496 374.99002
367.0 0.002725 374.23849 374.94983
395.0 0.002532 374.20236 374.91208
386.0 0.002591 374.16663 374.87668
386.0 0.002591 374.13123 374.84369
360.0 0.002778 374.09619 374.81329
389.0 0.002571 374.06149 374.78546
370.0 0.002703 374.02716 374.76038
388.0 0.002577 373.99313 374.73819
387.0 0.002584 373.95947 374.71906
373.0 0.002681 373.92612 374.70322
422.0 0.002370 373.89310 374.69104
371.0 0.002695 373.86041 374.68286
375.0 0.002667 373.82806 374.67892
427.0 0.002342 373.79602 374.67987
382.0 0.002618 373.76425 374.68625
362.0 0.002762 373.73285 374.69882
401.0 0.002494 373.70172 374.71838
404.0 0.002475 373.67093 374.74612
393.0 0.002545 373.64038 374.78326
364.0 0.002747 373.61014 374.69104
396.0 0.002525 373.58023 374.75595
398.0 0.002513 373.55057 374.83643
412.0 0.002427 373.52118 374.93576
368.0 0.002717 373.49210 375.05865
366.0 0.002732 373.46326 375.21198
368.0 0.002717 373.43472 375.40759
382.0 0.002618 373.40643 375.59955
377.0 0.002653 373.37842 375.97372
361.0 0.002770 373.35065 376.55252
365.0 0.002740 373.32312 377.51123
334.0 0.002994 373.29584 379.14795
383.0 0.002611 373.26883 381.90991
411.0 0.002433 373.24203 386.36044
419.0 0.002387 373.21548 393.05905
396.0 0.002525 373.18918 402.32700
422.0 0.002370 373.16306 413.96872
403.0 0.002481 373.13721 427.05234
417.0 0.002398 373.11154 439.79572
407.0 0.002457 373.08609 449.73822
448.0 0.002232 373.06088 454.52878
395.0 0.002532 373.03583 453.53510
450.0 0.002222 373.01102 448.46640
468.0 0.002137 372.98639 441.92203
446.0 0.002242 372.96194 435.78284
433.0 0.002309 372.93768 430.63757
432.0 0.002315 372.91364 425.86990
442.0 0.002262 372.88974 420.35947
377.0 0.002653 372.86603 413.57333
384.0 0.002604 372.84247 405.95892
436.0 0.002294 372.81909 398.38391
359.0 0.002786 372.79587 391.59851
367.0 0.002725 372.77280 386.05505
388.0 0.002577 372.74988 381.89676
405.0 0.002469 372.72708 379.00781
364.0 0.002747 372.70447 377.12320
369.0 0.002710 372.68198 375.94238
358.0 0.002793 372.65961 375.20706
380.0 0.002632 372.63736 374.73383
403.0 0.002481 372.61523 374.41031
378.0 0.002646 372.59323 374.16464
378.0 0.002646 372.57135 373.96756
341.0 0.002933 372.54959 373.80197
374.0 0.002674 372.52792 373.65909
366.0 0.002732 372.50632 373.53363
371.0 0.002695 372.48483 373.42267
335.0 0.002985 372.46347 373.32501
341.0 0.002933 372.44214 373.23502
341.0 0.002933 372.42093 373.15317
392.0 0.002551 372.39975 373.07828
410.0 0.002439 372.37866 373.00931
361.0 0.002770 372.35764 372.94547
413.0 0.002421 372.33667 372.88602
324.0 0.003086 372.31577 372.83054
358.0 0.002793 372.29489 372.77832
396.0 0.002525 372.27408 372.72913
380.0 0.002632 372.25330 372.68253
371.0 0.002695 372.23254 372.63821
363.0 0.002755 372.21185 372.59595
369.0 0.002710 372.19116 372.55560
378.0 0.002646 372.17047 372.51682
375.0 0.002667 372.14984 372.47952
368.0 0.002717 372.12918 372.44354
378.0 0.002646 372.10852 372.40878
334.0 0.002994 372.08789 372.37506
347.0 0.002882 372.06723 372.34241
346.0 0.002890 372.04657 372.31058
387.0 0.002584 372.02588 372.27957
343.0 0.002915 372.00519 372.24927
350.0 0.002857 371.98447 372.21967
360.0 0.002778 371.96368 372.19070
358.0 0.002793 371.94290 372.16235
365.0 0.002740 371.92206 372.13446
387.0 0.002584 371.90118 372.10706
362.0 0.002762 371.88025 372.08014
392.0 0.002551 371.85925 372.05365
373.0 0.002681 371.83820 372.02753
352.0 0.002841 371.81705 372.04544
386.0 0.002591 371.79587 372.02118
396.0 0.002525 371.77460 371.99738
352.0 0.002841 371.75323 371.97391
375.0 0.002667 371.73178 371.95081
360.0 0.002778 371.71024 371.92801
367.0 0.002725 371.68860 371.90567
319.0 0.003135 371.66684 371.90527
340.0 0.002941 371.64499 371.88422
410.0 0.002439 371.62302 371.86359
362.0 0.002762 371.60095 371.84344
360.0 0.002778 371.57870 371.82370
373.0 0.002681 371.55637 371.80460
334.0 0.002994 371.53391 371.83380
350.0 0.002857 371.51126 371.81711
349.0 0.002865 371.48849 371.80124
351.0 0.002849 371.46561 371.78622
345.0 0.002899 371.44250 371.77222
357.0 0.002801 371.41928 371.75937
365.0 0.002740 371.39587 371.69354
386.0 0.002591 371.37231 371.70874
373.0 0.002681 371.34857 371.70297
361.0 0.002770 371.32462 371.69962
379.0 0.002639 371.30051 371.69968
373.0 0.002681 371.27621 371.70480
369.0 0.002710 371.25171 371.69073
374.0 0.002674 371.22699 371.71979
364.0 0.002747 371.20209 371.77557
375.0 0.002667 371.17694 371.87860
392.0 0.002551 371.15161 372.05994
328.0 0.003049 371.12604 372.36047
381.0 0.002625 371.10025 372.82440
418.0 0.002392 371.07422 373.48486
354.0 0.002825 371.04797 374.34506
412.0 0.002427 371.02145 375.35895
368.0 0.002717 370.99469 376.42114
366.0 0.002732 370.96771 377.36624
410.0 0.002439 370.94043 378.00140
377.0 0.002653 370.91290 378.19098
360.0 0.002778 370.88510 377.95993
389.0 0.002571 370.85706 377.47748
371.0 0.002695 370.82870 376.93405
378.0 0.002646 370.80008 376.44846
364.0 0.002747 370.77118 376.04294
360.0 0.002778 370.74197 375.65805
388.0 0.002577 370.71249 375.20917
389.0 0.002571 370.68271 374.66171
368.0 0.002717 370.65259 374.05151
374.0 0.002674 370.62219 373.44482
362.0 0.002762 370.59146 372.90015
373.0 0.002681 370.56039 372.45441
370.0 0.002703 370.52905 372.12170
397.0 0.002519 370.49734 371.89584
401.0 0.002494 370.46530 371.80984
381.0 0.002625 370.43295 371.74585
362.0 0.002762 370.40024 371.72519
373.0 0.002681 370.36719 371.73819
392.0 0.002551 370.33380 371.77640
351.0 0.002849 370.30002 371.83612
343.0 0.002915 370.26590 371.91724
391.0 0.002558 370.23141 372.04739
361.0 0.002770 370.19659 372.18567
398.0 0.002513 370.16135 372.36456
374.0 0.002674 370.12576 372.61069
395.0 0.002532 370.08978 372.97223
366.0 0.002732 370.05344 373.53973
375.0 0.002667 370.01666 374.46951
385.0 0.002597 369.97952 376.00497
362.0 0.002762 369.94199 378.47592
390.0 0.002564 369.90405 382.25500
353.0 0.002833 369.86569 387.65906
392.0 0.002551 369.82693 394.79010
381.0 0.002625 369.78778 403.38632
457.0 0.002188 369.74820 412.70132
358.0 0.002793 369.70822 421.48550
418.0 0.002392 369.66779 428.14236
395.0 0.002532 369.62692 431.29688
393.0 0.002545 369.58566 430.77072
405.0 0.002469 369.54395 427.88171
373.0 0.002681 369.50180 424.44617
388.0 0.002577 369.45920 422.04053
379.0 0.002639 369.41620 421.51465
413.0 0.002421 369.37271 422.96317
389.0 0.002571 369.32877 425.92001
451.0 0.002217 369.28439 429.81616
449.0 0.002227 369.23953 434.27704
461.0 0.002169 369.19424 438.77588
449.0 0.002227 369.14847 442.36526
447.0 0.002237 369.10223 443.70053
404.0 0.002475 369.05557 441.81870
422.0 0.002370 369.00839 437.04697
496.0 0.002016 368.96075 430.83908
427.0 0.002342 368.91263 424.71991
411.0 0.002433 368.86404 419.57687
421.0 0.002375 368.81494 415.47720
405.0 0.002469 368.76541 411.79053
379.0 0.002639 368.71536 407.65128
406.0 0.002463 368.66479 402.62100
385.0 0.002597 368.61377 396.94196
396.0 0.002525 368.56226 391.18735
384.0 0.002604 368.51022 385.89188
374.0 0.002674 368.45770 381.41995
387.0 0.002584 368.40469 377.92752
364.0 0.002747 368.35117 375.39035
361.0 0.002770 368.29715 373.65921
387.0 0.002584 368.24261 372.53226
390.0 0.002564 368.18759 371.81827
346.0 0.002890 368.13202 371.36569
320.0 0.003125 368.07596 371.07220
351.0 0.002849 368.01941 370.87619
385.0 0.002597 367.96231 370.74414
360.0 0.002778 367.90472 370.66000
365.0 0.002740 367.84659 370.61676
371.0 0.002695 367.78793 370.61200
364.0 0.002747 367.72879 370.66031
377.0 0.002653 367.66910 370.77393
382.0 0.002618 367.60892 370.98813
389.0 0.002571 367.54819 371.37253
383.0 0.002611 367.48694 372.05423
366.0 0.002732 367.42517 373.24359
383.0 0.002611 367.36285 375.25192
350.0 0.002857 367.30005 378.48279
418.0 0.002392 367.23669 383.35660
396.0 0.002525 367.17282 390.18256
401.0 0.002494 367.10843 398.98022
454.0 0.002203 367.04349 409.31976
444.0 0.002252 366.97803 420.20370
488.0 0.002049 366.91205 430.08716
495.0 0.002020 366.84552 437.09277
468.0 0.002137 366.77850 439.76663
527.0 0.001898 366.71094 438.08704
467.0 0.002141 366.64282 433.52548
480.0 0.002083 366.57419 427.98163
486.0 0.002058 366.50504 422.83118
448.0 0.002232 366.43536 418.56833
429.0 0.002331 366.36514 414.83176
441.0 0.002268 366.29440 410.77875
446.0 0.002242 366.22314 405.77051
432.0 0.002315 366.15137 399.86087
384.0 0.002604 366.07907 393.60913
425.0 0.002353 366.00623 387.65347
407.0 0.002457 365.93289 382.49884
417.0 0.002398 365.85901 378.45108
405.0 0.002469 365.78461 375.64178
343.0 0.002915 365.70969 374.08423
366.0 0.002732 365.63425 373.75558
318.0 0.003145 365.55832 374.66000
371.0 0.002695 365.48184 376.83423
369.0 0.002710 365.40485 380.29163
416.0 0.002404 365.32736 384.92465
438.0 0.002283 365.24936 390.41162
464.0 0.002155 365.17087 396.10352
478.0 0.002092 365.09186 401.21219
446.0 0.002242 365.01233 404.66852
464.0 0.002155 364.93231 405.73248
471.0 0.002123 364.85178 404.47623
504.0 0.001984 364.77078 401.75018
448.0 0.002232 364.68924 398.57825
414.0 0.002415 364.60724 395.67300
415.0 0.002410 364.52475 393.24805
387.0 0.002584 364.44177 391.12866
385.0 0.002597 364.35831 388.82425
404.0 0.002475 364.27435 385.98590
425.0 0.002353 364.18991 382.64502
435.0 0.002299 364.10501 379.05707
385.0 0.002597 364.01959 375.65848
406.0 0.002463 363.93375 372.66183
372.0 0.002688 363.84744 370.21204
378.0 0.002646 363.76062 368.34064
403.0 0.002481 363.67340 366.99146
369.0 0.002710 363.58566 366.05707
371.0 0.002695 363.49753 365.39645
368.0 0.002717 363.40891 364.95538
353.0 0.002833 363.31982 364.63382
390.0 0.002564 363.23032 364.38239
398.0 0.002513 363.14035 364.17178
356.0 0.002809 363.04999 363.98544
337.0 0.002967 362.95917 363.81473
377.0 0.002653 362.86789 363.65506
363.0 0.002755 362.77625 363.50391
397.0 0.002519 362.68414 363.35941
364.0 0.002747 362.59164 363.22046
342.0 0.002924 362.49872 363.08612
368.0 0.002717 362.40536 362.95789
341.0 0.002933 362.31168 362.83078
337.0 0.002967 362.21753 362.70639
389.0 0.002571 362.12302 362.58441
344.0 0.002907 362.02808 362.46454
341.0 0.002933 361.93277 362.34637
341.0 0.002933 361.83713 362.22980
348.0 0.002874 361.74106 362.11441
378.0 0.002646 361.64462 362.00143
377.0 0.002653 361.54782 361.88824
358.0 0.002793 361.45068 361.77710
336.0 0.002976 361.35318 361.66556
357.0 0.002801 361.25534 361.55463
363.0 0.002755 361.15714 361.44431
370.0 0.002703 361.05859 361.33447
339.0 0.002950 360.95969 361.22504
362.0 0.002762 360.86050 361.11600
386.0 0.002591 360.76099 361.00772
355.0 0.002817 360.66113 360.89932
379.0 0.002639 360.56097 360.79102
318.0 0.003145 360.46051 360.68292
349.0 0.002865 360.35977 360.52414
362.0 0.002762 360.25870 360.41324
345.0 0.002899 360.15738 360.30701
335.0 0.002985 360.05573 360.20074
390.0 0.002564 359.95380 360.09454
373.0 0.002681 359.85165 359.98837
372.0 0.002688 359.74918 359.88226
344.0 0.002907 359.64648 359.77606
349.0 0.002865 359.54352 359.64276
334.0 0.002994 359.44031 359.53729
357.0 0.002801 359.33688 359.43179
331.0 0.003021 359.23318 359.32623
342.0 0.002924 359.12930 359.22067
372.0 0.002688 359.02515 359.11499
353.0 0.002833 358.92081 359.00934
345.0 0.002899 358.81625 358.90375
351.0 0.002849 358.71149 358.79807
374.0 0.002674 358.60654 358.69244
346.0 0.002890 358.50137 358.58682
364.0 0.002747 358.39606 358.48126
369.0 0.002710 358.29056 358.37582
324.0 0.003086 358.18488 358.27048
359.0 0.002786 358.07904 358.16522
325.0 0.003077 357.97305 358.06018
357.0 0.002801 357.86688 357.95541
361.0 0.002770 357.76062 357.82040
366.0 0.002732 357.65417 357.71777
343.0 0.002915 357.54761 357.61652
354.0 0.002825 357.44095 357.51758
333.0 0.003003 357.33414 357.42261
367.0 0.002725 357.22723 357.33389
376.0 0.002660 357.12021 357.25430
367.0 0.002725 357.01312 357.18710
380.0 0.002632 356.90591 357.11945
330.0 0.003030 356.79861 357.08264
355.0 0.002817 356.69128 357.05872
322.0 0.003106 356.58386 357.04138
343.0 0.002915 356.47638 357.02057
324.0 0.003086 356.36884 356.98322
347.0 0.002882 356.26123 356.91721
375.0 0.002667 356.15363 356.81866
320.0 0.003125 356.04596 356.69604
384.0 0.002604 355.93829 356.56528
360.0 0.002778 355.83057 356.44278
356.0 0.002809 355.72284 356.34241
371.0 0.002695 355.61511 356.27466
364.0 0.002747 355.50735 356.24792
354.0 0.002825 355.39966 356.27026
349.0 0.002865 355.29193 356.35052
364.0 0.002747 355.18423 356.49612
360.0 0.002778 355.07657 356.70441
310.0 0.003226 354.96896 356.97134
328.0 0.003049 354.86136 357.22961
354.0 0.002825 354.75385 357.43875
362.0 0.002762 354.64633 357.53998
357.0 0.002801 354.53891 357.50073
346.0 0.002890 354.43155 357.34238
387.0 0.002584 354.32428 357.12927
346.0 0.002890 354.21707 356.92972
343.0 0.002915 354.10995 356.79477
396.0 0.002525 354.00296 356.71823
343.0 0.002915 353.89603 356.67953
384.0 0.002604 353.78925 356.62598
345.0 0.002899 353.68253 356.50235
358.0 0.002793 353.57593 356.30408
392.0 0.002551 353.46951 355.98007
379.0 0.002639 353.36319 355.59161
400.0 0.002500 353.25702 355.19193
348.0 0.002874 353.15097 354.81491
415.0 0.002410 353.04507 354.48810
333.0 0.003003 352.93939 354.21448
355.0 0.002817 352.83380 353.97955
325.0 0.003077 352.72842 353.77481
358.0 0.002793 352.62320 353.55524
382.0 0.002618 352.51819 353.32901
368.0 0.002717 352.41336 353.10336
336.0 0.002976 352.30869 352.88263
320.0 0.003125 352.20425 352.67590
356.0 0.002809 352.10001 352.48761
355.0 0.002817 351.99597 352.31918
372.0 0.002688 351.89215 352.16940
343.0 0.002915 351.78857 352.03497
329.0 0.003040 351.68521 351.91232
374.0 0.002674 351.58209 351.79794
366.0 0.002732 351.47916 351.68924
372.0 0.002688 351.37653 351.58408
338.0 0.002959 351.27411 351.48160
319.0 0.003135 351.17197 351.38095
355.0 0.002817 351.07010 351.28171
372.0 0.002688 350.96844 351.18378
302.0 0.003311 350.86713 351.08701
359.0 0.002786 350.76602 350.99146
349.0 0.002865 350.66522 350.89713
343.0 0.002915 350.56470 350.80377
338.0 0.002959 350.46445 350.71179
329.0 0.003040 350.36453 350.62106
315.0 0.003175 350.26486 350.53174
352.0 0.002841 350.16553 350.44391
348.0 0.002874 350.06647 350.35751
306.0 0.003268 349.96771 350.27267
349.0 0.002865 349.86932 350.18976
331.0 0.003021 349.77118 350.10880
356.0 0.002809 349.67343 350.03009
324.0 0.003086 349.57596 349.95367
358.0 0.002793 349.47879 349.88000
345.0 0.002899 349.38202 349.80945
338.0 0.002959 349.28552 349.74237
359.0 0.002786 349.18939 349.67920
340.0 0.002941 349.09360 349.62076
332.0 0.003012 348.99817 349.56790
363.0 0.002755 348.90305 349.52231
356.0 0.002809 348.80829 349.48492
371.0 0.002695 348.71390 349.45987
366.0 0.002732 348.61984 349.45349
326.0 0.003067 348.52615 349.47766
357.0 0.002801 348.43280 349.55353
321.0 0.003115 348.33984 349.71368
342.0 0.002924 348.24725 350.01062
369.0 0.002710 348.15500 350.51462
341.0 0.002933 348.06311 351.30902
329.0 0.003040 347.97165 352.47348
331.0 0.003021 347.88046 354.06024
354.0 0.002825 347.78973 356.06076
362.0 0.002762 347.69934 358.38202
374.0 0.002674 347.60934 360.82776
411.0 0.002433 347.51968 363.10355
384.0 0.002604 347.43045 364.85782
399.0 0.002506 347.34155 365.79907
386.0 0.002591 347.25305 365.89124
377.0 0.002653 347.16495 365.43091
367.0 0.002725 347.07721 364.90225
361.0 0.002770 346.98987 364.78781
348.0 0.002874 346.90286 365.44089
378.0 0.002646 346.81631 367.03918
368.0 0.002717 346.73007 369.55353
379.0 0.002639 346.64426 372.76685
378.0 0.002646 346.55881 376.35098
409.0 0.002445 346.47372 379.92477
400.0 0.002500 346.38904 382.95947
391.0 0.002558 346.30472 384.90292
397.0 0.002519 346.22083 385.25256
380.0 0.002632 346.13724 383.98843
353.0 0.002833 346.05411 381.55618
351.0 0.002849 345.97128 378.61072
376.0 0.002660 345.88885 375.72821
346.0 0.002890 345.80682 373.25159
360.0 0.002778 345.72513 371.19565
391.0 0.002558 345.64383 369.34494
356.0 0.002809 345.56287 367.34320
334.0 0.002994 345.48230 365.01163
359.0 0.002786 345.40210 362.30017
356.0 0.002809 345.32224 359.41052
352.0 0.002841 345.24277 356.56525
360.0 0.002778 345.16360 353.96088
366.0 0.002732 345.08481 351.73273
365.0 0.002740 345.00638 349.93948
345.0 0.002899 344.92831 348.57083
331.0 0.003021 344.85059 347.58630
327.0 0.003058 344.77316 346.87650
337.0 0.002967 344.69611 346.37732
325.0 0.003077 344.61938 346.02094
345.0 0.002899 344.54300 345.75620
338.0 0.002959 344.46695 345.54849
329.0 0.003040 344.39120 345.37555
351.0 0.002849 344.31577 345.22501
343.0 0.002915 344.24066 345.08908
319.0 0.003135 344.16586 344.96387
346.0 0.002890 344.09140 344.84680
339.0 0.002950 344.01721 344.73630
353.0 0.002833 343.94330 344.63147
372.0 0.002688 343.86972 344.53177
328.0 0.003049 343.79639 344.43643
353.0 0.002833 343.72339 344.34506
355.0 0.002817 343.65063 344.25745
324.0 0.003086 343.57813 344.17334
313.0 0.003195 343.50595 344.09286
305.0 0.003279 343.43399 344.01624
317.0 0.003155 343.36230 343.94434
332.0 0.003012 343.29083 343.87863
357.0 0.002801 343.21964 343.82199
348.0 0.002874 343.14868 343.77859
353.0 0.002833 343.07794 343.75439
318.0 0.003145 343.00742 343.75671
331.0 0.003021 342.93713 343.79288
361.0 0.002770 342.86707 343.86850
364.0 0.002747 342.79715 343.98438
325.0 0.003077 342.72748 344.13437
371.0 0.002695 342.65799 344.30463
356.0 0.002809 342.58868 344.46857
386.0 0.002591 342.51956 344.59567
340.0 0.002941 342.45059 344.65375
335.0 0.002985 342.38181 344.62473
331.0 0.003021 342.31314 344.51743
364.0 0.002747 342.24466 344.36206
314.0 0.003185 342.17630 344.19296
345.0 0.002899 342.10806 344.03601
340.0 0.002941 342.03995 343.90085
328.0 0.003049 341.97195 343.78455
329.0 0.003040 341.90408 343.67328
326.0 0.003067 341.83627 343.55130
372.0 0.002688 341.76859 343.41177
368.0 0.002717 341.70096 343.25977
337.0 0.002967 341.63342 343.10693
330.0 0.003030 341.56595 342.95010
389.0 0.002571 341.49850 342.82892
341.0 0.002933 341.43115 342.73407
358.0 0.002793 341.36377 342.66837
348.0 0.002874 341.29648 342.63174
352.0 0.002841 341.22919 342.62314
328.0 0.003049 341.16190 342.66867
313.0 0.003195 341.09460 342.71591
350.0 0.002857 341.02731 342.78894
341.0 0.002933 340.96002 342.91464
336.0 0.002976 340.89267 343.10934
368.0 0.002717 340.82529 343.41547
364.0 0.002747 340.75787 343.87512
361.0 0.002770 340.69040 344.65042
344.0 0.002907 340.62286 345.85828
347.0 0.002882 340.55524 347.68967
369.0 0.002710 340.48752 350.31659
317.0 0.003155 340.41974 353.90897
329.0 0.003040 340.35181 358.54205
350.0 0.002857 340.28381 364.14832
339.0 0.002950 340.21564 370.42163
377.0 0.002653 340.14737 376.89957
409.0 0.002445 340.07895 382.88196
377.0 0.002653 340.01035 387.65778
366.0 0.002732 339.94159 390.76379
368.0 0.002717 339.87265 392.19360
377.0 0.002653 339.80353 392.42929
407.0 0.002457 339.73422 392.32077
392.0 0.002551 339.66467 392.76883
356.0 0.002809 339.59494 394.39938
374.0 0.002674 339.52496 397.32419
400.0 0.002500 339.45474 401.11081
407.0 0.002457 339.38428 404.90961
424.0 0.002358 339.31354 407.66779
447.0 0.002237 339.24255 408.37189
462.0 0.002165 339.17126 406.41974
430.0 0.002326 339.09967 401.98871
431.0 0.002320 339.02780 395.98987
420.0 0.002381 338.95560 389.57330
430.0 0.002326 338.88309 383.67255
408.0 0.002451 338.81021 378.78735
377.0 0.002653 338.73700 374.96271
428.0 0.002336 338.66345 371.85474
370.0 0.002703 338.58951 368.91895
405.0 0.002469 338.51520 365.71289
378.0 0.002646 338.44049 362.11377
401.0 0.002494 338.36542 358.28616
365.0 0.002740 338.28989 354.50067
333.0 0.003003 338.21396 351.00455
357.0 0.002801 338.13760 347.97626
348.0 0.002874 338.06079 345.50327
365.0 0.002740 337.98352 343.59088
346.0 0.002890 337.90579 342.17871
323.0 0.003096 337.82761 341.17062
325.0 0.003077 337.74893 340.46292
334.0 0.002994 337.66977 339.96274
316.0 0.003165 337.59006 339.59821
330.0 0.003030 337.50989 339.31958
324.0 0.003086 337.42917 339.09448
348.0 0.002874 337.34787 338.90442
337.0 0.002967 337.26608 338.73953
344.0 0.002907 337.18372 338.59552
316.0 0.003165 337.10080 338.47214
341.0 0.002933 337.01730 338.37170
337.0 0.002967 336.93323 338.29861
326.0 0.003067 336.84854 338.25800
338.0 0.002959 336.76324 338.25461
337.0 0.002967 336.67734 338.29044
311.0 0.003215 336.59079 338.41287
312.0 0.003205 336.50366 338.51358
339.0 0.002950 336.41583 338.62534
383.0 0.002611 336.32736 338.72461
318.0 0.003145 336.23828 338.78412
353.0 0.002833 336.14847 338.78082
348.0 0.002874 336.05801 338.70886
326.0 0.003067 335.96683 338.58441
338.0 0.002959 335.87497 338.43686
357.0 0.002801 335.78241 338.31943
375.0 0.002667 335.68912 338.20255
311.0 0.003215 335.59512 338.12042
334.0 0.002994 335.50037 338.07535
315.0 0.003175 335.40488 338.06793
320.0 0.003125 335.30869 338.10999
335.0 0.002985 335.21167 338.23862
338.0 0.002959 335.11395 338.52557
358.0 0.002793 335.01541 339.07870
348.0 0.002874 334.91611 340.04346
345.0 0.002899 334.81601 341.58286
383.0 0.002611 334.71512 343.85828
376.0 0.002660 334.61346 346.98318
371.0 0.002695 334.51096 350.97510
347.0 0.002882 334.40762 355.70154
386.0 0.002591 334.30350 360.84885
387.0 0.002584 334.19852 365.91891
439.0 0.002278 334.09274 370.25241
414.0 0.002415 333.98605 373.16089
408.0 0.002451 333.87854 374.19635
412.0 0.002427 333.77020 373.44946
464.0 0.002155 333.66098 371.53064
420.0 0.002381 333.55093 369.24008
396.0 0.002525 333.43994 367.24814
426.0 0.002347 333.32809 365.94504
388.0 0.002577 333.21539 365.39221
356.0 0.002809 333.10178 365.34229
388.0 0.002577 332.98730 365.34940
413.0 0.002421 332.87189 364.97778
362.0 0.002762 332.75562 363.95758
416.0 0.002404 332.63837 362.21201
374.0 0.002674 332.52023 359.77951
375.0 0.002667 332.40121 356.82953
394.0 0.002538 332.28125 353.66452
389.0 0.002571 332.16040 350.62891
346.0 0.002890 332.03857 347.96997
353.0 0.002833 331.91586 345.84708
372.0 0.002688 331.79218 344.23355
322.0 0.003106 331.66760 342.98535
398.0 0.002513 331.54205 341.94684
319.0 0.003135 331.41553 340.91812
377.0 0.002653 331.28815 339.79623
330.0 0.003030 331.15976 338.58188
364.0 0.002747 331.03046 337.33649
343.0 0.002915 330.90018 336.12723
338.0 0.002959 330.76898 335.03403
352.0 0.002841 330.63678 334.08078
311.0 0.003215 330.50369 333.26981
315.0 0.003175 330.36960 332.64972
316.0 0.003165 330.23456 332.16858
339.0 0.002950 330.09860 331.79834
302.0 0.003311 329.96164 331.51056
324.0 0.003086 329.82379 331.28082
356.0 0.002809 329.68491 331.09064
365.0 0.002740 329.54510 330.92755
321.0 0.003115 329.40439 330.76807
339.0 0.002950 329.26266 330.63922
333.0 0.003003 329.12003 330.52325
349.0 0.002865 328.97641 330.41943
325.0 0.003077 328.83185 330.32813
340.0 0.002941 328.68637 330.25058
308.0 0.003247 328.53992 330.18860
335.0 0.002985 328.39258 330.14563
315.0 0.003175 328.24423 330.12717
321.0 0.003115 328.09494 330.14310
324.0 0.003086 327.94479 330.21133
346.0 0.002890 327.79364 330.36377
373.0 0.002681 327.64163 330.65576
336.0 0.002976 327.48865 331.17831
314.0 0.003185 327.33475 332.06995
316.0 0.003165 327.17996 333.52414
347.0 0.002882 327.02423 335.78586
350.0 0.002857 326.86765 339.12210
362.0 0.002762 326.71011 343.77307
355.0 0.002817 326.55170 349.88187
328.0 0.003049 326.39243 357.36435
368.0 0.002717 326.23221 365.91003
332.0 0.003012 326.07117 374.88455
364.0 0.002747 325.90921 383.35883
355.0 0.002817 325.74637 390.17581
374.0 0.002674 325.58276 394.22256
392.0 0.002551 325.41821 394.92313
345.0 0.002899 325.25287 392.61676
375.0 0.002667 325.08664 388.38110
351.0 0.002849 324.91959 383.44196
328.0 0.003049 324.75177 378.76184
359.0 0.002786 324.58307 374.83649
328.0 0.003049 324.41360 371.67276
356.0 0.002809 324.24329 368.85916
349.0 0.002865 324.07220 365.78281
322.0 0.003106 323.90039 361.97107
339.0 0.002950 323.72772 357.34668
313.0 0.003195 323.55435 352.19113
322.0 0.003106 323.38019 346.91656
353.0 0.002833 323.20532 341.90796
310.0 0.003226 323.02966 337.45187
315.0 0.003175 322.85333 333.71085
302.0 0.003311 322.67624 330.73279
341.0 0.002933 322.49844 328.46710
306.0 0.003268 322.32001 326.80396
324.0 0.003086 322.14081 325.60867
311.0 0.003215 321.96103 324.75125
344.0 0.002907 321.78052 324.12482
329.0 0.003040 321.59943 323.65134
312.0 0.003205 321.41763 323.28064
306.0 0.003268 321.23526 322.98547
341.0 0.002933 321.05222 322.75607
311.0 0.003215 320.86859 322.59558
306.0 0.003268 320.68442 322.48837
316.0 0.003165 320.49963 322.52094
322.0 0.003106 320.31436 322.64395
311.0 0.003215 320.12845 322.88025
309.0 0.003236 319.94205 323.21545
309.0 0.003236 319.75510 323.62161
323.0 0.003096 319.56763 324.04736
343.0 0.002915 319.37973 324.42123
331.0 0.003021 319.19128 324.64584
336.0 0.002976 319.00244 324.67566
321.0 0.003115 318.81308 324.47729
330.0 0.003030 318.62329 324.07098
351.0 0.002849 318.43314 323.53772
312.0 0.003205 318.24249 322.98029
332.0 0.003012 318.05154 322.45224
274.0 0.00365 317.86017 321.98264
316.0 0.003165 317.66843 321.56720
328.0 0.003049 317.47638 321.17398
307.0 0.003257 317.28397 320.75885
299.0 0.003344 317.09128 320.29062
308.0 0.003247 316.89825 319.76578
300.0 0.003333 316.70496 319.20044
314.0 0.003185 316.51144 318.63406
275.0 0.00364 316.31763 318.08813
319.0 0.003135 316.12360 317.58292
298.0 0.003356 315.92935 317.12979
308.0 0.003247 315.73489 316.73221
301.0 0.003322 315.54031 316.38693
311.0 0.003215 315.34549 316.08603
320.0 0.003125 315.15060 315.82037
282.0 0.00355 314.95551 315.58060
300.0 0.003333 314.76031 315.35934
316.0 0.003165 314.56509 315.15097
352.0 0.002841 314.36972 314.95160
313.0 0.003195 314.17438 314.75919
335.0 0.002985 313.97891 314.57254
316.0 0.003165 313.78342 314.39151
302.0 0.003311 313.58801 314.21671
323.0 0.003096 313.39255 314.04962
314.0 0.003185 313.19717 313.89355
303.0 0.003300 313.00177 313.75394
283.0 0.00353 312.80646 313.64081
318.0 0.003145 312.61127 313.57016
303.0 0.003300 312.41617 313.56693
313.0 0.003195 312.22122 313.66620
308.0 0.003247 312.02637 313.91351
338.0 0.002959 311.83173 314.36105
304.0 0.003289 311.63721 315.05899
322.0 0.003106 311.44290 316.04373
321.0 0.003115 311.24887 317.31979
319.0 0.003135 311.05502 318.84763
286.0 0.003497 310.86148 320.53064
299.0 0.003344 310.66812 322.21262
382.0 0.002618 310.47516 323.68607
324.0 0.003086 310.28244 324.71735
351.0 0.002849 310.09012 325.12085
358.0 0.002793 309.89810 324.85220
305.0 0.003279 309.70639 324.04459
336.0 0.002976 309.51520 322.93445
361.0 0.002770 309.32431 321.75540
300.0 0.003333 309.13394 320.67200
346.0 0.002890 308.94394 319.75726
309.0 0.003236 308.75446 318.94302
272.0 0.00368 308.56540 318.23560
342.0 0.002924 308.37689 317.46207
311.0 0.003215 308.18887 316.53467
318.0 0.003145 308.00137 315.44556
310.0 0.003226 307.81448 314.25281
323.0 0.003096 307.62814 313.03864
378.0 0.002646 307.44241 311.88019
312.0 0.003205 307.25726 310.80969
334.0 0.002994 307.07275 309.91388
293.0 0.003413 306.88892 309.18042
293.0 0.003413 306.70572 308.60452
296.0 0.003378 306.52328 308.17175
320.0 0.003125 306.34143 307.86566
319.0 0.003135 306.16034 307.67728
335.0 0.002985 305.98007 307.61136
324.0 0.003086 305.80048 307.69138
308.0 0.003247 305.62173 307.96259
298.0 0.003356 305.44370 308.48935
321.0 0.003115 305.26648 309.34866
306.0 0.003268 305.09015 310.61481
344.0 0.002907 304.91461 312.34012
332.0 0.003012 304.74002 314.52853
306.0 0.003268 304.56622 317.11505
346.0 0.002890 304.39331 319.94788
323.0 0.003096 304.22137 322.78311
338.0 0.002959 304.05035 325.29816
393.0 0.002545 303.88028 327.13266
379.0 0.002639 303.71115 328.00049
308.0 0.003247 303.54297 327.82495
348.0 0.002874 303.37589 326.78644
382.0 0.002618 303.20972 325.22159
315.0 0.003175 303.04465 323.48364
333.0 0.003003 302.88055 321.84070
324.0 0.003086 302.71753 320.43213
320.0 0.003125 302.55563 319.25601
314.0 0.003185 302.39478 318.18600
315.0 0.003175 302.23505 317.05038
336.0 0.002976 302.07642 315.70157
300.0 0.003333 301.91888 314.10242
320.0 0.003125 301.76254 312.31735
315.0 0.003175 301.60733 310.45920
294.0 0.003401 301.45337 308.64780
303.0 0.003300 301.30051 306.98035
269.0 0.00372 301.14886 305.52304
316.0 0.003165 300.99847 304.30417
305.0 0.003279 300.84924 303.32529
287.0 0.003484 300.70132 302.56030
307.0 0.003257 300.55460 301.97125
282.0 0.00355 300.40918 301.51758
293.0 0.003413 300.26498 301.16156
290.0 0.003448 300.12213 300.87277
299.0 0.003344 299.98050 300.62848
314.0 0.003185 299.84021 300.41315
307.0 0.003257 299.70129 300.21667
309.0 0.003236 299.56363 300.03293
321.0 0.003115 299.42737 299.85831
305.0 0.003279 299.29239 299.69049
278.0 0.00360 299.15884 299.52829
281.0 0.00356 299.02661 299.37082
288.0 0.003472 298.89581 299.21768
294.0 0.003401 298.76636 299.06842
322.0 0.003106 298.63828 298.92294
330.0 0.003030 298.51163 298.78119
273.0 0.00366 298.38638 298.64319
320.0 0.003125 298.26260 298.50922
316.0 0.003165 298.14020 298.37943
302.0 0.003311 298.01926 298.25424
304.0 0.003289 297.89975 298.13837
287.0 0.003484 297.78165 298.02426
304.0 0.003289 297.66507 297.91330
321.0 0.003115 297.54990 297.80609
255.0 0.00392 297.43625 297.70139
286.0 0.003497 297.32401 297.59760
307.0 0.003257 297.21326 297.49271
315.0 0.003175 297.10400 297.38486
315.0 0.003175 296.99622 297.27319
281.0 0.00356 296.88995 297.15799
290.0 0.003448 296.78516 297.04391
320.0 0.003125 296.68185 296.92722
272.0 0.00368 296.58008 296.81250
339.0 0.002950 296.47977 296.70071
298.0 0.003356 296.38098 296.58099
290.0 0.003448 296.28369 296.47559
270.0 0.00370 296.18793 296.37201
300.0 0.003333 296.09366 296.26938
299.0 0.003344 296.00089 296.16696
281.0 0.00356 295.90967 296.06485
262.0 0.00382 295.81992 295.96356
315.0 0.003175 295.73169 295.86386
305.0 0.003279 295.64502 295.76639
277.0 0.00361 295.55978 295.66574
283.0 0.00353 295.47614 295.57385
314.0 0.003185 295.39392 295.48489
293.0 0.003413 295.31326 295.39880
289.0 0.003460 295.23410 295.31540
299.0 0.003344 295.15640 295.23444
339.0 0.002950 295.08026 295.15576
286.0 0.003497 295.00558 295.07916
288.0 0.003472 294.93240 295.00433
284.0 0.00352 294.86075 294.93140
310.0 0.003226 294.79053 294.86008
294.0 0.003401 294.72180 294.79056
311.0 0.003215 294.65457 294.72247
298.0 0.003356 294.58881 294.65610
292.0 0.003425 294.52451 294.59131
304.0 0.003289 294.46167 294.52808
300.0 0.003333 294.40030 294.46643
297.0 0.003367 294.34033 294.40631
317.0 0.003155 294.28183 294.34775
291.0 0.003436 294.22476 294.29071
302.0 0.003311 294.16913 294.23526
307.0 0.003257 294.11493 294.18130
280.0 0.00357 294.06210 294.12891
287.0 0.003484 294.01071 294.07797
278.0 0.00360 293.96069 294.02866
314.0 0.003185 293.91208 293.98080
287.0 0.003484 293.86484 293.91730
247.0 0.00405 293.81894 293.87283
287.0 0.003484 293.77441 293.82816
317.0 0.003155 293.73123 293.78680
276.0 0.00362 293.68939 293.74695
285.0 0.00351 293.64886 293.70859
311.0 0.003215 293.60965 293.67181
321.0 0.003115 293.57175 293.63660
308.0 0.003247 293.53513 293.60291
297.0 0.003367 293.49976 293.56213
287.0 0.003484 293.46570 293.53183
310.0 0.003226 293.43286 293.50308
310.0 0.003226 293.40128 293.47516
283.0 0.00353 293.37091 293.44980
303.0 0.003300 293.34177 293.42618
310.0 0.003226 293.31381 293.40436
295.0 0.003390 293.28705 293.38446
317.0 0.003155 293.26144 293.36658
306.0 0.003268 293.23700 293.35083
301.0 0.003322 293.21365 293.33734
287.0 0.003484 293.19150 293.32639
288.0 0.003472 293.17041 293.31842
322.0 0.003106 293.15045 293.31412
301.0 0.003322 293.13153 293.31451
288.0 0.003472 293.11368 293.32166
301.0 0.003322 293.09689 293.33887
302.0 0.003311 293.08112 293.37161
291.0 0.003436 293.06635 293.42813
285.0 0.00351 293.05258 293.52045
310.0 0.003226 293.03979 293.66467
268.0 0.00373 293.02795 293.88028
285.0 0.00351 293.01706 294.18851
304.0 0.003289 293.00708 294.60858
275.0 0.00364 292.99802 295.15225
303.0 0.003300 292.98984 295.81900
299.0 0.003344 292.98251 296.58960
347.0 0.002882 292.97601 297.42383
303.0 0.003300 292.97040 298.25845
291.0 0.003436 292.96555 299.01019
294.0 0.003401 292.96152 299.58627
350.0 0.002857 292.95822 299.90714
311.0 0.003215 292.95569 299.94144
317.0 0.003155 292.95389 299.72491
312.0 0.003205 292.95282 299.34341
312.0 0.003205 292.95242 298.89520
293.0 0.003413 292.95270 298.46097
296.0 0.003378 292.95361 298.08914
292.0 0.003425 292.95514 297.79297
280.0 0.00357 292.95731 297.55206
300.0 0.003333 292.96005 297.32254
260.0 0.00385 292.96335 297.05515
294.0 0.003401 292.96722 296.71881
330.0 0.003030 292.97159 296.31287
321.0 0.003115 292.97644 295.86090
284.0 0.00352 292.98181 295.39587
296.0 0.003378 292.98761 294.94867
297.0 0.003367 292.99387 294.54373
285.0 0.00351 293.00055 294.19675
289.0 0.003460 293.00757 293.91476
242.0 0.00413 293.01501 293.69656
306.0 0.003268 293.02280 293.53564
310.0 0.003226 293.03091 293.42188
278.0 0.00360 293.03931 293.34470
282.0 0.00355 293.04800 293.29477
294.0 0.003401 293.05695 293.26285
302.0 0.003311 293.06616 293.24307
278.0 0.00360 293.07556 293.23129
329.0 0.003040 293.08517 293.22476
279.0 0.00358 293.09497 293.22357
297.0 0.003367 293.10492 293.22287
289.0 0.003460 293.11496 293.22379
318.0 0.003145 293.12515 293.22604
298.0 0.003356 293.13541 293.22934
223.0 0.00448 293.14572 293.23337
295.0 0.003390 293.15610 293.23822
270.0 0.00370 293.16647 293.24350
321.0 0.003115 293.17685 293.24945
272.0 0.00368 293.18723 293.25568
288.0 0.003472 293.19754 293.26230
317.0 0.003155 293.20779 293.26913
289.0 0.003460 293.21793 293.27625
281.0 0.00356 293.22800 293.28339
309.0 0.003236 293.23792 293.29074
308.0 0.003247 293.24768 293.29816
294.0 0.003401 293.25726 293.30554
274.0 0.00365 293.26666 293.31290
279.0 0.00358 293.27585 293.32025
285.0 0.00351 293.28479 293.32751
300.0 0.003333 293.29349 293.33463
296.0 0.003378 293.30188 293.34164
305.0 0.003279 293.31000 293.34842
295.0 0.003390 293.31781 293.35495
282.0 0.00355 293.32526 293.36127
294.0 0.003401 293.33234 293.36731
293.0 0.003413 293.33908 293.37305
297.0 0.003367 293.34540 293.37857
314.0 0.003185 293.35132 293.38367
297.0 0.003367 293.35678 293.39548
308.0 0.003247 293.36179 293.39999
294.0 0.003401 293.36633 293.40414
292.0 0.003425 293.37039 293.40775
250.0 0.00400 293.37393 293.41092
272.0 0.00368 293.37695 293.41370
316.0 0.003165 293.37943 293.41589
287.0 0.003484 293.38132 293.41772
298.0 0.003356 293.38266 293.41891
294.0 0.003401 293.38336 293.41962
303.0 0.003300 293.38348 293.41974
289.0 0.003460 293.38297 293.42288
302.0 0.003311 293.38177 293.42188
275.0 0.00364 293.37994 293.42026
300.0 0.003333 293.37741 293.41806
307.0 0.003257 293.37421 293.41531
284.0 0.00352 293.37027 293.41177
304.0 0.003289 293.36560 293.40768
300.0 0.003333 293.36020 293.40286
326.0 0.003067 293.35406 293.39746
296.0 0.003378 293.34714 293.39133
309.0 0.003236 293.33942 293.38446
290.0 0.003448 293.33090 293.38046
302.0 0.003311 293.32159 293.37231
313.0 0.003195 293.31146 293.36343
277.0 0.00361 293.30048 293.35394
284.0 0.00352 293.28864 293.34753
253.0 0.00395 293.27597 293.33676
282.0 0.00355 293.26239 293.32529
298.0 0.003356 293.24792 293.31326
284.0 0.00352 293.23260 293.30081
312.0 0.003205 293.21634 293.28809
315.0 0.003175 293.19919 293.27072
259.0 0.00386 293.18109 293.25888
314.0 0.003185 293.16205 293.24756
299.0 0.003344 293.14206 293.23807
302.0 0.003311 293.12115 293.23126
302.0 0.003311 293.09924 293.22964
313.0 0.003195 293.07642 293.23029
286.0 0.003497 293.05255 293.23557
291.0 0.003436 293.02771 293.24564
274.0 0.00365 293.00189 293.25974
266.0 0.00376 292.97510 293.27414
279.0 0.00358 292.94727 293.29074
304.0 0.003289 292.91843 293.30603
288.0 0.003472 292.88855 293.31671
307.0 0.003257 292.85770 293.32135
283.0 0.00353 292.82578 293.32150
251.0 0.00398 292.79285 293.32159
306.0 0.003268 292.75888 293.32944
271.0 0.00369 292.72385 293.35397
302.0 0.003311 292.68781 293.40366
289.0 0.003460 292.65070 293.48544
292.0 0.003425 292.61255 293.60236
283.0 0.00353 292.57336 293.75281
307.0 0.003257 292.53308 293.92847
301.0 0.003322 292.49179 294.11557
275.0 0.00364 292.44943 294.29492
292.0 0.003425 292.40601 294.44330
289.0 0.003460 292.36154 294.53723
327.0 0.003058 292.31601 294.55807
290.0 0.003448 292.26944 294.50079
286.0 0.003497 292.22177 294.37735
294.0 0.003401 292.17313 294.21191
278.0 0.00360 292.12338 294.03043
328.0 0.003049 292.07257 293.85452
286.0 0.003497 292.02075 293.69705
289.0 0.003460 291.96790 293.56152
304.0 0.003289 291.91397 293.44318
285.0 0.00351 291.85904 293.33002
298.0 0.003356 291.80304 293.20831
261.0 0.00383 291.74606 293.06750
312.0 0.003205 291.68802 292.90491
300.0 0.003333 291.62900 292.72540
281.0 0.00356 291.56891 292.53754
316.0 0.003165 291.50784 292.35052
301.0 0.003322 291.44580 292.17194
285.0 0.00351 291.38272 292.00699
300.0 0.003333 291.31870 291.85883
268.0 0.00373 291.25366 291.72803
289.0 0.003460 291.18768 291.61356
275.0 0.00364 291.12073 291.51373
313.0 0.003195 291.05283 291.42587
256.0 0.00391 290.98398 291.34808
284.0 0.00352 290.91415 291.27866
295.0 0.003390 290.84348 291.21674
287.0 0.003484 290.77182 291.16217
274.0 0.00365 290.69931 291.11652
286.0 0.003497 290.62585 291.08282
305.0 0.003279 290.55151 291.06674
287.0 0.003484 290.47632 291.07736
284.0 0.00352 290.40024 291.12787
328.0 0.003049 290.32333 291.23672
250.0 0.00400 290.24554 291.42657
314.0 0.003185 290.16696 291.72424
292.0 0.003425 290.08755 292.15588
306.0 0.003268 290.00735 292.74380
310.0 0.003226 289.92633 293.49881
306.0 0.003268 289.84451 294.41376
310.0 0.003226 289.76199 295.45895
289.0 0.003460 289.67868 296.57751
283.0 0.00353 289.59467 297.68518
340.0 0.002941 289.50986 298.67477
264.0 0.00379 289.42441 299.42661
292.0 0.003425 289.33823 299.83728
323.0 0.003096 289.25137 299.85898
262.0 0.00382 289.16388 299.53369
287.0 0.003484 289.07568 298.95352
300.0 0.003333 288.98691 298.25369
304.0 0.003289 288.89749 297.54922
284.0 0.00352 288.80746 296.92047
311.0 0.003215 288.71689 296.40720
318.0 0.003145 288.62570 296.00793
331.0 0.003021 288.53397 295.68777
271.0 0.00369 288.44171 295.40259
309.0 0.003236 288.34891 295.08832
290.0 0.003448 288.25562 294.74747
296.0 0.003378 288.16183 294.39731
311.0 0.003215 288.06760 294.09354
286.0 0.003497 287.97287 293.89987
286.0 0.003497 287.87772 293.86719
292.0 0.003425 287.78220 294.02560
295.0 0.003390 287.68622 294.37869
297.0 0.003367 287.58987 294.89883
321.0 0.003115 287.49313 295.52753
330.0 0.003030 287.39606 296.18433
311.0 0.003215 287.29871 296.76385
325.0 0.003077 287.20099 297.18820
313.0 0.003195 287.10300 297.39371
266.0 0.00376 287.00470 297.36066
297.0 0.003367 286.90613 297.09750
293.0 0.003413 286.80737 296.64606
298.0 0.003356 286.70834 296.07538
306.0 0.003268 286.60913 295.46262
291.0 0.003436 286.50970 294.86862
317.0 0.003155 286.41010 294.32431
290.0 0.003448 286.31039 293.82996
306.0 0.003268 286.21051 293.36224
327.0 0.003058 286.11053 292.88931
293.0 0.003413 286.01044 292.38040
299.0 0.003344 285.91025 291.81244
263.0 0.00380 285.81003 291.17664
283.0 0.00353 285.70972 290.48337
305.0 0.003279 285.60941 289.76120
301.0 0.003322 285.50906 289.04471
293.0 0.003413 285.40875 288.36578
280.0 0.00357 285.30841 287.74750
289.0 0.003460 285.20810 287.20309
296.0 0.003378 285.10791 286.73660
331.0 0.003021 285.00772 286.34390
280.0 0.00357 284.90768 286.01556
292.0 0.003425 284.80771 285.73962
292.0 0.003425 284.70789 285.50406
253.0 0.00395 284.60812 285.29846
292.0 0.003425 284.50858 285.11520
304.0 0.003289 284.40915 284.94855
290.0 0.003448 284.30994 284.79483
320.0 0.003125 284.21091 284.65094
267.0 0.00375 284.11206 284.51529
263.0 0.00380 284.01349 284.38678
256.0 0.00391 283.91513 284.26245
275.0 0.00364 283.81705 284.14517
279.0 0.00358 283.71921 284.03232
284.0 0.00352 283.62167 283.92316
343.0 0.002915 283.52438 283.81711
307.0 0.003257 283.42743 283.71350
314.0 0.003185 283.33081 283.61212
268.0 0.00373 283.23450 283.51254
279.0 0.00358 283.13858 283.41492
306.0 0.003268 283.04294 283.31866
275.0 0.00364 282.94769 283.22415
281.0 0.00356 282.85287 283.13168
278.0 0.00360 282.75839 283.04105
259.0 0.00386 282.66437 282.95261
292.0 0.003425 282.57071 282.86670
307.0 0.003257 282.47748 282.78369
272.0 0.00368 282.38470 282.70410
294.0 0.003401 282.29236 282.62793
278.0 0.00360 282.20047 282.55533
287.0 0.003484 282.10904 282.48608
293.0 0.003413 282.01804 282.41968
275.0 0.00364 281.92755 282.35538
269.0 0.00372 281.83752 282.29193
293.0 0.003413 281.74805 282.22803
278.0 0.00360 281.65900 282.16248
325.0 0.003077 281.57047 282.09439
285.0 0.00351 281.48245 282.02402
297.0 0.003367 281.39496 281.95236
281.0 0.00356 281.30801 281.88147
270.0 0.00370 281.22153 281.81348
277.0 0.00361 281.13562 281.75064
269.0 0.00372 281.05023 281.69498
319.0 0.003135 280.96536 281.64914
289.0 0.003460 280.88107 281.61948
279.0 0.00358 280.79730 281.60428
303.0 0.003300 280.71408 281.61359
300.0 0.003333 280.63141 281.65768
282.0 0.00355 280.54929 281.75070
332.0 0.003012 280.46771 281.91089
315.0 0.003175 280.38669 282.15982
281.0 0.00356 280.30621 282.52005
271.0 0.00369 280.22632 283.01257
283.0 0.00353 280.14691 283.65448
267.0 0.00375 280.06812 284.45425
244.0 0.00410 279.98984 285.41336
278.0 0.00360 279.91211 286.51703
304.0 0.003289 279.83493 287.74478
278.0 0.00360 279.75830 289.06586
285.0 0.00351 279.68219 290.43445
276.0 0.00362 279.60663 291.83264
297.0 0.003367 279.53162 293.24100
272.0 0.00368 279.45709 294.68103
317.0 0.003155 279.38315 296.19669
276.0 0.00362 279.30966 297.81787
321.0 0.003115 279.23669 299.52957
307.0 0.003257 279.16425 301.25104
338.0 0.002959 279.09229 302.83685
278.0 0.00360 279.02084 304.10007
270.0 0.00370 278.94986 304.85440
331.0 0.003021 278.87936 304.97009
346.0 0.002890 278.80933 304.42844
297.0 0.003367 278.73978 303.31238
318.0 0.003145 278.67065 301.79538
309.0 0.003236 278.60196 300.08820
293.0 0.003413 278.53372 298.38068
312.0 0.003205 278.46588 296.80582
272.0 0.00368 278.39850 295.42258
277.0 0.00361 278.33148 294.21732
260.0 0.00385 278.26489 293.12204
284.0 0.00352 278.19864 292.04404
286.0 0.003497 278.13278 290.89981
249.0 0.00402 278.06726 289.65509
267.0 0.00375 278.00211 288.31042
272.0 0.00368 277.93726 286.90732
255.0 0.00392 277.87274 285.50052
291.0 0.003436 277.80853 284.15741
289.0 0.003460 277.74460 282.92377
257.0 0.00389 277.68094 281.83249
281.0 0.00356 277.61758 280.90131
236.0 0.00424 277.55441 280.13702
276.0 0.00362 277.49152 279.51810
277.0 0.00361 277.42883 279.02960
277.0 0.00361 277.36633 278.65173
280.0 0.00357 277.30408 278.35962
257.0 0.00389 277.24194 278.13135
284.0 0.00352 277.17996 277.94812
295.0 0.003390 277.11813 277.79962
292.0 0.003425 277.05643 277.67389
262.0 0.00382 276.99484 277.56451
296.0 0.003378 276.93332 277.46710
283.0 0.00353 276.87186 277.37955
243.0 0.00412 276.81049 277.30417
296.0 0.003378 276.74915 277.23517
269.0 0.00372 276.68784 277.17661
275.0 0.00364 276.62650 277.12985
284.0 0.00352 276.56516 277.09604
321.0 0.003115 276.50381 277.07614
285.0 0.00351 276.44238 277.07004
302.0 0.003311 276.38092 277.07635
253.0 0.00395 276.31931 277.09192
279.0 0.00358 276.25763 277.11203
249.0 0.00402 276.19586 277.13004
255.0 0.00392 276.13391 277.13815
276.0 0.00362 276.07181 277.12796
278.0 0.00360 276.00952 277.09268
251.0 0.00398 275.94705 277.02933
253.0 0.00395 275.88437 276.94080
270.0 0.00370 275.82144 276.83426
244.0 0.00410 275.75830 276.71875
290.0 0.003448 275.69485 276.60233
271.0 0.00369 275.63113 276.49088
267.0 0.00375 275.56711 276.38754
266.0 0.00376 275.50275 276.29272
262.0 0.00382 275.43811 276.20441
308.0 0.003247 275.37302 276.11813
255.0 0.00392 275.30762 276.02963
271.0 0.00369 275.24176 275.93546
292.0 0.003425 275.17554 275.83493
257.0 0.00389 275.10892 275.72992
292.0 0.003425 275.04181 275.62390
298.0 0.003356 274.97424 275.52173
273.0 0.00366 274.90619 275.42816
288.0 0.003472 274.83765 275.34930
264.0 0.00379 274.76865 275.29144
276.0 0.00362 274.69904 275.26154
273.0 0.00366 274.62897 275.26770
283.0 0.00353 274.55823 275.31830
282.0 0.00355 274.48700 275.42114
302.0 0.003311 274.41522 275.58252
286.0 0.003497 274.34274 275.80548
251.0 0.00398 274.26971 276.08737
285.0 0.00351 274.19601 276.41925
279.0 0.00358 274.12167 276.78351
272.0 0.00368 274.04675 277.15448
313.0 0.003195 273.97107 277.49936
286.0 0.003497 273.89474 277.77884
300.0 0.003333 273.81769 277.95486
287.0 0.003484 273.73993 277.99930
290.0 0.003448 273.66156 277.90686
289.0 0.003460 273.58231 277.69778
283.0 0.00353 273.50241 277.41046
285.0 0.00351 273.42169 277.08719
263.0 0.00380 273.34027 276.76471
293.0 0.003413 273.25812 276.46854
308.0 0.003247 273.17511 276.21008
266.0 0.00376 273.09134 275.98901
328.0 0.003049 273.00674 275.79230
278.0 0.00360 272.92139 275.59937
272.0 0.00368 272.83530 275.38818
263.0 0.00380 272.74826 275.14285
283.0 0.00353 272.66049 274.86020
285.0 0.00351 272.57181 274.54724
279.0 0.00358 272.48236 274.21725
299.0 0.003344 272.39215 273.88510
297.0 0.003367 272.30096 273.55685
249.0 0.00402 272.20905 273.25504
284.0 0.00352 272.11615 272.97968
304.0 0.003289 272.02252 272.73462
294.0 0.003401 271.92807 272.51965
274.0 0.00365 271.83267 272.33270
297.0 0.003367 271.73651 272.17029
287.0 0.003484 271.63937 272.02798
285.0 0.00351 271.54150 271.89316
297.0 0.003367 271.44281 271.78040
269.0 0.00372 271.34320 271.67163
261.0 0.00383 271.24283 271.57669
313.0 0.003195 271.14151 271.49536
265.0 0.00377 271.03940 271.42755
275.0 0.00364 270.93652 271.37823
262.0 0.00382 270.83273 271.35474
271.0 0.00369 270.72821 271.36740
263.0 0.00380 270.62280 271.42902
289.0 0.003460 270.51657 271.55392
292.0 0.003425 270.40970 271.75204
291.0 0.003436 270.30182 272.04538
274.0 0.00365 270.19333 272.43298
257.0 0.00389 270.08395 272.92166
245.0 0.00408 269.97382 273.49573
270.0 0.00370 269.86310 274.13010
268.0 0.00373 269.75140 274.78757
258.0 0.00388 269.63916 275.41513
263.0 0.00380 269.52606 275.95135
270.0 0.00370 269.41232 276.33029
269.0 0.00372 269.29800 276.50272
286.0 0.003497 269.18283 276.43845
284.0 0.00352 269.06708 276.16190
259.0 0.00386 268.95062 275.72852
267.0 0.00375 268.83356 275.20926
292.0 0.003425 268.71600 274.67059
269.0 0.00372 268.59769 274.16153
286.0 0.003497 268.47885 273.71265
277.0 0.00361 268.35941 273.33118
276.0 0.00362 268.23944 273.00458
245.0 0.00408 268.11905 272.70407
255.0 0.00392 267.99802 272.39175
250.0 0.00400 267.87656 272.03760
291.0 0.003436 267.75455 271.62039
288.0 0.003472 267.63214 271.14603
271.0 0.00369 267.50943 270.63263
288.0 0.003472 267.38617 270.10269
254.0 0.00394 267.26257 269.58029
258.0 0.00388 267.13855 269.08350
273.0 0.00366 267.01422 268.62686
249.0 0.00402 266.88971 268.21808
253.0 0.00395 266.76474 267.85837
271.0 0.00369 266.63959 267.54599
272.0 0.00368 266.51410 267.27451
266.0 0.00376 266.38846 267.03662
235.0 0.00426 266.26273 266.82379
244.0 0.00410 266.13669 266.63034
287.0 0.003484 266.01056 266.45071
265.0 0.00377 265.88425 266.28116
289.0 0.003460 265.75787 266.11963
283.0 0.00353 265.63159 265.96463
300.0 0.003333 265.50507 265.81451
238.0 0.00420 265.37863 265.66843
255.0 0.00392 265.25211 265.52536
238.0 0.00420 265.12573 265.38434
277.0 0.00361 264.99948 265.24435
268.0 0.00373 264.87317 265.10391
245.0 0.00408 264.74713 264.96359
262.0 0.00382 264.62106 264.82251
270.0 0.00370 264.49530 264.68121
260.0 0.00385 264.36981 264.54031
298.0 0.003356 264.24438 264.39990
246.0 0.00407 264.11938 264.26093
271.0 0.00369 263.99454 264.12335
262.0 0.00382 263.87003 263.98776
250.0 0.00400 263.74597 263.85413
257.0 0.00389 263.62213 263.72220
239.0 0.00418 263.49884 263.59232
268.0 0.00373 263.37585 263.46399
252.0 0.00397 263.25336 263.33731
267.0 0.00375 263.13144 263.21198
261.0 0.00383 263.00986 263.08765
237.0 0.00422 262.88898 262.96460
268.0 0.00373 262.76852 262.84244
275.0 0.00364 262.64868 262.72125
259.0 0.00386 262.52960 262.60098
252.0 0.00397 262.41092 262.48151
261.0 0.00383 262.29309 262.36295
263.0 0.00380 262.17581 262.24200
249.0 0.00402 262.05930 262.12524
264.0 0.00379 261.94363 262.00940
252.0 0.00397 261.82858 261.89447
250.0 0.00400 261.71439 261.78049
257.0 0.00389 261.60089 261.66748
248.0 0.00403 261.48831 261.55542
307.0 0.003257 261.37668 261.44458
287.0 0.003484 261.26578 261.33463
261.0 0.00383 261.15582 261.22586
272.0 0.00368 261.04672 261.11810
252.0 0.00397 260.93860 261.00998
249.0 0.00402 260.83154 260.90482
263.0 0.00380 260.72531 260.80072
258.0 0.00388 260.62018 260.69788
287.0 0.003484 260.51593 260.59641
273.0 0.00366 260.41278 260.49631
252.0 0.00397 260.31076 260.39780
253.0 0.00395 260.20972 260.30063
267.0 0.00375 260.10977 260.20505
264.0 0.00379 260.01086 260.11099
253.0 0.00395 259.91309 260.01889
283.0 0.00353 259.81656 259.92877
263.0 0.00380 259.72101 259.84067
247.0 0.00405 259.62668 259.75500
290.0 0.003448 259.53345 259.67236
276.0 0.00362 259.44141 259.59357
269.0 0.00372 259.35065 259.51974
258.0 0.00388 259.26093 259.45645
280.0 0.00357 259.17249 259.39941
276.0 0.00362 259.08517 259.35614
265.0 0.00377 258.99911 259.33203
262.0 0.00382 258.91437 259.33380
261.0 0.00383 258.83072 259.36963
263.0 0.00380 258.74835 259.44843
250.0 0.00400 258.66718 259.57895
267.0 0.00375 258.58725 259.76859
266.0 0.00376 258.50867 260.02109
261.0 0.00383 258.43118 260.33615
267.0 0.00375 258.35501 260.70715
270.0 0.00370 258.28003 261.11880
263.0 0.00380 258.20633 261.54526
260.0 0.00385 258.13388 261.95721
262.0 0.00382 258.06262 262.31860
261.0 0.00383 257.99265 262.58905
255.0 0.00392 257.92383 262.73508
261.0 0.00383 257.85629 262.73309
251.0 0.00398 257.79001 262.60184
238.0 0.00420 257.72485 262.36444
281.0 0.00356 257.66098 262.06262
245.0 0.00408 257.59827 261.73746
266.0 0.00376 257.53674 261.42422
289.0 0.003460 257.47644 261.14368
279.0 0.00358 257.41727 260.90561
242.0 0.00413 257.35931 260.70743
247.0 0.00405 257.30246 260.53479
248.0 0.00403 257.24677 260.36649
263.0 0.00380 257.19226 260.17987
279.0 0.00358 257.13879 259.95673
230.0 0.00435 257.08652 259.69415
249.0 0.00402 257.03525 259.39639
274.0 0.00365 256.98508 259.07675
237.0 0.00422 256.93604 258.75049
266.0 0.00376 256.88797 258.43103
268.0 0.00373 256.84097 258.13046
264.0 0.00379 256.79495 257.85641
280.0 0.00357 256.74997 257.61380
252.0 0.00397 256.70599 257.40411
265.0 0.00377 256.66293 257.22583
247.0 0.00405 256.62085 257.07626
257.0 0.00389 256.57968 256.95203
239.0 0.00418 256.53940 256.84720
251.0 0.00398 256.50009 256.75873
259.0 0.00386 256.46158 256.68286
278.0 0.00360 256.42395 256.61670
238.0 0.00420 256.38715 256.55804
292.0 0.003425 256.35117 256.50497
233.0 0.00429 256.31604 256.45651
254.0 0.00394 256.28159 256.41141
247.0 0.00405 256.24796 256.37143
252.0 0.00397 256.21503 256.33173
258.0 0.00388 256.18283 256.29410
267.0 0.00375 256.15137 256.25830
265.0 0.00377 256.12051 256.22415
245.0 0.00408 256.09036 256.19165
269.0 0.00372 256.06082 256.16052
252.0 0.00397 256.03189 256.13107
245.0 0.00408 256.00357 256.10321
234.0 0.00427 255.97581 256.07687
291.0 0.003436 255.94862 256.05249
288.0 0.003472 255.92195 256.02979
281.0 0.00356 255.89580 256.00885
233.0 0.00429 255.87016 255.99089
259.0 0.00386 255.84499 255.97330
262.0 0.00382 255.82027 255.95691
244.0 0.00410 255.79597 255.94136
241.0 0.00415 255.77213 255.92616
254.0 0.00394 255.74869 255.91058
282.0 0.00355 255.72562 255.89410
240.0 0.00417 255.70291 255.87613
264.0 0.00379 255.68056 255.85652
250.0 0.00400 255.65854 255.83539
258.0 0.00388 255.63686 255.81329
234.0 0.00427 255.61546 255.79085
267.0 0.00375 255.59438 255.76880
247.0 0.00405 255.57352 255.74762
252.0 0.00397 255.55295 255.72778
265.0 0.00377 255.53262 255.70950
235.0 0.00426 255.51251 255.69281
257.0 0.00389 255.49263 255.67770
250.0 0.00400 255.47293 255.66408
263.0 0.00380 255.45343 255.65193
267.0 0.00375 255.43411 255.64168
252.0 0.00397 255.41495 255.63405
236.0 0.00424 255.39597 255.63052
264.0 0.00379 255.37709 255.63342
257.0 0.00389 255.35835 255.64590
277.0 0.00361 255.33974 255.67201
249.0 0.00402 255.32123 255.71709
256.0 0.00391 255.30284 255.78716
258.0 0.00388 255.28452 255.88910
275.0 0.00364 255.26627 256.02969
265.0 0.00377 255.24812 256.21463
293.0 0.003413 255.22998 256.44843
280.0 0.00357 255.21193 256.73138
242.0 0.00413 255.19391 257.06067
257.0 0.00389 255.17592 257.42731
253.0 0.00395 255.15796 257.81720
255.0 0.00392 255.13998 258.21179
234.0 0.00427 255.12201 258.58618
266.0 0.00376 255.10405 258.91412
252.0 0.00397 255.08606 259.16916
250.0 0.00400 255.06804 259.33340
262.0 0.00382 255.04997 259.40408
228.0 0.00439 255.03185 259.39529
269.0 0.00372 255.01366 259.33374
283.0 0.00353 254.99539 259.24954
243.0 0.00412 254.97705 259.16858
231.0 0.00433 254.95859 259.10739
278.0 0.00360 254.94000 259.07187
261.0 0.00383 254.92126 259.05661
279.0 0.00358 254.90237 259.04599
281.0 0.00356 254.88335 259.01770
271.0 0.00369 254.86409 258.94809
266.0 0.00376 254.84464 258.81943
243.0 0.00412 254.82492 258.62543
287.0 0.003484 254.80496 258.37344
267.0 0.00375 254.78474 258.08014
253.0 0.00395 254.76419 257.76584
244.0 0.00410 254.74332 257.45093
258.0 0.00388 254.72206 257.14664
254.0 0.00394 254.70041 256.87213
249.0 0.00402 254.67834 256.62796
252.0 0.00397 254.65581 256.41309
243.0 0.00412 254.63277 256.22311
279.0 0.00358 254.60916 256.05096
251.0 0.00398 254.58499 255.89067
252.0 0.00397 254.56021 255.73842
254.0 0.00394 254.53473 255.59309
260.0 0.00385 254.50854 255.45630
239.0 0.00418 254.48157 255.33018
269.0 0.00372 254.45380 255.21869
280.0 0.00357 254.42517 255.12326
245.0 0.00408 254.39557 255.05200
262.0 0.00382 254.36501 255.00710
232.0 0.00431 254.33334 254.99252
280.0 0.00357 254.30060 255.01186
253.0 0.00395 254.26669 255.06761
244.0 0.00410 254.23149 255.16110
237.0 0.00422 254.19501 255.29132
242.0 0.00413 254.15709 255.45493
293.0 0.003413 254.11774 255.64560
260.0 0.00385 254.07686 255.85236
254.0 0.00394 254.03432 256.06259
248.0 0.00403 253.99013 256.25949
264.0 0.00379 253.94412 256.42429
269.0 0.00372 253.89629 256.53802
251.0 0.00398 253.84654 256.58563
260.0 0.00385 253.79472 256.56076
265.0 0.00377 253.74086 256.46866
234.0 0.00427 253.68478 256.32474
261.0 0.00383 253.62648 256.15018
227.0 0.00441 253.56589 255.96687
226.0 0.00442 253.50279 255.79359
272.0 0.00368 253.43732 255.64597
247.0 0.00405 253.36920 255.53310
259.0 0.00386 253.29851 255.46036
260.0 0.00385 253.22520 255.42752
251.0 0.00398 253.14906 255.43036
272.0 0.00368 253.07022 255.46170
259.0 0.00386 252.98846 255.51390
267.0 0.00375 252.90387 255.58052
266.0 0.00376 252.81648 255.65703
262.0 0.00382 252.72607 255.73965
254.0 0.00394 252.63281 255.82179
267.0 0.00375 252.53656 255.89372
263.0 0.00380 252.43747 255.94110
260.0 0.00385 252.33563 255.94652
246.0 0.00407 252.23085 255.89238
258.0 0.00388 252.12343 255.76634
258.0 0.00388 252.01328 255.56651
278.0 0.00360 251.90065 255.30359
243.0 0.00412 251.78577 254.99760
260.0 0.00385 251.66850 254.67072
258.0 0.00388 251.54929 254.34459
247.0 0.00405 251.42819 254.03499
241.0 0.00415 251.30557 253.75211
215.0 0.00465 251.18185 253.49956
245.0 0.00408 251.05702 253.27377
273.0 0.00366 250.93173 253.06670
249.0 0.00402 250.80623 252.86565
281.0 0.00356 250.68109 252.65759
255.0 0.00392 250.55695 252.43207
262.0 0.00382 250.43404 252.18387
282.0 0.00355 250.31328 251.91541
254.0 0.00394 250.19521 251.63287
233.0 0.00429 250.08067 251.34543
286.0 0.003497 249.97063 251.06236
235.0 0.00426 249.86569 250.79108
270.0 0.00370 249.76707 250.53894
270.0 0.00370 249.67577 250.31061
214.0 0.00467 249.59300 250.10973
238.0 0.00420 249.52011 249.93820
228.0 0.00439 249.45828 249.79622
252.0 0.00397 249.40918 249.68375
240.0 0.00417 249.37431 249.59984
266.0 0.00376 249.35548 249.54379
235.0 0.00426 249.35452 249.51488
274.0 0.00365 249.37343 249.51289
264.0 0.00379 249.41437 249.53813
269.0 0.00372 249.47971 249.59146
235.0 0.00426 249.57182 249.67427
242.0 0.00413 249.69334 249.78830
224.0 0.00446 249.84732 249.93614
245.0 0.00408 250.03645 250.12003
244.0 0.00410 250.26437 250.34343
290.0 0.003448 250.53429 250.60620
273.0 . . .
loop_
_refln_index_h
_refln_index_k
_refln_index_l
_pd_refln_wavelength_id
_refln_observed_status
_refln_F_squared_meas
_refln_F_squared_calc
_refln_phase_calc
_refln_d_spacing
_gsas_i100_meas
0 0 1 1 o 418.595 427.170 0.00 7.42355 34.39
0 0 1 2 o 412.006 427.170 0.00 7.42355 16.86
1 0 1 1 o 165.814 165.003 180.00 4.79435 31.77
1 0 1 2 o 168.131 165.003 180.00 4.79435 16.02
1 1 0 1 o 95.590 84.013 180.00 4.44034 7.30
1 1 0 2 o 97.125 84.013 180.00 4.44034 3.69
1 1 1 1 o 902.014 895.426 0.00 3.81068 100.00
1 1 1 2 o 912.232 895.426 0.00 3.81068 50.28
0 0 2 1 o 702.482 607.711 0.00 3.71178 13.42
0 0 2 2 o 625.493 607.711 0.00 3.71178 5.98
1 0 2 1 o 64.222 58.430 180.00 3.19532 4.20
1 0 2 2 o 70.386 58.430 180.00 3.19532 2.29
2 0 0 1 o 2264.985 2203.715 180.00 3.13980 58.75
2 0 0 2 o 2188.927 2203.715 180.00 3.13980 28.26
2 0 1 1 o 276.264 253.114 180.00 2.89178 20.35
2 0 1 2 o 256.832 253.114 180.00 2.89178 9.45
1 1 2 1 o 339.570 330.513 0.00 2.84784 16.86
1 1 2 2 o 324.254 330.513 0.00 2.84784 8.03
2 1 1 1 o 27.082 35.777 0.00 2.62665 2.74
2 1 1 2 o 27.090 35.777 0.00 2.62665 1.36
0 0 3 1 o 665.462 372.574 0.00 2.47452 5.16
0 0 3 2 o 586.555 372.574 0.00 2.47452 2.27
2 0 2 1 o 231.237 259.461 180.00 2.39718 10.53
2 0 2 2 o 202.514 259.461 180.00 2.39718 4.63
1 0 3 1 o 24.013 9.189 180.00 2.30222 0.72
1 0 3 2 o 30.231 9.189 180.00 2.30222 0.45
2 1 2 1 o 57.759 50.731 0.00 2.23954 3.78
2 1 2 2 o 52.564 50.731 0.00 2.23954 1.71
2 2 0 1 o 751.289 814.789 0.00 2.22017 14.27
2 2 0 2 o 711.287 814.789 0.00 2.22017 6.73
1 1 3 1 o 87.095 117.851 0.00 2.16153 2.49
1 1 3 2 o 92.320 117.851 0.00 2.16153 1.30
2 2 1 1 o 227.100 154.827 0.00 2.12708 7.89
2 2 1 2 o 196.882 154.827 0.00 2.12708 3.42
3 0 1 1 o -0.155 9.426 0.00 2.01464 0.00
3 0 1 2 o -0.155 9.426 0.00 2.01464 0.00
3 1 0 1 o 15.575 0.136 0.00 1.98578 0.30
3 1 0 2 o 14.625 0.136 0.00 1.98578 0.14
2 0 3 1 o 200.428 166.844 180.00 1.94349 4.66
2 0 3 2 o 204.780 166.844 180.00 1.94349 2.37
3 1 1 1 o 122.761 119.671 180.00 1.91833 5.76
3 1 1 2 o 112.801 119.671 180.00 1.91833 2.64
2 2 2 1 o 143.584 123.790 0.00 1.90534 3.43
2 2 2 2 o 143.960 123.790 0.00 1.90534 1.71
2 1 3 1 o 4.074 2.547 0.00 1.85661 0.15
0 0 4 1 o 18.900 13.317 0.00 1.85589 0.08
2 1 3 2 o -0.063 2.547 0.00 1.85661 0.00
0 0 4 2 o -2.813 13.317 0.00 1.85589 0.00
3 0 2 1 o 0.979 35.699 0.00 1.82326 0.04
3 0 2 2 o 4.054 35.699 0.00 1.82326 0.06
1 0 4 1 o 11.539 4.679 180.00 1.77979 0.18
1 0 4 2 o 10.198 4.679 180.00 1.77979 0.08
3 1 2 1 o 95.265 72.468 180.00 1.75095 4.13
3 1 2 2 o 97.130 72.468 180.00 1.75095 2.09
1 1 4 1 o 202.036 201.445 0.00 1.71234 3.11
1 1 4 2 o 202.032 201.445 0.00 1.71234 1.55
3 2 1 1 o 3.306 1.157 180.00 1.69561 0.12
3 2 1 2 o 3.307 1.157 180.00 1.69561 0.06
2 2 3 1 o 63.061 81.089 0.00 1.65253 0.94
2 2 3 2 o 55.009 81.089 0.00 1.65253 0.41
3 0 3 1 o 0.953 0.925 0.00 1.59812 0.02
2 0 4 1 o 4.873 5.427 180.00 1.59766 0.08
3 0 3 2 o 0.619 0.925 0.00 1.59812 0.01
2 0 4 2 o 4.256 5.427 180.00 1.59766 0.04
3 2 2 1 o 15.441 29.808 180.00 1.57670 0.48
3 2 2 2 o 21.068 29.808 180.00 1.57670 0.32
4 0 0 1 o 178.569 186.825 0.00 1.56990 0.94
4 0 0 2 o 158.920 186.825 0.00 1.56990 0.42
3 1 3 1 o 57.815 34.005 180.00 1.54875 1.70
2 1 4 1 o 6.249 3.770 0.00 1.54833 0.15
3 1 3 2 o 60.031 34.005 180.00 1.54875 0.88
2 1 4 2 o 6.473 3.770 0.00 1.54833 0.08
4 0 1 1 o 99.271 47.721 0.00 1.53593 1.25
4 0 1 2 o 98.874 47.721 0.00 1.53593 0.62
4 1 1 1 o -0.013 0.423 180.00 1.49195 0.00
4 1 1 2 o 0.268 0.423 180.00 1.49195 0.00
0 0 5 1 o -2.165 18.373 0.00 1.48471 0.00
0 0 5 2 o 82.212 18.373 0.00 1.48471 0.09
3 3 0 1 o 17.450 2.453 0.00 1.48011 0.13
3 3 0 2 o 5.300 2.453 0.00 1.48011 0.02
3 3 1 1 o 19.910 19.869 0.00 1.45154 0.29
3 3 1 2 o 16.195 19.869 0.00 1.45154 0.12
4 0 2 1 o 23.784 36.303 0.00 1.44589 0.36
1 0 5 1 o 4.261 8.091 180.00 1.44487 0.04
4 0 2 2 o 10.277 36.303 0.00 1.44589 0.09
1 0 5 2 o 1.739 8.091 180.00 1.44487 0.01
3 2 3 2 o 0.109 0.140 180.00 1.42424 0.00
2 2 4 2 o 3.154 2.098 0.00 1.42392 0.02
3 2 3 1 o 0.358 0.140 180.00 1.42424 0.01
2 2 4 1 o 5.086 2.098 0.00 1.42392 0.05
4 1 2 1 o 13.860 18.117 180.00 1.40902 0.34
1 1 5 1 o 35.142 44.475 0.00 1.40808 0.34
4 1 2 2 o 19.193 18.117 180.00 1.40902 0.23
1 1 5 2 o 55.213 44.475 0.00 1.40808 0.26
4 2 0 1 o 109.960 83.077 180.00 1.40416 1.06
4 2 0 2 o 131.071 83.077 180.00 1.40416 0.62
3 0 4 1 o 2.473 2.558 0.00 1.38867 0.03
3 0 4 2 o 1.032 2.558 0.00 1.38867 0.01
4 2 1 1 o 73.467 33.585 180.00 1.37970 1.47
4 2 1 2 o 66.441 33.585 180.00 1.37970 0.66
3 3 2 1 o 41.039 20.305 0.00 1.37484 0.48
3 3 2 2 o 40.867 20.305 0.00 1.37484 0.24
3 1 4 1 o 38.856 65.419 180.00 1.35591 0.78
3 1 4 2 o 13.776 65.419 180.00 1.35591 0.16
2 0 5 1 o 3.344 10.038 180.00 1.34221 0.04
2 0 5 2 o -1.253 10.038 180.00 1.34221 0.00
4 0 3 1 o 32.136 22.763 0.00 1.32562 0.38
4 0 3 2 o 41.294 22.763 0.00 1.32562 0.24
4 2 2 1 o 43.896 20.142 180.00 1.31333 0.88
2 1 5 1 o 5.244 2.813 0.00 1.31256 0.08
4 2 2 2 o 22.694 20.142 180.00 1.31333 0.23
2 1 5 2 o 2.074 2.813 0.00 1.31256 0.02
4 1 3 1 o 0.789 0.122 180.00 1.29704 0.02
4 1 3 2 o -0.007 0.122 180.00 1.29704 0.00
3 3 3 1 o 41.037 11.443 0.00 1.27023 0.36
3 2 4 1 o 7.017 2.131 180.00 1.27000 0.10
3 3 3 2 o 7.084 11.443 0.00 1.27023 0.03
3 2 4 2 o 0.829 2.131 180.00 1.27000 0.01
5 0 1 1 o -0.003 0.042 180.00 1.23832 0.00
4 3 1 1 o -0.002 0.332 180.00 1.23832 0.00
0 0 6 1 o -0.220 0.293 0.00 1.23726 0.00
5 1 0 1 o 0.086 0.090 0.00 1.23153 0.00
2 2 5 2 o 4.533 5.595 0.00 1.23417 0.02
4 3 1 2 o -0.002 0.332 180.00 1.23832 0.00
5 0 1 2 o -0.003 0.042 180.00 1.23832 0.00
0 0 6 2 o 0.103 0.293 0.00 1.23726 0.00
2 2 5 1 o 3.519 5.595 0.00 1.23417 0.03
5 1 0 2 o -0.153 0.090 0.00 1.23153 0.00
4 2 3 1 o 14.923 12.215 180.00 1.22124 0.26
4 2 3 2 o 20.544 12.215 180.00 1.22124 0.18
5 1 1 1 o 14.905 7.411 0.00 1.21492 0.20
1 0 6 1 o 34.861 18.918 0.00 1.21392 0.21
5 1 1 2 o 16.216 7.411 0.00 1.21492 0.11
3 0 5 1 o 2.731 1.122 0.00 1.21101 0.02
1 0 6 2 o 46.778 18.918 0.00 1.21392 0.14
3 0 5 2 o 5.085 1.122 0.00 1.21101 0.02
4 0 4 1 o 3.439 0.199 0.00 1.19859 0.03
4 0 4 2 o 3.455 0.199 0.00 1.19859 0.01
1 1 6 1 o 33.124 27.451 0.00 1.19186 0.21
4 3 2 1 o 15.604 12.297 0.00 1.18966 0.26
5 0 2 1 o 9.550 7.524 180.00 1.18966 0.08
3 1 5 1 o 17.073 13.953 180.00 1.18910 0.24
1 1 6 2 o 32.442 27.451 0.00 1.19186 0.10
4 3 2 2 o 0.788 12.297 0.00 1.18966 0.01
5 0 2 2 o 0.475 7.524 180.00 1.18966 0.00
3 1 5 2 o -1.187 13.953 180.00 1.18910 0.00
4 1 4 1 o -0.030 1.190 180.00 1.17733 0.00
4 1 4 2 o 1.213 1.190 180.00 1.17733 0.01
5 1 2 1 o 25.052 5.538 0.00 1.16887 0.39
5 1 2 2 o 40.395 5.538 0.00 1.16887 0.31
3 3 4 1 o 20.499 24.384 0.00 1.15717 0.14
3 3 4 2 o 0.938 24.384 0.00 1.15717 0.01
5 2 1 1 o 0.000 0.094 180.00 1.15197 0.00
2 0 6 1 o -0.179 0.414 180.00 1.15111 0.00
5 2 1 2 o 0.000 0.094 180.00 1.15197 0.00
2 0 6 2 o -0.179 0.414 180.00 1.15111 0.00
2 1 6 1 o 23.717 9.565 180.00 1.13224 0.28
3 2 5 1 o 0.338 0.239 180.00 1.12988 0.00
2 1 6 2 o 13.821 9.565 180.00 1.13224 0.08
3 2 5 2 o 0.310 0.239 180.00 1.12988 0.00
4 3 3 1 o 0.002 0.006 180.00 1.11993 0.00
5 0 3 1 o 0.015 0.079 180.00 1.11993 0.00
4 2 4 1 o -0.067 0.022 180.00 1.11977 0.00
4 3 3 2 o 0.001 0.006 180.00 1.11993 0.00
5 0 3 2 o -0.005 0.079 180.00 1.11993 0.00
4 2 4 2 o -0.067 0.022 180.00 1.11977 0.00
5 2 2 1 o 10.865 6.942 0.00 1.11248 0.15
4 4 0 1 o 19.344 9.660 0.00 1.11009 0.08
5 2 2 2 o 13.032 6.942 0.00 1.11248 0.09
4 4 0 2 o 13.878 9.660 0.00 1.11009 0.03
5 1 3 1 o 2.011 3.752 0.00 1.10253 0.04
5 1 3 2 o 7.409 3.752 0.00 1.10253 0.06
4 4 1 1 o 17.324 9.916 0.00 1.09788 0.14
4 4 1 2 o 27.092 9.916 0.00 1.09788 0.10
