#------------------------------------------------------------------------------
#$Date: 2016-02-14 16:26:36 +0200 (Sun, 14 Feb 2016) $
#$Revision: 176435 $
#$URL: svn://www.crystallography.net/cod/cif/1/51/62/1516213.cif $
#------------------------------------------------------------------------------
#
# This file is available in the Crystallography Open Database (COD),
# http://www.crystallography.net/
#
# All data on this site have been placed in the public domain by the
# contributors.
#
data_1516213
loop_
_publ_author_name
'Migliorati, Valentina'
'Ballirano, Paolo'
'Gontrani, Lorenzo'
'Russina, Olga'
'Caminiti, Ruggero'
_publ_section_title
;
 Crystal polymorphism of propylammonium chloride and structural properties
 of its mixture with water.
;
_journal_issue                   41
_journal_name_full               'The journal of physical chemistry. B'
_journal_page_first              11805
_journal_page_last               11815
_journal_paper_doi               10.1021/jp206831d
_journal_volume                  115
_journal_year                    2011
_chemical_formula_sum            'C3 Cl N'
_chemical_formula_weight         85.49
_chemical_name_systematic        ' ?'
_space_group_IT_number           129
_symmetry_cell_setting           tetragonal
_symmetry_space_group_name_Hall  '-P 4a 2a'
_symmetry_space_group_name_H-M   'P 4/n m m :2'
_audit_creation_date             2011-07-21T08:57
_audit_creation_method           'from EXP file using GSAS2CIF'
_audit_update_record
' 2011-07-21T08:57  Initial CIF as created by GSAS2CIF'
_cell_angle_alpha                90.0
_cell_angle_beta                 90.0
_cell_angle_gamma                90.0
_cell_formula_units_Z            2
_cell_length_a                   6.26923(7)
_cell_length_b                   6.26923
_cell_length_c                   7.41088(18)
_cell_volume                     291.272(8)
_computing_structure_refinement  GSAS
_diffrn_radiation_probe          x-ray
_exptl_absorpt_correction_T_max  0.81792
_exptl_absorpt_correction_T_min  0.81483
_exptl_absorpt_process_details
;   GSAS Absorption/surface roughness correction: function number 0
 Debye-Scherrer absorption correction
Term (= MU.r/wave) =     0.78580E-01
Correction is not refined.
;
_pd_block_id                     2011-07-21T08:57|85|paolo|Bruker_AXS_D8_Advance
_pd_calc_method                  'Rietveld Refinement'
_pd_instr_location               ' ?'
_pd_meas_2theta_range_inc        0.022
_pd_meas_2theta_range_max        89.988
_pd_meas_2theta_range_min        3.0
_pd_meas_number_of_points        3955
_pd_phase_name                   'Propylammonium chloride'
_pd_proc_2theta_range_inc        0.022
_pd_proc_2theta_range_max        89.988
_pd_proc_2theta_range_min        3.0
_pd_proc_info_datetime           2011-07-21T08:57:04
_pd_proc_info_excluded_regions   ' ?'
_pd_proc_ls_background_function
;   GSAS Background function number 1 with 30 terms.
 Shifted Chebyshev function of 1st kind
      1:    520.837     2:   -335.436     3:    31.7266     4:    81.1124    
      5:   -77.1001     6:   0.498761     7:    69.6738     8:   -77.9212    
      9:    35.3872    10:    10.3978    11:   -29.8326    12:    25.1420    
     13:   -5.77489    14:   -8.11626    15:    3.35507    16:   0.606899    
     17:   -2.36048    18:  -0.617681    19:    1.12647    20:  -0.267938    
     21:   -2.55342    22:    1.34522    23:  -0.820109    24:   -2.39411    
     25:    3.23644    26:   -2.19626    27:   -1.15166    28:    1.66075    
     29:   -2.15402    30:    1.59443    
;
_pd_proc_ls_peak_cutoff          0.00100
_pd_proc_ls_profile_function
;
 CW Profile function number 3 with  19 terms
 Pseudovoigt profile coefficients as parameterized in
 P. Thompson, D.E. Cox & J.B. Hastings (1987). J. Appl. Cryst.,20,79-83.
 Asymmetry correction of L.W. Finger, D.E. Cox & A. P. Jephcoat (1994).
 J. Appl. Cryst.,27,892-900.
 Peak tails are ignored  where the intensity is below 0.0010 times the peak
   Aniso. broadening axis   0.0   1.0   0.0
;
_pd_proc_ls_prof_R_factor        0.0432
_pd_proc_ls_prof_wR_expected     0.0407
_pd_proc_ls_prof_wR_factor       0.0573
_pd_proc_number_of_points        3955
_pd_spec_mounting                ' ?'
_refine_ls_goodness_of_fit_all   1.43
_refine_ls_matrix_type           full
_refine_ls_number_parameters     47
_refine_ls_number_restraints     8
_refine_ls_R_Fsqd_factor         0.14371
_refine_ls_shift/su_max          0.08
_refine_ls_shift/su_mean         0.01
_reflns_d_resolution_high        1.096
_reflns_d_resolution_low         7.411
_reflns_limit_h_max              5
_reflns_limit_h_min              0
_reflns_limit_k_max              4
_reflns_limit_k_min              0
_reflns_limit_l_max              6
_reflns_limit_l_min              0
_reflns_number_total             174
_cod_data_source_file            358K.cif
_cod_data_source_block           85_publ
_cod_depositor_comments
;
The following automatic conversions were performed:

'_geom_bond_publ_flag' value 'N' changed to 'n' according to
/usr/data/users/saulius/automatic-downloads/retrospective/ACS/lib/dictionaries/cif_core.dic
dictionary named 'cif_core.dic' version 2.4.2 from 2011-04-26 (24
times).

'_geom_angle_publ_flag' value 'N' changed to 'n' according
to
/usr/data/users/saulius/automatic-downloads/retrospective/ACS/lib/dictionaries/cif_core.dic
dictionary named 'cif_core.dic' version 2.4.2 from 2011-04-26 (68
times).

Automatic conversion script
Id: cif_fix_values 2281 2013-09-26 08:29:07Z andrius 
;
_cod_original_cell_volume        291.272(10)
_cod_original_sg_symbol_H-M      'p 4/n m m'
_cod_original_formula_sum        'C3.00 Cl N'
_cod_database_code               1516213
#BEGIN Tags that were not found in dictionaries:
_gsas_exptl_extinct_corr_t_min   1.00000
_gsas_exptl_extinct_corr_t_max   1.00000
#END Tags that were not found in dictionaries
loop_
_symmetry_equiv_pos_site_id
_symmetry_equiv_pos_as_xyz
1 +x,+y,+z
2 -y+1/2,+x,+z
3 -x+1/2,-y+1/2,+z
4 +y,-x+1/2,+z
5 -x+1/2,+y,+z
6 -y+1/2,-x+1/2,+z
7 +x,-y+1/2,+z
8 +y,+x,+z
-1 -x,-y,-z
-2 +y+1/2,-x,-z
-3 +x+1/2,+y+1/2,-z
-4 -y,+x+1/2,-z
-5 +x+1/2,-y,-z
-6 +y+1/2,+x+1/2,-z
-7 -x,+y+1/2,-z
-8 -y,-x,-z
loop_
_atom_site_type_symbol
_atom_site_label
_atom_site_fract_x
_atom_site_fract_y
_atom_site_fract_z
_atom_site_occupancy
_atom_site_thermal_displace_type
_atom_site_U_iso_or_equiv
_atom_site_symmetry_multiplicity
Cl CL1 0.25 -0.25 0.0 1.0 Uiso 0.1182(9) 2
C C(1) 0.25 0.3328(6) 0.29250(32) 0.25 Uiso 0.0717(16) 8
N N 0.25 0.25 0.10723(28) 1.0 Uiso 0.0717(16) 2
C C(2) 0.25 0.1492(5) 0.43084(28) 0.25 Uiso 0.0717(16) 8
C C(3) 0.25 0.25 0.6226(4) 1.0 Uiso 0.0717(16) 2
loop_
_atom_type_symbol
_atom_type_number_in_cell
_atom_type_scat_dispersion_real
_atom_type_scat_dispersion_imag
_atom_type_scat_Cromer_Mann_a1
_atom_type_scat_Cromer_Mann_a2
_atom_type_scat_Cromer_Mann_a3
_atom_type_scat_Cromer_Mann_a4
_atom_type_scat_Cromer_Mann_b1
_atom_type_scat_Cromer_Mann_b2
_atom_type_scat_Cromer_Mann_b3
_atom_type_scat_Cromer_Mann_b4
_atom_type_scat_Cromer_Mann_c
_atom_type_scat_source
Cl 2.0 0.000 0.000 11.4604 0.01040 7.19640 1.16620 6.25560 18.5194 1.64550
47.7784 -9.5574 International_Tables_Vol_C
C 6.0 0.000 0.000 2.31000 20.8439 1.02000 10.2075 1.58860 0.56870 0.86500
51.6512 0.21560 International_Tables_Vol_C
N 2.0 0.000 0.000 12.2126 0.00570 3.13220 9.89330 2.01250 28.9975 1.16630
0.58260 -11.529 International_Tables_Vol_C
loop_
_diffrn_radiation_wavelength
_diffrn_radiation_wavelength_wt
_diffrn_radiation_type
_diffrn_radiation_wavelength_id
1.540598 1.000 K\a~1~ 1
1.544390 0.500 K\a~2~ 2
loop_
_geom_angle_atom_site_label_1
_geom_angle_atom_site_label_2
_geom_angle_atom_site_label_3
_geom_angle
_geom_angle_site_symmetry_1
_geom_angle_site_symmetry_3
_geom_angle_publ_flag
C(1) C(1) C(1) 45.0 2_555 3_555 n
C(1) C(1) C(1) 90.0 2_555 4_555 n
C(1) C(1) N 75.52(9) 2_555 1_555 n
C(1) C(1) C(2) 58.13(8) 2_555 1_555 n
C(1) C(1) C(2) 93.50(15) 2_555 2_555 n
C(1) C(1) C(2) 94.45(19) 2_555 3_555 n
C(1) C(1) C(2) 51.64(15) 2_555 4_555 n
C(1) C(1) C(1) 45.0 3_555 4_555 n
C(1) C(1) N 69.30(14) 3_555 1_555 n
C(1) C(1) C(2) 41.70(15) 3_555 1_555 n
C(1) C(1) C(2) 66.69(15) 3_555 2_555 n
C(1) C(1) C(2) 96.30(27) 3_555 3_555 n
C(1) C(1) C(2) 66.69(15) 3_555 4_555 n
C(1) C(1) N 75.52(9) 4_555 1_555 n
C(1) C(1) C(2) 58.13(8) 4_555 1_555 n
C(1) C(1) C(2) 51.64(15) 4_555 2_555 n
C(1) C(1) C(2) 94.45(19) 4_555 3_555 n
C(1) C(1) C(2) 93.50(15) 4_555 4_555 n
N C(1) C(2) 110.99(25) 1_555 1_555 n
N C(1) C(2) 126.26(24) 1_555 2_555 n
N C(1) C(2) 165.6(4) 1_555 3_555 n
N C(1) C(2) 126.26(24) 1_555 4_555 n
C(2) C(1) C(2) 35.37(17) 1_555 2_555 n
C(2) C(1) C(2) 54.60(31) 1_555 3_555 n
C(2) C(1) C(2) 35.37(17) 1_555 4_555 n
C(2) C(1) C(2) 42.80(23) 2_555 3_555 n
C(2) C(1) C(2) 57.62(29) 2_555 4_555 n
C(2) C(1) C(2) 42.80(23) 3_555 4_555 n
C(1) N C(1) 28.95(19) 1_555 2_555 n
C(1) N C(1) 41.40(28) 1_555 3_555 n
C(1) N C(1) 28.95(19) 1_555 4_555 n
C(1) N C(1) 28.95(19) 2_555 3_555 n
C(1) N C(1) 41.40(28) 2_555 4_555 n
C(1) N C(1) 28.95(19) 3_555 4_555 n
C(1) C(2) C(1) 28.37(18) 1_555 2_555 n
C(1) C(2) C(1) 42.01(31) 1_555 3_555 n
C(1) C(2) C(1) 28.37(18) 1_555 4_555 n
C(1) C(2) C(2) 58.13(8) 1_555 2_555 n
C(1) C(2) C(2) 41.70(15) 1_555 3_555 n
C(1) C(2) C(2) 58.13(8) 1_555 4_555 n
C(1) C(2) C(3) 107.72(23) 1_555 1_555 n
C(1) C(2) C(1) 33.91(25) 2_555 3_555 n
C(1) C(2) C(1) 46.61(31) 2_555 4_555 n
C(1) C(2) C(2) 86.50(15) 2_555 2_555 n
C(1) C(2) C(2) 61.19(14) 2_555 3_555 n
C(1) C(2) C(2) 51.64(15) 2_555 4_555 n
C(1) C(2) C(3) 121.23(23) 2_555 1_555 n
C(1) C(2) C(1) 33.91(25) 3_555 4_555 n
C(1) C(2) C(2) 85.55(19) 3_555 2_555 n
C(1) C(2) C(2) 83.70(27) 3_555 3_555 n
C(1) C(2) C(2) 85.55(19) 3_555 4_555 n
C(1) C(2) C(3) 149.7(4) 3_555 1_555 n
C(1) C(2) C(2) 51.64(15) 4_555 2_555 n
C(1) C(2) C(2) 61.19(14) 4_555 3_555 n
C(1) C(2) C(2) 86.50(15) 4_555 4_555 n
C(1) C(2) C(3) 121.23(23) 4_555 1_555 n
C(2) C(2) C(2) 45.0 2_555 3_555 n
C(2) C(2) C(2) 90.0 2_555 4_555 n
C(2) C(2) C(3) 73.30(8) 2_555 1_555 n
C(2) C(2) C(2) 45.0 3_555 4_555 n
C(2) C(2) C(3) 66.02(12) 3_555 1_555 n
C(2) C(2) C(3) 73.30(8) 4_555 1_555 n
C(2) C(3) C(2) 33.40(16) 1_555 2_555 n
C(2) C(3) C(2) 47.96(24) 1_555 3_555 n
C(2) C(3) C(2) 33.40(16) 1_555 4_555 n
C(2) C(3) C(2) 33.40(16) 2_555 3_555 n
C(2) C(3) C(2) 47.96(24) 2_555 4_555 n
C(2) C(3) C(2) 33.40(16) 3_555 4_555 n
loop_
_geom_bond_atom_site_label_1
_geom_bond_atom_site_label_2
_geom_bond_distance
_geom_bond_site_symmetry_2
_geom_bond_publ_flag
C(1) C(1) 0.734(5) 2_555 n
C(1) C(1) 1.038(7) 3_555 n
C(1) C(1) 0.734(5) 4_555 n
C(1) N 1.4678(32) 1_555 n
C(1) C(2) 1.541(4) 1_555 n
C(1) C(2) 1.3114(32) 2_555 n
C(1) C(2) 1.0315(32) 3_555 n
C(1) C(2) 1.3114(32) 4_555 n
N C(1) 1.4678(32) 1_555 n
N C(1) 1.4678(32) 2_555 n
N C(1) 1.4678(32) 3_555 n
N C(1) 1.4678(32) 4_555 n
C(2) C(1) 1.541(4) 1_555 n
C(2) C(1) 1.3114(32) 2_555 n
C(2) C(1) 1.0315(32) 3_555 n
C(2) C(1) 1.3114(32) 4_555 n
C(2) C(2) 0.894(5) 2_555 n
C(2) C(2) 1.264(7) 3_555 n
C(2) C(2) 0.894(5) 4_555 n
C(2) C(3) 1.5551(34) 1_555 n
C(3) C(2) 1.5551(34) 1_555 n
C(3) C(2) 1.5551(34) 2_555 n
C(3) C(2) 1.5551(34) 3_555 n
C(3) C(2) 1.5551(34) 4_555 n
loop_
_pd_meas_counts_total
_pd_proc_ls_weight
_pd_proc_intensity_bkg_calc
_pd_calc_intensity_total
21773.0 0.0 -34263960.00000 .
20872.0 0.0 -33397706.00000 .
20210.0 0.0 -32551924.00000 .
19502.0 0.0 -31726120.00000 .
18680.0 0.0 -30919876.00000 .
18235.0 0.0 -30132754.00000 .
17477.0 0.0 -29364356.00000 .
17079.0 0.0 -28614240.00000 .
16393.0 0.0 -27882002.00000 .
15854.0 0.0 -27167262.00000 .
15318.0 0.0 -26469620.00000 .
14688.0 0.0 -25788680.00000 .
14575.0 0.0 -25124092.00000 .
13867.0 0.0 -24475494.00000 .
13487.0 0.0 -23842494.00000 .
12893.0 0.0 -23224772.00000 .
12498.0 0.0 -22621966.00000 .
12289.0 0.0 -22033780.00000 .
11877.0 0.0 -21459836.00000 .
11335.0 0.0 -20899834.00000 .
11194.0 0.0 -20353454.00000 .
11038.0 0.0 -19820388.00000 .
10667.0 0.0 -19300340.00000 .
10372.0 0.0 -18793002.00000 .
10080.0 0.0 -18298096.00000 .
9622.0 0.0 -17815342.00000 .
9366.0 0.0 -17344438.00000 .
9124.0 0.0 -16885140.00000 .
9052.0 0.0 -16437176.00000 .
8763.0 0.0 -16000281.00000 .
8547.0 0.0 -15574201.00000 .
8312.0 0.0 -15158678.00000 .
7941.0 0.0 -14753491.00000 .
8057.0 0.0 -14358386.00000 .
7741.0 0.0 -13973129.00000 .
7664.0 0.0 -13597499.00000 .
7384.0 0.0 -13231262.00000 .
7235.0 0.0 -12874208.00000 .
7041.0 0.0 -12526122.00000 .
6838.0 0.0 -12186792.00000 .
6718.0 0.0 -11856009.00000 .
6678.0 0.0 -11533583.00000 .
6514.0 0.0 -11219313.00000 .
6345.0 0.0 -10913006.00000 .
6231.0 0.0 -10614483.00000 .
6107.0 0.0 -10323545.00000 .
5944.0 0.0 -10040028.00000 .
5838.0 0.0 -9763748.00000 .
5801.0 0.0 -9494531.00000 .
5770.0 0.0 -9232217.00000 .
5495.0 0.0 -8976640.00000 .
5548.0 0.0 -8727631.00000 .
5440.0 0.0 -8485042.00000 .
5319.0 0.0 -8248726.50000 .
5260.0 0.0 -8018518.50000 .
5153.0 0.0 -7794273.50000 .
5147.0 0.0 -7575853.00000 .
4962.0 0.0 -7363126.50000 .
4998.0 0.0 -7155933.50000 .
4924.0 0.0 -6954159.50000 .
4898.0 0.0 -6757664.00000 .
4754.0 0.0 -6566325.50000 .
4649.0 0.0 -6380011.00000 .
4580.0 0.0 -6198602.50000 .
4586.0 0.0 -6021980.50000 .
4414.0 0.0 -5850030.00000 .
4411.0 0.0 -5682629.00000 .
4339.0 0.0 -5519672.50000 .
4282.0 0.0 -5361047.50000 .
4312.0 0.0 -5206655.00000 .
4269.0 0.0 -5056376.50000 .
4196.0 0.0 -4910121.00000 .
4093.0 0.0 -4767788.00000 .
4040.0 0.0 -4629282.00000 .
4007.0 0.0 -4494502.00000 .
4010.0 0.0 -4363355.00000 .
3968.0 0.0 -4235754.50000 .
3889.0 0.0 -4111610.50000 .
3904.0 0.0 -3990833.25000 .
3776.0 0.0 -3873343.50000 .
3696.0 0.0 -3759055.75000 .
3731.0 0.0 -3647888.50000 .
3675.0 0.0 -3539766.25000 .
3740.0 0.0 -3434607.25000 .
3579.0 0.0 -3332340.00000 .
3625.0 0.0 -3232890.75000 .
3636.0 0.0 -3136184.00000 .
3428.0 0.0 -3042156.75000 .
3341.0 0.0 -2950735.00000 .
3492.0 0.0 -2861852.75000 .
3291.0 0.0 -2775444.50000 .
3327.0 0.0 -2691446.75000 .
3242.0 0.0 -2609802.25000 .
3250.0 0.0 -2530446.00000 .
3245.0 0.0 -2453317.00000 .
3107.0 0.0 -2378358.75000 .
3286.0 0.0 -2305519.00000 .
3171.0 0.0 -2234735.50000 .
3188.0 0.0 -2165960.75000 .
3115.0 0.0 -2099141.50000 .
3168.0 0.0 -2034222.00000 .
3040.0 0.0 -1971156.75000 .
3060.0 0.0 -1909892.25000 .
3004.0 0.0 -1850388.25000 .
2978.0 0.0 -1792596.37500 .
3001.0 0.0 -1736463.25000 .
3001.0 0.0 -1681954.50000 .
2919.0 0.0 -1629020.12500 .
2862.0 0.0 -1577622.87500 .
2861.0 0.0 -1527721.37500 .
2891.0 0.0 -1479272.12500 .
2769.0 0.0 -1432240.50000 .
2893.0 0.0 -1386583.00000 .
2729.0 0.0 -1342267.37500 .
2752.0 0.0 -1299258.25000 .
2809.0 0.0 -1257513.62500 .
2754.0 0.0 -1217006.12500 .
2644.0 0.0 -1177697.00000 .
2674.0 0.0 -1139557.75000 .
2640.0 0.0 -1102556.00000 .
2584.0 0.0 -1066655.37500 .
2647.0 0.0 -1031832.06250 .
2643.0 0.0 -998052.81250 .
2594.0 0.0 -965289.93750 .
2629.0 0.0 -933516.68750 .
2467.0 0.0 -902701.93750 .
2478.0 0.0 -872823.43750 .
2476.0 0.0 -843851.12500 .
2483.0 0.0 -815762.18750 .
2352.0 0.0 -788533.37500 .
2298.0 0.0 -762136.12500 .
2417.0 0.0 -736551.37500 .
2451.0 0.0 -711752.43750 .
2375.0 0.0 -687720.06250 .
2303.0 0.0 -664433.06250 .
2299.0 0.0 -641866.87500 .
2400.0 0.0 -620004.00000 .
2268.0 0.0 -598822.31250 .
2341.0 0.0 -578304.00000 .
2312.0 0.0 -558430.50000 .
2284.0 0.0 -539180.68750 .
2219.0 0.0 -520539.06250 .
2182.0 0.0 -502485.53125 .
2159.0 0.0 -485005.56250 .
2335.0 0.0 -468082.84375 .
2171.0 0.0 -451698.25000 .
2122.0 0.0 -435839.21875 .
2176.0 0.0 -420487.68750 .
2197.0 0.0 -405630.15625 .
2113.0 0.0 -391253.18750 .
2040.0 0.0 -377339.90625 .
2128.0 0.0 -363879.15625 .
2056.0 0.0 -350855.46875 .
2078.0 0.0 -338257.68750 .
2102.0 0.0 -326072.68750 .
2039.0 0.0 -314286.62500 .
1940.0 0.0 -302889.15625 .
1925.0 0.0 -291867.71875 .
1975.0 0.0 -281211.96875 .
1920.0 0.0 -270910.46875 .
2003.0 0.0 -260951.73438 .
1913.0 0.0 -251326.35938 .
1846.0 0.0 -242023.32813 .
1910.0 0.0 -233033.26563 .
1864.0 0.0 -224347.31250 .
1866.0 0.0 -215954.40625 .
1893.0 0.0 -207847.14063 .
1842.0 0.0 -200015.46875 .
1855.0 0.0 -192451.50000 .
1817.0 0.0 -185147.39063 .
1843.0 0.0 -178094.04688 .
1802.0 0.0 -171284.21875 .
1732.0 0.0 -164709.84375 .
1815.0 0.0 -158364.03125 .
1768.0 0.0 -152239.60938 .
1758.0 0.0 -146328.84375 .
1747.0 0.0 -140625.57813 .
1694.0 0.0 -135123.03125 .
1762.0 0.0 -129814.71875 .
1701.0 0.0 -124694.95313 .
1755.0 0.0 -119756.67969 .
1662.0 0.0 -114995.02344 .
1705.0 0.0 -110403.49219 .
1625.0 0.0 -105977.10156 .
1592.0 0.0 -101710.57031 .
1655.0 0.0 -97598.02344 .
1594.0 0.0 -93635.14844 .
1606.0 0.0 -89816.38281 .
1636.0 0.0 -86137.54688 .
1584.0 0.0 -82593.83594 .
1624.0 0.0 -79180.46094 .
1567.0 0.0 -75893.43750 .
1618.0 0.0 -72728.32031 .
1620.0 0.0 -69681.28125 .
1573.0 0.0 -66748.33594 .
1516.0 0.0 -63925.23047 .
1454.0 0.0 -61208.66406 .
1585.0 0.0 -58594.71875 .
1509.0 0.0 -56080.16016 .
1513.0 0.0 -53661.65625 .
1472.0 0.0 -51335.48828 .
1477.0 0.0 -49098.85938 .
1500.0 0.0 -46948.43359 .
1444.0 0.0 -44881.31250 .
1431.0 0.0 -42894.76172 .
1470.0 0.0 -40985.66406 .
1489.0 0.0 -39151.55469 .
1488.0 0.0 -37389.58594 .
1432.0 0.0 -35697.36328 .
1421.0 0.0 -34072.43359 .
1489.0 0.0 -32512.16797 .
1406.0 0.0 -31014.50586 .
1334.0 0.0 -29577.06836 .
1362.0 0.0 -28197.72070 .
1407.0 0.0 -26874.41797 .
1348.0 0.0 -25605.00391 .
1313.0 0.0 -24387.64063 .
1365.0 0.0 -23220.27734 .
1377.0 0.0 -22101.20313 .
1321.0 0.0 -21028.66602 .
1383.0 0.0 -20000.77734 .
1357.0 0.0 -19016.02734 .
1284.0 0.0 -18072.70703 .
1345.0 0.0 -17169.31250 .
1305.0 0.0 -16304.35156 .
1259.0 0.0 -15476.31934 .
1237.0 0.0 -14683.85547 .
1283.0 0.0 -13925.54102 .
1270.0 0.0 -13200.14063 .
1263.0 0.0 -12506.41992 .
1229.0 0.0 -11843.00000 .
1210.0 0.0 -11208.85547 .
1145.0 0.0 -10602.74805 .
1147.0 0.0 -10023.61621 .
1130.0 0.0 -9470.44043 .
1158.0 0.0 -8942.08496 .
1151.0 0.0 -8437.66504 .
1248.0 0.0 -7956.14551 .
1166.0 0.0 -7496.68262 .
1128.0 0.0 -7058.34668 .
1112.0 0.0 -6640.27295 .
1134.0 0.0 -6241.66602 .
1051.0 0.0 -5861.67041 .
1065.0 0.0 -5499.58447 .
1068.0 0.0 -5154.66602 .
1083.0 0.0 -4826.13623 .
1148.0 0.0 -4513.37695 .
1086.0 0.0 -4215.68994 .
1031.0 0.0 -3932.44824 .
1092.0 0.0 -3663.04712 .
1043.0 0.0 -3406.88037 .
1015.0 0.0 -3163.39722 .
1050.0 0.0 -2932.02051 .
1064.0 0.0 -2712.25708 .
973.0 0.0 -2503.59204 .
1035.0 0.0 -2305.52075 .
1091.0 0.0 -2117.58936 .
1007.0 0.0 -1939.34106 .
984.0 0.0 -1770.35010 .
972.0 0.0 -1610.20947 .
1002.0 0.0 -1458.48633 .
1005.0 0.0 -1314.82910 .
1008.0 0.0 -1178.85168 .
946.0 0.0 -1050.20215 .
992.0 0.0 -928.55048 .
1006.0 0.0 -813.55780 .
987.0 0.0 -704.91870 .
1001.0 0.0 -602.32269 .
960.0 0.0 -505.49484 .
1056.0 0.0 -414.15433 .
927.0 0.0 -328.02927 .
956.0 0.0 -246.87021 .
982.0 0.0 -170.43465 .
939.0 0.0 -98.48976 .
973.0 0.0 -30.81686 .
957.0 0.0 32.81105 .
972.0 0.0 92.58523 .
930.0 0.0 148.70926 .
898.0 0.0 201.36751 .
944.0 0.0 250.73848 .
970.0 0.0 296.99472 .
937.0 0.0 340.29855 .
887.0 0.0 380.81003 .
938.0 0.0 418.67389 .
927.0 0.0 454.03143 .
929.0 0.0 487.02554 .
947.0 0.0 517.77948 .
937.0 0.0 546.42126 .
890.0 0.0 573.06708 .
928.0 0.0 597.82745 .
952.0 0.0 620.81525 .
910.0 0.0 642.12714 .
973.0 0.0 661.86346 .
935.0 0.0 680.11566 .
923.0 0.0 696.97113 .
904.0 0.0 712.51471 .
959.0 0.0 726.82471 .
902.0 0.0 739.97858 .
918.0 0.0 752.04608 .
906.0 0.0 763.09521 .
901.0 0.0 773.19250 .
873.0 0.0 782.39728 .
927.0 0.0 790.76868 .
881.0 0.0 798.36115 .
934.0 0.0 805.22668 .
959.0 0.0 811.41473 .
872.0 0.0 816.97156 .
942.0 0.0 821.94153 .
860.0 0.0 826.36560 .
883.0 0.0 830.28308 .
872.0 0.0 833.73126 .
906.0 0.0 836.74469 .
877.0 0.0 839.35626 .
875.0 0.0 841.59662 .
883.0 0.0 843.49469 .
856.0 0.0 845.07813 .
837.0 0.0 846.37207 .
890.0 0.0 847.40076 .
847.0 0.001181 848.18646 848.18579
861.0 0.001161 848.75031 848.74969
813.0 0.001230 849.11194 849.11133
848.0 0.001179 849.28967 849.28906
849.0 0.001178 849.30054 849.30005
855.0 0.001170 849.16064 849.16016
869.0 0.001151 848.88477 848.88434
849.0 0.001178 848.48669 848.48621
851.0 0.001175 847.97913 847.97870
902.0 0.001109 847.37402 847.37366
844.0 0.001185 846.68231 846.68195
828.0 0.001208 845.91418 845.91382
801.0 0.001248 845.07886 845.07843
858.0 0.001166 844.18494 844.18457
898.0 0.001114 843.24036 843.23999
876.0 0.001142 842.25226 842.25183
862.0 0.001160 841.22729 841.22687
824.0 0.001214 840.17145 840.17102
867.0 0.001153 839.09003 839.08966
814.0 0.001229 837.98822 837.98779
899.0 0.001112 836.87024 836.86987
769.0 0.001300 835.74030 835.73987
788.0 0.001269 834.60175 834.60132
818.0 0.001222 833.45776 833.45734
826.0 0.001211 832.31140 832.31091
821.0 0.001218 831.16473 831.16425
858.0 0.001166 830.02032 830.01984
814.0 0.001229 828.87970 828.87921
868.0 0.001152 827.74457 827.74402
813.0 0.001230 826.61621 826.61566
788.0 0.001269 825.49561 825.49506
812.0 0.001232 824.38385 824.38330
870.0 0.001149 823.28149 823.28088
722.0 0.001385 822.18890 822.18829
824.0 0.001214 821.10657 821.10596
837.0 0.001195 820.03467 820.03406
778.0 0.001285 818.97321 818.97253
822.0 0.001217 817.92200 817.92133
828.0 0.001208 816.88092 816.88025
803.0 0.001245 815.84979 815.84912
780.0 0.001282 814.82806 814.82733
854.0 0.001171 813.81543 813.81476
861.0 0.001161 812.81128 812.81061
792.0 0.001263 811.81506 811.81433
782.0 0.001279 810.82617 810.82544
850.0 0.001176 809.84387 809.84314
768.0 0.001302 808.86761 808.86682
799.0 0.001252 807.89655 807.89581
795.0 0.001258 806.92987 809.99908
810.0 0.001235 805.96698 810.69568
798.0 0.001253 805.00702 809.98157
823.0 0.001215 804.04938 809.28931
781.0 0.001280 803.09302 808.62036
837.0 0.001195 802.13727 807.97650
797.0 0.001255 801.18158 807.35974
809.0 0.001236 800.22485 806.77258
823.0 0.001215 799.26678 806.21814
843.0 0.001186 798.30640 805.70020
790.0 0.001266 797.34302 805.22296
792.0 0.001263 796.37610 804.79193
837.0 0.001195 795.40491 804.41345
808.0 0.001238 794.42902 804.09546
818.0 0.001222 793.44775 803.84729
724.0 0.001381 792.46045 803.68018
809.0 0.001236 791.46680 803.60834
831.0 0.001203 790.46631 803.64886
814.0 0.001229 789.45844 803.82294
815.0 0.001227 788.44293 804.15698
839.0 0.001192 787.41931 804.68445
835.0 0.001198 786.38739 805.44763
822.0 0.001217 785.34668 806.50085
859.0 0.001164 784.29712 807.91534
875.0 0.001143 783.23840 809.78510
804.0 0.001244 782.17035 812.23749
866.0 0.001155 781.09290 815.44733
905.0 0.001105 780.00586 819.66321
854.0 0.001171 778.90918 825.24805
933.0 0.001072 777.80292 832.77905
926.0 0.001080 776.68683 843.37555
906.0 0.001104 775.56128 859.84619
996.0 0.001004 774.42609 889.47357
1083.0 0.000923 773.28143 947.52936
1063.0 0.000941 772.12750 1056.85193
1312.0 0.000762 770.96436 1239.96155
1384.0 0.000723 769.79224 1514.64978
1784.0 0.000561 768.61133 1903.20630
2368.0 0.000422 767.42194 2455.24780
3134.0 0.0003191 766.22424 3258.96948
4248.0 0.0002354 765.01855 4346.49072
5598.0 0.0001786 763.80530 5430.29248
5808.0 0.0001722 762.58472 5766.51465
4742.0 0.0002109 761.35718 4868.75879
3160.0 0.0003165 760.12305 3343.81714
1910.0 0.000524 758.88275 2056.24902
1214.0 0.000824 757.63678 1347.63806
1063.0 0.000941 756.38538 1052.10791
867.0 0.001153 755.12921 939.22906
844.0 0.001185 753.86865 887.24774
824.0 0.001214 752.60413 855.78503
798.0 0.001253 751.33624 833.81750
739.0 0.001353 750.06531 817.53973
821.0 0.001218 748.79205 805.02502
779.0 0.001284 747.51691 795.10913
780.0 0.001282 746.24030 787.04657
793.0 0.001261 744.96295 780.34222
766.0 0.001305 743.68524 774.65552
724.0 0.001381 742.40784 769.74725
776.0 0.001289 741.13116 765.44446
726.0 0.001377 739.85590 761.62030
720.0 0.001389 738.58252 758.17987
764.0 0.001309 737.31146 755.05078
731.0 0.001368 736.04358 752.17767
735.0 0.001361 734.77924 749.51703
657.0 0.001522 733.51892 747.03442
755.0 0.001325 732.26331 744.70282
709.0 0.001410 731.01282 742.50012
716.0 0.001397 729.76819 740.40881
739.0 0.001353 728.52972 738.41412
760.0 0.001316 727.29803 736.50409
785.0 0.001274 726.07379 734.66907
763.0 0.001311 724.85724 732.90082
707.0 0.001414 723.64911 731.19232
752.0 0.001330 722.44983 729.53815
781.0 0.001280 721.25983 727.93323
714.0 0.001401 720.07971 726.37360
681.0 0.001468 718.90979 724.85565
718.0 0.001393 717.75067 723.37665
754.0 0.001326 716.60278 721.93408
688.0 0.001453 715.46643 720.52563
729.0 0.001372 714.34216 719.14960
759.0 0.001318 713.23041 717.80438
741.0 0.001350 712.13159 713.64240
756.0 0.001323 711.04602 711.04553
697.0 0.001435 709.97400 709.97351
693.0 0.001443 708.91614 708.91559
671.0 0.001490 707.87256 707.87207
714.0 0.001401 706.84369 706.84320
651.0 0.001536 705.82996 705.82947
730.0 0.001370 704.83148 704.83099
723.0 0.001383 703.84869 703.84821
693.0 0.001443 702.88171 702.88129
674.0 0.001484 701.93109 701.93060
721.0 0.001387 700.99689 700.99646
756.0 0.001323 700.07928 700.07886
700.0 0.001429 699.17871 699.17828
669.0 0.001495 698.29523 698.29480
730.0 0.001370 697.42908 697.42865
722.0 0.001385 696.58051 696.58008
677.0 0.001477 695.74951 695.74908
652.0 0.001534 694.93646 694.93597
663.0 0.001508 694.14130 694.14087
704.0 0.001420 693.36432 693.36389
681.0 0.001468 692.60553 692.60510
723.0 0.001383 691.86511 691.86469
721.0 0.001387 691.14307 691.14264
658.0 0.001520 690.43945 690.43903
710.0 0.001408 689.75446 689.75403
648.0 0.001543 689.08807 689.08765
719.0 0.001391 688.44025 688.43982
700.0 0.001429 687.81110 687.81067
707.0 0.001414 687.20056 687.20020
746.0 0.001340 686.60876 686.60834
695.0 0.001439 686.03552 686.03516
693.0 0.001443 685.48096 685.48053
704.0 0.001420 684.94501 684.94458
689.0 0.001451 684.42743 684.42706
670.0 0.001493 683.92841 683.92798
683.0 0.001464 683.44781 683.44745
710.0 0.001408 682.98547 682.98511
751.0 0.001332 682.54138 682.54102
712.0 0.001404 682.11542 682.11499
717.0 0.001395 681.70746 681.70703
641.0 0.001560 681.31738 681.31696
689.0 0.001451 680.94501 680.94464
722.0 0.001385 680.59033 680.58997
658.0 0.001520 680.25317 680.25275
692.0 0.001445 679.93323 679.93286
664.0 0.001506 679.63055 679.63013
734.0 0.001362 679.34479 679.34442
689.0 0.001451 679.07593 679.07550
657.0 0.001522 678.82361 678.82324
678.0 0.001475 678.58783 678.58746
641.0 0.001560 678.36829 678.36792
670.0 0.001493 678.16479 678.16437
686.0 0.001458 677.97717 677.97675
637.0 0.001570 677.80518 677.80475
726.0 0.001377 677.64862 677.64819
683.0 0.001464 677.50726 677.50684
671.0 0.001490 677.38092 677.38049
659.0 0.001517 677.26929 677.26886
672.0 0.001488 677.17218 677.17181
693.0 0.001443 677.08942 677.08899
751.0 0.001332 677.02069 677.02026
640.0 0.001563 676.96582 676.96539
646.0 0.001548 676.92450 676.92407
687.0 0.001456 676.89648 676.89612
704.0 0.001420 676.88159 676.88116
705.0 0.001418 676.87958 676.87915
681.0 0.001468 676.89014 676.88971
680.0 0.001471 676.91302 676.91260
650.0 0.001538 676.94800 676.94757
634.0 0.001577 676.99487 676.99451
649.0 0.001541 677.05334 677.05292
698.0 0.001433 677.12317 677.12274
698.0 0.001433 677.20416 677.20374
693.0 0.001443 677.29590 677.29547
713.0 0.001403 677.39832 677.39789
677.0 0.001477 677.51111 677.51068
669.0 0.001495 677.63403 677.63361
703.0 0.001422 677.76685 677.76642
704.0 0.001420 677.90930 677.90887
676.0 0.001479 678.06116 678.06073
669.0 0.001495 678.22217 678.22174
654.0 0.001529 678.39215 678.39172
687.0 0.001456 678.57086 678.57043
686.0 0.001458 678.75800 678.75757
706.0 0.001416 678.95343 678.95300
666.0 0.001502 679.15686 679.15643
653.0 0.001531 679.36816 679.36774
722.0 0.001385 679.58704 679.58661
735.0 0.001361 679.81335 679.81293
700.0 0.001429 680.04688 680.04639
712.0 0.001404 680.28729 680.28687
654.0 0.001529 680.53455 680.53412
674.0 0.001484 680.78845 680.78796
714.0 0.001401 681.04871 681.04828
653.0 0.001531 681.31519 681.31476
681.0 0.001468 681.58771 681.58728
692.0 0.001445 681.86615 681.86572
714.0 0.001401 682.15027 682.14978
660.0 0.001515 682.43988 682.43939
723.0 0.001383 682.73492 682.73444
682.0 0.001466 683.03510 683.03467
699.0 0.001431 683.34045 683.33997
743.0 0.001346 683.65063 683.65015
696.0 0.001437 683.96564 683.96515
697.0 0.001435 684.28528 684.28479
707.0 0.001414 684.60944 684.60895
692.0 0.001445 684.93799 684.93750
694.0 0.001441 685.27081 685.27032
632.0 0.001582 685.60779 685.60730
698.0 0.001433 685.94879 685.94836
645.0 0.001550 686.29382 686.29333
689.0 0.001451 686.64270 686.64221
694.0 0.001441 686.99530 686.99481
692.0 0.001445 687.35162 687.35114
613.0 0.001631 687.71155 687.71106
672.0 0.001488 688.07495 688.07446
692.0 0.001445 688.44183 688.44135
683.0 0.001464 688.81213 688.81165
704.0 0.001420 689.18579 689.18530
671.0 0.001490 689.56268 689.56219
650.0 0.001538 689.94281 689.94232
702.0 0.001425 690.32617 690.32568
661.0 0.001513 690.71271 690.71222
689.0 0.001451 691.10236 691.10187
659.0 0.001517 691.49512 691.49463
661.0 0.001513 691.89093 691.89044
704.0 0.001420 692.28986 692.28937
669.0 0.001495 692.69183 692.69128
691.0 0.001447 693.09680 693.09631
725.0 0.001379 693.50488 693.50439
698.0 0.001433 693.91602 693.91553
704.0 0.001420 694.33026 694.32971
659.0 0.001517 694.74756 694.74701
707.0 0.001414 695.16797 695.16748
658.0 0.001520 695.59143 695.59094
705.0 0.001418 696.01813 696.01758
654.0 0.001529 696.44800 696.44751
693.0 0.001443 696.88104 696.88055
700.0 0.001429 697.31738 697.31689
688.0 0.001453 697.75702 697.75653
704.0 0.001420 698.20001 698.19952
677.0 0.001477 698.64642 698.64594
678.0 0.001475 699.09631 699.09576
711.0 0.001406 699.54974 699.54919
712.0 0.001404 700.00671 700.00623
679.0 0.001473 700.46735 700.46680
661.0 0.001513 700.93176 700.93121
688.0 0.001453 701.39990 701.39935
686.0 0.001458 701.87189 701.87140
689.0 0.001451 702.34796 702.34741
705.0 0.001418 702.82794 702.82739
669.0 0.001495 703.31207 703.31158
675.0 0.001481 703.80042 703.79993
691.0 0.001447 704.29309 704.29260
714.0 0.001401 704.79016 704.78961
695.0 0.001439 705.29169 705.29114
727.0 0.001376 705.79785 705.79730
633.0 0.001580 706.30865 706.30811
712.0 0.001404 706.82428 706.82373
687.0 0.001456 707.34479 707.34424
686.0 0.001458 707.87024 707.86969
698.0 0.001433 708.40088 708.40033
712.0 0.001404 708.93665 708.93610
674.0 0.001484 709.47778 709.47723
736.0 0.001359 710.02435 710.02380
677.0 0.001477 710.57642 710.57593
741.0 0.001350 711.13416 711.13367
639.0 0.001565 711.69769 711.69714
666.0 0.001502 712.26709 712.26654
707.0 0.001414 712.84247 712.84192
722.0 0.001385 713.42395 713.42346
730.0 0.001370 714.01172 714.01117
708.0 0.001412 714.60577 714.60522
687.0 0.001456 715.20636 715.20581
710.0 0.001408 715.81342 715.81293
714.0 0.001401 716.42725 716.42670
744.0 0.001344 717.04785 717.04730
708.0 0.001412 717.67535 717.67487
733.0 0.001364 718.30994 718.30945
741.0 0.001350 718.95166 718.95111
769.0 0.001300 719.60059 719.60004
733.0 0.001364 720.25696 720.25641
733.0 0.001364 720.92078 720.92023
787.0 0.001271 721.59222 721.59174
724.0 0.001381 722.27142 722.27087
706.0 0.001416 722.95837 722.95782
697.0 0.001435 723.65326 723.65271
776.0 0.001289 724.35620 724.35565
677.0 0.001477 725.06732 725.06677
746.0 0.001340 725.78662 725.78607
739.0 0.001353 726.51422 726.51373
824.0 0.001214 727.25043 727.24988
664.0 0.001506 727.99506 727.99451
768.0 0.001302 728.74841 728.74786
662.0 0.001511 729.51038 729.50989
716.0 0.001397 730.28125 730.28070
743.0 0.001346 731.06097 731.06042
734.0 0.001362 731.84979 731.84924
729.0 0.001372 732.64764 732.64709
738.0 0.001355 733.45465 733.45410
697.0 0.001435 734.27094 734.27039
755.0 0.001325 735.09662 735.09607
744.0 0.001344 735.93164 735.93109
774.0 0.001292 736.77618 736.77563
745.0 0.001342 737.63025 737.62970
697.0 0.001435 738.49390 738.49341
747.0 0.001339 739.36737 739.36688
811.0 0.001233 740.25049 740.24994
735.0 0.001361 741.14349 741.14294
748.0 0.001337 742.04626 742.04572
739.0 0.001353 742.95892 742.95844
733.0 0.001364 743.88165 743.88110
751.0 0.001332 744.81439 744.81384
742.0 0.001348 745.75714 745.75659
804.0 0.001244 746.71002 746.70947
746.0 0.001340 747.67297 747.67242
734.0 0.001362 748.64624 751.61316
753.0 0.001328 749.62952 752.74750
738.0 0.001355 750.62323 755.37433
775.0 0.001290 751.62708 756.62878
733.0 0.001364 752.64117 757.91400
795.0 0.001258 753.66571 759.23218
761.0 0.001314 754.70044 760.58582
780.0 0.001282 755.74554 761.97803
800.0 0.001250 756.80090 763.41223
816.0 0.001225 757.86658 764.89240
773.0 0.001294 758.94269 766.42328
798.0 0.001253 760.02905 768.01001
789.0 0.001267 761.12573 769.65906
791.0 0.001264 762.23273 771.37787
833.0 0.001200 763.34991 773.17535
793.0 0.001261 764.47760 775.06219
826.0 0.001211 765.61542 777.05072
825.0 0.001212 766.76355 779.15668
843.0 0.001186 767.92175 781.39844
817.0 0.001224 769.09015 783.79938
834.0 0.001199 770.26880 786.38806
854.0 0.001171 771.45740 789.20007
821.0 0.001218 772.65625 792.28131
844.0 0.001185 773.86493 795.68958
819.0 0.001221 775.08356 799.50092
802.0 0.001247 776.31226 803.81531
838.0 0.001193 777.55066 808.76636
872.0 0.001147 778.79889 814.53778
852.0 0.001174 780.05676 821.38458
892.0 0.001121 781.32452 829.67365
846.0 0.001182 782.60168 839.95093
877.0 0.001140 783.88837 853.09955
927.0 0.001079 785.18463 870.85565
911.0 0.001098 786.49017 897.48114
963.0 0.001038 787.80493 944.05963
1107.0 0.000903 789.12903 1036.13696
1228.0 0.000814 790.46210 1222.76770
1668.0 0.000600 791.80432 1580.74939
2288.0 0.000437 793.15533 2203.06689
3043.0 0.0003286 794.51514 3135.53076
3945.0 0.0002535 795.88379 4233.55762
4715.0 0.0002121 797.26093 5050.82520
4918.0 0.0002033 798.64661 5060.03516
4648.0 0.0002151 800.04065 4309.87451
3482.0 0.0002872 801.44305 3245.02930
2448.0 0.000408 802.85358 2234.36450
1688.0 0.000592 804.27209 1543.45044
1171.0 0.000854 805.69861 1177.54126
991.0 0.001009 807.13287 1016.08813
879.0 0.001138 808.57477 948.18811
818.0 0.001222 810.02435 914.95209
835.0 0.001198 811.48120 894.74762
839.0 0.001192 812.94543 880.88373
873.0 0.001145 814.41663 870.93164
849.0 0.001178 815.89490 863.64825
870.0 0.001149 817.38013 858.26447
839.0 0.001192 818.87189 854.27173
837.0 0.001195 820.37024 851.32086
857.0 0.001167 821.87512 849.16675
870.0 0.001149 823.38623 847.63220
815.0 0.001227 824.90332 846.58704
862.0 0.001160 826.42639 845.93408
808.0 0.001238 827.95544 845.59912
780.0 0.001282 829.48993 845.52502
792.0 0.001263 831.02997 845.66699
863.0 0.001159 832.57538 845.98975
778.0 0.001285 834.12585 846.46466
775.0 0.001290 835.68146 847.67267
842.0 0.001188 837.24176 848.41791
844.0 0.001185 838.80664 849.26093
801.0 0.001248 840.37622 850.50043
857.0 0.001167 841.94989 851.51935
785.0 0.001274 843.52777 852.60571
844.0 0.001185 845.10968 853.75269
792.0 0.001263 846.69531 854.95398
841.0 0.001189 848.28455 856.20502
827.0 0.001209 849.87720 857.50171
840.0 0.001190 851.47321 858.84076
830.0 0.001205 853.07220 860.21960
857.0 0.001167 854.67407 861.63617
822.0 0.001217 856.27887 863.08936
885.0 0.001130 857.88599 864.57794
856.0 0.001168 859.49567 866.10205
795.0 0.001258 861.10730 864.89331
827.0 0.001209 862.72095 866.61633
874.0 0.001144 864.33655 866.98547
883.0 0.001133 865.95361 868.83521
864.0 0.001157 867.57227 870.71875
972.0 0.001029 869.19202 872.64172
830.0 0.001205 870.81287 874.61182
928.0 0.001078 872.43457 876.63879
864.0 0.001157 874.05701 878.73511
839.0 0.001192 875.68005 880.91718
832.0 0.001202 877.30334 883.20630
887.0 0.001127 878.92670 885.63159
870.0 0.001149 880.55017 888.23297
861.0 0.001161 882.17328 891.06555
891.0 0.001122 883.79614 894.20959
862.0 0.001160 885.41821 897.78351
893.0 0.001120 887.03955 901.98187
891.0 0.001122 888.66003 907.19012
894.0 0.001119 890.27930 914.36316
925.0 0.001081 891.89728 926.00806
940.0 0.001064 893.51367 948.01373
1033.0 0.000968 895.12830 992.02405
1133.0 0.000883 896.74115 1076.35376
1335.0 0.000749 898.35199 1220.46558
1569.0 0.000637 899.96051 1426.27930
1835.0 0.000545 901.56665 1647.72278
2156.0 0.000464 903.17017 1784.15747
2338.0 0.000428 904.77106 1751.42981
2061.0 0.000485 906.36884 1592.22778
1687.0 0.000593 907.96368 1385.65625
1344.0 0.000744 909.55511 1193.04932
1129.0 0.000886 911.14307 1060.53540
949.0 0.001054 912.72754 989.17047
897.0 0.001115 914.30804 957.46344
924.0 0.001082 915.88477 944.63330
887.0 0.001127 917.45721 939.04321
866.0 0.001155 919.02539 936.18518
873.0 0.001145 920.58905 934.62335
895.0 0.001117 922.14825 933.84796
876.0 0.001142 923.70251 933.60645
953.0 0.001049 925.25189 933.74451
947.0 0.001056 926.79608 934.15924
924.0 0.001082 928.33521 934.78040
911.0 0.001098 929.86884 935.55786
894.0 0.001119 931.39697 936.45563
908.0 0.001101 932.91925 937.44696
902.0 0.001109 934.43567 938.51190
908.0 0.001101 935.94611 939.63525
915.0 0.001093 937.45081 940.80554
916.0 0.001092 938.94867 942.01251
921.0 0.001086 940.44031 943.24951
915.0 0.001093 941.92517 944.51031
946.0 0.001057 943.40338 945.79022
917.0 0.001091 944.87518 947.08563
933.0 0.001072 946.33936 948.39246
895.0 0.001117 947.79688 949.70874
919.0 0.001088 949.24670 951.03143
879.0 0.001138 950.68951 952.35938
889.0 0.001125 952.12494 953.69073
903.0 0.001107 953.55237 955.02344
972.0 0.001029 954.97229 956.35706
925.0 0.001081 956.38416 957.69000
1018.0 0.000982 957.78815 959.02161
916.0 0.001092 959.18439 960.35126
926.0 0.001080 960.57196 961.67761
896.0 0.001116 961.95142 963.00043
939.0 0.001065 963.32227 964.31903
919.0 0.001088 964.68469 965.02356
928.0 0.001078 966.03888 966.36108
944.0 0.001059 967.38373 967.69043
938.0 0.001066 968.72015 968.71973
963.0 0.001038 970.04742 970.04694
976.0 0.001025 971.36572 971.36523
1048.0 0.000954 972.67511 972.67468
1005.0 0.000995 973.97504 973.97455
983.0 0.001017 975.26587 975.26538
995.0 0.001005 976.54712 976.54663
1023.0 0.000978 977.81903 977.81854
946.0 0.001057 979.08173 979.08124
1033.0 0.000968 980.33441 980.33398
982.0 0.001018 981.57764 981.57715
982.0 0.001018 982.81091 982.81042
1025.0 0.000976 984.03442 984.03394
991.0 0.001009 985.24841 985.24792
1045.0 0.000957 986.45190 986.45142
995.0 0.001005 987.64575 987.64532
1002.0 0.000998 988.82928 988.82886
964.0 0.001037 990.00275 990.00232
946.0 0.001057 991.16632 991.16583
947.0 0.001056 992.31927 992.31879
989.0 0.001011 993.46216 993.46167
949.0 0.001054 994.59448 994.59399
964.0 0.001037 995.71649 995.71606
929.0 0.001076 996.82843 996.82794
931.0 0.001074 997.92950 997.92902
958.0 0.001044 999.02026 999.01978
993.0 0.001007 1000.10022 1000.09979
962.0 0.001040 1001.16980 1001.16931
968.0 0.001033 1002.22894 1002.22852
977.0 0.001024 1003.27704 1003.27661
1000.0 0.001000 1004.31488 1004.31439
955.0 0.001047 1005.34167 1005.34125
1033.0 0.000968 1006.35791 1006.35742
966.0 0.001035 1007.36359 1007.36310
979.0 0.001021 1008.35822 1008.35773
1001.0 0.000999 1009.34222 1009.34180
965.0 0.001036 1010.31537 1010.31488
964.0 0.001037 1011.27771 1011.27728
1002.0 0.000998 1012.22955 1012.22906
1005.0 0.000995 1013.17023 1013.16974
1003.0 0.000997 1014.10028 1014.09979
985.0 0.001015 1015.01929 1015.01886
1041.0 0.000961 1015.92761 1015.92712
1013.0 0.000987 1016.82532 1016.82489
976.0 0.001025 1017.71185 1017.71136
1013.0 0.000987 1018.58783 1018.58740
985.0 0.001015 1019.45282 1019.45239
987.0 0.001013 1020.30707 1020.30658
1024.0 0.000977 1021.15070 1021.15021
983.0 0.001017 1021.98328 1021.98285
991.0 0.001009 1022.80536 1022.80493
1050.0 0.000952 1023.61639 1023.61597
986.0 0.001014 1024.41687 1024.41638
984.0 0.001016 1025.20679 1025.20630
1015.0 0.000985 1025.98584 1025.98535
1051.0 0.000951 1026.75427 1026.75378
1001.0 0.000999 1027.51196 1027.51147
1084.0 0.000923 1028.25916 1028.25867
1021.0 0.000979 1028.99585 1028.99536
1070.0 0.000935 1029.72180 1029.72131
1044.0 0.000958 1030.43738 1030.43689
1099.0 0.000910 1031.14221 1031.14185
1102.0 0.000907 1031.83679 1031.83630
1039.0 0.000962 1032.52100 1032.52051
1048.0 0.000954 1033.19470 1033.19421
1059.0 0.000944 1033.85828 1033.85779
1078.0 0.000928 1034.51123 1034.51074
1038.0 0.000963 1035.15405 1045.28735
1053.0 0.000950 1035.78687 1046.43250
1068.0 0.000936 1036.40918 1052.49438
1069.0 0.000935 1037.02161 1053.94592
1084.0 0.000923 1037.62378 1055.45447
1141.0 0.000876 1038.21594 1057.02820
1077.0 0.000929 1038.79834 1058.67554
1101.0 0.000908 1039.37061 1060.40540
1054.0 0.000949 1039.93311 1062.23022
1072.0 0.000933 1040.48560 1064.16174
1131.0 0.000884 1041.02832 1066.21594
1178.0 0.000849 1041.56152 1068.41052
1110.0 0.000901 1042.08496 1070.76453
1108.0 0.000903 1042.59888 1073.30371
1151.0 0.000869 1043.10303 1076.05505
1137.0 0.000880 1043.59778 1079.05334
1187.0 0.000842 1044.08325 1082.33997
1163.0 0.000860 1044.55920 1085.96179
1163.0 0.000860 1045.02588 1090.71558
1128.0 0.000887 1045.48315 1095.23083
1131.0 0.000884 1045.93140 1100.30664
1181.0 0.000847 1046.37061 1106.42603
1258.0 0.000795 1046.80066 1113.00195
1173.0 0.000853 1047.22168 1120.57349
1218.0 0.000821 1047.63379 1129.36951
1188.0 0.000842 1048.03711 1139.69592
1195.0 0.000837 1048.43164 1151.95703
1229.0 0.000814 1048.81726 1166.68884
1312.0 0.000762 1049.19446 1184.64722
1243.0 0.000805 1049.56287 1206.87708
1300.0 0.000769 1049.92285 1234.91394
1273.0 0.000786 1050.27441 1271.11914
1376.0 0.000727 1050.61743 1319.65369
1463.0 0.000684 1050.95227 1389.94067
1591.0 0.000629 1051.27881 1506.90076
1859.0 0.000538 1051.59717 1735.74524
2351.0 0.000425 1051.90747 2223.86182
3321.0 0.0003011 1052.20972 3235.39844
4777.0 0.0002093 1052.50391 5091.42822
7421.0 0.0001348 1052.79016 7898.52686
10248.0 0.0000976 1053.06873 11164.44336
13392.0 0.0000747 1053.33960 13638.38184
13983.0 0.0000715 1053.60266 14014.20898
13011.0 0.0000769 1053.85815 12433.47949
10264.0 0.0000974 1054.10596 9956.27246
7264.0 0.0001377 1054.34644 7178.70654
4800.0 0.0002083 1054.57959 4732.96826
3071.0 0.0003256 1054.80530 3058.67041
1863.0 0.000537 1055.02368 2124.85474
1563.0 0.000640 1055.23499 1681.10266
1395.0 0.000717 1055.43909 1481.33923
1274.0 0.000785 1055.63623 1380.65979
1231.0 0.000812 1055.82642 1318.84497
1232.0 0.000812 1056.00964 1275.41956
1195.0 0.000837 1056.18604 1243.15149
1164.0 0.000859 1056.35559 1218.61572
1223.0 0.000818 1056.51855 1199.78394
1126.0 0.000888 1056.67480 1185.35645
1145.0 0.000873 1056.82458 1174.48096
1169.0 0.000855 1056.96777 1166.65723
1238.0 0.000808 1057.10449 1161.67517
1133.0 0.000883 1057.23499 1159.71863
1197.0 0.000835 1057.35913 1161.82666
1217.0 0.000822 1057.47693 1171.34851
1263.0 0.000792 1057.58875 1197.24658
1257.0 0.000796 1057.69434 1259.20081
1583.0 0.000632 1057.79407 1390.21765
1710.0 0.000585 1057.88757 1624.26660
2299.0 0.000435 1057.97534 1960.22717
2740.0 0.000365 1058.05725 2320.15039
2703.0 0.000370 1058.13342 2550.90576
2716.0 0.000368 1058.20374 2533.16113
2409.0 0.000415 1058.26855 2326.69067
2014.0 0.000497 1058.32764 2040.53174
1749.0 0.000572 1058.38123 1730.95813
1494.0 0.000669 1058.42932 1467.21912
1249.0 0.000801 1058.47205 1290.05103
1143.0 0.000875 1058.50940 1192.07056
1131.0 0.000884 1058.54138 1145.08386
1025.0 0.000976 1058.56824 1123.14111
1181.0 0.000847 1058.58972 1111.36890
1054.0 0.000949 1058.60620 1103.67310
1059.0 0.000944 1058.61755 1097.97656
1066.0 0.000938 1058.62390 1083.85986
1058.0 0.000945 1058.62524 1080.70654
1012.0 0.000988 1058.62158 1073.19873
1040.0 0.000962 1058.61304 1071.33301
1108.0 0.000903 1058.59973 1069.79675
1080.0 0.000926 1058.58167 1068.51392
1112.0 0.000899 1058.55884 1067.42969
1086.0 0.000921 1058.53125 1066.50232
1128.0 0.000887 1058.49915 1065.70068
1014.0 0.000986 1058.46228 1065.00110
1031.0 0.000970 1058.42102 1064.38428
1041.0 0.000961 1058.37512 1063.83594
1020.0 0.000980 1058.32483 1063.34399
1104.0 0.000906 1058.27002 1062.89929
1114.0 0.000898 1058.21094 1062.49390
1025.0 0.000976 1058.14746 1062.12158
1032.0 0.000969 1058.07959 1061.77734
1039.0 0.000962 1058.00757 1061.45654
1038.0 0.000963 1057.93115 1061.15576
1061.0 0.000943 1057.85071 1060.87219
1134.0 0.000882 1057.76599 1060.60291
1135.0 0.000881 1057.67712 1060.34607
1042.0 0.000960 1057.58423 1060.09949
1087.0 0.000920 1057.48718 1059.86182
993.0 0.001007 1057.38611 1059.63147
1070.0 0.000935 1057.28101 1059.40747
1015.0 0.000985 1057.17200 1059.18872
1001.0 0.000999 1057.05896 1058.97412
1098.0 0.000911 1056.94189 1057.60339
1070.0 0.000935 1056.82104 1057.44946
1021.0 0.000979 1056.69641 1057.29407
1054.0 0.000949 1056.56775 1056.56726
991.0 0.001009 1056.43530 1056.43481
1051.0 0.000951 1056.29895 1056.29858
1046.0 0.000956 1056.15894 1056.15845
1053.0 0.000950 1056.01501 1056.01465
1048.0 0.000954 1055.86743 1055.86707
1055.0 0.000948 1055.71606 1055.71570
1041.0 0.000961 1055.56104 1055.56055
1037.0 0.000964 1055.40222 1055.40173
1067.0 0.000937 1055.23962 1055.23926
1073.0 0.000932 1055.07349 1055.07312
1024.0 0.000977 1054.90369 1054.90320
1004.0 0.000996 1054.73010 1054.72961
1059.0 0.000944 1054.55286 1054.55249
1017.0 0.000983 1054.37207 1054.37158
1038.0 0.000963 1054.18762 1054.18713
1063.0 0.000941 1053.99951 1053.99902
1089.0 0.000918 1053.80774 1053.80725
1044.0 0.000958 1053.61243 1053.61194
1088.0 0.000919 1053.41345 1053.41296
976.0 0.001025 1053.21082 1053.21045
1006.0 0.000994 1053.00464 1053.00427
1020.0 0.000980 1052.79480 1052.79443
1038.0 0.000963 1052.58142 1052.58105
1036.0 0.000965 1052.36438 1052.36401
1063.0 0.000941 1052.14380 1052.14343
1014.0 0.000986 1051.91956 1051.91919
997.0 0.001003 1051.69165 1051.69128
1015.0 0.000985 1051.46021 1051.45972
1068.0 0.000936 1051.22510 1051.22461
1040.0 0.000962 1050.98645 1050.98596
1074.0 0.000931 1050.74402 1050.74365
1024.0 0.000977 1050.49792 1050.49756
1048.0 0.000954 1050.24829 1050.24792
1008.0 0.000992 1049.99500 1049.99451
1051.0 0.000951 1049.73804 1049.73755
1022.0 0.000978 1049.47729 1049.47693
1057.0 0.000946 1049.21289 1049.21252
1039.0 0.000962 1048.94482 1048.94446
1060.0 0.000943 1048.67297 1048.67261
1015.0 0.000985 1048.39758 1048.39709
1065.0 0.000939 1048.11829 1048.11780
1023.0 0.000978 1047.83521 1047.83472
1117.0 0.000895 1047.54834 1047.54797
1055.0 0.000948 1047.25781 1047.25732
1114.0 0.000898 1046.96338 1046.96289
988.0 0.001012 1046.66516 1046.66467
1031.0 0.000970 1046.36292 1046.36255
1049.0 0.000953 1046.05701 1046.05652
1083.0 0.000923 1045.74707 1045.74670
1029.0 0.000972 1045.43335 1045.43298
977.0 0.001024 1045.11572 1045.11536
1052.0 0.000951 1044.79407 1044.79358
1062.0 0.000942 1044.46851 1044.46802
1030.0 0.000971 1044.13879 1044.13843
1000.0 0.001000 1043.80530 1043.80481
938.0 0.001066 1043.46765 1043.46716
977.0 0.001024 1043.12585 1043.12537
982.0 0.001018 1042.78003 1042.77966
1100.0 0.000909 1042.43018 1042.42969
1046.0 0.000956 1042.07617 1042.07568
1007.0 0.000993 1041.71790 1041.71753
1000.0 0.001000 1041.35547 1041.35498
1007.0 0.000993 1040.98877 1040.98840
972.0 0.001029 1040.61792 1040.61755
1002.0 0.000998 1040.24280 1040.24243
1020.0 0.000980 1039.86340 1039.86304
1047.0 0.000955 1039.47949 1039.47913
1041.0 0.000961 1039.09143 1039.09106
1017.0 0.000983 1038.69885 1038.69849
1017.0 0.000983 1038.30200 1038.30151
1036.0 0.000965 1037.90063 1037.90027
1004.0 0.000996 1037.49475 1037.49426
1075.0 0.000930 1037.08447 1037.08398
973.0 0.001028 1036.66956 1036.66907
1032.0 0.000969 1036.25012 1036.24963
1040.0 0.000962 1035.82617 1035.82568
1000.0 0.001000 1035.39734 1035.39697
1031.0 0.000970 1034.96411 1034.96362
1015.0 0.000985 1034.52600 1034.52563
997.0 0.001003 1034.08337 1034.08289
1004.0 0.000996 1033.63586 1033.63550
961.0 0.001041 1033.18347 1033.18311
970.0 0.001031 1032.72656 1032.72607
1036.0 0.000965 1032.26453 1032.52917
990.0 0.001010 1031.79773 1032.07300
950.0 0.001053 1031.32617 1031.61255
1007.0 0.000993 1030.84949 1031.27881
1000.0 0.001000 1030.36792 1030.81519
1020.0 0.000980 1029.88123 1030.34766
999.0 0.001001 1029.38965 1029.87634
1027.0 0.000974 1028.89294 1029.40137
1032.0 0.000969 1028.39111 1028.92261
953.0 0.001049 1027.88416 1028.44055
1026.0 0.000975 1027.37207 1027.95496
1017.0 0.000983 1026.85486 1027.46619
1026.0 0.000975 1026.33240 1026.97424
1038.0 0.000963 1025.80457 1026.47949
963.0 0.001038 1025.27161 1025.98218
1058.0 0.000945 1024.73315 1025.48218
1065.0 0.000939 1024.18958 1024.98022
1095.0 0.000913 1023.64050 1024.47644
1052.0 0.000951 1023.08600 1023.97119
1032.0 0.000969 1022.52618 1023.46515
1054.0 0.000949 1021.96075 1022.95850
1014.0 0.000986 1021.39001 1022.45227
1028.0 0.000973 1020.81366 1021.94684
1105.0 0.000905 1020.23163 1025.40784
1027.0 0.000974 1019.64417 1025.06592
1058.0 0.000945 1019.05103 1024.73779
1048.0 0.000954 1018.45239 1026.37988
1019.0 0.000981 1017.84802 1026.16467
1046.0 0.000956 1017.23779 1025.97559
1032.0 0.000969 1016.62213 1025.81763
1059.0 0.000944 1016.00049 1025.69482
1083.0 0.000923 1015.37329 1025.61377
1108.0 0.000903 1014.74017 1025.58118
1019.0 0.000981 1014.10120 1025.60571
975.0 0.001026 1013.45648 1025.69788
1022.0 0.000978 1012.80579 1025.87134
1067.0 0.000937 1012.14935 1026.14319
1071.0 0.000934 1011.48700 1026.53528
1033.0 0.000968 1010.81842 1027.07715
1087.0 0.000920 1010.14417 1027.80774
1115.0 0.000897 1009.46381 1028.78235
1021.0 0.000979 1008.77759 1030.08069
1052.0 0.000951 1008.08527 1031.83679
1084.0 0.000923 1007.38678 1034.32959
1127.0 0.000887 1006.68237 1038.27588
1096.0 0.000912 1005.97180 1045.58984
1065.0 0.000939 1005.25525 1060.75146
1175.0 0.000851 1004.53253 1092.08997
1199.0 0.000834 1003.80353 1150.35730
1323.0 0.000756 1003.06860 1241.06750
1403.0 0.000713 1002.32727 1352.54517
1416.0 0.000706 1001.58002 1450.63416
1446.0 0.000692 1000.82642 1492.33105
1540.0 0.000649 1000.06647 1467.52393
1441.0 0.000694 999.30048 1407.47327
1308.0 0.000765 998.52814 1333.27307
1273.0 0.000786 997.74969 1251.88538
1244.0 0.000804 996.96490 1178.59143
1227.0 0.000815 996.17358 1126.48315
1076.0 0.000929 995.37628 1097.46960
1099.0 0.000910 994.57257 1086.35559
1112.0 0.000899 993.76270 1086.45313
1100.0 0.000909 992.94641 1093.17383
1206.0 0.000829 992.12366 1104.69824
1200.0 0.000833 991.29474 1121.15698
1170.0 0.000855 990.45929 1144.22351
1236.0 0.000809 989.61780 1178.25317
1302.0 0.000768 988.76984 1235.17749
1484.0 0.000674 987.91528 1346.75464
1663.0 0.000601 987.05469 1585.29858
2297.0 0.000435 986.18756 2079.39063
3052.0 0.0003277 985.31421 2981.99561
4636.0 0.0002157 984.43439 4348.46436
6600.0 0.0001515 983.54803 5965.13965
7318.0 0.0001366 982.65564 7301.23047
7196.0 0.0001390 981.75665 7760.37500
7362.0 0.0001358 980.85150 7291.77930
6980.0 0.0001433 979.93994 6368.01074
5193.0 0.0001926 979.02179 5251.26025
3809.0 0.0002625 978.09760 4029.57837
2922.0 0.0003422 977.16681 2921.64893
2270.0 0.000441 976.22998 2107.22754
1646.0 0.000608 975.28656 1607.37866
1287.0 0.000777 974.33673 1344.22107
1178.0 0.000849 973.38086 1217.33374
1080.0 0.000926 972.41852 1153.71387
1037.0 0.000964 971.45001 1116.35742
960.0 0.001042 970.47510 1090.53455
1035.0 0.000966 969.49371 1070.94934
1010.0 0.000990 968.50635 1055.44727
1043.0 0.000959 967.51263 1042.86389
970.0 0.001031 966.51276 1032.46045
991.0 0.001009 965.50659 1023.71558
1040.0 0.000962 964.49396 1016.25629
1018.0 0.000982 963.47559 1009.81311
1002.0 0.000998 962.45068 1004.17694
974.0 0.001027 961.41998 999.19495
993.0 0.001007 960.38281 994.74475
960.0 0.001042 959.33948 990.73267
1023.0 0.000978 958.29022 987.08618
1029.0 0.000972 957.23480 983.74402
980.0 0.001020 956.17346 980.65961
946.0 0.001057 955.10596 977.79297
932.0 0.001073 954.03217 974.84814
950.0 0.001053 952.95282 972.33752
989.0 0.001011 951.86725 969.96356
960.0 0.001042 950.77594 967.57623
943.0 0.001060 949.67859 965.42914
1029.0 0.000972 948.57507 963.37109
941.0 0.001063 947.46613 961.39233
966.0 0.001035 946.35101 959.48163
980.0 0.001020 945.23035 957.63196
951.0 0.001052 944.10382 955.83539
962.0 0.001040 942.97137 954.08569
925.0 0.001081 941.83350 952.37817
979.0 0.001021 940.68970 950.70746
935.0 0.001070 939.54047 949.06989
869.0 0.001151 938.38550 947.46143
927.0 0.001079 937.22467 945.87866
959.0 0.001043 936.05865 944.31958
990.0 0.001010 934.88696 942.78101
926.0 0.001080 933.70996 941.26105
911.0 0.001098 932.52740 939.75739
916.0 0.001092 931.33917 938.26807
918.0 0.001089 930.14606 936.79242
888.0 0.001126 928.94727 935.32782
865.0 0.001156 927.74341 929.96088
906.0 0.001104 926.53430 928.66309
905.0 0.001105 925.31964 927.36493
878.0 0.001139 924.10022 924.09985
915.0 0.001093 922.87543 922.87512
916.0 0.001092 921.64581 921.64551
977.0 0.001024 920.41101 920.41071
967.0 0.001034 919.17090 919.17059
917.0 0.001091 917.92633 917.92596
934.0 0.001071 916.67657 916.67627
891.0 0.001122 915.42218 916.71655
887.0 0.001127 914.16290 915.50848
961.0 0.001041 912.89850 914.29834
882.0 0.001134 911.62994 913.08740
956.0 0.001046 910.35632 912.53076
920.0 0.001087 909.07837 911.34412
903.0 0.001107 907.79578 910.15881
945.0 0.001058 906.50842 908.97510
916.0 0.001092 905.21692 907.79419
914.0 0.001094 903.92078 906.61633
918.0 0.001089 902.62048 905.44250
850.0 0.001176 901.31580 904.27350
959.0 0.001043 900.00653 903.11005
921.0 0.001086 898.69348 901.95367
843.0 0.001186 897.37604 900.80524
904.0 0.001106 896.05475 899.66632
942.0 0.001062 894.72931 898.53827
884.0 0.001131 893.39954 897.42261
852.0 0.001174 892.06635 896.32202
856.0 0.001168 890.72888 895.23785
914.0 0.001094 889.38794 894.17358
892.0 0.001121 888.04309 893.13165
825.0 0.001212 886.69434 892.11566
931.0 0.001074 885.34222 892.34137
947.0 0.001056 883.98621 891.43884
922.0 0.001085 882.62714 890.58014
915.0 0.001093 881.26434 890.36066
916.0 0.001092 879.89777 889.63403
947.0 0.001056 878.52832 888.97778
882.0 0.001134 877.15533 888.40344
857.0 0.001167 875.77942 887.92584
916.0 0.001092 874.40015 887.56317
888.0 0.001126 873.01740 887.33740
883.0 0.001133 871.63208 887.27686
871.0 0.001148 870.24359 887.41656
912.0 0.001096 868.85236 887.80151
878.0 0.001139 867.45813 888.49042
899.0 0.001112 866.06085 889.56079
871.0 0.001148 864.66125 891.11469
929.0 0.001076 863.25854 893.29333
923.0 0.001083 861.85376 896.29236
930.0 0.001075 860.44611 900.39972
896.0 0.001116 859.03564 906.08740
958.0 0.001044 857.62329 914.30432
932.0 0.001073 856.20825 927.44556
1031.0 0.000970 854.79120 951.88373
1011.0 0.000989 853.37177 1003.01129
1107.0 0.000903 851.94983 1110.97864
1355.0 0.000738 850.52625 1318.85706
1709.0 0.000585 849.10040 1661.19617
2187.0 0.000457 847.67285 2120.05542
2582.0 0.000387 846.24323 2589.17358
2934.0 0.0003408 844.81146 2893.53418
2977.0 0.0003359 843.37836 2912.63403
2790.0 0.000358 841.94318 2717.98120
2364.0 0.000423 840.50684 2442.47534
2014.0 0.000497 839.06860 2124.46460
1707.0 0.000586 837.62848 1776.22546
1437.0 0.000696 836.18750 1456.35059
1196.0 0.000836 834.74481 1214.41858
994.0 0.001006 833.30103 1060.54333
974.0 0.001027 831.85590 976.82538
918.0 0.001089 830.40918 936.49170
926.0 0.001080 828.96185 918.28400
917.0 0.001091 827.51318 910.55414
876.0 0.001142 826.06384 908.79968
947.0 0.001056 824.61340 912.71405
959.0 0.001043 823.16180 925.94147
976.0 0.001025 821.70984 959.09930
994.0 0.001006 820.25671 1034.82764
1179.0 0.000848 818.80347 1188.83777
1492.0 0.000670 817.34924 1456.59204
1836.0 0.000545 815.89435 1839.49426
2398.0 0.000417 814.43933 2266.92847
2626.0 0.000381 812.98370 2596.07739
2785.0 0.000359 811.52789 2689.58008
2719.0 0.000368 810.07178 2559.58032
2436.0 0.000411 808.61499 2329.70435
2021.0 0.000495 807.15857 2061.46875
1738.0 0.000575 805.70184 1758.03857
1516.0 0.000660 804.24536 1456.51660
1258.0 0.000795 802.78876 1209.85999
1056.0 0.000947 801.33191 1040.30750
957.0 0.001045 799.87579 940.36890
922.0 0.001085 798.41949 887.80835
814.0 0.001229 796.96393 860.94360
863.0 0.001159 795.50836 845.83179
818.0 0.001222 794.05310 835.78271
810.0 0.001235 792.59869 828.14551
838.0 0.001193 791.14459 821.90912
779.0 0.001284 789.69128 816.63147
815.0 0.001227 788.23859 812.05902
773.0 0.001294 786.78619 808.02380
771.0 0.001297 785.33514 804.40875
809.0 0.001236 783.88464 801.12451
814.0 0.001229 782.43536 798.10657
800.0 0.001250 780.98688 795.30457
809.0 0.001236 779.53906 792.67944
764.0 0.001309 778.09296 790.20264
745.0 0.001342 776.64764 787.84875
811.0 0.001233 775.20367 785.59985
772.0 0.001295 773.76093 783.43970
827.0 0.001209 772.31934 781.35571
771.0 0.001297 770.87933 779.33826
752.0 0.001330 769.44073 776.08618
766.0 0.001305 768.00366 774.22461
736.0 0.001359 766.56818 772.40472
765.0 0.001307 765.13397 769.96436
732.0 0.001366 763.70203 768.23883
808.0 0.001238 762.27124 766.54059
806.0 0.001241 760.84277 764.86755
744.0 0.001344 759.41583 763.21661
784.0 0.001276 757.99036 761.58521
741.0 0.001350 756.56750 759.97284
758.0 0.001319 755.14618 758.37659
718.0 0.001393 753.72742 756.79596
754.0 0.001326 752.31049 755.22913
736.0 0.001359 750.89520 753.67468
764.0 0.001309 749.48285 752.13287
754.0 0.001326 748.07233 750.60175
720.0 0.001389 746.66455 749.08136
699.0 0.001431 745.25891 747.57056
724.0 0.001381 743.85541 746.06854
740.0 0.001351 742.45459 744.57544
760.0 0.001316 741.05609 743.09021
781.0 0.001280 739.66064 741.61334
715.0 0.001399 738.26752 738.95233
754.0 0.001326 736.87683 737.53406
741.0 0.001350 735.48901 736.12036
764.0 0.001309 734.10400 734.71094
734.0 0.001362 732.72174 732.72150
730.0 0.001370 731.34235 731.34210
727.0 0.001376 729.96558 729.96533
754.0 0.001326 728.59204 728.59180
668.0 0.001497 727.22144 727.22113
693.0 0.001443 725.85376 725.85352
760.0 0.001316 724.48926 724.48895
705.0 0.001418 723.12756 723.12732
750.0 0.001333 721.76947 721.76923
731.0 0.001368 720.41412 720.41388
720.0 0.001389 719.06250 719.06219
740.0 0.001351 717.71362 717.71332
685.0 0.001460 716.36804 716.36780
687.0 0.001456 715.02631 715.02600
715.0 0.001399 713.68744 713.68719
737.0 0.001357 712.35248 712.35223
675.0 0.001481 711.02075 711.27679
683.0 0.001464 709.69208 709.95819
694.0 0.001441 708.36761 708.64447
759.0 0.001318 707.04626 707.33447
694.0 0.001441 705.72900 706.15710
709.0 0.001410 704.41510 704.86115
742.0 0.001348 703.10443 703.56958
722.0 0.001385 701.79816 702.28357
698.0 0.001433 700.49518 701.00232
707.0 0.001414 699.19641 699.72668
681.0 0.001468 697.90125 698.45630
677.0 0.001477 696.60968 697.19128
673.0 0.001486 695.32220 695.93225
704.0 0.001420 694.03870 694.67944
734.0 0.001362 692.75903 693.43280
682.0 0.001466 691.48334 692.19275
653.0 0.001531 690.21143 690.95935
661.0 0.001513 688.94373 689.73346
695.0 0.001439 687.68011 688.51520
713.0 0.001403 686.42059 687.30505
699.0 0.001431 685.16510 686.10352
687.0 0.001456 683.91351 684.91095
712.0 0.001404 682.66656 683.72870
652.0 0.001534 681.42334 682.55682
638.0 0.001567 680.18451 681.39661
693.0 0.001443 678.94989 680.24921
690.0 0.001449 677.71936 679.11560
687.0 0.001456 676.49347 677.99792
673.0 0.001486 675.27148 676.89728
689.0 0.001451 674.05420 675.81659
676.0 0.001479 672.84106 674.75800
668.0 0.001497 671.63184 673.72467
650.0 0.001538 670.42761 672.72162
665.0 0.001504 669.22736 671.75299
628.0 0.001592 668.03198 670.82623
703.0 0.001422 666.84076 669.94885
659.0 0.001517 665.65363 669.13165
629.0 0.001590 664.47156 668.38953
655.0 0.001527 663.29358 667.74042
644.0 0.001553 662.12042 667.21069
674.0 0.001484 660.95166 666.83588
679.0 0.001473 659.78723 666.66998
641.0 0.001560 658.62744 666.80664
706.0 0.001416 657.47229 667.45105
681.0 0.001468 656.32172 669.12738
655.0 0.001527 655.17572 673.17664
651.0 0.001536 654.03406 682.58783
670.0 0.001493 652.89722 702.68146
708.0 0.001412 651.76501 740.34192
784.0 0.001276 650.63751 800.18854
845.0 0.001183 649.51453 878.29358
900.0 0.001111 648.39606 957.15662
987.0 0.001013 647.28265 1009.45337
992.0 0.001008 646.17346 1015.82605
967.0 0.001034 645.06915 985.66656
864.0 0.001157 643.96954 941.81940
809.0 0.001236 642.87445 893.12054
786.0 0.001272 641.78442 837.95422
741.0 0.001350 640.69873 780.55591
701.0 0.001427 639.61804 730.57025
698.0 0.001433 638.54193 693.57288
672.0 0.001488 637.47021 669.82501
649.0 0.001541 636.40369 656.20178
628.0 0.001592 635.34155 648.71014
638.0 0.001567 634.28455 644.31323
686.0 0.001458 633.23206 641.31030
652.0 0.001534 632.18396 638.94202
677.0 0.001477 631.14111 636.91071
635.0 0.001575 630.10266 635.09302
633.0 0.001580 629.06927 633.42999
637.0 0.001570 628.04047 631.88403
640.0 0.001563 627.01624 630.42969
599.0 0.001669 625.99695 629.04895
655.0 0.001527 624.98218 627.72729
657.0 0.001522 623.97247 626.45508
608.0 0.001645 622.96735 625.22339
618.0 0.001618 621.96680 624.02588
634.0 0.001577 620.97113 622.85815
585.0 0.001709 619.98022 621.71588
607.0 0.001647 618.99402 620.59589
612.0 0.001634 618.01251 619.49548
613.0 0.001631 617.03558 618.41241
611.0 0.001637 616.06354 617.34534
613.0 0.001631 615.09619 616.29242
575.0 0.001739 614.13354 615.25244
626.0 0.001597 613.17560 614.22449
617.0 0.001621 612.22217 613.20752
603.0 0.001658 611.27374 612.20111
616.0 0.001623 610.32971 611.20398
581.0 0.001721 609.39063 610.21637
569.0 0.001757 608.45605 609.23712
596.0 0.001678 607.52582 608.26575
655.0 0.001527 606.60071 607.30267
606.0 0.001650 605.67993 606.34680
579.0 0.001727 604.76410 605.39844
663.0 0.001508 603.85272 604.45679
629.0 0.001590 602.94562 603.52167
602.0 0.001661 602.04364 602.59344
627.0 0.001595 601.14587 601.67133
614.0 0.001629 600.25305 600.97583
642.0 0.001558 599.36462 600.07471
635.0 0.001575 598.48059 599.17993
586.0 0.001706 597.60126 598.29144
535.0 0.001869 596.72632 597.51801
587.0 0.001704 595.85620 596.38873
596.0 0.001678 594.99048 595.53333
600.0 0.001667 594.12909 594.68365
578.0 0.001730 593.27234 593.84009
610.0 0.001639 592.42004 592.87451
606.0 0.001650 591.57214 592.04797
558.0 0.001792 590.72876 591.22742
567.0 0.001764 589.88971 590.41278
574.0 0.001742 589.05518 589.60455
576.0 0.001736 588.22504 588.80286
590.0 0.001695 587.39929 588.00775
608.0 0.001645 586.57788 587.21954
611.0 0.001637 585.76074 586.43823
608.0 0.001645 584.94818 585.66479
567.0 0.001764 584.13971 584.89880
597.0 0.001675 583.33582 584.14130
580.0 0.001724 582.53595 583.39227
568.0 0.001761 581.74036 582.65247
572.0 0.001748 580.94928 581.92285
560.0 0.001786 580.16223 581.20355
566.0 0.001767 579.37964 580.49609
592.0 0.001689 578.60114 579.80121
624.0 0.001603 577.82654 579.12012
574.0 0.001742 577.05658 578.45477
579.0 0.001727 576.29047 577.80670
610.0 0.001639 575.52881 577.17853
598.0 0.001672 574.77112 576.57288
550.0 0.001818 574.01727 575.99304
617.0 0.001621 573.26788 575.44427
573.0 0.001745 572.52234 574.93134
568.0 0.001761 571.78113 574.46216
573.0 0.001745 571.04376 574.04559
583.0 0.001715 570.31036 573.69421
587.0 0.001704 569.58099 573.42438
570.0 0.001754 568.85571 573.25903
590.0 0.001695 568.13428 573.23022
602.0 0.001661 567.41687 573.38995
585.0 0.001709 566.70325 573.83936
584.0 0.001712 565.99365 574.81750
561.0 0.001783 565.28790 576.93616
583.0 0.001715 564.58600 581.63745
599.0 0.001669 563.88800 591.80145
638.0 0.001567 563.19366 611.92413
670.0 0.001493 562.50342 646.80566
823.0 0.001215 561.81665 698.22992
963.0 0.001038 561.13379 760.54822
1035.0 0.000966 560.45471 818.50586
1028.0 0.000973 559.77924 851.90259
1056.0 0.000947 559.10767 850.42908
961.0 0.001041 558.43958 825.05267
950.0 0.001053 557.77533 793.00610
775.0 0.001290 557.11462 757.60779
749.0 0.001335 556.45734 717.37018
712.0 0.001404 555.80402 674.32721
666.0 0.001502 555.15399 635.26343
618.0 0.001618 554.50781 605.44812
553.0 0.001808 553.86499 585.09418
583.0 0.001715 553.22552 572.94513
602.0 0.001661 552.58984 566.21387
608.0 0.001645 551.95746 562.44159
605.0 0.001653 551.32874 560.08759
579.0 0.001727 550.70337 558.38501
558.0 0.001792 550.08124 557.01013
568.0 0.001761 549.46271 555.83337
571.0 0.001751 548.84747 554.79596
548.0 0.001825 548.23560 553.86603
530.0 0.001887 547.62708 553.02246
563.0 0.001776 547.02179 552.25067
570.0 0.001754 546.41986 551.54034
558.0 0.001792 545.82123 550.88397
559.0 0.001789 545.22583 550.27618
538.0 0.001859 544.63367 549.71362
594.0 0.001684 544.04456 549.19403
559.0 0.001789 543.45886 548.71698
546.0 0.001832 542.87622 548.28223
560.0 0.001786 542.29675 547.89142
547.0 0.001828 541.72040 547.54669
577.0 0.001733 541.14709 547.25159
551.0 0.001815 540.57703 547.01093
570.0 0.001754 540.00989 546.83032
561.0 0.001783 539.44592 546.71832
589.0 0.001698 538.88495 546.68445
582.0 0.001718 538.32672 546.74152
566.0 0.001767 537.77185 546.90564
555.0 0.001802 537.21967 547.19733
545.0 0.001835 536.67065 547.64294
542.0 0.001845 536.12445 548.27686
569.0 0.001757 535.58099 549.14435
572.0 0.001748 535.04065 550.30542
539.0 0.001855 534.50305 551.84271
547.0 0.001828 533.96844 553.87366
563.0 0.001776 533.43658 556.58740
567.0 0.001764 532.90741 560.35028
556.0 0.001799 532.38116 566.02026
535.0 0.001869 531.85754 575.76172
602.0 0.001661 531.33685 594.62207
565.0 0.001770 530.81879 632.65002
655.0 0.001527 530.30341 705.68164
853.0 0.001172 529.79071 831.25531
1003.0 0.000997 529.28076 1017.48511
1261.0 0.000793 528.77344 1248.70618
1347.0 0.000742 528.26874 1474.84070
1470.0 0.000680 527.76654 1623.02136
1533.0 0.000652 527.26709 1644.32336
1609.0 0.000622 526.77014 1565.24402
1381.0 0.000724 526.27582 1449.03625
1198.0 0.000835 525.78400 1325.37036
986.0 0.001014 525.29462 1187.37695
957.0 0.001045 524.80786 1032.40662
821.0 0.001218 524.32343 881.16809
708.0 0.001412 523.84167 755.74658
652.0 0.001534 523.36230 665.74591
591.0 0.001692 522.88513 609.16595
555.0 0.001802 522.41064 577.24316
515.0 0.001942 521.93842 560.16901
531.0 0.001883 521.46869 550.73749
556.0 0.001799 521.00128 544.87805
506.0 0.001976 520.53601 540.70441
499.0 0.002004 520.07330 537.43658
516.0 0.001938 519.61279 534.74341
508.0 0.001969 519.15472 532.46393
511.0 0.001957 518.69879 530.49847
484.0 0.002066 518.24506 528.77899
494.0 0.002024 517.79364 527.25616
481.0 0.002079 517.34442 525.91632
515.0 0.001942 516.89752 524.68225
502.0 0.001992 516.45276 523.55469
576.0 0.001736 516.01007 522.51611
510.0 0.001961 515.56964 521.56482
522.0 0.001916 515.13135 520.66528
539.0 0.001855 514.69519 519.82025
518.0 0.001931 514.26111 519.02179
495.0 0.002020 513.82910 518.26398
502.0 0.001992 513.39917 517.54156
518.0 0.001931 512.97137 516.85010
515.0 0.001942 512.54559 516.18622
544.0 0.001838 512.12189 515.54651
495.0 0.002020 511.70010 514.92841
478.0 0.002092 511.28049 514.33002
495.0 0.002020 510.86270 513.74902
541.0 0.001848 510.44705 513.18396
516.0 0.001938 510.03317 512.63336
509.0 0.001965 509.62131 512.09589
481.0 0.002079 509.21146 511.57071
515.0 0.001942 508.80344 511.05667
504.0 0.001984 508.39743 510.55316
536.0 0.001866 507.99326 510.05927
484.0 0.002066 507.59082 509.57443
506.0 0.001976 507.19046 509.09839
522.0 0.001916 506.79181 508.63046
479.0 0.002088 506.39514 508.17044
477.0 0.002096 506.00021 507.71793
481.0 0.002079 505.60696 507.27267
525.0 0.001905 505.21573 506.83487
493.0 0.002028 504.82614 505.53308
510.0 0.001961 504.43848 505.14230
476.0 0.002101 504.05246 504.75714
471.0 0.002123 503.66815 504.37799
495.0 0.002020 503.28564 503.56595
478.0 0.002092 502.90488 503.21759
488.0 0.002049 502.52579 502.87686
487.0 0.002053 502.14841 502.54535
492.0 0.002033 501.77264 502.22507
494.0 0.002024 501.39865 501.91913
505.0 0.001980 501.02631 501.63223
532.0 0.001880 500.65558 501.37360
512.0 0.001953 500.28653 501.16470
545.0 0.001835 499.91904 501.05832
480.0 0.002083 499.55331 501.17609
490.0 0.002041 499.18903 501.75836
502.0 0.001992 498.82642 503.18701
475.0 0.002105 498.46539 505.90546
482.0 0.002075 498.10587 510.17496
541.0 0.001848 497.74805 515.72083
574.0 0.001742 497.39163 521.47461
641.0 0.001560 497.03690 525.67523
537.0 0.001862 496.68362 527.07135
571.0 0.001751 496.33176 525.26526
572.0 0.001748 495.98160 522.08252
538.0 0.001859 495.63278 518.66107
566.0 0.001767 495.28558 515.18774
537.0 0.001862 494.93985 511.93332
538.0 0.001859 494.59543 507.62061
496.0 0.002016 494.25266 503.66959
525.0 0.001905 493.91125 500.50436
492.0 0.002033 493.57135 498.24442
454.0 0.002203 493.23282 497.18289
504.0 0.001984 492.89569 496.25638
520.0 0.001923 492.56003 495.64630
514.0 0.001946 492.22577 495.19940
512.0 0.001953 491.89291 494.83331
504.0 0.001984 491.56140 494.51093
515.0 0.001942 491.23126 494.21677
482.0 0.002075 490.90253 493.94470
492.0 0.002033 490.57516 493.69168
533.0 0.001876 490.24915 493.45630
482.0 0.002075 489.92447 493.23779
509.0 0.001965 489.60107 493.03604
556.0 0.001799 489.27911 492.85132
495.0 0.002020 488.95834 492.68411
522.0 0.001916 488.63898 492.53561
482.0 0.002075 488.32089 492.40707
506.0 0.001976 488.00403 492.30023
516.0 0.001938 487.68860 492.21735
473.0 0.002114 487.37433 492.16098
502.0 0.001992 487.06140 492.13443
492.0 0.002033 486.74969 492.14169
505.0 0.001980 486.43915 492.18768
523.0 0.001912 486.13000 492.27826
504.0 0.001984 485.82202 492.42105
521.0 0.001919 485.51535 492.62524
503.0 0.001988 485.20984 492.90265
508.0 0.001969 484.90546 493.26834
525.0 0.001905 484.60242 493.74197
493.0 0.002028 484.30051 494.35004
500.0 0.002000 483.99988 495.13025
491.0 0.002037 483.70038 496.14420
538.0 0.001859 483.40204 497.51486
530.0 0.001887 483.10489 499.52576
501.0 0.001996 482.80890 502.85562
484.0 0.002066 482.51413 508.98206
484.0 0.002066 482.22049 520.65356
538.0 0.001859 481.92792 541.94489
614.0 0.001629 481.63657 577.12616
624.0 0.001603 481.34631 628.07214
775.0 0.001290 481.05722 690.84882
761.0 0.001314 480.76923 753.64117
754.0 0.001326 480.48230 798.52283
787.0 0.001271 480.19653 811.61029
771.0 0.001297 479.91187 796.39746
791.0 0.001264 479.62830 769.01642
747.0 0.001339 479.34579 740.47290
666.0 0.001502 479.06436 711.09241
670.0 0.001493 478.78409 677.97461
692.0 0.001445 478.50476 643.39667
634.0 0.001577 478.22659 615.30505
640.0 0.001563 477.94946 602.43268
582.0 0.001718 477.67328 615.00519
578.0 0.001730 477.39825 666.92645
752.0 0.001330 477.12421 775.28345
897.0 0.001115 476.85126 954.44196
1175.0 0.000851 476.57932 1202.95239
1492.0 0.000670 476.30829 1489.71973
1648.0 0.000607 476.03839 1748.69531
1666.0 0.000600 475.76944 1898.44080
1759.0 0.000569 475.50159 1898.93811
1858.0 0.000538 475.23465 1793.48389
1518.0 0.000659 474.96869 1653.75598
1189.0 0.000841 474.70374 1512.04688
1040.0 0.000962 474.43973 1358.24609
937.0 0.001067 474.17679 1181.09070
936.0 0.001068 473.91473 997.08313
709.0 0.001410 473.65366 832.85925
640.0 0.001563 473.39352 705.27100
549.0 0.001821 473.13437 617.92072
539.0 0.001855 472.87616 564.55072
555.0 0.001802 472.61887 534.53656
539.0 0.001855 472.36252 518.11670
483.0 0.002070 472.10706 508.65625
520.0 0.001923 471.85260 502.54782
496.0 0.002016 471.59897 498.10666
479.0 0.002088 471.34628 494.61285
543.0 0.001842 471.09454 491.74713
527.0 0.001898 470.84366 489.34256
489.0 0.002045 470.59369 487.29697
494.0 0.002024 470.34460 485.53696
534.0 0.001873 470.09634 484.31424
479.0 0.002088 469.84900 482.98755
494.0 0.002024 469.60257 481.82043
482.0 0.002075 469.35693 480.78885
478.0 0.002092 469.11221 479.87311
491.0 0.002037 468.86829 479.21042
477.0 0.002096 468.62531 478.49039
450.0 0.002222 468.38309 477.85092
473.0 0.002114 468.14178 477.28583
512.0 0.001953 467.90121 476.79025
515.0 0.001942 467.66150 476.36185
472.0 0.002119 467.42267 475.99979
514.0 0.001946 467.18457 475.70514
518.0 0.001931 466.94736 475.21237
496.0 0.002016 466.71088 475.07553
479.0 0.002088 466.47522 475.02399
498.0 0.002008 466.24042 475.07126
479.0 0.002088 466.00632 475.23660
478.0 0.002092 465.77310 475.41754
514.0 0.001946 465.54056 475.93585
488.0 0.002049 465.30881 476.76285
470.0 0.002128 465.07788 478.15466
505.0 0.001980 464.84766 480.71774
500.0 0.002000 464.61826 485.75250
517.0 0.001934 464.38953 495.64868
518.0 0.001931 464.16162 513.93323
542.0 0.001845 463.93442 544.38269
586.0 0.001706 463.70795 588.91339
634.0 0.001577 463.48221 644.74316
648.0 0.001543 463.25714 702.48761
678.0 0.001475 463.03287 745.64728
688.0 0.001453 462.80927 762.68170
699.0 0.001431 462.58640 751.75092
668.0 0.001497 462.36423 725.99396
639.0 0.001565 462.14273 697.47571
587.0 0.001704 461.92191 668.90582
616.0 0.001623 461.70184 636.87543
537.0 0.001862 461.48239 600.40289
558.0 0.001792 461.26364 563.80853
524.0 0.001908 461.04556 532.04639
505.0 0.001980 460.82809 507.88007
528.0 0.001894 460.61136 491.62082
497.0 0.002012 460.39520 481.82236
492.0 0.002033 460.17978 476.40463
528.0 0.001894 459.96494 473.53787
444.0 0.002252 459.75070 472.01773
459.0 0.002179 459.53717 470.78827
501.0 0.001996 459.32419 470.39648
495.0 0.002020 459.11191 470.30835
466.0 0.002146 458.90018 470.49704
465.0 0.002151 458.68903 470.97998
468.0 0.002137 458.47858 471.81940
513.0 0.001949 458.26865 473.16846
530.0 0.001887 458.05936 475.40149
520.0 0.001923 457.85062 479.41513
542.0 0.001845 457.64246 487.14819
526.0 0.001901 457.43488 502.19702
499.0 0.002004 457.22787 530.01025
646.0 0.001548 457.02142 576.69537
679.0 0.001473 456.81552 645.97461
914.0 0.001094 456.61017 734.81390
1064.0 0.000940 456.40540 830.02014
1141.0 0.000876 456.20114 908.51154
1181.0 0.000847 455.99741 946.01605
1173.0 0.000853 455.79425 936.26947
1162.0 0.000861 455.59155 897.38715
1063.0 0.000941 455.38943 851.05994
847.0 0.001181 455.18777 805.31403
829.0 0.001206 454.98663 755.82281
746.0 0.001340 454.78601 698.47015
714.0 0.001401 454.58585 638.05902
654.0 0.001529 454.38626 582.98151
570.0 0.001754 454.18707 538.95215
494.0 0.002024 453.98843 507.78314
550.0 0.001818 453.79019 487.99597
463.0 0.002160 453.59241 476.45908
488.0 0.002049 453.39517 469.98486
469.0 0.002132 453.19833 466.23248
452.0 0.002212 453.00198 463.83209
446.0 0.002242 452.80603 462.10037
459.0 0.002179 452.61053 460.73279
468.0 0.002137 452.41550 459.59494
497.0 0.002012 452.22086 458.62045
468.0 0.002137 452.02667 457.77136
445.0 0.002247 451.83289 457.02124
463.0 0.002160 451.63953 456.35098
455.0 0.002198 451.44653 455.74609
502.0 0.001992 451.25394 455.19492
461.0 0.002169 451.06183 454.68866
460.0 0.002174 450.87003 454.21997
453.0 0.002208 450.67862 453.78326
446.0 0.002242 450.48761 453.37381
447.0 0.002237 450.29697 452.98764
447.0 0.002237 450.10669 452.62177
444.0 0.002252 449.91678 452.09644
440.0 0.002273 449.72720 451.76886
484.0 0.002066 449.53799 451.45450
450.0 0.002222 449.34915 451.15176
449.0 0.002227 449.16064 450.85941
390.0 0.002564 448.97247 450.48840
434.0 0.002304 448.78458 450.21603
429.0 0.002331 448.59711 449.95093
482.0 0.002075 448.40985 449.69226
402.0 0.002488 448.22299 449.43948
439.0 0.002278 448.03638 449.19193
432.0 0.002315 447.85007 448.94910
427.0 0.002342 447.66412 448.71072
425.0 0.002353 447.47842 448.47620
422.0 0.002370 447.29306 448.24542
407.0 0.002457 447.10791 448.01785
436.0 0.002294 446.92303 447.79337
453.0 0.002208 446.73849 447.57175
454.0 0.002203 446.55417 447.35263
447.0 0.002237 446.37018 447.15009
467.0 0.002141 446.18634 446.93604
444.0 0.002252 446.00284 446.72415
416.0 0.002404 445.81955 446.51413
431.0 0.002320 445.63647 446.30591
465.0 0.002151 445.45370 446.10641
482.0 0.002075 445.27109 445.90173
460.0 0.002174 445.08878 445.69858
414.0 0.002415 444.90665 445.49680
410.0 0.002439 444.72473 445.29633
426.0 0.002347 444.54306 445.09720
480.0 0.002083 444.36154 444.89920
456.0 0.002193 444.18024 444.70230
415.0 0.002410 443.99915 444.20633
442.0 0.002262 443.81827 444.02075
483.0 0.002070 443.63757 443.83578
409.0 0.002445 443.45706 443.65137
402.0 0.002488 443.27667 443.46741
448.0 0.002232 443.09653 443.13464
438.0 0.002283 442.91650 442.95633
425.0 0.002353 442.73672 442.77832
413.0 0.002421 442.55701 442.60059
452.0 0.002212 442.37747 442.42307
367.0 0.002725 442.19815 442.24600
417.0 0.002398 442.01889 442.06915
453.0 0.002208 441.83984 441.89267
412.0 0.002427 441.66089 441.71646
428.0 0.002336 441.48206 441.54068
350.0 0.002857 441.30344 441.36526
413.0 0.002421 441.12485 441.19022
384.0 0.002604 440.94647 441.01566
399.0 0.002506 440.76813 440.84207
457.0 0.002188 440.58994 440.66846
440.0 0.002273 440.41187 440.49542
401.0 0.002494 440.23386 440.32294
417.0 0.002398 440.05603 440.15118
471.0 0.002123 439.87823 439.98013
430.0 0.002326 439.70053 439.81015
394.0 0.002538 439.52295 439.64093
472.0 0.002119 439.34543 439.47278
430.0 0.002326 439.16800 439.30585
419.0 0.002387 438.99063 439.14029
422.0 0.002370 438.81339 438.97644
403.0 0.002481 438.63617 438.81461
450.0 0.002222 438.45905 438.65506
411.0 0.002433 438.28198 438.49829
406.0 0.002463 438.10498 438.34497
430.0 0.002326 437.92801 438.19577
422.0 0.002370 437.75113 438.05176
427.0 0.002342 437.57425 437.91428
436.0 0.002294 437.39746 437.78528
395.0 0.002532 437.22070 437.66824
402.0 0.002488 437.04395 437.56998
440.0 0.002273 436.86731 437.50607
446.0 0.002242 436.69064 437.51224
430.0 0.002326 436.51407 437.66394
452.0 0.002212 436.33743 438.09946
434.0 0.002304 436.16086 439.02820
402.0 0.002488 435.98434 440.69254
446.0 0.002242 435.80780 443.26236
439.0 0.002278 435.63132 446.67740
461.0 0.002169 435.45480 450.51892
417.0 0.002398 435.27829 453.96652
446.0 0.002242 435.10184 455.98416
406.0 0.002463 434.92535 455.99887
456.0 0.002193 434.74893 454.49329
409.0 0.002445 434.57242 452.42999
453.0 0.002208 434.39597 450.40768
450.0 0.002222 434.21951 448.43051
424.0 0.002358 434.04303 446.19205
414.0 0.002415 433.86655 443.62357
447.0 0.002237 433.69000 440.99884
455.0 0.002198 433.51352 438.63647
438.0 0.002283 433.33698 436.73285
408.0 0.002451 433.16043 435.33817
430.0 0.002326 432.98386 434.38718
432.0 0.002315 432.80728 433.75650
414.0 0.002415 432.63065 433.32462
453.0 0.002208 432.45404 433.00186
425.0 0.002353 432.27731 432.95975
442.0 0.002262 432.10062 432.72787
454.0 0.002203 431.92389 432.51178
465.0 0.002151 431.74710 432.30603
447.0 0.002237 431.57034 432.10806
434.0 0.002304 431.39346 431.91666
450.0 0.002222 431.21664 431.84570
439.0 0.002278 431.03967 431.67297
446.0 0.002242 430.86270 431.51251
426.0 0.002347 430.68573 431.37125
467.0 0.002141 430.50867 431.25787
439.0 0.002278 430.33160 431.18036
433.0 0.002309 430.15442 431.14008
466.0 0.002146 429.97723 431.12634
479.0 0.002088 429.80002 431.11356
466.0 0.002146 429.62271 431.06351
494.0 0.002024 429.44540 430.94263
477.0 0.002096 429.26797 430.75211
509.0 0.001965 429.09055 430.52579
484.0 0.002066 428.91306 430.29562
460.0 0.002174 428.73547 430.07230
446.0 0.002242 428.55792 429.84756
462.0 0.002165 428.38022 429.61151
420.0 0.002381 428.20248 429.36917
502.0 0.001992 428.02472 429.13327
440.0 0.002273 427.84689 428.91443
434.0 0.002304 427.66901 428.71811
424.0 0.002358 427.49103 428.54443
442.0 0.002262 427.31299 428.39008
408.0 0.002451 427.13492 428.25055
455.0 0.002198 426.95679 428.45303
440.0 0.002273 426.77859 428.34396
435.0 0.002299 426.60034 428.24319
457.0 0.002188 426.42200 428.15060
428.0 0.002336 426.24365 428.06683
420.0 0.002381 426.06516 427.99265
422.0 0.002370 425.88669 428.09592
420.0 0.002381 425.70810 428.05014
429.0 0.002331 425.52945 428.01859
444.0 0.002252 425.35080 428.00330
378.0 0.002646 425.17200 428.00665
441.0 0.002268 424.99323 428.03177
424.0 0.002358 424.81433 428.08228
410.0 0.002439 424.63535 428.16263
393.0 0.002545 424.45639 428.27844
409.0 0.002445 424.27728 428.43668
459.0 0.002179 424.09821 428.81824
418.0 0.002392 423.91901 429.08148
428.0 0.002336 423.73975 429.43646
440.0 0.002273 423.56046 429.88828
436.0 0.002294 423.38107 430.46585
428.0 0.002336 423.20169 431.30118
411.0 0.002433 423.02219 432.32471
477.0 0.002096 422.84265 433.82339
461.0 0.002169 422.66309 436.28613
435.0 0.002299 422.48346 440.69748
474.0 0.002110 422.30377 448.86896
483.0 0.002070 422.12402 463.60016
446.0 0.002242 421.94418 488.29694
541.0 0.001848 421.76434 525.72870
578.0 0.001730 421.58444 576.08740
689.0 0.001451 421.40448 635.00024
732.0 0.001366 421.22449 692.68811
786.0 0.001272 421.04440 734.99890
825.0 0.001212 420.86435 749.91595
804.0 0.001244 420.68417 738.14093
792.0 0.001263 420.50403 712.10852
772.0 0.001295 420.32376 683.74084
712.0 0.001404 420.14346 657.40521
624.0 0.001603 419.96320 630.26733
593.0 0.001686 419.78281 598.26019
583.0 0.001715 419.60245 562.29138
585.0 0.001709 419.42200 526.83014
496.0 0.002016 419.24152 496.01987
524.0 0.001908 419.06104 472.17596
469.0 0.002132 418.88046 455.65256
429.0 0.002331 418.69995 445.35526
470.0 0.002128 418.51935 439.53833
468.0 0.002137 418.33868 436.56064
409.0 0.002445 418.15808 435.24561
421.0 0.002375 417.97736 434.92117
436.0 0.002294 417.79672 435.30997
452.0 0.002212 417.61597 436.44858
487.0 0.002053 417.43524 438.73547
444.0 0.002252 417.25449 443.15723
442.0 0.002262 417.07370 451.67188
444.0 0.002252 416.89291 467.53491
507.0 0.001972 416.71207 495.18686
499.0 0.002004 416.53128 539.10284
568.0 0.001761 416.35046 601.49249
664.0 0.001506 416.16962 679.57343
796.0 0.001256 415.98877 763.47607
795.0 0.001258 415.80795 836.27429
831.0 0.001203 415.62708 878.25214
821.0 0.001218 415.44626 880.00946
870.0 0.001149 415.26538 851.85754
847.0 0.001181 415.08453 812.62213
768.0 0.001302 414.90372 774.61432
724.0 0.001381 414.72284 739.16473
631.0 0.001585 414.54205 700.59241
659.0 0.001517 414.36121 656.06598
628.0 0.001592 414.18045 610.62189
534.0 0.001873 413.99963 572.57422
521.0 0.001919 413.81885 549.14410
556.0 0.001799 413.63812 544.52454
536.0 0.001866 413.45737 558.73364
614.0 0.001629 413.27670 587.16797
653.0 0.001531 413.09598 621.04816
664.0 0.001506 412.91531 648.78406
691.0 0.001447 412.73471 659.98669
745.0 0.001342 412.55411 652.57343
744.0 0.001344 412.37360 633.79205
646.0 0.001548 412.19302 612.33313
621.0 0.001610 412.01254 592.41534
612.0 0.001634 411.83209 572.99854
548.0 0.001825 411.65170 550.84698
550.0 0.001818 411.47134 525.32617
487.0 0.002053 411.29102 499.02072
504.0 0.001984 411.11075 475.04495
439.0 0.002278 410.93054 455.47723
438.0 0.002283 410.75040 441.04675
433.0 0.002309 410.57028 431.33606
435.0 0.002299 410.39026 425.24387
402.0 0.002488 410.21024 421.55130
426.0 0.002347 410.03033 419.27078
432.0 0.002315 409.85046 417.75308
409.0 0.002445 409.67065 416.63586
385.0 0.002597 409.49094 415.51196
383.0 0.002611 409.31125 414.75369
405.0 0.002469 409.13171 414.08755
417.0 0.002398 408.95218 413.49088
451.0 0.002217 408.77277 412.95001
401.0 0.002494 408.59338 412.34048
402.0 0.002488 408.41409 411.88657
410.0 0.002439 408.23495 411.46469
400.0 0.002500 408.05582 411.06964
420.0 0.002381 407.87686 410.69788
390.0 0.002564 407.69791 410.34595
419.0 0.002387 407.51904 410.01138
381.0 0.002625 407.34036 409.69202
427.0 0.002342 407.16168 409.38599
403.0 0.002481 406.98318 409.09198
430.0 0.002326 406.80475 408.80832
425.0 0.002353 406.62640 408.53427
399.0 0.002506 406.44818 408.26886
393.0 0.002545 406.27005 408.01123
390.0 0.002564 406.09207 407.76089
420.0 0.002381 405.91415 407.51724
409.0 0.002445 405.73639 407.27988
410.0 0.002439 405.55875 407.04858
377.0 0.002653 405.38120 406.87891
432.0 0.002315 405.20377 406.66092
407.0 0.002457 405.02649 406.44876
412.0 0.002427 404.84927 406.24252
416.0 0.002404 404.67224 406.04263
414.0 0.002415 404.49536 405.84958
380.0 0.002632 404.31857 405.36087
396.0 0.002525 404.14194 405.19699
384.0 0.002604 403.96539 405.04721
411.0 0.002433 403.78906 404.92136
412.0 0.002427 403.61279 404.84048
405.0 0.002469 403.43674 404.84619
408.0 0.002451 403.26077 404.84659
381.0 0.002625 403.08496 405.27728
412.0 0.002427 402.90933 406.09109
398.0 0.002513 402.73380 407.38416
408.0 0.002451 402.55850 409.16119
415.0 0.002410 402.38327 411.27527
404.0 0.002475 402.20822 413.39264
393.0 0.002545 402.03339 415.02652
431.0 0.002320 401.85861 415.72498
411.0 0.002433 401.68411 415.38940
416.0 0.002404 401.50970 414.18301
418.0 0.002392 401.33548 412.90637
395.0 0.002532 401.16144 411.66245
397.0 0.002519 400.98752 410.45947
379.0 0.002639 400.81384 409.15323
378.0 0.002646 400.64026 407.57932
428.0 0.002336 400.46692 405.99753
433.0 0.002309 400.29373 404.47913
409.0 0.002445 400.12073 403.15686
430.0 0.002326 399.94791 402.09995
393.0 0.002545 399.77527 401.31161
394.0 0.002538 399.60278 400.74911
373.0 0.002681 399.43051 400.35013
362.0 0.002762 399.25845 400.05597
393.0 0.002545 399.08655 399.82343
388.0 0.002577 398.91486 399.62540
391.0 0.002558 398.74335 399.44754
384.0 0.002604 398.57205 399.28317
375.0 0.002667 398.40091 399.12909
425.0 0.002353 398.23004 398.98453
405.0 0.002469 398.05930 398.84943
371.0 0.002695 397.88876 398.72427
445.0 0.002247 397.71851 398.61008
407.0 0.002457 397.54837 398.50827
371.0 0.002695 397.37851 398.42099
384.0 0.002604 397.20880 398.35095
413.0 0.002421 397.03931 398.30209
399.0 0.002506 396.87009 398.28055
367.0 0.002725 396.70102 398.29672
380.0 0.002632 396.53223 398.37216
421.0 0.002375 396.36359 398.55292
409.0 0.002445 396.19516 398.93784
365.0 0.002740 396.02701 399.72192
430.0 0.002326 395.85904 401.24881
369.0 0.002710 395.69135 404.03387
381.0 0.002625 395.52380 408.71017
416.0 0.002404 395.35654 415.83102
438.0 0.002283 395.18948 425.55136
413.0 0.002421 395.02267 437.30359
439.0 0.002278 394.85608 449.56567
441.0 0.002268 394.68970 459.94888
420.0 0.002381 394.52356 465.80768
462.0 0.002165 394.35770 465.93073
456.0 0.002193 394.19205 461.68643
434.0 0.002304 394.02664 455.65744
464.0 0.002155 393.86145 449.69897
399.0 0.002506 393.69650 444.24573
451.0 0.002217 393.53183 438.57703
425.0 0.002353 393.36734 431.90643
423.0 0.002364 393.20313 424.38043
430.0 0.002326 393.03918 416.81174
378.0 0.002646 392.87546 410.00867
374.0 0.002674 392.71201 404.48038
360.0 0.002778 392.54877 400.38290
389.0 0.002571 392.38583 397.58292
416.0 0.002404 392.22311 395.77841
400.0 0.002500 392.06061 394.64151
393.0 0.002545 391.89847 393.90451
363.0 0.002755 391.73648 393.38766
352.0 0.002841 391.57483 392.98755
387.0 0.002584 391.41336 392.65030
378.0 0.002646 391.25217 392.34372
381.0 0.002625 391.09131 392.06546
397.0 0.002519 390.93063 391.80896
403.0 0.002481 390.77029 391.56686
403.0 0.002481 390.61017 391.33636
391.0 0.002558 390.45029 391.11218
381.0 0.002625 390.29074 390.89780
403.0 0.002481 390.13141 390.69205
383.0 0.002611 389.97238 390.49216
393.0 0.002545 389.81360 390.29721
355.0 0.002817 389.65509 390.10669
398.0 0.002513 389.49686 389.92001
367.0 0.002725 389.33893 389.73666
313.0 0.003195 389.18124 389.55646
382.0 0.002618 389.02386 389.37891
386.0 0.002591 388.86673 389.20374
412.0 0.002427 388.70990 389.03091
395.0 0.002532 388.55334 388.86014
416.0 0.002404 388.39706 388.89978
387.0 0.002584 388.24109 388.73969
386.0 0.002591 388.08536 388.58173
390.0 0.002564 387.92996 388.42596
400.0 0.002500 387.77481 388.27240
385.0 0.002597 387.62000 388.12115
392.0 0.002551 387.46539 388.07501
363.0 0.002755 387.31110 387.93210
414.0 0.002415 387.15717 387.79248
404.0 0.002475 387.00345 387.65695
386.0 0.002591 386.85010 387.52731
381.0 0.002625 386.69696 387.40729
401.0 0.002494 386.54416 387.30447
392.0 0.002551 386.39166 387.23300
390.0 0.002564 386.23944 387.21533
427.0 0.002342 386.08759 387.28204
354.0 0.002825 385.93594 387.46597
379.0 0.002639 385.78467 387.78909
367.0 0.002725 385.63367 388.24524
438.0 0.002283 385.48294 388.78616
365.0 0.002740 385.33258 389.31448
377.0 0.002653 385.18246 389.69522
386.0 0.002591 385.03271 389.80402
373.0 0.002681 384.88324 389.61835
427.0 0.002342 384.73410 389.23929
426.0 0.002347 384.58527 388.74380
434.0 0.002304 384.43674 388.32706
368.0 0.002717 384.28848 387.93958
364.0 0.002747 384.14059 387.53772
394.0 0.002538 383.99301 387.08447
393.0 0.002545 383.84573 386.59268
407.0 0.002457 383.69879 386.07825
432.0 0.002315 383.55215 385.63995
403.0 0.002481 383.40585 385.27597
332.0 0.003012 383.25986 384.99527
376.0 0.002660 383.11423 384.79236
380.0 0.002632 382.96887 384.65277
395.0 0.002532 382.82382 384.56088
430.0 0.002326 382.67917 384.50406
370.0 0.002703 382.53479 384.47440
356.0 0.002809 382.39081 384.46844
403.0 0.002481 382.24710 384.48587
405.0 0.002469 382.10373 384.52881
394.0 0.002538 381.96072 384.60056
366.0 0.002732 381.81802 384.70621
424.0 0.002358 381.67569 384.85208
355.0 0.002817 381.53366 385.04669
402.0 0.002488 381.39197 385.30139
391.0 0.002558 381.25064 385.63223
369.0 0.002710 381.10965 386.06573
396.0 0.002525 380.96902 386.65103
395.0 0.002532 380.82870 387.49020
397.0 0.002519 380.68875 388.79770
438.0 0.002283 380.54913 391.00497
426.0 0.002347 380.40988 394.90659
386.0 0.002591 380.27097 401.78726
385.0 0.002597 380.13242 413.42880
427.0 0.002342 379.99420 431.80267
506.0 0.001976 379.85635 458.57648
468.0 0.002137 379.71887 493.35550
528.0 0.001894 379.58176 533.92682
616.0 0.001623 379.44498 575.07886
712.0 0.001404 379.30853 609.07343
671.0 0.001490 379.17252 627.87378
657.0 0.001522 379.03680 628.27271
693.0 0.001443 378.90152 614.50562
611.0 0.001637 378.76657 594.73486
603.0 0.001658 378.63196 575.05365
551.0 0.001815 378.49777 557.33734
532.0 0.001880 378.36389 539.68286
536.0 0.001866 378.23047 519.20862
515.0 0.001942 378.09735 495.40457
469.0 0.002132 377.96463 470.39316
483.0 0.002070 377.83231 446.87451
406.0 0.002463 377.70035 426.85059
409.0 0.002445 377.56879 411.31781
415.0 0.002410 377.43756 400.26038
382.0 0.002618 377.30673 392.96378
390.0 0.002564 377.17636 388.41367
396.0 0.002525 377.04630 385.64517
405.0 0.002469 376.91669 383.92966
363.0 0.002755 376.78741 382.79608
410.0 0.002439 376.65857 381.97824
400.0 0.002500 376.53012 381.33856
439.0 0.002278 376.40204 380.81204
372.0 0.002688 376.27438 380.35675
391.0 0.002558 376.14709 379.96375
385.0 0.002597 376.02023 379.61874
410.0 0.002439 375.89380 379.31406
395.0 0.002532 375.76773 379.04410
347.0 0.002882 375.64209 378.80606
417.0 0.002398 375.51685 378.59256
381.0 0.002625 375.39203 378.40579
438.0 0.002283 375.26764 378.24265
366.0 0.002732 375.14362 378.10196
409.0 0.002445 375.02002 377.98340
395.0 0.002532 374.89688 377.88718
368.0 0.002717 374.77411 377.81378
399.0 0.002506 374.65182 377.76462
373.0 0.002681 374.52991 377.74142
385.0 0.002597 374.40845 377.74689
381.0 0.002625 374.28738 377.78452
365.0 0.002740 374.16675 377.85898
385.0 0.002597 374.04660 377.97635
369.0 0.002710 373.92685 378.14453
407.0 0.002457 373.80756 378.37485
369.0 0.002710 373.68866 378.68417
401.0 0.002494 373.57019 379.10165
434.0 0.002304 373.45224 379.68384
353.0 0.002833 373.33466 380.54855
410.0 0.002439 373.21759 381.93750
397.0 0.002519 373.10089 384.31891
378.0 0.002646 372.98468 388.51129
402.0 0.002488 372.86893 395.77209
383.0 0.002611 372.75360 407.74664
396.0 0.002525 372.63876 426.11871
455.0 0.002198 372.52435 451.97556
468.0 0.002137 372.41040 484.94281
523.0 0.001912 372.29694 522.48395
558.0 0.001792 372.18390 559.65326
590.0 0.001695 372.07135 589.47577
577.0 0.001733 371.95926 605.14063
606.0 0.001650 371.84763 604.30530
572.0 0.001748 371.73651 591.24213
589.0 0.001698 371.62579 573.05188
457.0 0.002188 371.51559 555.05023
529.0 0.001890 371.40588 538.71637
482.0 0.002075 371.29660 522.89105
462.0 0.002165 371.18784 504.71750
470.0 0.002128 371.07953 483.42706
442.0 0.002262 370.97174 460.67578
409.0 0.002445 370.86441 438.83926
399.0 0.002506 370.75754 419.73007
418.0 0.002392 370.65121 404.62344
379.0 0.002639 370.54532 393.58273
384.0 0.002604 370.44000 386.10840
385.0 0.002597 370.33508 381.34814
385.0 0.002597 370.23071 378.43240
369.0 0.002710 370.12683 376.66406
391.0 0.002558 370.02344 375.57657
374.0 0.002674 369.92059 374.90372
388.0 0.002577 369.81821 374.56516
392.0 0.002551 369.71634 374.38531
391.0 0.002558 369.61496 374.36917
388.0 0.002577 369.51410 374.45859
395.0 0.002532 369.41379 374.57330
393.0 0.002545 369.31393 374.61426
403.0 0.002481 369.21460 374.49356
380.0 0.002632 369.11581 374.21594
384.0 0.002604 369.01752 373.78622
363.0 0.002755 368.91977 373.31851
420.0 0.002381 368.82251 372.87332
343.0 0.002915 368.72577 372.46591
379.0 0.002639 368.62958 372.07175
392.0 0.002551 368.53391 371.65610
399.0 0.002506 368.43875 371.20969
364.0 0.002747 368.34412 370.75320
385.0 0.002597 368.25003 370.31616
350.0 0.002857 368.15649 369.92215
323.0 0.003096 368.06345 369.58359
375.0 0.002667 367.97098 369.30255
425.0 0.002353 367.87900 369.07205
373.0 0.002681 367.78757 368.88092
385.0 0.002597 367.69672 368.71771
347.0 0.002882 367.60635 368.57297
404.0 0.002475 367.51657 368.44019
370.0 0.002703 367.42731 368.31522
348.0 0.002874 367.33859 368.19604
391.0 0.002558 367.25043 368.08130
391.0 0.002558 367.16281 367.97031
368.0 0.002717 367.07574 367.86276
388.0 0.002577 366.98923 367.75836
384.0 0.002604 366.90323 367.65689
348.0 0.002874 366.81784 367.55823
365.0 0.002740 366.73294 367.46234
418.0 0.002392 366.64865 367.36899
346.0 0.002890 366.56488 367.27829
393.0 0.002545 366.48166 367.19012
388.0 0.002577 366.39902 367.10449
401.0 0.002494 366.31693 367.02139
409.0 0.002445 366.23541 366.94089
403.0 0.002481 366.15442 366.86304
338.0 0.002959 366.07401 366.78784
356.0 0.002809 365.99414 366.71555
361.0 0.002770 365.91486 366.44461
343.0 0.002915 365.83612 366.38461
339.0 0.002950 365.75797 366.32770
372.0 0.002688 365.68033 366.27414
380.0 0.002632 365.60330 366.22427
353.0 0.002833 365.52682 366.17838
357.0 0.002801 365.45093 366.03506
352.0 0.002841 365.37555 366.00180
350.0 0.002857 365.30078 365.97409
387.0 0.002584 365.22656 365.95270
395.0 0.002532 365.15289 365.93851
399.0 0.002506 365.07983 365.93277
380.0 0.002632 365.00729 365.93680
363.0 0.002755 364.93533 365.95236
337.0 0.002967 364.86398 365.98166
358.0 0.002793 364.79315 366.02753
377.0 0.002653 364.72293 366.09384
353.0 0.002833 364.65323 366.18619
365.0 0.002740 364.58411 366.31430
399.0 0.002506 364.51556 366.49625
395.0 0.002532 364.44757 366.76892
380.0 0.002632 364.38019 367.20621
351.0 0.002849 364.31332 367.94934
335.0 0.002985 364.24704 369.24432
340.0 0.002941 364.18134 371.47342
356.0 0.002809 364.11618 375.15228
356.0 0.002809 364.05161 380.84406
332.0 0.003012 363.98758 389.00195
409.0 0.002445 363.92410 399.69672
413.0 0.002421 363.86121 412.38614
443.0 0.002257 363.79889 425.78186
422.0 0.002370 363.73712 437.85501
404.0 0.002475 363.67590 446.20999
458.0 0.002183 363.61526 449.11047
439.0 0.002278 363.55518 446.76697
433.0 0.002309 363.49564 441.17453
440.0 0.002273 363.43668 434.59961
401.0 0.002494 363.37823 428.44400
383.0 0.002611 363.32037 422.94125
410.0 0.002439 363.26306 417.39117
390.0 0.002564 363.20630 410.93890
413.0 0.002421 363.15012 403.43524
426.0 0.002347 363.09445 395.45853
385.0 0.002597 363.03931 387.79370
399.0 0.002506 362.98477 381.07202
380.0 0.002632 362.93076 375.65179
348.0 0.002874 362.87729 371.61493
358.0 0.002793 362.82434 368.81339
362.0 0.002762 362.77194 366.97821
351.0 0.002849 362.72009 365.81763
326.0 0.003067 362.66876 365.08453
358.0 0.002793 362.61798 364.60425
362.0 0.002762 362.56772 364.26852
335.0 0.002985 362.51801 364.00858
376.0 0.002660 362.46881 363.79547
347.0 0.002882 362.42014 363.61249
391.0 0.002558 362.37201 363.45096
382.0 0.002618 362.32437 363.30609
386.0 0.002591 362.27725 363.17499
355.0 0.002817 362.23068 363.05655
359.0 0.002786 362.18460 362.94565
387.0 0.002584 362.13904 362.84280
333.0 0.003003 362.09399 362.74689
355.0 0.002817 362.04944 362.65689
365.0 0.002740 362.00540 362.57217
382.0 0.002618 361.96185 362.49203
327.0 0.003058 361.91882 362.41599
382.0 0.002618 361.87625 362.34351
360.0 0.002778 361.83420 362.27432
371.0 0.002695 361.79263 362.20807
360.0 0.002778 361.75153 362.14435
373.0 0.002681 361.71094 362.08316
373.0 0.002681 361.67081 362.02411
375.0 0.002667 361.63113 361.96707
378.0 0.002646 361.59198 361.91193
363.0 0.002755 361.55325 361.85843
408.0 0.002451 361.51501 361.80658
351.0 0.002849 361.47723 361.75623
360.0 0.002778 361.43988 361.70721
397.0 0.002519 361.40302 361.65958
343.0 0.002915 361.36661 361.61319
388.0 0.002577 361.33063 361.56790
335.0 0.002985 361.29507 361.52377
372.0 0.002688 361.25998 361.48071
352.0 0.002841 361.22534 361.43872
337.0 0.002967 361.19110 361.39764
386.0 0.002591 361.15729 361.35745
386.0 0.002591 361.12390 361.31824
388.0 0.002577 361.09094 361.27991
345.0 0.002899 361.05838 361.24240
359.0 0.002786 361.02621 361.25027
353.0 0.002833 360.99448 361.21555
360.0 0.002778 360.96313 361.18173
347.0 0.002882 360.93219 361.14874
377.0 0.002653 360.90161 361.11658
366.0 0.002732 360.87146 361.08524
361.0 0.002770 360.84164 361.05469
338.0 0.002959 360.81223 361.04703
394.0 0.002538 360.78317 361.01886
343.0 0.002915 360.75449 360.99142
371.0 0.002695 360.72617 360.96500
340.0 0.002941 360.69821 360.93945
350.0 0.002857 360.67059 360.91495
334.0 0.002994 360.64331 360.93927
381.0 0.002625 360.61636 360.91818
372.0 0.002688 360.58978 360.89822
368.0 0.002717 360.56351 360.87961
353.0 0.002833 360.53754 360.86246
355.0 0.002817 360.51193 360.79208
375.0 0.002667 360.48660 360.77975
368.0 0.002717 360.46158 360.79309
385.0 0.002597 360.43689 360.78574
352.0 0.002841 360.41248 360.78146
366.0 0.002732 360.38834 360.78134
333.0 0.003003 360.36450 360.78763
357.0 0.002801 360.34094 360.77756
342.0 0.002924 360.31766 360.81409
343.0 0.002915 360.29462 360.88397
355.0 0.002817 360.27188 361.01004
329.0 0.003040 360.24936 361.22479
372.0 0.002688 360.22711 361.56741
363.0 0.002755 360.20508 362.07523
360.0 0.002778 360.18329 362.77008
365.0 0.002740 360.16174 363.64099
386.0 0.002591 360.14041 364.63031
338.0 0.002959 360.11929 365.62924
346.0 0.002890 360.09839 366.48376
361.0 0.002770 360.07770 367.03183
399.0 0.002506 360.05719 367.17776
364.0 0.002747 360.03690 366.96124
380.0 0.002632 360.01675 366.52863
337.0 0.002967 359.99683 366.03525
358.0 0.002793 359.97705 365.57587
368.0 0.002717 359.95743 365.16708
359.0 0.002786 359.93799 364.76273
379.0 0.002639 359.91867 364.30200
351.0 0.002849 359.89954 363.76563
371.0 0.002695 359.88049 363.18649
364.0 0.002747 359.86163 362.61951
384.0 0.002604 359.84286 362.11356
363.0 0.002755 359.82422 361.70035
340.0 0.002941 359.80569 361.39285
333.0 0.003003 359.78726 361.18637
353.0 0.002833 359.76892 361.11542
346.0 0.002890 359.75070 361.06543
368.0 0.002717 359.73254 361.06067
408.0 0.002451 359.71448 361.09061
334.0 0.002994 359.69644 361.14697
392.0 0.002551 359.67850 361.22632
333.0 0.003003 359.66061 361.32834
354.0 0.002825 359.64279 361.48129
351.0 0.002849 359.62497 361.64691
367.0 0.002725 359.60721 361.86356
379.0 0.002639 359.58948 362.16766
349.0 0.002865 359.57175 362.62589
357.0 0.002801 359.55405 363.35703
366.0 0.002732 359.53635 364.55408
389.0 0.002571 359.51865 366.49771
332.0 0.003012 359.50092 369.54034
373.0 0.002681 359.48318 374.04306
384.0 0.002604 359.46545 380.26300
371.0 0.002695 359.44766 388.19635
381.0 0.002625 359.42984 397.45276
379.0 0.002639 359.41199 407.17242
388.0 0.002577 359.39407 416.05746
374.0 0.002674 359.37613 422.58850
391.0 0.002558 359.35809 425.60590
364.0 0.002747 359.33997 425.12711
378.0 0.002646 359.32178 422.47144
411.0 0.002433 359.30350 419.33905
349.0 0.002865 359.28513 417.21265
372.0 0.002688 359.26666 416.90445
402.0 0.002488 359.24811 418.51874
376.0 0.002660 359.22940 421.62912
416.0 0.002404 359.21057 425.67307
429.0 0.002331 359.19162 430.18326
446.0 0.002242 359.17255 434.50455
417.0 0.002398 359.15332 437.65506
403.0 0.002481 359.13394 438.43085
444.0 0.002252 359.11441 436.12216
422.0 0.002370 359.09473 431.17859
499.0 0.002004 359.07486 424.94077
421.0 0.002375 359.05478 418.74390
387.0 0.002584 359.03455 413.34998
406.0 0.002463 359.01413 408.80020
401.0 0.002494 358.99350 404.54376
429.0 0.002331 358.97266 399.87033
393.0 0.002545 358.95163 394.45578
439.0 0.002278 358.93036 388.53552
405.0 0.002469 358.90887 382.61441
388.0 0.002577 358.88715 377.17221
363.0 0.002755 358.86517 372.55048
349.0 0.002865 358.84296 368.90567
372.0 0.002688 358.82050 366.22720
346.0 0.002890 358.79776 364.38113
360.0 0.002778 358.77478 363.17447
367.0 0.002725 358.75153 362.41617
354.0 0.002825 358.72797 361.94861
373.0 0.002681 358.70413 361.66089
383.0 0.002611 358.68002 361.48325
338.0 0.002959 358.65558 361.37598
383.0 0.002611 358.63086 361.31937
382.0 0.002618 358.60583 361.30457
362.0 0.002762 358.58047 361.32986
370.0 0.002703 358.55481 361.41043
374.0 0.002674 358.52881 361.56345
404.0 0.002475 358.50247 361.83273
353.0 0.002833 358.47577 362.30151
354.0 0.002825 358.44876 363.11447
357.0 0.002801 358.42139 364.49872
380.0 0.002632 358.39365 366.77417
332.0 0.003012 358.36554 370.33032
351.0 0.002849 358.33707 375.54596
403.0 0.002481 358.30823 382.66238
364.0 0.002747 358.27899 391.62448
410.0 0.002439 358.24939 401.95340
448.0 0.002232 358.21936 412.66541
473.0 0.002114 358.18896 422.32608
504.0 0.001984 358.15814 429.26727
497.0 0.002012 358.12695 432.22122
442.0 0.002262 358.09531 431.12231
479.0 0.002088 358.06326 427.17267
468.0 0.002137 358.03079 422.00778
452.0 0.002212 357.99789 416.88733
452.0 0.002212 357.96457 412.34827
440.0 0.002273 357.93079 408.19629
379.0 0.002639 357.89658 403.80112
380.0 0.002632 357.86194 398.64352
409.0 0.002445 357.82681 392.73737
405.0 0.002469 357.79126 386.53174
403.0 0.002481 357.75522 380.58286
392.0 0.002551 357.71875 375.36829
355.0 0.002817 357.68179 371.21240
361.0 0.002770 357.64435 368.29330
340.0 0.002941 357.60645 366.67688
372.0 0.002688 357.56805 366.37833
370.0 0.002703 357.52917 367.41138
327.0 0.003058 357.48981 369.79166
387.0 0.002584 357.44995 373.48737
415.0 0.002410 357.40961 378.33777
387.0 0.002584 357.36874 383.97983
461.0 0.002169 357.32739 389.75522
471.0 0.002123 357.28552 394.91809
467.0 0.002141 357.24316 398.48981
498.0 0.002008 357.20026 399.80533
441.0 0.002268 357.15686 398.89459
486.0 0.002058 357.11295 396.46872
469.0 0.002132 357.06851 393.43561
415.0 0.002410 357.02353 390.44904
422.0 0.002370 356.97806 387.82803
438.0 0.002283 356.93204 385.42383
362.0 0.002762 356.88547 382.87674
388.0 0.002577 356.83838 379.89368
400.0 0.002500 356.79074 376.48022
406.0 0.002463 356.74258 372.83508
372.0 0.002688 356.69388 369.35538
376.0 0.002660 356.64462 366.24277
373.0 0.002681 356.59482 363.65137
329.0 0.003040 356.54446 361.63492
381.0 0.002625 356.49356 360.15762
360.0 0.002778 356.44214 359.12714
364.0 0.002747 356.39014 358.40735
360.0 0.002778 356.33759 357.94034
357.0 0.002801 356.28445 357.61853
342.0 0.002924 356.23080 357.38385
326.0 0.003067 356.17657 357.20007
359.0 0.002786 356.12180 357.04584
386.0 0.002591 356.06644 356.90976
367.0 0.002725 356.01053 356.78561
366.0 0.002732 355.95410 356.67017
357.0 0.002801 355.89706 356.56137
346.0 0.002890 355.83948 356.45801
381.0 0.002625 355.78131 356.35892
348.0 0.002874 355.72263 356.26556
328.0 0.003049 355.66333 356.17328
357.0 0.002801 355.60349 356.08365
374.0 0.002674 355.54309 355.99622
379.0 0.002639 355.48215 355.91061
399.0 0.002506 355.42059 355.82657
350.0 0.002857 355.35852 355.74380
352.0 0.002841 355.29587 355.66220
369.0 0.002710 355.23267 355.58246
328.0 0.003049 355.16888 355.50250
337.0 0.002967 355.10455 355.42432
348.0 0.002874 355.03967 355.34561
366.0 0.002732 354.97421 355.26730
390.0 0.002564 354.90820 355.18930
350.0 0.002857 354.84164 355.11169
332.0 0.003012 354.77451 355.03409
353.0 0.002833 354.70685 354.95673
370.0 0.002703 354.63861 354.87936
356.0 0.002809 354.56985 354.80258
325.0 0.003077 354.50052 354.72528
357.0 0.002801 354.43063 354.64795
370.0 0.002703 354.36026 354.52045
354.0 0.002825 354.28928 354.44089
366.0 0.002732 354.21777 354.36447
343.0 0.002915 354.14575 354.28781
328.0 0.003049 354.07315 354.21100
327.0 0.003058 354.00006 354.13394
337.0 0.002967 353.92642 354.05655
353.0 0.002833 353.85226 353.97888
335.0 0.002985 353.77756 353.87479
334.0 0.002994 353.70233 353.79721
346.0 0.002890 353.62659 353.71942
363.0 0.002755 353.55035 353.64120
378.0 0.002646 353.47357 353.56265
351.0 0.002849 353.39627 353.48376
332.0 0.003012 353.31848 353.40466
347.0 0.002882 353.24020 353.32513
346.0 0.002890 353.16141 353.24539
326.0 0.003067 353.08209 353.16525
348.0 0.002874 353.00232 353.08487
334.0 0.002994 352.92203 353.00415
371.0 0.002695 352.84128 352.92322
394.0 0.002538 352.76001 352.84207
385.0 0.002597 352.67828 352.76077
350.0 0.002857 352.59607 352.67929
359.0 0.002786 352.51337 352.59781
326.0 0.003067 352.43024 352.48587
340.0 0.002941 352.34662 352.40588
329.0 0.003040 352.26257 352.32697
366.0 0.002732 352.17804 352.25024
356.0 0.002809 352.09305 352.17725
344.0 0.002907 352.00766 352.11035
345.0 0.002899 351.92181 352.05228
346.0 0.002890 351.83554 352.00592
369.0 0.002710 351.74881 351.95850
361.0 0.002770 351.66165 351.94073
352.0 0.002841 351.57410 351.93509
357.0 0.002801 351.48611 351.93576
322.0 0.003106 351.39774 351.93387
340.0 0.002941 351.30893 351.91785
382.0 0.002618 351.21973 351.87656
339.0 0.002950 351.13016 351.80460
369.0 0.002710 351.04016 351.70685
376.0 0.002660 350.94980 351.59610
363.0 0.002755 350.85904 351.48737
358.0 0.002793 350.76794 351.39404
365.0 0.002740 350.67648 351.32675
396.0 0.002525 350.58463 351.29385
346.0 0.002890 350.49243 351.30240
402.0 0.002488 350.39990 351.35953
336.0 0.002976 350.30701 351.47113
346.0 0.002890 350.21378 351.63721
336.0 0.002976 350.12021 351.84598
319.0 0.003135 350.02634 352.08609
345.0 0.002899 349.93213 352.28949
384.0 0.002604 349.83762 352.42468
346.0 0.002890 349.74280 352.45663
360.0 0.002778 349.64767 352.38358
357.0 0.002801 349.55228 352.24258
321.0 0.003115 349.45654 352.08670
339.0 0.002950 349.36053 351.95886
352.0 0.002841 349.26428 351.88446
364.0 0.002747 349.16772 351.83868
331.0 0.003021 349.07095 351.79358
381.0 0.002625 348.97388 351.70343
361.0 0.002770 348.87656 351.53238
345.0 0.002899 348.77902 351.29742
350.0 0.002857 348.68121 350.96521
351.0 0.002849 348.58322 350.60358
360.0 0.002778 348.48495 350.24338
355.0 0.002817 348.38651 349.91537
345.0 0.002899 348.28784 349.63031
340.0 0.002941 348.18896 349.38269
348.0 0.002874 348.08990 349.15762
352.0 0.002841 347.99063 348.95206
352.0 0.002841 347.89117 348.73187
324.0 0.003086 347.79156 348.51297
339.0 0.002950 347.69177 348.29697
375.0 0.002667 347.59180 348.09204
383.0 0.002611 347.49170 347.90265
342.0 0.002924 347.39142 347.73117
346.0 0.002890 347.29099 347.57748
338.0 0.002959 347.19046 347.43970
338.0 0.002959 347.08978 347.31470
342.0 0.002924 346.98898 347.19897
319.0 0.003135 346.88806 347.08984
336.0 0.002976 346.78705 346.98502
337.0 0.002967 346.68588 346.88281
326.0 0.003067 346.58469 346.78253
316.0 0.003165 346.48334 346.68347
349.0 0.002865 346.38193 346.58542
341.0 0.002933 346.28046 346.48828
346.0 0.002890 346.17889 346.39182
318.0 0.003145 346.07730 346.29623
343.0 0.002915 345.97562 346.20135
336.0 0.002976 345.87387 346.10739
323.0 0.003096 345.77216 346.01425
355.0 0.002817 345.67032 345.92203
352.0 0.002841 345.56851 345.83087
355.0 0.002817 345.46664 345.74075
300.0 0.003333 345.36475 345.65192
338.0 0.002959 345.26288 345.56439
379.0 0.002639 345.16098 345.47842
374.0 0.002674 345.05911 345.39417
316.0 0.003165 344.95721 345.31177
355.0 0.002817 344.85535 345.23157
359.0 0.002786 344.75348 345.15390
316.0 0.003165 344.65167 345.07904
318.0 0.003145 344.54990 345.00757
324.0 0.003086 344.44812 344.94003
335.0 0.002985 344.34641 344.87723
342.0 0.002924 344.24475 344.82040
366.0 0.002732 344.14313 344.77155
324.0 0.003086 344.04160 344.73422
342.0 0.002924 343.94012 344.71500
316.0 0.003165 343.83871 344.72552
321.0 0.003115 343.73743 344.78568
339.0 0.002950 343.63614 344.92990
334.0 0.002994 343.53500 345.20425
325.0 0.003077 343.43393 345.67499
328.0 0.003049 343.33301 346.41891
333.0 0.003003 343.23215 347.51077
363.0 0.002755 343.13144 349.00317
347.0 0.002882 343.03079 350.89752
330.0 0.003030 342.93030 353.12384
340.0 0.002941 342.82996 355.52469
375.0 0.002667 342.72971 357.85641
384.0 0.002604 342.62961 359.82007
385.0 0.002597 342.52963 361.13004
390.0 0.002564 342.42984 361.65912
387.0 0.002584 342.33017 361.55240
342.0 0.002924 342.23068 361.18454
397.0 0.002519 342.13132 361.00638
371.0 0.002695 342.03210 361.39853
381.0 0.002625 341.93311 362.60526
351.0 0.002849 341.83426 364.68881
391.0 0.002558 341.73560 367.52216
386.0 0.002591 341.63712 370.83521
394.0 0.002538 341.53882 374.27286
365.0 0.002740 341.44070 377.41376
409.0 0.002445 341.34277 379.76407
377.0 0.002653 341.24506 380.84882
401.0 0.002494 341.14752 380.44733
414.0 0.002415 341.05020 378.74167
371.0 0.002695 340.95309 376.21140
362.0 0.002762 340.85617 373.38989
369.0 0.002710 340.75949 370.68353
343.0 0.002915 340.66299 368.27563
372.0 0.002688 340.56674 366.11252
333.0 0.003003 340.47070 363.97183
332.0 0.003012 340.37485 361.62827
332.0 0.003012 340.27930 358.99707
357.0 0.002801 340.18393 356.17667
355.0 0.002817 340.08881 353.28290
355.0 0.002817 339.99390 350.54190
342.0 0.002924 339.89923 348.05963
319.0 0.003135 339.80484 345.95700
329.0 0.003040 339.71063 344.26785
325.0 0.003077 339.61670 342.97372
352.0 0.002841 339.52298 342.01813
335.0 0.002985 339.42953 341.34137
349.0 0.002865 339.33633 340.84821
358.0 0.002793 339.24338 340.48859
307.0 0.003257 339.15067 340.22821
359.0 0.002786 339.05820 340.05453
323.0 0.003096 338.96597 339.87225
350.0 0.002857 338.87402 339.71136
297.0 0.003367 338.78232 339.56451
351.0 0.002849 338.69089 339.42740
354.0 0.002825 338.59967 339.29797
365.0 0.002740 338.50870 339.17435
324.0 0.003086 338.41803 339.05600
300.0 0.003333 338.32758 338.96350
349.0 0.002865 338.23740 338.85410
341.0 0.002933 338.14746 338.74838
368.0 0.002717 338.05777 338.64609
325.0 0.003077 337.96835 338.54730
313.0 0.003195 337.87918 338.45215
318.0 0.003145 337.79028 338.36127
342.0 0.002924 337.70160 338.27597
333.0 0.003003 337.61322 338.19849
333.0 0.003003 337.52502 338.13202
345.0 0.002899 337.43710 338.08157
335.0 0.002985 337.34946 338.05283
350.0 0.002857 337.26199 338.05206
351.0 0.002849 337.17484 338.08472
320.0 0.003125 337.08789 338.15274
318.0 0.003145 337.00122 338.25342
347.0 0.002882 336.91473 338.37683
327.0 0.003058 336.82855 338.50754
350.0 0.002857 336.74252 338.62036
329.0 0.003040 336.65677 338.69022
343.0 0.002915 336.57126 338.69513
353.0 0.002833 336.48596 338.62823
338.0 0.002959 336.40091 338.50296
331.0 0.003021 336.31607 338.34451
328.0 0.003049 336.23145 338.17783
364.0 0.002747 336.14703 338.02017
321.0 0.003115 336.06284 337.87668
312.0 0.003205 335.97885 337.74384
349.0 0.002865 335.89505 337.61118
318.0 0.003145 335.81149 337.46939
336.0 0.002976 335.72812 337.31702
341.0 0.002933 335.64496 337.15952
345.0 0.002899 335.56195 336.99146
355.0 0.002817 335.47916 336.85141
335.0 0.002985 335.39655 336.73157
343.0 0.002915 335.31412 336.63660
348.0 0.002874 335.23187 336.56906
355.0 0.002817 335.14978 336.52942
359.0 0.002786 335.06784 336.51761
305.0 0.003279 334.98611 336.56238
337.0 0.002967 334.90451 336.60666
322.0 0.003106 334.82306 336.70282
318.0 0.003145 334.74176 336.86487
332.0 0.003012 334.66061 337.13153
330.0 0.003030 334.57962 337.56583
334.0 0.002994 334.49872 338.23825
372.0 0.002688 334.41800 339.33505
325.0 0.003077 334.33737 340.99451
324.0 0.003086 334.25684 343.42581
322.0 0.003106 334.17645 346.77081
380.0 0.002632 334.09616 351.15768
318.0 0.003145 334.01599 356.58240
373.0 0.002681 333.93585 362.89120
379.0 0.002639 333.85583 369.68857
330.0 0.003030 333.77594 376.45956
357.0 0.002801 333.69604 382.53012
396.0 0.002525 333.61630 387.30893
336.0 0.002976 333.53656 390.49670
366.0 0.002732 333.45688 392.20792
415.0 0.002410 333.37729 392.95224
396.0 0.002525 333.29770 393.50150
360.0 0.002778 333.21817 394.59442
382.0 0.002618 333.13867 396.67459
404.0 0.002475 333.05917 399.70575
435.0 0.002299 332.97974 403.18457
434.0 0.002304 332.90027 406.28363
471.0 0.002123 332.82083 408.04642
436.0 0.002294 332.74136 407.64862
457.0 0.002188 332.66187 404.74219
474.0 0.002110 332.58240 399.68814
440.0 0.002273 332.50287 393.37918
402.0 0.002488 332.42334 386.81625
422.0 0.002370 332.34375 380.75891
373.0 0.002681 332.26413 375.59344
378.0 0.002646 332.18442 371.31464
387.0 0.002584 332.10468 367.60471
365.0 0.002740 332.02484 364.03006
397.0 0.002519 331.94492 360.28003
363.0 0.002755 331.86493 356.30566
379.0 0.002639 331.78485 352.25656
332.0 0.003012 331.70465 348.34744
329.0 0.003040 331.62436 344.78006
320.0 0.003125 331.54395 341.69675
333.0 0.003003 331.46338 339.16992
372.0 0.002688 331.38272 337.19983
339.0 0.002950 331.30191 335.72855
367.0 0.002725 331.22092 334.66653
367.0 0.002725 331.13980 333.91437
348.0 0.002874 331.05850 333.38153
320.0 0.003125 330.97705 332.99548
325.0 0.003077 330.89539 332.70407
355.0 0.002817 330.81357 332.47263
341.0 0.002933 330.73151 332.28015
332.0 0.003012 330.64926 332.11508
328.0 0.003049 330.56680 331.97232
356.0 0.002809 330.48413 331.85025
331.0 0.003021 330.40125 331.74973
305.0 0.003279 330.31805 331.67545
326.0 0.003067 330.23465 331.62973
358.0 0.002793 330.15103 331.61478
315.0 0.003175 330.06711 331.63049
327.0 0.003058 329.98294 331.72467
356.0 0.002809 329.89847 331.78683
345.0 0.002899 329.81369 331.85419
359.0 0.002786 329.72867 331.90948
339.0 0.002950 329.64331 331.93533
344.0 0.002907 329.55765 331.91751
339.0 0.002950 329.47168 331.85385
350.0 0.002857 329.38535 331.75647
348.0 0.002874 329.29871 331.64487
355.0 0.002817 329.21173 331.56427
321.0 0.003115 329.12439 331.47894
341.0 0.002933 329.03668 331.42477
298.0 0.003356 328.94861 331.41083
321.0 0.003115 328.86020 331.45084
328.0 0.003049 328.77136 331.57352
317.0 0.003155 328.68219 331.83374
352.0 0.002841 328.59256 332.32004
329.0 0.003040 328.50253 333.15445
311.0 0.003215 328.41211 334.48492
325.0 0.003077 328.32126 336.46835
314.0 0.003185 328.23001 339.23627
349.0 0.002865 328.13831 342.85519
349.0 0.002865 328.04614 347.27774
334.0 0.002994 327.95355 352.30777
418.0 0.002392 327.86050 357.58914
434.0 0.002304 327.76700 362.60889
419.0 0.002387 327.67300 366.75818
450.0 0.002222 327.57852 369.45920
438.0 0.002283 327.48361 370.40817
430.0 0.002326 327.38815 369.76898
433.0 0.002309 327.29224 368.08179
444.0 0.002252 327.19580 366.08496
364.0 0.002747 327.09885 364.32425
390.0 0.002564 327.00137 363.10196
365.0 0.002740 326.90338 362.50592
354.0 0.002825 326.80490 362.28900
393.0 0.002545 326.70584 362.07037
409.0 0.002445 326.60626 361.48438
390.0 0.002564 326.50610 360.29462
395.0 0.002532 326.40546 358.40836
396.0 0.002525 326.30420 355.88397
361.0 0.002770 326.20239 352.86023
368.0 0.002717 326.10001 349.60175
373.0 0.002681 325.99704 346.49878
356.0 0.002809 325.89352 343.74860
399.0 0.002506 325.78940 341.47363
330.0 0.003030 325.68472 339.67084
359.0 0.002786 325.57941 338.23108
342.0 0.002924 325.47354 336.99078
306.0 0.003268 325.36700 335.79050
311.0 0.003215 325.25995 334.51813
330.0 0.003030 325.15222 333.21143
312.0 0.003205 325.04385 331.89532
346.0 0.002890 324.93494 330.63309
357.0 0.002801 324.82532 329.48041
330.0 0.003030 324.71515 328.47775
328.0 0.003049 324.60428 327.64352
310.0 0.003226 324.49280 326.97632
316.0 0.003165 324.38071 326.45920
323.0 0.003096 324.26794 326.06561
353.0 0.002833 324.15457 325.76740
339.0 0.002950 324.04050 325.53848
328.0 0.003049 323.92581 325.35800
326.0 0.003067 323.81049 325.21100
315.0 0.003175 323.69446 325.08746
315.0 0.003175 323.57782 324.98154
306.0 0.003268 323.46048 324.89008
323.0 0.003096 323.34250 324.81189
320.0 0.003125 323.22388 324.74704
341.0 0.002933 323.10455 324.69666
361.0 0.002770 322.98462 324.66327
325.0 0.003077 322.86398 324.65097
303.0 0.003300 322.74265 324.66797
297.0 0.003367 322.62070 324.72797
323.0 0.003096 322.49802 324.85623
313.0 0.003195 322.37476 325.09619
301.0 0.003322 322.25073 325.51944
307.0 0.003257 322.12607 326.23697
298.0 0.003356 322.00076 327.40771
318.0 0.003145 321.87476 329.24225
294.0 0.003401 321.74811 331.98773
288.0 0.003472 321.62076 335.89862
321.0 0.003115 321.49274 341.17700
352.0 0.002841 321.36407 347.91251
329.0 0.003040 321.23471 355.96927
350.0 0.002857 321.10474 364.98752
381.0 0.002625 320.97403 374.33060
349.0 0.002865 320.84268 383.10406
383.0 0.002611 320.71069 390.25037
390.0 0.002564 320.57800 394.77841
375.0 0.002667 320.44473 396.13980
417.0 0.002398 320.31073 394.54654
361.0 0.002770 320.17609 390.86734
319.0 0.003135 320.04083 386.17221
355.0 0.002817 319.90488 381.36801
336.0 0.002976 319.76834 376.99463
359.0 0.002786 319.63110 373.16745
375.0 0.002667 319.49326 369.63492
366.0 0.002732 319.35477 365.93771
365.0 0.002740 319.21567 361.67691
329.0 0.003040 319.07590 356.74582
342.0 0.002924 318.93552 351.33362
327.0 0.003058 318.79456 345.78122
322.0 0.003106 318.65292 340.43658
380.0 0.002632 318.51074 335.58142
325.0 0.003077 318.36789 331.40497
315.0 0.003175 318.22452 327.98886
309.0 0.003236 318.08047 325.32217
295.0 0.003390 317.93588 323.32266
339.0 0.002950 317.79068 321.86838
281.0 0.00356 317.64490 320.83002
318.0 0.003145 317.49857 320.09012
309.0 0.003236 317.35165 319.55576
323.0 0.003096 317.20422 319.16171
299.0 0.003344 317.05618 318.86740
341.0 0.002933 316.90762 318.65311
307.0 0.003257 316.75851 318.51361
282.0 0.00355 316.60886 318.42633
308.0 0.003247 316.45868 318.47192
329.0 0.003040 316.30798 318.59720
326.0 0.003067 316.15680 318.82098
294.0 0.003401 316.00510 319.12900
342.0 0.002924 315.85287 319.49747
346.0 0.002890 315.70023 319.88440
290.0 0.003448 315.54700 320.23398
326.0 0.003067 315.39340 320.46768
319.0 0.003135 315.23926 320.55435
335.0 0.002985 315.08469 320.45761
303.0 0.003300 314.92972 320.17703
329.0 0.003040 314.77423 319.76331
323.0 0.003096 314.61838 319.30334
316.0 0.003165 314.46207 318.83859
333.0 0.003003 314.30536 318.40213
327.0 0.003058 314.14828 318.00116
316.0 0.003165 313.99075 317.62051
318.0 0.003145 313.83292 317.23270
290.0 0.003448 313.67465 316.81265
312.0 0.003205 313.51602 316.35223
327.0 0.003058 313.35709 315.85687
332.0 0.003012 313.19778 315.35638
321.0 0.003115 313.03818 314.86728
317.0 0.003155 312.87820 314.40689
305.0 0.003279 312.71793 313.98767
288.0 0.003472 312.55740 313.61572
309.0 0.003236 312.39655 313.29114
300.0 0.003333 312.23544 313.00967
315.0 0.003175 312.07404 312.76440
288.0 0.003472 311.91238 312.54752
293.0 0.003413 311.75055 312.35187
280.0 0.00357 311.58841 312.17139
334.0 0.002994 311.42612 312.00180
303.0 0.003300 311.26355 311.84024
292.0 0.003425 311.10080 311.68515
310.0 0.003226 310.93793 311.53625
295.0 0.003390 310.77484 311.39398
303.0 0.003300 310.61163 311.26041
307.0 0.003257 310.44824 311.13943
322.0 0.003106 310.28476 311.03824
340.0 0.002941 310.12109 310.96857
263.0 0.00380 309.95734 310.94891
312.0 0.003205 309.79355 311.00623
320.0 0.003125 309.62961 311.17691
298.0 0.003356 309.46564 311.50613
302.0 0.003311 309.30157 312.04242
312.0 0.003205 309.13751 312.83115
316.0 0.003165 308.97336 313.90057
287.0 0.003484 308.80927 315.25073
309.0 0.003236 308.64511 316.83875
303.0 0.003300 308.48093 318.57254
329.0 0.003040 308.31683 320.31161
330.0 0.003030 308.15274 321.87082
376.0 0.002660 307.98877 323.04700
309.0 0.003236 307.82477 323.66675
325.0 0.003077 307.66092 323.66025
359.0 0.002786 307.49707 323.10202
320.0 0.003125 307.33340 322.17328
319.0 0.003135 307.16980 321.07870
280.0 0.00357 307.00632 319.98340
343.0 0.002915 306.84305 318.98233
303.0 0.003300 306.67987 318.04086
349.0 0.002865 306.51691 317.21252
325.0 0.003077 306.35406 316.35583
307.0 0.003257 306.19144 315.39304
361.0 0.002770 306.02908 314.29901
318.0 0.003145 305.86691 313.10538
301.0 0.003322 305.70502 311.87601
306.0 0.003268 305.54330 310.67834
310.0 0.003226 305.38187 309.54480
301.0 0.003322 305.22076 308.57001
313.0 0.003195 305.05991 307.75018
318.0 0.003145 304.89941 307.09241
291.0 0.003436 304.73914 306.59094
303.0 0.003300 304.57925 306.23608
314.0 0.003185 304.41974 306.02176
301.0 0.003322 304.26056 305.95248
293.0 0.003413 304.10178 306.04910
298.0 0.003356 303.94336 306.35107
291.0 0.003436 303.78531 306.91406
299.0 0.003344 303.62775 307.80270
305.0 0.003279 303.47055 309.07837
340.0 0.002941 303.31387 310.77994
323.0 0.003096 303.15756 312.90601
345.0 0.002899 303.00174 315.39471
323.0 0.003096 302.84644 318.11359
327.0 0.003058 302.69159 320.85922
359.0 0.002786 302.53726 323.36343
386.0 0.002591 302.38345 325.32907
372.0 0.002688 302.23013 326.49792
394.0 0.002538 302.07742 326.75168
378.0 0.002646 301.92523 326.16852
352.0 0.002841 301.77362 324.98068
348.0 0.002874 301.62259 323.47217
317.0 0.003155 301.47211 321.89273
315.0 0.003175 301.32230 320.40561
354.0 0.002825 301.17303 319.06549
320.0 0.003125 301.02448 317.82599
316.0 0.003165 300.87653 316.57040
333.0 0.003003 300.72919 315.19031
320.0 0.003125 300.58258 313.62695
339.0 0.002950 300.43658 311.90204
318.0 0.003145 300.29135 310.09082
316.0 0.003165 300.14673 308.28662
354.0 0.002825 300.00290 306.57874
325.0 0.003077 299.85971 305.03702
311.0 0.003215 299.71732 303.70422
339.0 0.002950 299.57562 302.59464
281.0 0.00356 299.43466 301.70285
296.0 0.003378 299.29453 301.00241
301.0 0.003322 299.15509 300.45898
264.0 0.00379 299.01651 300.03650
278.0 0.00360 298.87863 299.70221
307.0 0.003257 298.74164 299.42932
279.0 0.00358 298.60541 299.19766
287.0 0.003484 298.47003 298.99301
293.0 0.003413 298.33545 298.80600
277.0 0.00361 298.20169 298.63058
307.0 0.003257 298.06882 298.46347
287.0 0.003484 297.93677 298.30231
278.0 0.00360 297.80560 298.14587
316.0 0.003165 297.67529 297.99347
304.0 0.003289 297.54590 297.84473
296.0 0.003378 297.41733 297.69937
312.0 0.003205 297.28967 297.55734
265.0 0.00377 297.16296 297.41895
296.0 0.003378 297.03711 297.28430
319.0 0.003135 296.91220 297.15390
307.0 0.003257 296.78821 297.02802
293.0 0.003413 296.66513 296.91150
288.0 0.003472 296.54300 296.79651
282.0 0.00355 296.42181 296.68515
306.0 0.003268 296.30161 296.57739
280.0 0.00357 296.18231 296.47223
318.0 0.003145 296.06396 296.36758
311.0 0.003215 295.94662 296.26147
281.0 0.00356 295.83023 296.15182
267.0 0.00375 295.71481 296.03690
289.0 0.003460 295.60037 295.91660
305.0 0.003279 295.48691 295.79437
307.0 0.003257 295.37448 295.66837
297.0 0.003367 295.26297 295.54175
269.0 0.00372 295.15253 295.41684
299.0 0.003344 295.04306 295.28293
276.0 0.00362 294.93457 295.16302
286.0 0.003497 294.82712 295.04495
307.0 0.003257 294.72064 294.92764
327.0 0.003058 294.61523 294.81033
301.0 0.003322 294.51077 294.69275
269.0 0.00372 294.40735 294.57513
285.0 0.00351 294.30499 294.45831
292.0 0.003425 294.20358 294.34274
308.0 0.003247 294.10324 294.22937
317.0 0.003155 294.00391 294.11279
304.0 0.003289 293.90561 294.00467
289.0 0.003460 293.80832 293.89938
310.0 0.003226 293.71207 293.79678
280.0 0.00357 293.61682 293.69650
275.0 0.00364 293.52261 293.59860
283.0 0.00353 293.42941 293.50247
308.0 0.003247 293.33728 293.40820
302.0 0.003311 293.24612 293.31528
294.0 0.003401 293.15604 293.22385
289.0 0.003460 293.06693 293.13361
276.0 0.00362 292.97888 293.04465
304.0 0.003289 292.89182 292.95688
280.0 0.00357 292.80576 292.87018
319.0 0.003135 292.72076 292.78473
295.0 0.003390 292.63672 292.70029
289.0 0.003460 292.55371 292.61700
300.0 0.003333 292.47171 292.53485
312.0 0.003205 292.39075 292.45377
286.0 0.003497 292.31073 292.37390
317.0 0.003155 292.23175 292.29498
310.0 0.003226 292.15372 292.21729
316.0 0.003165 292.07669 292.14059
297.0 0.003367 292.00070 292.06512
277.0 0.00361 291.92563 291.99066
291.0 0.003436 291.85156 291.90082
294.0 0.003401 291.77844 291.82895
284.0 0.00352 291.70630 291.75830
286.0 0.003497 291.63510 291.68680
282.0 0.00355 291.56488 291.61838
279.0 0.00358 291.49561 291.55103
300.0 0.003333 291.42725 291.48477
290.0 0.003448 291.35986 291.41977
298.0 0.003356 291.29337 291.35583
292.0 0.003425 291.22781 291.29315
295.0 0.003390 291.16318 291.22345
298.0 0.003356 291.09943 291.16336
310.0 0.003226 291.03662 291.10364
259.0 0.00386 290.97464 291.04611
308.0 0.003247 290.91360 290.98996
303.0 0.003300 290.85342 290.93512
285.0 0.00351 290.79413 290.88181
271.0 0.00369 290.73569 290.83011
277.0 0.00361 290.67807 290.78000
287.0 0.003484 290.62134 290.73181
287.0 0.003484 290.56543 290.68573
283.0 0.00353 290.51031 290.64209
272.0 0.00368 290.45605 290.60172
300.0 0.003333 290.40259 290.56573
287.0 0.003484 290.34995 290.53610
291.0 0.003436 290.29803 290.51605
293.0 0.003413 290.24692 290.51056
293.0 0.003413 290.19659 290.52740
301.0 0.003322 290.14703 290.57727
321.0 0.003115 290.09821 290.67407
284.0 0.00352 290.05008 290.83466
296.0 0.003378 290.00272 291.07724
284.0 0.00352 289.95605 291.41833
307.0 0.003257 289.91013 291.86957
307.0 0.003257 289.86487 292.43240
284.0 0.00352 289.82028 293.09479
306.0 0.003268 289.77637 293.82767
294.0 0.003401 289.73312 294.58429
315.0 0.003175 289.69052 295.30212
278.0 0.00360 289.64856 295.90744
304.0 0.003289 289.60721 296.32794
319.0 0.003135 289.56644 296.51355
306.0 0.003268 289.52631 296.45844
308.0 0.003247 289.48676 296.20465
305.0 0.003279 289.44778 295.82376
325.0 0.003077 289.40936 295.38977
306.0 0.003268 289.37149 294.96091
273.0 0.00366 289.33417 294.57068
301.0 0.003322 289.29736 294.22513
298.0 0.003356 289.26108 293.90735
280.0 0.00357 289.22528 293.58499
308.0 0.003247 289.18997 293.22678
297.0 0.003367 289.15509 292.81699
274.0 0.00365 289.12073 292.36057
289.0 0.003460 289.08679 291.87729
303.0 0.003300 289.05328 291.39240
308.0 0.003247 289.02020 290.92899
280.0 0.00357 288.98752 290.50623
284.0 0.00352 288.95523 290.13657
273.0 0.00366 288.92331 289.82587
310.0 0.003226 288.89178 289.57343
289.0 0.003460 288.86060 289.37393
270.0 0.00370 288.82974 289.21939
302.0 0.003311 288.79922 289.10046
263.0 0.00380 288.76901 289.00830
315.0 0.003175 288.73911 288.93546
317.0 0.003155 288.70947 288.87567
299.0 0.003344 288.68011 288.82477
286.0 0.003497 288.65103 288.77960
275.0 0.00364 288.62219 288.73999
299.0 0.003344 288.59357 288.70135
288.0 0.003472 288.56516 288.66452
290.0 0.003448 288.53699 288.62903
276.0 0.00362 288.50897 288.59470
292.0 0.003425 288.48117 288.56119
290.0 0.003448 288.45352 288.52850
279.0 0.00358 288.42599 288.49643
279.0 0.00358 288.39865 288.46494
294.0 0.003401 288.37143 288.43408
276.0 0.00362 288.34430 288.40436
280.0 0.00357 288.31729 288.37427
297.0 0.003367 288.29034 288.34445
300.0 0.003333 288.26352 288.31509
286.0 0.003497 288.23672 288.28595
278.0 0.00360 288.20999 288.25702
287.0 0.003484 288.18329 288.22839
285.0 0.00351 288.15659 288.19980
269.0 0.00372 288.12994 288.17148
290.0 0.003448 288.10327 288.14328
284.0 0.00352 288.07660 288.11523
281.0 0.00356 288.04993 288.08719
280.0 0.00357 288.02316 288.05920
292.0 0.003425 287.99640 288.03125
267.0 0.00375 287.96957 288.00339
279.0 0.00358 287.94266 287.97559
281.0 0.00356 287.91568 287.94769
317.0 0.003155 287.88861 287.91992
282.0 0.00355 287.86142 287.89194
306.0 0.003268 287.83414 287.86401
299.0 0.003344 287.80673 287.83591
297.0 0.003367 287.77917 287.80789
282.0 0.00355 287.75146 287.77966
292.0 0.003425 287.72360 287.75137
288.0 0.003472 287.69559 287.72293
283.0 0.00353 287.66739 287.69440
288.0 0.003472 287.63901 287.66568
288.0 0.003472 287.61044 287.63690
275.0 0.00364 287.58167 287.60797
286.0 0.003497 287.55264 287.57880
293.0 0.003413 287.52344 287.54953
288.0 0.003472 287.49399 287.51999
296.0 0.003378 287.46429 287.49030
279.0 0.00358 287.43436 287.46051
272.0 0.00368 287.40414 287.44037
278.0 0.00360 287.37369 287.41034
276.0 0.00362 287.34296 287.38010
280.0 0.00357 287.31192 287.34961
311.0 0.003215 287.28064 287.31894
308.0 0.003247 287.24902 287.28809
296.0 0.003378 287.21710 287.25699
318.0 0.003145 287.18491 287.22568
299.0 0.003344 287.15237 287.19418
252.0 0.00397 287.11954 287.16248
315.0 0.003175 287.08636 287.13062
274.0 0.00365 287.05286 287.10361
283.0 0.00353 287.01901 287.07156
293.0 0.003413 286.98477 287.03949
294.0 0.003401 286.95026 287.00751
299.0 0.003344 286.91534 286.97562
271.0 0.00369 286.88010 286.94446
263.0 0.00380 286.84445 286.90964
275.0 0.00364 286.80844 286.87970
304.0 0.003289 286.77206 286.85303
303.0 0.003300 286.73532 286.82932
270.0 0.00370 286.69821 286.80942
233.0 0.00429 286.66071 286.79901
258.0 0.00388 286.62277 286.78928
288.0 0.003472 286.58450 286.78525
282.0 0.00355 286.54581 286.78668
294.0 0.003401 286.50674 286.79871
294.0 0.003401 286.46729 286.80530
264.0 0.00379 286.42740 286.81586
271.0 0.00369 286.38712 286.82516
259.0 0.00386 286.34644 286.83130
269.0 0.00372 286.30539 286.83340
252.0 0.00397 286.26392 286.83310
260.0 0.00385 286.22202 286.83682
267.0 0.00375 286.17975 286.84610
312.0 0.003205 286.13702 286.87051
313.0 0.003195 286.09393 286.91733
288.0 0.003472 286.05045 286.99390
275.0 0.00364 286.00653 287.09647
267.0 0.00375 285.96222 287.22571
283.0 0.00353 285.91751 287.37436
271.0 0.00369 285.87241 287.53040
283.0 0.00353 285.82687 287.67780
302.0 0.003311 285.78098 287.79840
291.0 0.003436 285.73468 287.87390
312.0 0.003205 285.68799 287.89032
305.0 0.003279 285.64087 287.84320
285.0 0.00351 285.59341 287.74014
290.0 0.003448 285.54553 287.59778
298.0 0.003356 285.49728 287.43604
300.0 0.003333 285.44867 287.27167
283.0 0.00353 285.39969 287.11639
279.0 0.00358 285.35028 286.97491
288.0 0.003472 285.30054 286.84561
312.0 0.003205 285.25046 286.72186
290.0 0.003448 285.19998 286.59442
317.0 0.003155 285.14917 286.45609
290.0 0.003448 285.09799 286.30389
277.0 0.00361 285.04645 286.14017
289.0 0.003460 284.99463 285.97046
290.0 0.003448 284.94241 285.80136
268.0 0.00373 284.88989 285.63864
280.0 0.00357 284.83704 285.48721
282.0 0.00355 284.78387 285.34988
307.0 0.003257 284.73041 285.22836
283.0 0.00353 284.67664 285.12259
300.0 0.003333 284.62253 285.03168
265.0 0.00377 284.56815 284.95395
302.0 0.003311 284.51349 284.88779
299.0 0.003344 284.45856 284.83212
283.0 0.00353 284.40335 284.78625
283.0 0.00353 284.34784 284.75089
280.0 0.00357 284.29211 284.72827
307.0 0.003257 284.23611 284.72293
316.0 0.003165 284.17990 284.74240
283.0 0.00353 284.12341 284.79794
282.0 0.00355 284.06668 284.90521
265.0 0.00377 284.00977 285.08386
300.0 0.003333 283.95264 285.35739
283.0 0.00353 283.89529 285.75049
263.0 0.00380 283.83774 286.28586
280.0 0.00357 283.78003 286.97934
286.0 0.003497 283.72211 287.83469
255.0 0.00392 283.66403 288.83774
248.0 0.00403 283.60577 289.95294
278.0 0.00360 283.54736 291.12292
291.0 0.003436 283.48883 292.26764
310.0 0.003226 283.43011 293.29102
275.0 0.00364 283.37131 294.09030
279.0 0.00358 283.31238 294.57809
312.0 0.003205 283.25333 294.71234
330.0 0.003030 283.19415 294.52029
330.0 0.003030 283.13489 294.07022
298.0 0.003356 283.07556 293.47244
289.0 0.003460 283.01614 292.82773
315.0 0.003175 282.95667 292.21274
293.0 0.003413 282.89713 291.67340
268.0 0.00373 282.83749 291.22253
285.0 0.00351 282.77786 290.84509
276.0 0.00362 282.71820 290.51950
293.0 0.003413 282.65851 290.19638
271.0 0.00369 282.59879 289.88348
345.0 0.002899 282.53903 289.58951
289.0 0.003460 282.47931 289.35806
273.0 0.00366 282.41962 289.24057
295.0 0.003390 282.35992 289.27881
307.0 0.003257 282.30026 289.49835
287.0 0.003484 282.24060 289.90289
299.0 0.003344 282.18100 290.46930
313.0 0.003195 282.12146 291.14777
290.0 0.003448 282.06198 291.87051
320.0 0.003125 282.00256 292.54343
309.0 0.003236 281.94321 293.09506
356.0 0.002809 281.88391 293.45749
320.0 0.003125 281.82477 293.59915
312.0 0.003205 281.76569 293.51117
303.0 0.003300 281.70673 293.21335
288.0 0.003472 281.64786 292.75351
306.0 0.003268 281.58908 292.19614
320.0 0.003125 281.53049 291.60275
296.0 0.003378 281.47198 291.01495
300.0 0.003333 281.41367 290.45093
296.0 0.003378 281.35544 289.90613
299.0 0.003344 281.29742 289.36420
283.0 0.00353 281.23950 288.80386
319.0 0.003135 281.18176 288.20453
276.0 0.00362 281.12424 287.55344
289.0 0.003460 281.06683 286.85162
303.0 0.003300 281.00964 286.11649
318.0 0.003145 280.95261 285.37585
311.0 0.003215 280.89581 284.65894
324.0 0.003086 280.83914 283.99152
274.0 0.00365 280.78271 283.39096
265.0 0.00377 280.72650 282.86703
291.0 0.003436 280.67047 282.42017
309.0 0.003236 280.61465 282.04922
286.0 0.003497 280.55905 281.74359
273.0 0.00366 280.50366 281.49252
277.0 0.00361 280.44852 281.28519
249.0 0.00402 280.39359 281.11191
292.0 0.003425 280.33887 280.96466
263.0 0.00380 280.28439 280.83719
251.0 0.00398 280.23010 280.72461
270.0 0.00370 280.17609 280.62381
265.0 0.00377 280.12231 280.53220
277.0 0.00361 280.06876 280.44748
290.0 0.003448 280.01544 280.37033
287.0 0.003484 279.96234 280.29797
276.0 0.00362 279.90948 280.23007
297.0 0.003367 279.85687 280.16565
262.0 0.00382 279.80450 280.10440
263.0 0.00380 279.75235 280.04562
290.0 0.003448 279.70044 279.98895
276.0 0.00362 279.64874 279.93405
285.0 0.00351 279.59732 279.88083
265.0 0.00377 279.54608 279.82925
285.0 0.00351 279.49512 279.77933
260.0 0.00385 279.44434 279.73132
306.0 0.003268 279.39377 279.68494
282.0 0.00355 279.34348 279.64063
307.0 0.003257 279.29333 279.59851
261.0 0.00383 279.24347 279.55878
274.0 0.00365 279.19376 279.52173
261.0 0.00383 279.14426 279.48697
296.0 0.003378 279.09497 279.45499
269.0 0.00372 279.04587 279.42477
255.0 0.00392 278.99698 279.39627
265.0 0.00377 278.94824 279.36862
283.0 0.00353 278.89966 279.34134
265.0 0.00377 278.85129 279.31357
290.0 0.003448 278.80307 279.28458
297.0 0.003367 278.75500 279.25464
285.0 0.00351 278.70709 279.22424
301.0 0.003322 278.65930 279.19458
320.0 0.003125 278.61169 279.16702
267.0 0.00375 278.56415 279.14340
258.0 0.00388 278.51675 279.12576
291.0 0.003436 278.46948 279.11688
272.0 0.00368 278.42227 279.12009
268.0 0.00373 278.37518 279.13412
289.0 0.003460 278.32816 279.17892
266.0 0.00376 278.28122 279.25729
299.0 0.003344 278.23434 279.38199
278.0 0.00360 278.18750 279.56885
291.0 0.003436 278.14072 279.83588
276.0 0.00362 278.09393 280.20306
281.0 0.00356 278.04718 280.68933
300.0 0.003333 278.00043 281.31216
291.0 0.003436 277.95367 282.08411
263.0 0.00380 277.90689 283.00772
275.0 0.00364 277.86011 284.09616
295.0 0.003390 277.81326 285.33563
311.0 0.003215 277.76633 286.71692
282.0 0.00355 277.71939 288.22180
290.0 0.003448 277.67233 289.82870
286.0 0.003497 277.62518 291.52011
282.0 0.00355 277.57791 293.28760
289.0 0.003460 277.53055 295.13464
266.0 0.00376 277.48300 297.05792
276.0 0.00362 277.43533 299.02731
289.0 0.003460 277.38751 300.97043
283.0 0.00353 277.33948 302.76312
296.0 0.003378 277.29126 304.26285
345.0 0.002899 277.24283 305.30786
321.0 0.003115 277.19418 305.77145
289.0 0.003460 277.14529 305.61670
317.0 0.003155 277.09613 304.87485
323.0 0.003096 277.04672 303.66055
312.0 0.003205 276.99701 302.13791
304.0 0.003289 276.94699 300.47824
278.0 0.00360 276.89667 298.82153
294.0 0.003401 276.84601 297.25690
313.0 0.003195 276.79498 295.81369
315.0 0.003175 276.74359 294.46976
286.0 0.003497 276.69183 293.17047
312.0 0.003205 276.63965 291.85358
303.0 0.003300 276.58707 290.47571
282.0 0.00355 276.53406 289.02274
298.0 0.003356 276.48059 287.51355
271.0 0.00369 276.42670 285.98907
260.0 0.00385 276.37225 284.49893
304.0 0.003289 276.31738 283.09225
263.0 0.00380 276.26196 281.80740
297.0 0.003367 276.20602 280.67181
285.0 0.00351 276.14954 279.69894
257.0 0.00389 276.09247 278.89456
260.0 0.00385 276.03488 278.23685
270.0 0.00370 275.97665 277.71390
264.0 0.00379 275.91782 277.30432
270.0 0.00370 275.85840 276.98553
265.0 0.00377 275.79831 276.73660
285.0 0.00351 275.73758 276.53958
246.0 0.00407 275.67615 276.37967
280.0 0.00357 275.61404 276.24628
280.0 0.00357 275.55127 276.13168
286.0 0.003497 275.48776 276.03098
269.0 0.00372 275.42352 275.94122
260.0 0.00385 275.35852 275.86426
276.0 0.00362 275.29279 275.79343
283.0 0.00353 275.22629 275.73218
290.0 0.003448 275.15900 275.67746
243.0 0.00412 275.09094 275.63660
261.0 0.00383 275.02200 275.60596
297.0 0.003367 274.95227 275.58435
291.0 0.003436 274.88174 275.56970
272.0 0.00368 274.81033 275.55887
262.0 0.00382 274.73807 275.54770
281.0 0.00356 274.66492 275.53091
303.0 0.003300 274.59091 275.50314
282.0 0.00355 274.51599 275.45932
271.0 0.00369 274.44016 275.39621
272.0 0.00368 274.36349 275.31320
265.0 0.00377 274.28577 275.21313
277.0 0.00361 274.20724 275.10141
273.0 0.00366 274.12766 274.98322
255.0 0.00392 274.04715 274.86365
290.0 0.003448 273.96579 274.74622
255.0 0.00392 273.88336 274.63226
269.0 0.00372 273.79999 274.52222
253.0 0.00395 273.71558 274.41431
258.0 0.00388 273.63022 274.30667
283.0 0.00353 273.54398 274.19720
256.0 0.00391 273.45657 274.08423
280.0 0.00357 273.36829 273.96890
267.0 0.00375 273.27887 273.85312
285.0 0.00351 273.18851 273.74075
277.0 0.00361 273.09723 273.63644
270.0 0.00370 273.00482 273.54556
262.0 0.00382 272.91144 273.47507
301.0 0.003322 272.81699 273.43216
258.0 0.00388 272.72150 273.42563
317.0 0.003155 272.62515 273.46356
277.0 0.00361 272.52762 273.55417
279.0 0.00358 272.42914 273.70316
272.0 0.00368 272.32959 273.91385
276.0 0.00362 272.22903 274.18378
249.0 0.00402 272.12759 274.50464
269.0 0.00372 272.02496 274.86200
273.0 0.00366 271.92142 275.23291
271.0 0.00369 271.81683 275.58926
280.0 0.00357 271.71124 275.89667
273.0 0.00366 271.60480 276.12027
309.0 0.003236 271.49719 276.23041
285.0 0.00351 271.38870 276.21063
293.0 0.003413 271.27917 276.06503
275.0 0.00364 271.16870 275.81705
266.0 0.00376 271.05740 275.50122
310.0 0.003226 270.94498 275.15198
288.0 0.003472 270.83173 274.79953
282.0 0.00355 270.71747 274.46317
274.0 0.00365 270.60236 274.15216
299.0 0.003344 270.48642 273.86481
246.0 0.00407 270.36948 273.58932
282.0 0.00355 270.25177 273.31042
270.0 0.00370 270.13303 273.01199
259.0 0.00386 270.01358 272.68552
270.0 0.00370 269.89331 272.33078
306.0 0.003268 269.77216 271.95447
274.0 0.00365 269.65027 271.56833
282.0 0.00355 269.52747 271.17810
259.0 0.00386 269.40402 270.80621
249.0 0.00402 269.27988 270.45581
271.0 0.00369 269.15488 270.13226
260.0 0.00385 269.02930 269.83936
283.0 0.00353 268.90289 269.57748
266.0 0.00376 268.77588 269.34515
240.0 0.00417 268.64832 269.13971
265.0 0.00377 268.51999 268.94733
289.0 0.003460 268.39120 268.78452
288.0 0.003472 268.26169 268.63113
290.0 0.003448 268.13168 268.49762
263.0 0.00380 268.00128 268.38239
259.0 0.00386 267.87012 268.28424
267.0 0.00375 267.73868 268.20825
274.0 0.00365 267.60666 268.16098
302.0 0.003311 267.47424 268.15228
277.0 0.00361 267.34155 268.19397
257.0 0.00389 267.20828 268.29929
284.0 0.00352 267.07483 268.47705
282.0 0.00355 266.94092 268.74915
243.0 0.00412 266.80676 269.11456
286.0 0.003497 266.67249 269.58133
289.0 0.003460 266.53778 270.13858
271.0 0.00369 266.40295 270.76605
292.0 0.003425 266.26788 271.43433
266.0 0.00376 266.13269 272.10037
269.0 0.00372 265.99753 272.71255
272.0 0.00368 265.86209 273.21512
265.0 0.00377 265.72668 273.55219
259.0 0.00386 265.59119 273.68942
276.0 0.00362 265.45572 273.60547
288.0 0.003472 265.32043 273.32764
249.0 0.00402 265.18503 272.90323
283.0 0.00353 265.04980 272.39188
285.0 0.00351 264.91464 271.84811
264.0 0.00379 264.77969 271.31522
262.0 0.00382 264.64505 270.81982
279.0 0.00358 264.51050 270.36920
282.0 0.00355 264.37625 269.95624
287.0 0.003484 264.24222 269.55930
263.0 0.00380 264.10855 269.15192
286.0 0.003497 263.97540 268.71393
280.0 0.00357 263.84244 268.22852
270.0 0.00370 263.70999 267.70267
298.0 0.003356 263.57788 267.14926
287.0 0.003484 263.44632 266.58795
284.0 0.00352 263.31540 266.03778
223.0 0.00448 263.18488 265.51389
259.0 0.00386 263.05499 265.02972
271.0 0.00369 262.92560 264.59201
272.0 0.00368 262.79694 264.20416
276.0 0.00362 262.66904 263.86459
233.0 0.00429 262.54166 263.56744
252.0 0.00397 262.41510 263.30661
283.0 0.00353 262.28922 263.07355
264.0 0.00379 262.16418 262.86279
234.0 0.00427 262.04001 262.66870
244.0 0.00410 261.91656 262.48730
268.0 0.00373 261.79410 262.31650
294.0 0.003401 261.67233 262.15411
251.0 0.00398 261.55164 261.99945
294.0 0.003401 261.43192 261.85104
265.0 0.00377 261.31305 261.70746
271.0 0.00369 261.19525 261.56772
270.0 0.00370 261.07840 261.43027
242.0 0.00413 260.96259 261.29376
269.0 0.00372 260.84793 261.15805
271.0 0.00369 260.73422 261.02219
250.0 0.00400 260.62173 260.88678
282.0 0.00355 260.51022 260.75192
248.0 0.00403 260.39993 260.61877
258.0 0.00388 260.29083 260.48782
252.0 0.00397 260.18280 260.35956
268.0 0.00373 260.07608 260.23468
253.0 0.00395 259.97043 260.11310
247.0 0.00405 259.86603 259.99512
287.0 0.003484 259.76297 259.88074
262.0 0.00382 259.66098 259.76962
246.0 0.00407 259.56036 259.66168
239.0 0.00418 259.46091 259.55652
228.0 0.00439 259.36276 259.45386
237.0 0.00422 259.26599 259.35361
284.0 0.00352 259.17035 259.25537
238.0 0.00420 259.07608 259.15906
247.0 0.00405 258.98303 259.06442
266.0 0.00376 258.89130 258.97153
254.0 0.00394 258.80096 258.88019
263.0 0.00380 258.71179 258.78705
265.0 0.00377 258.62396 258.69882
266.0 0.00376 258.53738 258.61215
239.0 0.00418 258.45212 258.52698
227.0 0.00441 258.36823 258.44330
274.0 0.00365 258.28549 258.36108
267.0 0.00375 258.20407 258.28033
273.0 0.00366 258.12387 258.20099
280.0 0.00357 258.04495 258.12320
272.0 0.00368 257.96732 258.04691
235.0 0.00426 257.89087 257.97198
269.0 0.00372 257.81564 257.89688
249.0 0.00402 257.74158 257.82486
261.0 0.00383 257.66870 257.75446
250.0 0.00400 257.59708 257.68555
260.0 0.00385 257.52652 257.61801
256.0 0.00391 257.45709 257.55206
248.0 0.00403 257.38876 257.48764
241.0 0.00415 257.32150 257.42474
249.0 0.00402 257.25540 257.36362
269.0 0.00372 257.19022 257.30402
275.0 0.00364 257.12610 257.24628
259.0 0.00386 257.06290 257.19061
252.0 0.00397 257.00067 257.13730
247.0 0.00405 256.93942 257.08688
249.0 0.00402 256.87897 257.04013
278.0 0.00360 256.81943 256.99838
235.0 0.00426 256.76065 256.96347
278.0 0.00360 256.70267 256.94214
284.0 0.00352 256.64551 256.93066
298.0 0.003356 256.58896 256.93787
246.0 0.00407 256.53314 256.97043
242.0 0.00413 256.47791 257.03629
253.0 0.00395 256.42331 257.14420
252.0 0.00397 256.36926 257.30298
226.0 0.00442 256.31567 257.52118
266.0 0.00376 256.26263 257.80441
265.0 0.00377 256.20993 258.15518
283.0 0.00353 256.15765 258.56976
280.0 0.00357 256.10571 259.03964
277.0 0.00361 256.05405 259.54590
279.0 0.00358 256.00262 260.06668
250.0 0.00400 255.95137 260.56796
275.0 0.00364 255.90027 261.01550
265.0 0.00377 255.84930 261.37204
260.0 0.00385 255.79836 261.60565
253.0 0.00395 255.74744 261.69012
225.0 0.00444 255.69643 261.63821
269.0 0.00372 255.64534 261.46420
239.0 0.00418 255.59415 261.20242
264.0 0.00379 255.54269 260.89056
253.0 0.00395 255.49106 260.56317
232.0 0.00431 255.43907 260.24600
246.0 0.00407 255.38676 259.95303
255.0 0.00392 255.33411 259.68829
283.0 0.00353 255.28094 259.44467
251.0 0.00398 255.22734 259.20795
259.0 0.00386 255.17316 258.95978
267.0 0.00375 255.11841 258.68195
243.0 0.00412 255.06310 258.37277
269.0 0.00372 255.00702 258.02969
259.0 0.00386 254.95026 257.66199
252.0 0.00397 254.89270 257.28140
249.0 0.00402 254.83435 256.90128
266.0 0.00376 254.77522 256.53372
249.0 0.00402 254.71510 256.18744
262.0 0.00382 254.65410 255.87007
287.0 0.003484 254.59210 255.58475
254.0 0.00394 254.52910 255.33305
250.0 0.00400 254.46513 255.11374
273.0 0.00366 254.39998 254.92346
248.0 0.00403 254.33379 254.75847
256.0 0.00391 254.26640 254.61465
264.0 0.00379 254.19786 254.48763
268.0 0.00373 254.12822 254.37607
272.0 0.00368 254.05725 254.27133
260.0 0.00385 253.98509 254.17355
238.0 0.00420 253.91162 254.08037
245.0 0.00408 253.83690 253.99042
246.0 0.00407 253.76096 253.90260
269.0 0.00372 253.68361 253.81584
254.0 0.00394 253.60500 253.72984
252.0 0.00397 253.52501 253.64388
267.0 0.00375 253.44373 253.55807
255.0 0.00392 253.36119 253.47212
286.0 0.003497 253.27721 253.38582
259.0 0.00386 253.19196 253.30057
272.0 0.00368 253.10535 253.21367
258.0 0.00388 253.01746 253.12669
234.0 0.00427 252.92838 253.03952
246.0 0.00407 252.83789 252.95206
251.0 0.00398 252.74622 252.86453
263.0 0.00380 252.65324 252.77670
274.0 0.00365 252.55916 252.68855
256.0 0.00391 252.46393 252.59987
244.0 0.00410 252.36748 252.51027
238.0 0.00420 252.27002 252.42288
269.0 0.00372 252.17139 252.33066
271.0 0.00369 252.07187 252.23666
227.0 0.00441 251.97142 252.14055
226.0 0.00442 251.87000 252.04214
274.0 0.00365 251.76784 251.94179
204.0 0.00490 251.66479 251.83963
262.0 0.00382 251.56108 251.73628
249.0 0.00402 251.45682 251.63235
269.0 0.00372 251.35190 251.52814
248.0 0.00403 251.24661 251.42435
241.0 0.00415 251.14082 251.32097
278.0 0.00360 251.03474 251.22026
246.0 0.00407 250.92854 251.11914
255.0 0.00392 250.82213 251.01952
254.0 0.00394 250.71581 250.92209
225.0 0.00444 250.60945 250.82744
258.0 0.00388 250.50333 250.73718
247.0 0.00405 250.39763 250.65344
235.0 0.00426 250.29218 250.57887
260.0 0.00385 250.18739 250.51765
274.0 0.00365 250.08319 250.47426
251.0 0.00398 249.97981 250.45457
276.0 0.00362 249.87744 250.46495
261.0 0.00383 249.77599 250.51201
231.0 0.00433 249.67581 250.60199
249.0 0.00402 249.57689 250.74016
233.0 0.00429 249.47948 250.92915
270.0 0.00370 249.38376 251.16856
263.0 0.00380 249.28970 251.45465
229.0 0.00437 249.19759 251.77808
257.0 0.00389 249.10750 252.12608
238.0 0.00420 249.01965 252.48058
268.0 0.00373 248.93427 252.82019
256.0 0.00391 248.85129 253.12227
244.0 0.00410 248.77106 253.36369
261.0 0.00383 248.69359 253.52774
269.0 0.00372 248.61917 253.60747
236.0 0.00424 248.54799 253.60959
264.0 0.00379 248.48003 253.55190
235.0 0.00426 248.41557 253.45769
260.0 0.00385 248.35472 253.34927
275.0 0.00364 248.29767 253.24368
258.0 0.00388 248.24463 253.14998
263.0 0.00380 248.19560 253.06816
244.0 0.00410 248.15086 252.99043
250.0 0.00400 248.11047 252.90250
260.0 0.00385 248.07465 252.78738
241.0 0.00415 248.04352 252.63062
262.0 0.00382 248.01717 252.42424
261.0 0.00383 247.99576 252.17021
251.0 0.00398 247.97942 251.87846
228.0 0.00439 247.96826 251.56477
255.0 0.00392 247.96239 251.24577
244.0 0.00410 247.96194 250.93108
262.0 0.00382 247.96698 250.64275
255.0 0.00392 247.97758 250.38286
278.0 0.00360 247.99388 250.15520
265.0 0.00377 248.01590 249.95927
262.0 0.00382 248.04372 249.79172
226.0 0.00442 248.07736 249.64912
276.0 0.00362 248.11693 249.52811
278.0 0.00360 248.16235 249.42737
208.0 0.00481 248.21368 249.34723
224.0 0.00446 248.27095 249.28880
246.0 0.00407 248.33406 249.25478
232.0 0.00431 248.40311 249.24583
219.0 0.00457 248.47789 249.26991
276.0 0.00362 248.55836 249.32845
249.0 0.00402 248.64456 249.42506
249.0 0.00402 248.73621 249.56270
217.0 0.00461 248.83336 249.74370
263.0 0.00380 248.93573 249.96838
236.0 0.00424 249.04311 250.23531
256.0 0.00391 249.15549 250.54117
264.0 0.00379 249.27243 250.87898
250.0 0.00400 249.39392 251.24054
263.0 0.00380 249.51952 251.61288
265.0 0.00377 249.64885 251.98203
243.0 0.00412 249.78192 252.33325
254.0 0.00394 249.91801 252.64967
256.0 0.00391 250.05704 252.91824
239.0 0.00418 250.19839 253.12999
300.0 0.003333 250.34152 253.28453
263.0 0.00380 250.48636 253.39015
277.0 0.00361 250.63193 253.46107
257.0 0.00389 250.77803 253.51447
218.0 0.00459 250.92387 253.56747
238.0 0.00420 251.06874 253.63506
263.0 0.00380 251.21231 253.72905
252.0 0.00397 251.35359 253.85657
278.0 0.00360 251.49202 254.02135
262.0 0.00382 251.62668 254.22238
266.0 0.00376 251.75665 254.45511
234.0 0.00427 251.88138 254.71326
242.0 0.00413 251.99968 254.98843
269.0 0.00372 252.11075 255.27335
262.0 0.00382 252.21347 255.55986
256.0 0.00391 252.30673 255.83926
263.0 0.00380 252.38968 256.10123
250.0 0.00400 252.46092 256.33188
266.0 0.00376 252.51939 256.51599
260.0 0.00385 252.56378 256.63760
246.0 0.00407 252.59277 256.68365
256.0 0.00391 252.60506 256.64783
281.0 0.00356 252.59921 256.53235
250.0 0.00400 252.57376 256.34808
240.0 0.00417 252.52719 256.11102
255.0 0.00392 252.45807 255.83807
254.0 0.00394 252.36453 255.54285
261.0 0.00383 252.24510 255.23596
274.0 0.00365 252.09792 254.92181
247.0 0.00405 251.92128 254.60036
254.0 0.00394 251.71359 254.26651
257.0 0.00389 251.47240 253.90996
271.0 0.00369 251.19626 253.51984
259.0 0.00386 250.88280 253.08395
254.0 0.00394 250.53026 252.59393
244.0 0.00410 250.13686 252.04587
256.0 0.00391 249.69949 251.43825
250.0 0.00400 249.21683 250.77507
244.0 0.00410 248.68596 250.05942
225.0 0.00444 248.10529 249.29634
245.0 0.00408 247.47237 248.48924
234.0 0.00427 246.78389 247.63918
239.0 0.00418 246.03888 246.74904
243.0 0.00412 245.23299 245.81624
236.0 0.00424 244.36566 244.84106
243.0 0.00412 243.43387 243.82008
270.0 0.00370 242.43372 242.74780
248.0 0.00403 241.36464 241.62167
257.0 0.00389 240.22180 240.43460
231.0 0.00433 239.00407 239.18314
249.0 . . .
loop_
_refln_index_h
_refln_index_k
_refln_index_l
_pd_refln_wavelength_id
_refln_observed_status
_refln_F_squared_meas
_refln_F_squared_calc
_refln_phase_calc
_refln_d_spacing
_gsas_i100_meas
0 0 1 1 o 418.892 421.236 0.00 7.41088 34.07
0 0 1 2 o 409.891 421.236 0.00 7.41088 16.61
1 0 1 1 o 162.509 161.778 180.00 4.78633 30.83
1 0 1 2 o 166.737 161.778 180.00 4.78633 15.73
1 1 0 1 o 99.926 85.355 180.00 4.43302 7.57
1 1 0 2 o 97.986 85.355 180.00 4.43302 3.69
1 1 1 1 o 910.769 909.471 0.00 3.80434 100.00
1 1 1 2 o 923.101 909.471 0.00 3.80434 50.39
0 0 2 1 o 701.753 601.776 0.00 3.70544 13.27
0 0 2 2 o 623.853 601.776 0.00 3.70544 5.90
1 0 2 1 o 67.279 59.922 180.00 3.18991 4.36
1 0 2 2 o 69.115 59.922 180.00 3.18991 2.23
2 0 0 1 o 2337.413 2237.956 180.00 3.13462 60.00
2 0 0 2 o 2246.617 2237.956 180.00 3.13462 28.72
2 0 1 1 o 263.573 254.610 180.00 2.88698 19.29
2 0 1 2 o 248.778 254.610 180.00 2.88698 9.09
1 1 2 1 o 355.969 343.898 0.00 2.84304 17.48
1 1 2 2 o 355.236 343.898 0.00 2.84304 8.68
2 1 1 1 o 29.086 35.760 0.00 2.62230 2.91
2 1 1 2 o 28.568 35.760 0.00 2.62230 1.42
0 0 3 1 o 659.676 378.500 0.00 2.47029 5.06
0 0 3 2 o 564.154 378.500 0.00 2.47029 2.16
2 0 2 1 o 231.981 258.368 180.00 2.39316 10.46
2 0 2 2 o 206.171 258.368 180.00 2.39316 4.66
1 0 3 1 o 21.898 10.675 180.00 2.29831 0.65
1 0 3 2 o 24.369 10.675 180.00 2.29831 0.36
2 1 2 1 o 56.280 52.978 0.00 2.23580 3.65
2 1 2 2 o 55.523 52.978 0.00 2.23580 1.79
2 2 0 1 o 781.916 840.587 0.00 2.21651 14.70
2 2 0 2 o 692.031 840.587 0.00 2.21651 6.50
1 1 3 1 o 109.697 121.469 0.00 2.15787 3.04
1 1 3 2 o 107.848 121.469 0.00 2.15787 1.49
2 2 1 1 o 237.443 158.859 0.00 2.12356 8.15
2 2 1 2 o 209.798 158.859 0.00 2.12356 3.60
3 0 1 1 o -0.159 9.602 0.00 2.01131 0.00
3 0 1 2 o -0.159 9.602 0.00 2.01131 0.00
3 1 0 1 o 16.054 0.208 0.00 1.98251 0.30
3 1 0 2 o 13.398 0.208 0.00 1.98251 0.13
2 0 3 1 o 224.290 172.630 180.00 1.94022 5.15
2 0 3 2 o 221.980 172.630 180.00 1.94022 2.53
3 1 1 1 o 118.651 124.128 180.00 1.91516 5.53
3 1 1 2 o 117.188 124.128 180.00 1.91516 2.72
2 2 2 1 o 141.531 123.977 0.00 1.90217 3.35
2 2 2 2 o 137.905 123.977 0.00 1.90217 1.62
2 1 3 1 o 0.828 3.092 0.00 1.85348 0.03
0 0 4 1 o 1.822 12.789 0.00 1.85272 0.02
2 1 3 2 o 0.659 3.092 0.00 1.85348 0.01
0 0 4 2 o 2.538 12.789 0.00 1.85272 0.01
3 0 2 1 o 16.927 38.032 0.00 1.82023 0.43
3 0 2 2 o 11.448 38.032 0.00 1.82023 0.15
1 0 4 1 o 6.891 3.430 180.00 1.77676 0.11
1 0 4 2 o 12.264 3.430 180.00 1.77676 0.09
3 1 2 1 o 100.541 78.601 180.00 1.74804 4.31
3 1 2 2 o 96.512 78.601 180.00 1.74804 2.06
1 1 4 1 o 226.982 214.942 0.00 1.70943 3.45
1 1 4 2 o 205.315 214.942 0.00 1.70943 1.56
3 2 1 1 o 4.616 1.193 180.00 1.69280 0.16
3 2 1 2 o 3.745 1.193 180.00 1.69280 0.07
2 2 3 1 o 75.656 85.518 0.00 1.64976 1.11
2 2 3 2 o 83.710 85.518 0.00 1.64976 0.61
3 0 3 1 o -0.035 1.167 0.00 1.59544 0.00
2 0 4 1 o -0.096 5.019 180.00 1.59496 0.02
3 0 3 2 o 0.723 1.167 0.00 1.59544 0.01
2 0 4 2 o 2.582 5.019 180.00 1.59496 0.03
3 2 2 1 o 13.027 32.387 180.00 1.57409 0.40
3 2 2 2 o 19.525 32.387 180.00 1.57409 0.30
4 0 0 1 o 187.495 199.361 0.00 1.56731 0.98
4 0 0 2 o 242.636 199.361 0.00 1.56731 0.62
3 1 3 1 o 54.353 35.633 180.00 1.54616 1.59
2 1 4 1 o 4.558 2.987 0.00 1.54572 0.11
3 1 3 2 o 46.885 35.633 180.00 1.54616 0.69
2 1 4 2 o 3.715 2.987 0.00 1.54572 0.04
4 0 1 1 o 117.998 50.570 0.00 1.53339 1.46
4 0 1 2 o 91.226 50.570 0.00 1.53339 0.57
4 1 1 1 o 3.213 0.443 180.00 1.48948 0.07
4 1 1 2 o 5.960 0.443 180.00 1.48948 0.06
0 0 5 1 o 3.041 16.852 0.00 1.48218 0.01
0 0 5 2 o 7.644 16.852 0.00 1.48218 0.01
3 3 0 1 o 1.389 2.438 0.00 1.47767 0.02
3 3 0 2 o -0.891 2.438 0.00 1.47767 0.00
3 3 1 1 o 11.653 20.810 0.00 1.44915 0.18
3 3 1 2 o 21.112 20.810 0.00 1.44915 0.15
4 0 2 1 o 31.429 37.160 0.00 1.44349 0.46
1 0 5 1 o 5.983 8.658 180.00 1.44241 0.05
4 0 2 2 o 3.730 37.160 0.00 1.44349 0.05
1 0 5 2 o -0.132 8.658 180.00 1.44241 0.00
3 2 3 1 o 0.037 0.203 180.00 1.42187 0.00
2 2 4 1 o 0.012 1.812 0.00 1.42152 0.01
3 2 3 2 o 0.052 0.203 180.00 1.42187 0.00
2 2 4 2 o 0.787 1.812 0.00 1.42152 0.01
4 1 2 1 o 14.382 20.110 180.00 1.40669 0.35
1 1 5 1 o 41.532 51.034 0.00 1.40569 0.40
4 1 2 2 o 25.078 20.110 180.00 1.40669 0.30
1 1 5 2 o 73.286 51.034 0.00 1.40569 0.34
4 2 0 1 o 133.322 89.949 180.00 1.40184 1.26
4 2 0 2 o 138.416 89.949 180.00 1.40184 0.65
3 0 4 1 o 10.527 2.096 0.00 1.38633 0.11
3 0 4 2 o 1.104 2.096 0.00 1.38633 0.01
4 2 1 1 o 74.778 36.393 180.00 1.37742 1.48
4 2 1 2 o 68.202 36.393 180.00 1.37742 0.68
3 3 2 1 o 43.869 23.056 0.00 1.37256 0.51
3 3 2 2 o 26.913 23.056 0.00 1.37256 0.16
3 1 4 1 o 31.913 72.697 180.00 1.35363 0.66
3 1 4 2 o 36.136 72.697 180.00 1.35363 0.36
2 0 5 1 o 7.363 9.515 180.00 1.33994 0.07
2 0 5 2 o -0.759 9.515 180.00 1.33994 0.00
4 0 3 1 o 19.297 24.770 0.00 1.32342 0.24
4 0 3 2 o 31.478 24.770 0.00 1.32342 0.19
4 2 2 1 o 45.892 20.692 180.00 1.31115 0.91
2 1 5 1 o 6.371 3.052 0.00 1.31034 0.10
4 2 2 2 o 40.164 20.692 180.00 1.31115 0.40
2 1 5 2 o 5.454 3.052 0.00 1.31034 0.04
4 1 3 1 o -0.009 0.170 180.00 1.29488 0.00
4 1 3 2 o 1.020 0.170 180.00 1.29488 0.01
3 3 3 1 o 30.330 12.183 0.00 1.26811 0.27
3 2 4 1 o 4.166 1.848 180.00 1.26787 0.06
3 3 3 2 o 14.248 12.183 0.00 1.26811 0.06
3 2 4 2 o 2.025 1.848 180.00 1.26787 0.02
4 3 1 1 o -0.002 0.377 180.00 1.23628 0.00
5 0 1 1 o -0.003 0.045 180.00 1.23628 0.00
0 0 6 1 o -0.348 0.916 0.00 1.23515 0.00
4 3 1 2 o -0.002 0.377 180.00 1.23628 0.00
5 0 1 2 o -0.003 0.045 180.00 1.23628 0.00
0 0 6 2 o 1.472 0.916 0.00 1.23515 0.00
2 2 5 1 o 8.578 5.493 0.00 1.23209 0.06
5 1 0 1 o 0.697 0.062 0.00 1.22950 0.00
2 2 5 2 o 23.877 5.493 0.00 1.23209 0.08
5 1 0 2 o 1.236 0.062 0.00 1.22950 0.00
4 2 3 1 o 11.137 13.571 180.00 1.21921 0.20
4 2 3 2 o 17.829 13.571 180.00 1.21921 0.15
5 1 1 1 o 19.629 8.014 0.00 1.21292 0.26
1 0 6 1 o 56.424 23.599 0.00 1.21185 0.34
3 0 5 2 o -0.020 1.244 0.00 1.20896 0.00
5 1 1 2 o 19.808 8.014 0.00 1.21292 0.13
3 0 5 1 o 3.220 1.244 0.00 1.20896 0.02
1 0 6 2 o 61.590 23.599 0.00 1.21185 0.18
4 0 4 1 o 0.439 0.123 0.00 1.19658 0.00
4 0 4 2 o 0.648 0.123 0.00 1.19658 0.00
1 1 6 1 o 25.060 26.637 0.00 1.18983 0.16
5 0 2 1 o 7.603 8.717 180.00 1.18769 0.06
4 3 2 1 o 12.403 14.218 0.00 1.18769 0.21
3 1 5 1 o 15.466 16.204 180.00 1.18709 0.22
1 1 6 2 o 26.113 26.637 0.00 1.18983 0.08
5 0 2 2 o 7.456 8.717 180.00 1.18769 0.03
4 3 2 2 o 12.164 14.218 0.00 1.18769 0.10
3 1 5 2 o 8.841 16.204 180.00 1.18709 0.07
4 1 4 1 o -0.026 1.025 180.00 1.17536 0.00
4 1 4 2 o -0.026 1.025 180.00 1.17536 0.00
5 1 2 1 o 15.984 6.489 0.00 1.16694 0.25
5 1 2 2 o 10.707 6.489 0.00 1.16694 0.09
3 3 4 1 o 46.672 28.288 0.00 1.15524 0.31
3 3 4 2 o 56.678 28.288 0.00 1.15524 0.18
5 2 1 1 o 0.020 0.109 180.00 1.15006 0.00
2 0 6 1 o 1.126 0.916 180.00 1.14915 0.01
5 2 1 2 o 0.710 0.109 180.00 1.15006 0.00
2 0 6 2 o 3.686 0.916 180.00 1.14915 0.01
2 1 6 1 o 17.149 12.082 180.00 1.13032 0.20
3 2 5 1 o 0.395 0.265 180.00 1.12798 0.00
2 1 6 2 o 25.157 12.082 180.00 1.13032 0.15
3 2 5 2 o 2.513 0.265 180.00 1.12798 0.01
4 3 3 1 o 0.001 0.004 180.00 1.11807 0.00
5 0 3 1 o -0.006 0.109 180.00 1.11807 0.00
4 2 4 1 o -0.055 0.002 180.00 1.11790 0.00
4 3 3 2 o 0.004 0.004 180.00 1.11807 0.00
5 0 3 2 o 0.124 0.109 180.00 1.11807 0.00
4 2 4 2 o 0.029 0.002 180.00 1.11790 0.00
5 2 2 1 o 12.906 8.204 0.00 1.11064 0.18
4 4 0 1 o 17.145 10.897 0.00 1.10825 0.07
5 2 2 2 o 13.047 8.204 0.00 1.11064 0.09
4 4 0 2 o -0.890 10.897 0.00 1.10825 0.00
5 1 3 1 o 8.889 4.125 0.00 1.10070 0.14
5 1 3 2 o 6.864 4.125 0.00 1.10070 0.06
4 4 1 1 o 16.891 11.430 0.00 1.09607 0.13
4 4 1 2 o 8.238 11.430 0.00 1.09607 0.03
