#------------------------------------------------------------------------------
#$Date: 2016-02-14 16:26:36 +0200 (Sun, 14 Feb 2016) $
#$Revision: 176435 $
#$URL: svn://www.crystallography.net/cod/cif/1/51/62/1516215.cif $
#------------------------------------------------------------------------------
#
# This file is available in the Crystallography Open Database (COD),
# http://www.crystallography.net/
#
# All data on this site have been placed in the public domain by the
# contributors.
#
data_1516215
loop_
_publ_author_name
'Migliorati, Valentina'
'Ballirano, Paolo'
'Gontrani, Lorenzo'
'Russina, Olga'
'Caminiti, Ruggero'
_publ_section_title
;
 Crystal polymorphism of propylammonium chloride and structural properties
 of its mixture with water.
;
_journal_issue                   41
_journal_name_full               'The journal of physical chemistry. B'
_journal_page_first              11805
_journal_page_last               11815
_journal_paper_doi               10.1021/jp206831d
_journal_volume                  115
_journal_year                    2011
_chemical_formula_sum            'C3 Cl N'
_chemical_formula_weight         85.49
_chemical_name_systematic        ' ?'
_space_group_IT_number           129
_symmetry_cell_setting           tetragonal
_symmetry_space_group_name_Hall  '-P 4a 2a'
_symmetry_space_group_name_H-M   'P 4/n m m :2'
_audit_creation_date             2011-07-21T08:55
_audit_creation_method           'from EXP file using GSAS2CIF'
_audit_update_record
' 2011-07-21T08:55  Initial CIF as created by GSAS2CIF'
_cell_angle_alpha                90.0
_cell_angle_beta                 90.0
_cell_angle_gamma                90.0
_cell_formula_units_Z            2
_cell_length_a                   6.25480(7)
_cell_length_b                   6.2548
_cell_length_c                   7.39492(19)
_cell_volume                     289.308(8)
_computing_structure_refinement  GSAS
_diffrn_radiation_probe          x-ray
_exptl_absorpt_correction_T_max  0.81793
_exptl_absorpt_correction_T_min  0.81483
_exptl_absorpt_process_details
;   GSAS Absorption/surface roughness correction: function number 0
 Debye-Scherrer absorption correction
Term (= MU.r/wave) =     0.78580E-01
Correction is not refined.
;
_pd_block_id                     2011-07-21T08:55|55|paolo|Bruker_AXS_D8_Advance
_pd_calc_method                  'Rietveld Refinement'
_pd_instr_location               ' ?'
_pd_meas_2theta_range_inc        0.022
_pd_meas_2theta_range_max        89.988
_pd_meas_2theta_range_min        3.0
_pd_meas_number_of_points        3955
_pd_phase_name                   'Propylammonium chloride'
_pd_proc_2theta_range_inc        0.022
_pd_proc_2theta_range_max        89.988
_pd_proc_2theta_range_min        3.0
_pd_proc_info_datetime           2011-07-21T08:55:27
_pd_proc_info_excluded_regions   ' ?'
_pd_proc_ls_background_function
;   GSAS Background function number 1 with 30 terms.
 Shifted Chebyshev function of 1st kind
      1:    516.180     2:   -355.762     3:    49.5535     4:    75.4449    
      5:   -71.1380     6:   -1.84830     7:    68.4186     8:   -77.1917    
      9:    36.9907    10:    9.17281    11:   -29.5773    12:    24.8289    
     13:   -6.56791    14:   -8.22473    15:    3.24243    16:   0.428667    
     17:   -2.31234    18:   -1.55313    19:    1.22996    20:  -2.747630E-02
     21:   -5.56342    22:    2.51015    23:   -2.16378    24:   -1.92581    
     25:    2.50494    26:   -2.21654    27:   -2.73853    28:    2.21310    
     29:   -2.71186    30:   0.927660    
;
_pd_proc_ls_peak_cutoff          0.00100
_pd_proc_ls_profile_function
;
 CW Profile function number 3 with  19 terms
 Pseudovoigt profile coefficients as parameterized in
 P. Thompson, D.E. Cox & J.B. Hastings (1987). J. Appl. Cryst.,20,79-83.
 Asymmetry correction of L.W. Finger, D.E. Cox & A. P. Jephcoat (1994).
 J. Appl. Cryst.,27,892-900.
 Peak tails are ignored  where the intensity is below 0.0010 times the peak
   Aniso. broadening axis   0.0   1.0   0.0
;
_pd_proc_ls_prof_R_factor        0.0454
_pd_proc_ls_prof_wR_expected     0.0410
_pd_proc_ls_prof_wR_factor       0.0596
_pd_proc_number_of_points        3955
_pd_spec_mounting                ' ?'
_refine_ls_goodness_of_fit_all   1.47
_refine_ls_matrix_type           full
_refine_ls_number_parameters     47
_refine_ls_number_restraints     8
_refine_ls_R_Fsqd_factor         0.14726
_refine_ls_shift/su_max          0.08
_refine_ls_shift/su_mean         0.01
_reflns_d_resolution_high        1.094
_reflns_d_resolution_low         7.395
_reflns_limit_h_max              5
_reflns_limit_h_min              0
_reflns_limit_k_max              4
_reflns_limit_k_min              0
_reflns_limit_l_max              6
_reflns_limit_l_min              0
_reflns_number_total             174
_cod_data_source_file            328K.cif
_cod_data_source_block           55_publ
_cod_depositor_comments
;
The following automatic conversions were performed:

'_geom_bond_publ_flag' value 'N' changed to 'n' according to
/usr/data/users/saulius/automatic-downloads/retrospective/ACS/lib/dictionaries/cif_core.dic
dictionary named 'cif_core.dic' version 2.4.2 from 2011-04-26 (24
times).

'_geom_angle_publ_flag' value 'N' changed to 'n' according
to
/usr/data/users/saulius/automatic-downloads/retrospective/ACS/lib/dictionaries/cif_core.dic
dictionary named 'cif_core.dic' version 2.4.2 from 2011-04-26 (68
times).

Automatic conversion script
Id: cif_fix_values 2281 2013-09-26 08:29:07Z andrius 
;
_cod_original_cell_volume        289.308(10)
_cod_original_sg_symbol_H-M      'p 4/n m m'
_cod_original_formula_sum        'C3.00 Cl N'
_cod_database_code               1516215
#BEGIN Tags that were not found in dictionaries:
_gsas_exptl_extinct_corr_t_min   1.00000
_gsas_exptl_extinct_corr_t_max   1.00000
#END Tags that were not found in dictionaries
loop_
_symmetry_equiv_pos_site_id
_symmetry_equiv_pos_as_xyz
1 +x,+y,+z
2 -y+1/2,+x,+z
3 -x+1/2,-y+1/2,+z
4 +y,-x+1/2,+z
5 -x+1/2,+y,+z
6 -y+1/2,-x+1/2,+z
7 +x,-y+1/2,+z
8 +y,+x,+z
-1 -x,-y,-z
-2 +y+1/2,-x,-z
-3 +x+1/2,+y+1/2,-z
-4 -y,+x+1/2,-z
-5 +x+1/2,-y,-z
-6 +y+1/2,+x+1/2,-z
-7 -x,+y+1/2,-z
-8 -y,-x,-z
loop_
_atom_site_type_symbol
_atom_site_label
_atom_site_fract_x
_atom_site_fract_y
_atom_site_fract_z
_atom_site_occupancy
_atom_site_thermal_displace_type
_atom_site_U_iso_or_equiv
_atom_site_symmetry_multiplicity
Cl CL1 0.25 -0.25 0.0 1.0 Uiso 0.1103(9) 2
C C(1) 0.25 0.3337(6) 0.29727(33) 0.25 Uiso 0.0635(16) 8
N N 0.25 0.25 0.11193(29) 1.0 Uiso 0.0635(16) 2
C C(2) 0.25 0.1496(5) 0.43585(28) 0.25 Uiso 0.0635(16) 8
C C(3) 0.25 0.25 0.6281(4) 1.0 Uiso 0.0635(16) 2
loop_
_atom_type_symbol
_atom_type_number_in_cell
_atom_type_scat_dispersion_real
_atom_type_scat_dispersion_imag
_atom_type_scat_Cromer_Mann_a1
_atom_type_scat_Cromer_Mann_a2
_atom_type_scat_Cromer_Mann_a3
_atom_type_scat_Cromer_Mann_a4
_atom_type_scat_Cromer_Mann_b1
_atom_type_scat_Cromer_Mann_b2
_atom_type_scat_Cromer_Mann_b3
_atom_type_scat_Cromer_Mann_b4
_atom_type_scat_Cromer_Mann_c
_atom_type_scat_source
Cl 2.0 0.000 0.000 11.4604 0.01040 7.19640 1.16620 6.25560 18.5194 1.64550
47.7784 -9.5574 International_Tables_Vol_C
C 6.0 0.000 0.000 2.31000 20.8439 1.02000 10.2075 1.58860 0.56870 0.86500
51.6512 0.21560 International_Tables_Vol_C
N 2.0 0.000 0.000 12.2126 0.00570 3.13220 9.89330 2.01250 28.9975 1.16630
0.58260 -11.529 International_Tables_Vol_C
loop_
_diffrn_radiation_wavelength
_diffrn_radiation_wavelength_wt
_diffrn_radiation_type
_diffrn_radiation_wavelength_id
1.540598 1.000 K\a~1~ 1
1.544390 0.500 K\a~2~ 2
loop_
_geom_angle_atom_site_label_1
_geom_angle_atom_site_label_2
_geom_angle_atom_site_label_3
_geom_angle
_geom_angle_site_symmetry_1
_geom_angle_site_symmetry_3
_geom_angle_publ_flag
C(1) C(1) C(1) 45.0 2_555 3_555 n
C(1) C(1) C(1) 90.0 2_555 4_555 n
C(1) C(1) N 75.38(10) 2_555 1_555 n
C(1) C(1) C(2) 58.11(8) 2_555 1_555 n
C(1) C(1) C(2) 93.23(16) 2_555 2_555 n
C(1) C(1) C(2) 94.11(20) 2_555 3_555 n
C(1) C(1) C(2) 51.60(15) 2_555 4_555 n
C(1) C(1) C(1) 45.0 3_555 4_555 n
C(1) C(1) N 69.09(14) 3_555 1_555 n
C(1) C(1) C(2) 41.66(15) 3_555 1_555 n
C(1) C(1) C(2) 66.46(16) 3_555 2_555 n
C(1) C(1) C(2) 95.82(28) 3_555 3_555 n
C(1) C(1) C(2) 66.46(16) 3_555 4_555 n
C(1) C(1) N 75.38(10) 4_555 1_555 n
C(1) C(1) C(2) 58.11(8) 4_555 1_555 n
C(1) C(1) C(2) 51.60(15) 4_555 2_555 n
C(1) C(1) C(2) 94.11(20) 4_555 3_555 n
C(1) C(1) C(2) 93.23(16) 4_555 4_555 n
N C(1) C(2) 110.75(25) 1_555 1_555 n
N C(1) C(2) 125.99(24) 1_555 2_555 n
N C(1) C(2) 164.9(4) 1_555 3_555 n
N C(1) C(2) 125.99(24) 1_555 4_555 n
C(2) C(1) C(2) 35.12(17) 1_555 2_555 n
C(2) C(1) C(2) 54.16(31) 1_555 3_555 n
C(2) C(1) C(2) 35.12(17) 1_555 4_555 n
C(2) C(1) C(2) 42.52(24) 2_555 3_555 n
C(2) C(1) C(2) 57.25(29) 2_555 4_555 n
C(2) C(1) C(2) 42.52(24) 3_555 4_555 n
C(1) N C(1) 29.23(19) 1_555 2_555 n
C(1) N C(1) 41.82(28) 1_555 3_555 n
C(1) N C(1) 29.23(19) 1_555 4_555 n
C(1) N C(1) 29.23(19) 2_555 3_555 n
C(1) N C(1) 41.82(28) 2_555 4_555 n
C(1) N C(1) 29.23(19) 3_555 4_555 n
C(1) C(2) C(1) 28.66(18) 1_555 2_555 n
C(1) C(2) C(1) 42.51(32) 1_555 3_555 n
C(1) C(2) C(1) 28.66(18) 1_555 4_555 n
C(1) C(2) C(2) 58.11(8) 1_555 2_555 n
C(1) C(2) C(2) 41.66(15) 1_555 3_555 n
C(1) C(2) C(2) 58.11(8) 1_555 4_555 n
C(1) C(2) C(3) 107.83(23) 1_555 1_555 n
C(1) C(2) C(1) 34.29(26) 2_555 3_555 n
C(1) C(2) C(1) 47.08(32) 2_555 4_555 n
C(1) C(2) C(2) 86.77(16) 2_555 2_555 n
C(1) C(2) C(2) 61.37(15) 2_555 3_555 n
C(1) C(2) C(2) 51.60(15) 2_555 4_555 n
C(1) C(2) C(3) 121.42(23) 2_555 1_555 n
C(1) C(2) C(1) 34.29(26) 3_555 4_555 n
C(1) C(2) C(2) 85.89(20) 3_555 2_555 n
C(1) C(2) C(2) 84.18(28) 3_555 3_555 n
C(1) C(2) C(2) 85.89(20) 3_555 4_555 n
C(1) C(2) C(3) 150.3(4) 3_555 1_555 n
C(1) C(2) C(2) 51.60(15) 4_555 2_555 n
C(1) C(2) C(2) 61.37(15) 4_555 3_555 n
C(1) C(2) C(2) 86.77(16) 4_555 4_555 n
C(1) C(2) C(3) 121.42(23) 4_555 1_555 n
C(2) C(2) C(2) 45.0 2_555 3_555 n
C(2) C(2) C(2) 90.0 2_555 4_555 n
C(2) C(2) C(3) 73.40(8) 2_555 1_555 n
C(2) C(2) C(2) 45.0 3_555 4_555 n
C(2) C(2) C(3) 66.16(13) 3_555 1_555 n
C(2) C(2) C(3) 73.40(8) 4_555 1_555 n
C(2) C(3) C(2) 33.21(17) 1_555 2_555 n
C(2) C(3) C(2) 47.67(25) 1_555 3_555 n
C(2) C(3) C(2) 33.21(17) 1_555 4_555 n
C(2) C(3) C(2) 33.21(17) 2_555 3_555 n
C(2) C(3) C(2) 47.67(25) 2_555 4_555 n
C(2) C(3) C(2) 33.21(17) 3_555 4_555 n
loop_
_geom_bond_atom_site_label_1
_geom_bond_atom_site_label_2
_geom_bond_distance
_geom_bond_site_symmetry_2
_geom_bond_publ_flag
C(1) C(1) 0.741(5) 2_555 n
C(1) C(1) 1.047(7) 3_555 n
C(1) C(1) 0.741(5) 4_555 n
C(1) N 1.4672(33) 1_555 n
C(1) C(2) 1.542(4) 1_555 n
C(1) C(2) 1.3111(33) 2_555 n
C(1) C(2) 1.0301(33) 3_555 n
C(1) C(2) 1.3111(33) 4_555 n
N C(1) 1.4672(33) 1_555 n
N C(1) 1.4672(33) 2_555 n
N C(1) 1.4672(33) 3_555 n
N C(1) 1.4672(33) 4_555 n
C(2) C(1) 1.542(4) 1_555 n
C(2) C(1) 1.3111(33) 2_555 n
C(2) C(1) 1.0301(33) 3_555 n
C(2) C(1) 1.3111(33) 4_555 n
C(2) C(2) 0.888(5) 2_555 n
C(2) C(2) 1.256(7) 3_555 n
C(2) C(2) 0.888(5) 4_555 n
C(2) C(3) 1.5544(34) 1_555 n
C(3) C(2) 1.5544(34) 1_555 n
C(3) C(2) 1.5544(34) 2_555 n
C(3) C(2) 1.5544(34) 3_555 n
C(3) C(2) 1.5544(34) 4_555 n
loop_
_pd_meas_counts_total
_pd_proc_ls_weight
_pd_proc_intensity_bkg_calc
_pd_calc_intensity_total
21875.0 0.0 -36405828.00000 .
20920.0 0.0 -35505508.00000 .
20071.0 0.0 -34626012.00000 .
19544.0 0.0 -33766848.00000 .
18768.0 0.0 -32927602.00000 .
17944.0 0.0 -32107834.00000 .
17283.0 0.0 -31307146.00000 .
16923.0 0.0 -30525100.00000 .
16058.0 0.0 -29761292.00000 .
15666.0 0.0 -29015344.00000 .
15210.0 0.0 -28286850.00000 .
14841.0 0.0 -27575422.00000 .
14397.0 0.0 -26880706.00000 .
13948.0 0.0 -26202340.00000 .
13419.0 0.0 -25539930.00000 .
13059.0 0.0 -24893160.00000 .
12765.0 0.0 -24261662.00000 .
12365.0 0.0 -23645148.00000 .
11894.0 0.0 -23043230.00000 .
11679.0 0.0 -22455612.00000 .
11183.0 0.0 -21881968.00000 .
11015.0 0.0 -21321994.00000 .
10707.0 0.0 -20775392.00000 .
10417.0 0.0 -20241850.00000 .
10051.0 0.0 -19721090.00000 .
10112.0 0.0 -19212832.00000 .
9479.0 0.0 -18716768.00000 .
9082.0 0.0 -18232656.00000 .
9021.0 0.0 -17760220.00000 .
9009.0 0.0 -17299192.00000 .
8520.0 0.0 -16849320.00000 .
8439.0 0.0 -16410340.00000 .
8185.0 0.0 -15982031.00000 .
7885.0 0.0 -15564135.00000 .
7667.0 0.0 -15156418.00000 .
7765.0 0.0 -14758655.00000 .
7389.0 0.0 -14370610.00000 .
7187.0 0.0 -13992069.00000 .
7236.0 0.0 -13622816.00000 .
7029.0 0.0 -13262636.00000 .
6914.0 0.0 -12911318.00000 .
6716.0 0.0 -12568668.00000 .
6482.0 0.0 -12234484.00000 .
6350.0 0.0 -11908568.00000 .
6340.0 0.0 -11590741.00000 .
6140.0 0.0 -11280799.00000 .
6051.0 0.0 -10978575.00000 .
5864.0 0.0 -10683884.00000 .
5896.0 0.0 -10396547.00000 .
5764.0 0.0 -10116402.00000 .
5675.0 0.0 -9843282.00000 .
5559.0 0.0 -9577011.00000 .
5446.0 0.0 -9317442.00000 .
5562.0 0.0 -9064422.00000 .
5409.0 0.0 -8817785.00000 .
5226.0 0.0 -8577381.00000 .
5252.0 0.0 -8343071.00000 .
5224.0 0.0 -8114720.00000 .
4968.0 0.0 -7892164.00000 .
4956.0 0.0 -7675286.00000 .
4883.0 0.0 -7463943.00000 .
4749.0 0.0 -7258010.50000 .
4743.0 0.0 -7057351.50000 .
4534.0 0.0 -6861845.00000 .
4502.0 0.0 -6671369.00000 .
4643.0 0.0 -6485806.00000 .
4464.0 0.0 -6305030.00000 .
4439.0 0.0 -6128934.00000 .
4237.0 0.0 -5957400.50000 .
4362.0 0.0 -5790329.50000 .
4215.0 0.0 -5627597.00000 .
4103.0 0.0 -5469111.00000 .
4105.0 0.0 -5314767.50000 .
4158.0 0.0 -5164468.50000 .
3988.0 0.0 -5018109.50000 .
4005.0 0.0 -4875594.50000 .
4001.0 0.0 -4736833.50000 .
3946.0 0.0 -4601735.50000 .
3815.0 0.0 -4470206.00000 .
3914.0 0.0 -4342163.50000 .
3940.0 0.0 -4217520.50000 .
3802.0 0.0 -4096191.50000 .
3705.0 0.0 -3978099.00000 .
3662.0 0.0 -3863157.75000 .
3583.0 0.0 -3751294.00000 .
3576.0 0.0 -3642431.25000 .
3531.0 0.0 -3536491.00000 .
3532.0 0.0 -3433408.00000 .
3477.0 0.0 -3333105.50000 .
3463.0 0.0 -3235514.25000 .
3452.0 0.0 -3140566.25000 .
3290.0 0.0 -3048196.00000 .
3401.0 0.0 -2958343.25000 .
3431.0 0.0 -2870940.75000 .
3251.0 0.0 -2785924.50000 .
3303.0 0.0 -2703235.75000 .
3235.0 0.0 -2622819.50000 .
3214.0 0.0 -2544611.25000 .
3156.0 0.0 -2468561.00000 .
3144.0 0.0 -2394613.75000 .
3213.0 0.0 -2322710.25000 .
3104.0 0.0 -2252803.25000 .
3088.0 0.0 -2184836.25000 .
3022.0 0.0 -2118768.00000 .
2958.0 0.0 -2054547.00000 .
2935.0 0.0 -1992117.00000 .
2987.0 0.0 -1931442.62500 .
2920.0 0.0 -1872470.50000 .
2865.0 0.0 -1815162.12500 .
2852.0 0.0 -1759473.75000 .
2842.0 0.0 -1705359.25000 .
2883.0 0.0 -1652782.62500 .
2908.0 0.0 -1601697.50000 .
2656.0 0.0 -1552070.12500 .
2772.0 0.0 -1503863.12500 .
2765.0 0.0 -1457031.87500 .
2703.0 0.0 -1411547.62500 .
2725.0 0.0 -1367369.25000 .
2711.0 0.0 -1324466.75000 .
2725.0 0.0 -1282805.75000 .
2690.0 0.0 -1242347.50000 .
2649.0 0.0 -1203067.00000 .
2645.0 0.0 -1164928.62500 .
2583.0 0.0 -1127903.25000 .
2563.0 0.0 -1091962.25000 .
2572.0 0.0 -1057072.50000 .
2374.0 0.0 -1023210.37500 .
2544.0 0.0 -990343.75000 .
2485.0 0.0 -958448.31250 .
2428.0 0.0 -927499.50000 .
2461.0 0.0 -897466.37500 .
2384.0 0.0 -868328.87500 .
2398.0 0.0 -840058.31250 .
2416.0 0.0 -812634.12500 .
2352.0 0.0 -786033.68750 .
2401.0 0.0 -760230.50000 .
2495.0 0.0 -735205.93750 .
2340.0 0.0 -710936.12500 .
2382.0 0.0 -687401.93750 .
2349.0 0.0 -664583.75000 .
2252.0 0.0 -642458.25000 .
2298.0 0.0 -621009.12500 .
2309.0 0.0 -600214.56250 .
2185.0 0.0 -580058.93750 .
2238.0 0.0 -560524.81250 .
2235.0 0.0 -541591.25000 .
2199.0 0.0 -523244.84375 .
2140.0 0.0 -505465.90625 .
2172.0 0.0 -488239.96875 .
2250.0 0.0 -471552.40625 .
2141.0 0.0 -455384.81250 .
2138.0 0.0 -439725.28125 .
2109.0 0.0 -424556.78125 .
2129.0 0.0 -409867.37500 .
2041.0 0.0 -395642.71875 .
2128.0 0.0 -381867.62500 .
2050.0 0.0 -368530.93750 .
1996.0 0.0 -355618.87500 .
2005.0 0.0 -343120.18750 .
1956.0 0.0 -331022.40625 .
1955.0 0.0 -319312.87500 .
1902.0 0.0 -307981.34375 .
1903.0 0.0 -297015.75000 .
1944.0 0.0 -286405.71875 .
1980.0 0.0 -276141.75000 .
1859.0 0.0 -266211.43750 .
1931.0 0.0 -256606.75000 .
1901.0 0.0 -247316.60938 .
1867.0 0.0 -238332.31250 .
1916.0 0.0 -229645.28125 .
1814.0 0.0 -221245.35938 .
1870.0 0.0 -213124.60938 .
1849.0 0.0 -205274.06250 .
1856.0 0.0 -197686.14063 .
1781.0 0.0 -190352.90625 .
1873.0 0.0 -183265.71875 .
1685.0 0.0 -176417.75000 .
1727.0 0.0 -169801.53125 .
1819.0 0.0 -163409.76563 .
1799.0 0.0 -157236.21875 .
1736.0 0.0 -151272.89063 .
1704.0 0.0 -145514.45313 .
1747.0 0.0 -139953.59375 .
1725.0 0.0 -134584.78125 .
1686.0 0.0 -129402.07813 .
1620.0 0.0 -124398.89063 .
1668.0 0.0 -119570.41406 .
1668.0 0.0 -114910.35938 .
1649.0 0.0 -110414.07031 .
1653.0 0.0 -106076.13281 .
1594.0 0.0 -101891.11719 .
1635.0 0.0 -97854.55469 .
1700.0 0.0 -93961.40625 .
1473.0 0.0 -90207.39844 .
1585.0 0.0 -86587.98438 .
1571.0 0.0 -83098.32031 .
1632.0 0.0 -79734.71094 .
1582.0 0.0 -76492.65625 .
1561.0 0.0 -73368.53125 .
1491.0 0.0 -70358.53906 .
1563.0 0.0 -67458.38281 .
1491.0 0.0 -64664.93359 .
1523.0 0.0 -61974.34766 .
1525.0 0.0 -59383.32031 .
1495.0 0.0 -56888.73828 .
1416.0 0.0 -54486.99609 .
1468.0 0.0 -52175.28906 .
1466.0 0.0 -49950.32813 .
1508.0 0.0 -47809.35938 .
1418.0 0.0 -45749.57813 .
1357.0 0.0 -43767.91016 .
1455.0 0.0 -41862.01172 .
1417.0 0.0 -40029.10938 .
1467.0 0.0 -38266.73828 .
1443.0 0.0 -36572.53516 .
1426.0 0.0 -34943.97266 .
1371.0 0.0 -33378.93750 .
1406.0 0.0 -31875.01953 .
1381.0 0.0 -30430.23242 .
1454.0 0.0 -29042.54297 .
1389.0 0.0 -27709.71875 .
1368.0 0.0 -26430.00781 .
1418.0 0.0 -25201.39258 .
1313.0 0.0 -24022.11914 .
1381.0 0.0 -22890.42383 .
1284.0 0.0 -21804.53320 .
1287.0 0.0 -20762.84570 .
1309.0 0.0 -19763.67578 .
1330.0 0.0 -18805.57031 .
1297.0 0.0 -17887.07227 .
1263.0 0.0 -17006.51953 .
1208.0 0.0 -16162.71484 .
1268.0 0.0 -15354.17188 .
1218.0 0.0 -14579.62598 .
1173.0 0.0 -13837.86816 .
1220.0 0.0 -13127.51855 .
1235.0 0.0 -12447.53418 .
1154.0 0.0 -11796.65723 .
1156.0 0.0 -11173.88477 .
1130.0 0.0 -10578.08984 .
1146.0 0.0 -10008.22656 .
1146.0 0.0 -9463.33691 .
1203.0 0.0 -8942.37500 .
1155.0 0.0 -8444.49707 .
1108.0 0.0 -7968.80273 .
1170.0 0.0 -7514.32910 .
1114.0 0.0 -7080.33447 .
1133.0 0.0 -6665.95654 .
1113.0 0.0 -6270.42969 .
1142.0 0.0 -5893.01074 .
1108.0 0.0 -5532.95215 .
1089.0 0.0 -5189.57715 .
1047.0 0.0 -4862.16602 .
1051.0 0.0 -4550.11377 .
1069.0 0.0 -4252.78076 .
1011.0 0.0 -3969.53491 .
1072.0 0.0 -3699.81372 .
1021.0 0.0 -3443.04443 .
1021.0 0.0 -3198.69531 .
1057.0 0.0 -2966.25708 .
1052.0 0.0 -2745.17798 .
1047.0 0.0 -2535.02222 .
997.0 0.0 -2335.29712 .
1050.0 0.0 -2145.55737 .
1028.0 0.0 -1965.38611 .
1036.0 0.0 -1794.34875 .
1036.0 0.0 -1632.05627 .
1061.0 0.0 -1478.10986 .
1071.0 0.0 -1332.15918 .
957.0 0.0 -1193.84167 .
939.0 0.0 -1062.80469 .
1009.0 0.0 -938.72662 .
1068.0 0.0 -821.29272 .
986.0 0.0 -710.19995 .
1041.0 0.0 -605.16412 .
974.0 0.0 -505.88449 .
985.0 0.0 -412.11310 .
992.0 0.0 -323.57993 .
965.0 0.0 -240.04202 .
941.0 0.0 -161.26266 .
972.0 0.0 -87.01251 .
1018.0 0.0 -17.07464 .
982.0 0.0 48.76591 .
1018.0 0.0 110.70264 .
959.0 0.0 168.92554 .
993.0 0.0 223.63007 .
968.0 0.0 274.98145 .
889.0 0.0 323.15588 .
950.0 0.0 368.31149 .
998.0 0.0 410.59973 .
898.0 0.0 450.17780 .
944.0 0.0 487.17801 .
1023.0 0.0 521.74109 .
903.0 0.0 553.99420 .
941.0 0.0 584.05988 .
904.0 0.0 612.05780 .
968.0 0.0 638.09900 .
938.0 0.0 662.29370 .
934.0 0.0 684.74127 .
927.0 0.0 705.53912 .
1010.0 0.0 724.78424 .
936.0 0.0 742.56177 .
900.0 0.0 758.95850 .
971.0 0.0 774.05420 .
905.0 0.0 787.92535 .
896.0 0.0 800.64575 .
946.0 0.0 812.28394 .
930.0 0.0 822.90723 .
916.0 0.0 832.57672 .
968.0 0.0 841.35278 .
873.0 0.0 849.29230 .
889.0 0.0 856.44849 .
912.0 0.0 862.87286 .
942.0 0.0 868.61292 .
900.0 0.0 873.71423 .
943.0 0.0 878.22131 .
910.0 0.0 882.17401 .
919.0 0.0 885.61157 .
923.0 0.001083 888.57050 888.56958
878.0 0.001139 891.08533 891.08459
919.0 0.001088 893.18890 893.18829
884.0 0.001131 894.91193 894.91144
901.0 0.001110 896.28351 896.28314
939.0 0.001065 897.33093 897.33063
864.0 0.001157 898.08002 898.07983
879.0 0.001138 898.55499 898.55493
898.0 0.001114 898.77863 898.77863
871.0 0.001148 898.77228 898.77228
930.0 0.001075 898.55597 898.55603
869.0 0.001151 898.14856 898.14862
842.0 0.001188 897.56750 897.56763
941.0 0.001063 896.82947 896.82959
892.0 0.001121 895.94965 895.94983
911.0 0.001098 894.94244 894.94263
920.0 0.001087 893.82123 893.82147
899.0 0.001112 892.59857 892.59875
910.0 0.001099 891.28571 891.28595
894.0 0.001119 889.89380 889.89398
900.0 0.001111 888.43243 888.43262
897.0 0.001115 886.91113 886.91132
875.0 0.001143 885.33813 885.33826
897.0 0.001115 883.72119 883.72137
830.0 0.001205 882.06793 882.06805
838.0 0.001193 880.38452 880.38464
875.0 0.001143 878.67743 878.67749
851.0 0.001175 876.95190 876.95197
900.0 0.001111 875.21307 875.21307
864.0 0.001157 873.46552 873.46552
824.0 0.001214 871.71320 871.71320
862.0 0.001160 869.96021 869.96014
873.0 0.001145 868.20966 868.20953
853.0 0.001172 866.46442 866.46429
889.0 0.001125 864.72736 864.72723
824.0 0.001214 863.00079 863.00061
869.0 0.001151 861.28674 861.28656
878.0 0.001139 859.58685 859.58661
851.0 0.001175 857.90271 857.90247
841.0 0.001189 856.23584 856.23553
880.0 0.001136 854.58685 854.58655
852.0 0.001174 852.95709 852.95679
864.0 0.001157 851.34698 851.34662
897.0 0.001115 849.75708 849.75671
837.0 0.001195 848.18774 848.18732
894.0 0.001119 846.63922 846.63873
850.0 0.001176 845.11157 845.11115
839.0 0.001192 843.60492 843.60443
864.0 0.001157 842.11877 842.11823
838.0 0.001193 840.65326 843.55981
922.0 0.001085 839.20789 843.68475
799.0 0.001252 837.78241 842.49060
827.0 0.001209 836.37610 841.33423
843.0 0.001186 834.98865 840.21716
851.0 0.001175 833.61945 839.14111
783.0 0.001277 832.26776 838.10797
785.0 0.001274 830.93317 837.12042
826.0 0.001211 829.61481 836.18109
818.0 0.001222 828.31195 835.29333
816.0 0.001225 827.02399 834.46112
778.0 0.001285 825.75000 833.68927
879.0 0.001138 824.48944 832.98370
857.0 0.001167 823.24146 832.35107
818.0 0.001222 822.00513 831.79999
845.0 0.001183 820.77991 831.34064
776.0 0.001289 819.56494 830.98560
864.0 0.001157 818.35944 830.75000
863.0 0.001159 817.16284 830.65326
842.0 0.001188 815.97424 830.71899
884.0 0.001131 814.79303 830.97699
893.0 0.001120 813.61841 831.46533
847.0 0.001181 812.44989 832.23285
927.0 0.001079 811.28674 833.34290
816.0 0.001225 810.12823 834.87952
889.0 0.001125 808.97394 836.95538
858.0 0.001166 807.82318 839.72559
907.0 0.001103 806.67548 843.40710
875.0 0.001143 805.53033 848.31818
914.0 0.001094 804.38715 854.96875
989.0 0.001011 803.24561 864.36603
929.0 0.001076 802.10516 878.99841
961.0 0.001041 800.96552 905.03949
1024.0 0.000977 799.82629 955.15967
1072.0 0.000933 798.68707 1048.84595
1233.0 0.000811 797.54767 1207.09985
1474.0 0.000678 796.40765 1448.54492
1697.0 0.000589 795.26697 1794.95789
2220.0 0.000450 794.12531 2289.26660
2916.0 0.0003429 792.98242 2999.85815
3828.0 0.0002612 791.83826 3944.97974
4938.0 0.0002025 790.69263 4907.94727
5267.0 0.0001899 789.54547 5334.71729
4563.0 0.0002192 788.39661 4755.58984
3348.0 0.0002987 787.24609 3497.24609
2151.0 0.000465 786.09393 2270.49707
1396.0 0.000716 784.94000 1492.56946
990.0 0.001010 783.78448 1125.24280
914.0 0.001094 782.62732 978.27386
863.0 0.001159 781.46857 916.45294
843.0 0.001186 780.30841 883.10590
778.0 0.001285 779.14685 860.89667
778.0 0.001285 777.98413 844.65680
815.0 0.001227 776.82037 832.24695
793.0 0.001261 775.65564 822.46448
801.0 0.001248 774.49030 814.55017
815.0 0.001227 773.32446 807.99945
801.0 0.001248 772.15839 802.46832
828.0 0.001208 770.99225 797.71417
814.0 0.001229 769.82629 793.56293
786.0 0.001272 768.66095 789.88708
791.0 0.001264 767.49622 786.59088
783.0 0.001277 766.33264 783.60217
816.0 0.001225 765.17041 780.86499
760.0 0.001316 764.00977 778.33582
765.0 0.001307 762.85101 775.98035
754.0 0.001326 761.69464 773.77136
736.0 0.001359 760.54083 771.68695
763.0 0.001311 759.38995 769.70917
745.0 0.001342 758.24231 767.82343
769.0 0.001300 757.09839 766.01801
738.0 0.001355 755.95831 764.28265
720.0 0.001389 754.82257 762.60944
737.0 0.001357 753.69153 760.99146
798.0 0.001253 752.56543 759.42267
783.0 0.001277 751.44476 757.89850
721.0 0.001387 750.32971 756.41449
742.0 0.001348 749.22083 754.96753
756.0 0.001323 748.11829 753.55438
749.0 0.001335 747.02252 752.17249
768.0 0.001302 745.93384 750.81970
746.0 0.001340 744.85260 749.49414
779.0 0.001284 743.77917 748.19446
765.0 0.001307 742.71393 744.17242
776.0 0.001289 741.65698 741.65680
731.0 0.001368 740.60895 740.60870
741.0 0.001350 739.56995 739.56970
732.0 0.001366 738.54034 738.54010
704.0 0.001420 737.52051 737.52032
746.0 0.001340 736.51062 736.51044
756.0 0.001323 735.51111 735.51093
729.0 0.001372 734.52209 734.52191
721.0 0.001387 733.54407 733.54395
731.0 0.001368 732.57721 732.57703
789.0 0.001267 731.62164 731.62146
779.0 0.001284 730.67780 730.67767
708.0 0.001412 729.74585 729.74573
714.0 0.001401 728.82611 728.82593
760.0 0.001316 727.91876 727.91858
665.0 0.001504 727.02386 727.02374
773.0 0.001294 726.14191 726.14172
728.0 0.001374 725.27283 725.27271
751.0 0.001332 724.41705 724.41693
787.0 0.001271 723.57465 723.57452
697.0 0.001435 722.74579 722.74567
741.0 0.001350 721.93060 721.93048
721.0 0.001387 721.12927 721.12915
708.0 0.001412 720.34198 720.34186
746.0 0.001340 719.56885 719.56873
787.0 0.001271 718.80988 718.80975
763.0 0.001311 718.06531 718.06525
693.0 0.001443 717.33527 717.33514
740.0 0.001351 716.61975 716.61969
691.0 0.001447 715.91888 715.91876
704.0 0.001420 715.23273 715.23260
738.0 0.001355 714.56140 714.56134
688.0 0.001453 713.90485 713.90472
684.0 0.001462 713.26318 713.26312
705.0 0.001418 712.63654 712.63641
766.0 0.001305 712.02472 712.02466
729.0 0.001372 711.42792 711.42786
727.0 0.001376 710.84607 710.84601
677.0 0.001477 710.27924 710.27917
678.0 0.001475 709.72736 709.72729
692.0 0.001445 709.19037 709.19031
696.0 0.001437 708.66840 708.66833
712.0 0.001404 708.16125 708.16119
758.0 0.001319 707.66901 707.66895
701.0 0.001427 707.19153 707.19147
737.0 0.001357 706.72882 706.72876
723.0 0.001383 706.28082 706.28076
713.0 0.001403 705.84735 705.84729
727.0 0.001376 705.42853 705.42847
732.0 0.001366 705.02411 705.02405
694.0 0.001441 704.63409 704.63403
732.0 0.001366 704.25830 704.25824
743.0 0.001346 703.89673 703.89667
752.0 0.001330 703.54919 703.54913
718.0 0.001393 703.21564 703.21558
740.0 0.001351 702.89594 702.89587
738.0 0.001355 702.58997 702.58984
681.0 0.001468 702.29755 702.29749
707.0 0.001414 702.01862 702.01855
760.0 0.001316 701.75299 701.75293
656.0 0.001524 701.50055 701.50049
709.0 0.001410 701.26117 701.26111
712.0 0.001404 701.03473 701.03467
652.0 0.001534 700.82098 700.82092
736.0 0.001359 700.61987 700.61981
690.0 0.001449 700.43115 700.43109
692.0 0.001445 700.25476 700.25470
713.0 0.001403 700.09045 700.09039
709.0 0.001410 699.93823 699.93811
690.0 0.001449 699.79767 699.79761
716.0 0.001397 699.66882 699.66876
689.0 0.001451 699.55145 699.55139
658.0 0.001520 699.44531 699.44525
689.0 0.001451 699.35034 699.35028
725.0 0.001379 699.26636 699.26630
667.0 0.001499 699.19312 699.19305
726.0 0.001377 699.13055 699.13049
728.0 0.001374 699.07843 699.07837
690.0 0.001449 699.03662 699.03656
681.0 0.001468 699.00488 699.00482
694.0 0.001441 698.98309 698.98303
696.0 0.001437 698.97107 698.97101
698.0 0.001433 698.96869 698.96863
678.0 0.001475 698.97571 698.97565
738.0 0.001355 698.99200 698.99194
719.0 0.001391 699.01746 699.01740
696.0 0.001437 699.05182 699.05170
684.0 0.001462 699.09497 699.09491
704.0 0.001420 699.14673 699.14667
672.0 0.001488 699.20703 699.20697
672.0 0.001488 699.27557 699.27551
726.0 0.001377 699.35229 699.35223
747.0 0.001339 699.43707 699.43701
716.0 0.001397 699.52966 699.52960
704.0 0.001420 699.63000 699.62994
700.0 0.001429 699.73798 699.73785
692.0 0.001445 699.85327 699.85321
682.0 0.001466 699.97595 699.97583
705.0 0.001418 700.10577 700.10571
709.0 0.001410 700.24261 700.24255
660.0 0.001515 700.38641 700.38635
721.0 0.001387 700.53699 700.53693
673.0 0.001486 700.69421 700.69415
679.0 0.001473 700.85803 700.85797
687.0 0.001456 701.02832 701.02826
674.0 0.001484 701.20490 701.20483
762.0 0.001312 701.38770 701.38763
648.0 0.001543 701.57666 701.57660
693.0 0.001443 701.77161 701.77155
659.0 0.001517 701.97253 701.97247
716.0 0.001397 702.17932 702.17926
693.0 0.001443 702.39191 702.39178
695.0 0.001439 702.61011 702.61005
695.0 0.001439 702.83392 702.83386
700.0 0.001429 703.06329 703.06323
715.0 0.001399 703.29816 703.29810
657.0 0.001522 703.53839 703.53833
714.0 0.001401 703.78406 703.78400
735.0 0.001361 704.03491 704.03485
692.0 0.001445 704.29108 704.29095
708.0 0.001412 704.55237 704.55231
658.0 0.001520 704.81885 704.81879
671.0 0.001490 705.09045 705.09039
677.0 0.001477 705.36713 705.36707
682.0 0.001466 705.64880 705.64874
701.0 0.001427 705.93555 705.93549
725.0 0.001379 706.22729 706.22717
674.0 0.001484 706.52399 706.52386
718.0 0.001393 706.82562 706.82556
728.0 0.001374 707.13226 707.13220
725.0 0.001379 707.44385 707.44373
729.0 0.001372 707.76038 707.76025
694.0 0.001441 708.08185 708.08179
745.0 0.001342 708.40826 708.40814
729.0 0.001372 708.73962 708.73956
694.0 0.001441 709.07599 709.07593
690.0 0.001449 709.41736 709.41730
709.0 0.001410 709.76373 709.76367
746.0 0.001340 710.11511 710.11505
669.0 0.001495 710.47156 710.47150
674.0 0.001484 710.83313 710.83307
692.0 0.001445 711.19983 711.19977
720.0 0.001389 711.57172 711.57166
681.0 0.001468 711.94879 711.94873
679.0 0.001473 712.33105 712.33099
706.0 0.001416 712.71875 712.71863
663.0 0.001508 713.11169 713.11157
728.0 0.001374 713.51001 713.50995
712.0 0.001404 713.91388 713.91376
703.0 0.001422 714.32318 714.32312
707.0 0.001414 714.73804 714.73798
728.0 0.001374 715.15857 715.15851
697.0 0.001435 715.58484 715.58478
693.0 0.001443 716.01678 716.01672
675.0 0.001481 716.45465 716.45453
718.0 0.001393 716.89838 716.89832
741.0 0.001350 717.34808 717.34802
752.0 0.001330 717.80389 717.80383
698.0 0.001433 718.26587 718.26575
700.0 0.001429 718.73395 718.73383
712.0 0.001404 719.20837 719.20831
713.0 0.001403 719.68921 719.68909
733.0 0.001364 720.17645 720.17639
735.0 0.001361 720.67035 720.67023
693.0 0.001443 721.17078 721.17065
689.0 0.001451 721.67792 721.67786
725.0 0.001379 722.19189 722.19177
755.0 0.001325 722.71283 722.71271
709.0 0.001410 723.24066 723.24060
693.0 0.001443 723.77563 723.77551
700.0 0.001429 724.31775 724.31769
702.0 0.001425 724.86713 724.86707
758.0 0.001319 725.42395 725.42383
722.0 0.001385 725.98810 725.98798
752.0 0.001330 726.55981 726.55975
699.0 0.001431 727.13922 727.13910
749.0 0.001335 727.72632 727.72620
771.0 0.001297 728.32129 728.32117
790.0 0.001266 728.92407 728.92401
757.0 0.001321 729.53491 729.53479
760.0 0.001316 730.15381 730.15369
748.0 0.001337 730.78094 730.78082
768.0 0.001302 731.41638 731.41626
702.0 0.001425 732.06012 732.06000
715.0 0.001399 732.71234 732.71222
800.0 0.001250 733.37311 733.37305
757.0 0.001321 734.04254 734.04242
771.0 0.001297 734.72070 734.72058
736.0 0.001359 735.40759 735.40753
711.0 0.001406 736.10339 736.10333
731.0 0.001368 736.80829 736.80817
747.0 0.001339 737.52209 737.52197
736.0 0.001359 738.24512 738.24500
743.0 0.001346 738.97729 738.97717
729.0 0.001372 739.71881 739.71869
749.0 0.001335 740.46960 740.46948
768.0 0.001302 741.22998 741.22986
722.0 0.001385 741.99969 741.99957
787.0 0.001271 742.77905 742.77893
739.0 0.001353 743.56805 743.56793
747.0 0.001339 744.36682 744.36670
786.0 0.001272 745.17535 745.17523
717.0 0.001395 745.99371 745.99359
729.0 0.001372 746.82190 746.82178
738.0 0.001355 747.66003 747.65991
769.0 0.001300 748.50830 748.50818
735.0 0.001361 749.36646 749.36633
768.0 0.001302 750.23486 750.23474
718.0 0.001393 751.11334 751.11316
762.0 0.001312 752.00195 752.00183
685.0 0.001460 752.90082 752.90070
708.0 0.001412 753.81006 753.80994
757.0 0.001321 754.72949 754.72937
780.0 0.001282 755.65930 755.65918
717.0 0.001395 756.59943 756.59930
817.0 0.001224 757.55011 757.54999
811.0 0.001233 758.51105 761.12701
799.0 0.001252 759.48254 762.22858
783.0 0.001277 760.46442 763.35040
763.0 0.001311 761.45673 765.85382
776.0 0.001289 762.45966 767.08899
775.0 0.001290 763.47296 768.35370
828.0 0.001208 764.49683 769.64996
797.0 0.001255 765.53113 770.98004
794.0 0.001259 766.57593 772.34686
758.0 0.001319 767.63129 773.75372
732.0 0.001366 768.69708 775.20416
818.0 0.001222 769.77332 776.70251
766.0 0.001305 770.86005 778.25378
770.0 0.001299 771.95715 779.86395
795.0 0.001258 773.06482 781.53998
783.0 0.001277 774.18280 783.28992
831.0 0.001203 775.31122 785.12390
796.0 0.001256 776.44989 787.05347
802.0 0.001247 777.59888 789.09308
846.0 0.001182 778.75824 791.26056
841.0 0.001189 779.92773 793.57690
858.0 0.001166 781.10748 796.06958
814.0 0.001229 782.29730 798.77142
796.0 0.001256 783.49713 801.72534
897.0 0.001115 784.70715 804.98639
848.0 0.001179 785.92706 808.62500
833.0 0.001200 787.15686 812.73566
873.0 0.001145 788.39648 817.44397
861.0 0.001161 789.64600 822.92285
804.0 0.001244 790.90515 829.41333
862.0 0.001160 792.17389 837.26160
865.0 0.001156 793.45233 846.98712
814.0 0.001229 794.74017 859.44446
892.0 0.001121 796.03735 876.37146
900.0 0.001111 797.34399 902.13446
963.0 0.001038 798.65973 948.01422
1075.0 0.000930 799.98474 1039.58655
1274.0 0.000785 801.31860 1225.14844
1584.0 0.000631 802.66144 1578.88269
2213.0 0.000452 804.01318 2186.94141
3163.0 0.0003162 805.37360 3079.96460
3980.0 0.0002513 806.74261 4098.91455
4549.0 0.0002198 808.12012 4811.81738
4873.0 0.0002052 809.50610 4758.29199
4264.0 0.0002345 810.90033 4029.60376
3288.0 0.0003041 812.30261 3031.13159
2414.0 0.000414 813.71313 2103.84839
1494.0 0.000669 815.13141 1478.95093
1121.0 0.000892 816.55750 1150.50195
938.0 0.001066 817.99133 1006.13403
902.0 0.001109 819.43256 945.50800
872.0 0.001147 820.88129 915.85901
843.0 0.001186 822.33716 897.85638
857.0 0.001167 823.80017 885.51984
830.0 0.001205 825.27020 876.68195
851.0 0.001175 826.74695 870.23779
832.0 0.001202 828.23041 865.50122
850.0 0.001176 829.72046 862.01807
832.0 0.001202 831.21680 859.47534
826.0 0.001211 832.71930 857.65259
848.0 0.001179 834.22791 856.39081
832.0 0.001202 835.74249 855.57294
830.0 0.001205 837.26276 855.11090
868.0 0.001152 838.78857 854.93774
857.0 0.001167 840.31989 855.00189
855.0 0.001170 841.85638 855.26263
766.0 0.001305 843.39807 855.68793
768.0 0.001302 844.94452 856.25214
813.0 0.001230 846.49573 857.51056
867.0 0.001153 848.05164 858.32257
820.0 0.001220 849.61182 859.22388
836.0 0.001196 851.17621 860.50012
865.0 0.001156 852.74475 861.56299
867.0 0.001153 854.31708 862.68756
794.0 0.001259 855.89301 863.86755
859.0 0.001164 857.47253 865.09760
830.0 0.001205 859.05548 866.37317
830.0 0.001205 860.64142 867.69073
890.0 0.001124 862.23029 869.04718
928.0 0.001078 863.82208 870.44037
896.0 0.001116 865.41638 871.86823
902.0 0.001109 867.01318 873.32971
884.0 0.001131 868.61200 874.82391
867.0 0.001153 870.21289 873.68243
832.0 0.001202 871.81567 875.36694
865.0 0.001156 873.42004 877.07678
850.0 0.001176 875.02600 877.54291
820.0 0.001220 876.63306 879.36969
839.0 0.001192 878.24115 881.22766
912.0 0.001096 879.85016 883.12250
889.0 0.001125 881.45990 885.06110
913.0 0.001095 883.07019 887.05267
888.0 0.001126 884.68066 889.10852
924.0 0.001082 886.29126 891.24377
866.0 0.001155 887.90192 893.47845
870.0 0.001149 889.51221 895.83887
854.0 0.001171 891.12207 898.36194
871.0 0.001148 892.73120 901.09802
930.0 0.001075 894.33948 904.12012
970.0 0.001031 895.94684 907.53589
875.0 0.001143 897.55286 911.51813
910.0 0.001099 899.15753 916.40051
925.0 0.001081 900.76050 922.99646
918.0 0.001089 902.36163 933.46735
954.0 0.001048 903.96075 953.02771
1007.0 0.000993 905.55786 992.29047
1100.0 0.000909 907.15247 1068.65271
1287.0 0.000777 908.74451 1202.01660
1712.0 0.000584 910.33380 1398.45447
1855.0 0.000539 911.92029 1620.05554
2174.0 0.000460 913.50354 1773.04700
2290.0 0.000437 915.08362 1764.43140
2217.0 0.000451 916.66010 1619.37903
1725.0 0.000580 918.23285 1418.50818
1390.0 0.000719 919.80194 1222.78503
1179.0 0.000848 921.36688 1082.56030
1015.0 0.000985 922.92773 1004.64587
910.0 0.001099 924.48407 969.33075
976.0 0.001025 926.03583 955.10089
913.0 0.001095 927.58289 949.09760
879.0 0.001138 929.12512 946.12598
874.0 0.001144 930.66217 944.52112
878.0 0.001139 932.19397 943.71979
909.0 0.001100 933.72034 943.45770
867.0 0.001153 935.24127 943.57684
888.0 0.001126 936.75635 943.97290
900.0 0.001111 938.26563 944.57452
885.0 0.001130 939.76862 945.33124
942.0 0.001062 941.26544 946.20685
905.0 0.001105 942.75586 947.17480
881.0 0.001135 944.24011 948.21521
882.0 0.001134 945.71710 949.31232
928.0 0.001078 947.18750 950.45465
897.0 0.001115 948.65063 951.63293
975.0 0.001026 950.10669 952.83972
932.0 0.001073 951.55591 954.06964
884.0 0.001131 952.99695 955.31696
905.0 0.001105 954.43091 956.57861
922.0 0.001085 955.85663 957.85052
916.0 0.001092 957.27484 959.13104
972.0 0.001029 958.68512 960.41730
918.0 0.001089 960.08691 961.70715
907.0 0.001103 961.48065 962.99951
965.0 0.001036 962.86572 964.29236
943.0 0.001060 964.24237 965.58496
906.0 0.001104 965.61072 966.87646
889.0 0.001125 966.96973 968.16516
962.0 0.001040 968.32013 969.45081
940.0 0.001064 969.66125 970.73236
947.0 0.001056 970.99329 972.00940
967.0 0.001034 972.31641 973.28162
927.0 0.001079 973.62958 973.95813
896.0 0.001116 974.93372 975.24603
941.0 0.001063 976.22791 976.52521
957.0 0.001045 977.51251 977.51251
937.0 0.001067 978.78754 978.78754
1005.0 0.000995 980.05231 980.05231
1026.0 0.000975 981.30731 981.30731
1024.0 0.000977 982.55194 982.55200
1080.0 0.000926 983.78656 983.78656
1032.0 0.000969 985.01117 985.01117
984.0 0.001016 986.22504 986.22504
980.0 0.001020 987.42859 987.42865
1037.0 0.000964 988.62146 988.62146
1031.0 0.000970 989.80377 989.80383
1029.0 0.000972 990.97571 990.97577
1031.0 0.000970 992.13635 992.13641
982.0 0.001018 993.28662 993.28662
1057.0 0.000946 994.42566 994.42566
946.0 0.001057 995.55377 995.55383
1033.0 0.000968 996.67108 996.67114
1009.0 0.000991 997.77698 997.77704
986.0 0.001014 998.87195 998.87201
943.0 0.001060 999.95544 999.95551
975.0 0.001026 1001.02783 1001.02789
951.0 0.001052 1002.08911 1002.08917
937.0 0.001067 1003.13867 1003.13873
925.0 0.001081 1004.17700 1004.17712
973.0 0.001028 1005.20374 1005.20380
932.0 0.001073 1006.21899 1006.21906
959.0 0.001043 1007.22296 1007.22308
971.0 0.001030 1008.21497 1008.21503
951.0 0.001052 1009.19568 1009.19574
1029.0 0.000972 1010.16449 1010.16455
1007.0 0.000993 1011.12170 1011.12183
999.0 0.001001 1012.06744 1012.06750
977.0 0.001024 1013.00116 1013.00122
990.0 0.001010 1013.92328 1013.92340
956.0 0.001046 1014.83350 1014.83362
1049.0 0.000953 1015.73206 1015.73212
989.0 0.001011 1016.61902 1016.61908
973.0 0.001028 1017.49384 1017.49396
1016.0 0.000984 1018.35706 1018.35712
1072.0 0.000933 1019.20825 1019.20837
1003.0 0.000997 1020.04773 1020.04785
1001.0 0.000999 1020.87561 1020.87567
1032.0 0.000969 1021.69128 1021.69141
999.0 0.001001 1022.49542 1022.49548
991.0 0.001009 1023.28754 1023.28760
1029.0 0.000972 1024.06787 1024.06799
963.0 0.001038 1024.83655 1024.83667
1012.0 0.000988 1025.59326 1025.59338
975.0 0.001026 1026.33838 1026.33850
958.0 0.001044 1027.07153 1027.07166
1027.0 0.000974 1027.79297 1027.79309
999.0 0.001001 1028.50293 1028.50305
1055.0 0.000948 1029.20093 1029.20093
1061.0 0.000943 1029.88733 1029.88745
1040.0 0.000962 1030.56201 1030.56201
966.0 0.001035 1031.22510 1031.22522
1022.0 0.000978 1031.87671 1031.87683
1029.0 0.000972 1032.51660 1032.51672
1033.0 0.000968 1033.14502 1033.14514
1016.0 0.000984 1033.76184 1033.76196
1057.0 0.000946 1034.36731 1034.36743
1108.0 0.000903 1034.96143 1034.96155
1071.0 0.000934 1035.54407 1035.54419
1062.0 0.000942 1036.11548 1036.11560
1089.0 0.000918 1036.67542 1036.67554
1087.0 0.000920 1037.22424 1037.22424
1076.0 0.000929 1037.76196 1037.76196
1018.0 0.000982 1038.28833 1047.89441
1027.0 0.000974 1038.80371 1048.88977
1072.0 0.000933 1039.30798 1049.91089
1115.0 0.000897 1039.80127 1055.82141
1092.0 0.000916 1040.28381 1057.15173
1130.0 0.000885 1040.75525 1058.54004
1122.0 0.000891 1041.21606 1059.99463
1132.0 0.000883 1041.66589 1061.52368
1071.0 0.000934 1042.10522 1063.13843
1070.0 0.000935 1042.53381 1064.85010
1146.0 0.000873 1042.95190 1066.67212
1126.0 0.000888 1043.35950 1068.62061
1104.0 0.000906 1043.75659 1070.71375
1088.0 0.000919 1044.14331 1072.97351
1120.0 0.000893 1044.51990 1075.42590
1192.0 0.000839 1044.88611 1078.09998
1172.0 0.000853 1045.24231 1081.03345
1131.0 0.000884 1045.58826 1084.26807
1175.0 0.000851 1045.92419 1087.85791
1204.0 0.000831 1046.25037 1091.86804
1118.0 0.000894 1046.56653 1096.37463
1190.0 0.000840 1046.87305 1101.47876
1243.0 0.000805 1047.16968 1107.30066
1243.0 0.000805 1047.45679 1113.99829
1166.0 0.000858 1047.73438 1121.77246
1191.0 0.000840 1048.00244 1130.87817
1222.0 0.000818 1048.26123 1141.66260
1246.0 0.000803 1048.51062 1154.57874
1269.0 0.000788 1048.75073 1170.25647
1261.0 0.000793 1048.98181 1190.62976
1286.0 0.000778 1049.20374 1214.86792
1297.0 0.000771 1049.41675 1245.84448
1328.0 0.000753 1049.62085 1287.08203
1373.0 0.000728 1049.81616 1343.48145
1532.0 0.000653 1050.00281 1430.46411
1745.0 0.000573 1050.18079 1588.81421
2032.0 0.000492 1050.35022 1920.95447
2655.0 0.000377 1050.51111 2638.91919
3843.0 0.0002602 1050.66370 4072.05884
6098.0 0.0001640 1050.80811 6500.24414
8999.0 0.0001111 1050.94409 9767.44043
12411.0 0.0000806 1051.07214 12913.20410
14191.0 0.0000705 1051.19202 14406.00488
13969.0 0.0000716 1051.30408 13547.56543
12330.0 0.0000811 1051.40833 11304.43945
8528.0 0.0001173 1051.50476 8533.36133
5947.0 0.0001682 1051.59351 5788.38086
3932.0 0.0002543 1051.67468 3699.48608
2263.0 0.000442 1051.74829 2439.66187
1657.0 0.000604 1051.81458 1812.43713
1490.0 0.000671 1051.87366 1534.21021
1282.0 0.000780 1051.92529 1404.81091
1228.0 0.000814 1051.96997 1331.70898
1261.0 0.000793 1052.00745 1282.46643
1238.0 0.000808 1052.03809 1246.43408
1149.0 0.000870 1052.06177 1219.21240
1145.0 0.000873 1052.07874 1198.32800
1244.0 0.000804 1052.08899 1182.23206
1218.0 0.000821 1052.09265 1169.90308
1138.0 0.000879 1052.08972 1160.70117
1128.0 0.000887 1052.08044 1154.28479
1115.0 0.000897 1052.06470 1150.60913
1119.0 0.000894 1052.04272 1150.16052
1180.0 0.000847 1052.01465 1154.80005
1181.0 0.000847 1051.98035 1170.08826
1195.0 0.000837 1051.94006 1209.74792
1363.0 0.000734 1051.89392 1300.70667
1534.0 0.000652 1051.84192 1479.91394
1896.0 0.000527 1051.78418 1768.36047
2461.0 0.000406 1051.72070 2126.10669
2723.0 0.000367 1051.65161 2424.97119
2406.0 0.000416 1051.57703 2508.99072
2483.0 0.000403 1051.49707 2363.39648
2164.0 0.000462 1051.41174 2107.88843
1789.0 0.000559 1051.32104 1810.39417
1522.0 0.000657 1051.22522 1529.55835
1351.0 0.000740 1051.12415 1324.22095
1157.0 0.000864 1051.01819 1203.62012
1165.0 0.000858 1050.90723 1144.17114
1149.0 0.000870 1050.79126 1117.12073
1090.0 0.000917 1050.67065 1103.61230
1094.0 0.000914 1050.54517 1095.28613
1040.0 0.000962 1050.41504 1089.27234
1080.0 0.000926 1050.28027 1075.02893
1115.0 0.000897 1050.14099 1071.70642
1109.0 0.000902 1049.99731 1069.01465
1039.0 0.000962 1049.84924 1062.10388
1099.0 0.000910 1049.69678 1060.44604
1087.0 0.000920 1049.54004 1059.04565
1060.0 0.000943 1049.37915 1057.84509
1015.0 0.000985 1049.21411 1056.80273
973.0 0.001028 1049.04504 1055.88599
1090.0 0.000917 1048.87207 1055.07080
1032.0 0.000969 1048.69495 1054.33801
1027.0 0.000974 1048.51404 1053.67297
1022.0 0.000978 1048.32935 1053.06396
1029.0 0.000972 1048.14087 1052.50159
1025.0 0.000976 1047.94873 1051.97815
1036.0 0.000965 1047.75293 1051.48743
1060.0 0.000943 1047.55347 1051.02441
1053.0 0.000950 1047.35059 1050.58484
965.0 0.001036 1047.14417 1050.16516
1003.0 0.000997 1046.93433 1049.76245
974.0 0.001027 1046.72119 1049.37439
1048.0 0.000954 1046.50464 1048.99866
1078.0 0.000928 1046.28479 1048.63379
1042.0 0.000960 1046.06177 1048.27759
1049.0 0.000953 1045.83557 1047.92969
984.0 0.001016 1045.60620 1047.58813
1056.0 0.000947 1045.37366 1047.25220
1013.0 0.000987 1045.13818 1046.92126
1012.0 0.000988 1044.89966 1046.59436
1063.0 0.000941 1044.65820 1045.24353
1076.0 0.000929 1044.41382 1044.97021
1031.0 0.000970 1044.16638 1044.69617
1060.0 0.000943 1043.91626 1043.91638
1091.0 0.000917 1043.66333 1043.66333
1054.0 0.000949 1043.40759 1043.40759
1012.0 0.000988 1043.14905 1043.14905
1054.0 0.000949 1042.88770 1042.88782
1025.0 0.000976 1042.62378 1042.62390
1045.0 0.000957 1042.35718 1042.35730
994.0 0.001006 1042.08801 1042.08813
988.0 0.001012 1041.81616 1041.81628
1024.0 0.000977 1041.54175 1041.54175
987.0 0.001013 1041.26477 1041.26489
957.0 0.001045 1040.98535 1040.98535
1057.0 0.000946 1040.70337 1040.70337
981.0 0.001019 1040.41882 1040.41895
1008.0 0.000992 1040.13171 1040.13184
1039.0 0.000962 1039.84241 1039.84241
1063.0 0.000941 1039.55054 1039.55054
1059.0 0.000944 1039.25635 1039.25635
956.0 0.001046 1038.95959 1038.95972
1047.0 0.000955 1038.66052 1038.66064
991.0 0.001009 1038.35913 1038.35913
1049.0 0.000953 1038.05530 1038.05530
1000.0 0.001000 1037.74915 1037.74927
988.0 0.001012 1037.44067 1037.44067
1037.0 0.000964 1037.12976 1037.12976
1051.0 0.000951 1036.81665 1036.81665
1016.0 0.000984 1036.50110 1036.50110
978.0 0.001022 1036.18323 1036.18335
991.0 0.001009 1035.86316 1035.86316
1083.0 0.000923 1035.54053 1035.54065
1112.0 0.000899 1035.21582 1035.21582
1063.0 0.000941 1034.88867 1034.88879
1069.0 0.000935 1034.55933 1034.55933
995.0 0.001005 1034.22754 1034.22754
1008.0 0.000992 1033.89343 1033.89343
989.0 0.001011 1033.55701 1033.55713
1061.0 0.000943 1033.21814 1033.21826
1041.0 0.000961 1032.87720 1032.87720
1075.0 0.000930 1032.53369 1032.53381
1111.0 0.000900 1032.18787 1032.18787
1040.0 0.000962 1031.83960 1031.83972
1100.0 0.000909 1031.48914 1031.48914
1033.0 0.000968 1031.13611 1031.13623
1038.0 0.000963 1030.78076 1030.78088
984.0 0.001016 1030.42285 1030.42297
1091.0 0.000917 1030.06274 1030.06274
1009.0 0.000991 1029.69995 1029.70007
1065.0 0.000939 1029.33484 1029.33496
961.0 0.001041 1028.96729 1028.96741
1037.0 0.000964 1028.59705 1028.59705
993.0 0.001007 1028.22437 1028.22449
994.0 0.001006 1027.84912 1027.84924
994.0 0.001006 1027.47144 1027.47156
1027.0 0.000974 1027.09106 1027.09119
942.0 0.001062 1026.70801 1026.70813
967.0 0.001034 1026.32239 1026.32251
959.0 0.001043 1025.93408 1025.93420
1033.0 0.000968 1025.54321 1025.54333
980.0 0.001020 1025.14954 1025.14966
1013.0 0.000987 1024.75305 1024.75305
1013.0 0.000987 1024.35388 1024.35400
1011.0 0.000989 1023.95184 1023.95197
1005.0 0.000995 1023.54712 1023.54718
1054.0 0.000949 1023.13947 1023.13959
1021.0 0.000979 1022.72882 1022.72894
995.0 0.001005 1022.31549 1022.31555
1009.0 0.000991 1021.89899 1021.89911
960.0 0.001042 1021.47968 1021.47974
1002.0 0.000998 1021.05731 1021.05743
1015.0 0.000985 1020.63177 1020.63190
1000.0 0.001000 1020.20337 1020.20343
1021.0 0.000979 1019.77167 1019.77179
1031.0 0.000970 1019.33691 1019.33704
975.0 0.001026 1018.89905 1018.89911
918.0 0.001089 1018.45776 1018.45789
989.0 0.001011 1018.01337 1018.01349
1009.0 0.000991 1017.56561 1017.56567
1036.0 0.000965 1017.11456 1017.11469
1013.0 0.000987 1016.66016 1016.66028
968.0 0.001033 1016.20221 1016.20233
1015.0 0.000985 1015.74103 1015.74115
994.0 0.001006 1015.27618 1015.27631
977.0 0.001024 1014.80792 1014.80804
1007.0 0.000993 1014.33612 1014.33624
1009.0 0.000991 1013.86060 1013.86072
1016.0 0.000984 1013.38153 1013.38165
983.0 0.001017 1012.89868 1012.89880
988.0 0.001012 1012.41223 1012.41235
981.0 0.001019 1011.92200 1011.92212
1011.0 0.000989 1011.42780 1011.42792
973.0 0.001028 1010.92993 1010.93005
961.0 0.001041 1010.42804 1010.42816
1022.0 0.000978 1009.92236 1009.92249
1020.0 0.000980 1009.41266 1009.41278
1002.0 0.000998 1008.89880 1009.28918
1018.0 0.000982 1008.38110 1008.79102
974.0 0.001027 1007.85907 1008.29004
981.0 0.001019 1007.33307 1007.97913
964.0 0.001037 1006.80286 1007.48297
964.0 0.001037 1006.26837 1006.98535
1015.0 0.000985 1005.72968 1006.48676
997.0 0.001003 1005.18658 1005.98706
1045.0 0.000957 1004.63928 1005.48700
990.0 0.001010 1004.08746 1004.98682
1051.0 0.000951 1003.53107 1004.48688
1000.0 0.001000 1002.97046 1003.98822
1028.0 0.000973 1002.40515 1003.49115
979.0 0.001021 1001.83539 1006.71448
1021.0 0.000979 1001.26105 1006.37238
1016.0 0.000984 1000.68182 1006.04382
1059.0 0.000944 1000.09821 1007.56287
1010.0 0.000990 999.50958 1007.34167
979.0 0.001021 998.91644 1007.14642
1048.0 0.000954 998.31836 1006.98102
1006.0 0.000994 997.71539 1006.85010
1012.0 0.000988 997.10760 1006.75934
1025.0 0.000976 996.49475 1006.71527
1038.0 0.000963 995.87714 1006.72662
1048.0 0.000954 995.25446 1006.80328
1069.0 0.000935 994.62646 1006.95850
1048.0 0.000954 993.99365 1007.20874
993.0 0.001007 993.35559 1007.57562
1004.0 0.000996 992.71246 1008.08759
1030.0 0.000971 992.06409 1008.78326
1039.0 0.000962 991.41034 1009.71698
1058.0 0.000945 990.75146 1010.96680
1050.0 0.000952 990.08716 1012.66217
1051.0 0.000951 989.41766 1015.06622
1037.0 0.000964 988.74268 1018.86530
1044.0 0.000958 988.06219 1025.95837
1151.0 0.000869 987.37634 1041.01392
1132.0 0.000883 986.68488 1073.13318
1199.0 0.000834 985.98810 1134.46362
1343.0 0.000745 985.28564 1231.47412
1425.0 0.000702 984.57745 1350.51440
1548.0 0.000646 983.86389 1451.51709
1466.0 0.000682 983.14447 1487.57227
1481.0 0.000675 982.41949 1453.89343
1425.0 0.000702 981.68878 1388.18250
1263.0 0.000792 980.95209 1310.25098
1298.0 0.000770 980.20990 1225.57019
1207.0 0.000829 979.46173 1150.76306
1183.0 0.000845 978.70789 1099.17542
1162.0 0.000861 977.94812 1071.71399
1104.0 0.000906 977.18237 1061.95862
1071.0 0.000934 976.41083 1062.58997
1102.0 0.000907 975.63318 1069.08301
1146.0 0.000873 974.84985 1079.84961
1097.0 0.000912 974.06036 1095.11108
1073.0 0.000932 973.26465 1116.33423
1232.0 0.000812 972.46320 1147.06482
1290.0 0.000775 971.65558 1197.00940
1490.0 0.000671 970.84192 1293.29822
1645.0 0.000608 970.02216 1502.78955
1967.0 0.000508 969.19611 1955.04431
2940.0 0.0003401 968.36414 2822.59595
4390.0 0.0002278 967.52594 4198.94336
6219.0 0.0001608 966.68164 5893.14160
7455.0 0.0001341 965.83105 7348.30371
7050.0 0.0001418 964.97418 7887.01465
7339.0 0.0001363 964.11133 7412.30225
7012.0 0.0001426 963.24194 6460.15039
4967.0 0.0002013 962.36664 5332.65527
3729.0 0.0002682 961.48486 4085.69873
2892.0 0.0003458 960.59674 2934.76831
2156.0 0.000464 959.70258 2086.82324
1522.0 0.000657 958.80194 1573.93738
1233.0 0.000811 957.89520 1311.72375
1164.0 0.000859 956.98199 1189.28992
1095.0 0.000913 956.06232 1128.99316
1132.0 0.000883 955.13654 1093.47986
983.0 0.001017 954.20435 1068.73999
1006.0 0.000994 953.26599 1049.93762
1019.0 0.000981 952.32117 1035.06091
1032.0 0.000969 951.36981 1023.00421
1059.0 0.000944 950.41248 1013.05194
1000.0 0.001000 949.44849 1004.69495
1053.0 0.000950 948.47852 997.19165
999.0 0.001001 947.50189 991.06158
1032.0 0.000969 946.51886 985.70374
974.0 0.001027 945.52979 980.77722
935.0 0.001070 944.53418 976.55957
1007.0 0.000993 943.53241 972.75964
945.0 0.001058 942.52417 969.30499
993.0 0.001007 941.50940 966.13861
935.0 0.001070 940.48871 963.21649
976.0 0.001025 939.46149 960.49988
969.0 0.001032 938.42816 957.95929
982.0 0.001018 937.38843 955.56873
973.0 0.001028 936.34222 953.30695
912.0 0.001096 935.29010 951.15784
961.0 0.001041 934.23145 949.10510
972.0 0.001029 933.16681 947.13721
925.0 0.001081 932.09583 945.24280
874.0 0.001144 931.01849 943.41266
957.0 0.001045 929.93524 941.63977
956.0 0.001046 928.84558 939.91644
907.0 0.001103 927.75000 938.23737
906.0 0.001104 926.64813 936.59692
898.0 0.001114 925.53992 934.99054
873.0 0.001145 924.42596 927.74597
884.0 0.001131 923.30573 926.45966
936.0 0.001068 922.17963 925.17957
900.0 0.001111 921.04742 923.90430
873.0 0.001145 919.90887 922.63275
877.0 0.001140 918.76489 921.36481
920.0 0.001087 917.61450 920.09882
904.0 0.001106 916.45856 918.83466
930.0 0.001075 915.29657 917.57153
896.0 0.001116 914.12848 916.30853
895.0 0.001117 912.95483 915.04578
986.0 0.001014 911.77527 913.78241
907.0 0.001103 910.59009 912.51843
877.0 0.001140 909.39899 909.39929
890.0 0.001124 908.20197 908.20221
878.0 0.001139 906.99957 906.99988
882.0 0.001134 905.79138 905.79169
930.0 0.001075 904.57776 904.57806
902.0 0.001109 903.35852 903.35883
941.0 0.001063 902.13336 902.13361
937.0 0.001067 900.90326 900.90356
864.0 0.001157 899.66730 900.88226
922.0 0.001085 898.42615 899.68988
877.0 0.001140 897.17963 898.49500
857.0 0.001167 895.92749 897.88928
906.0 0.001104 894.67035 896.71405
886.0 0.001129 893.40778 895.53857
938.0 0.001066 892.14020 894.36377
882.0 0.001134 890.86731 893.19000
948.0 0.001055 889.58899 892.01746
838.0 0.001193 888.30603 890.84766
954.0 0.001048 887.01788 889.68073
834.0 0.001199 885.72491 888.51794
943.0 0.001060 884.42688 887.35992
870.0 0.001149 883.12366 886.20752
876.0 0.001142 881.81616 885.06268
871.0 0.001148 880.50342 883.92590
893.0 0.001120 879.18628 882.79938
948.0 0.001055 877.86432 881.68457
880.0 0.001136 876.53754 880.58319
885.0 0.001130 875.20648 879.49805
854.0 0.001171 873.87061 878.43127
849.0 0.001178 872.53064 877.38660
919.0 0.001088 871.18610 877.54669
920.0 0.001087 869.83679 876.60321
820.0 0.001220 868.48370 875.69720
872.0 0.001147 867.12610 874.83423
953.0 0.001049 865.76453 874.61774
894.0 0.001119 864.39874 873.88831
904.0 0.001106 863.02844 873.22937
834.0 0.001199 861.65466 872.65424
862.0 0.001160 860.27667 872.17810
900.0 0.001111 858.89508 871.82025
899.0 0.001112 857.50940 871.60443
861.0 0.001161 856.11981 871.56104
859.0 0.001164 854.72681 871.72815
866.0 0.001155 853.32983 872.15558
877.0 0.001140 851.92975 872.90851
902.0 0.001109 850.52588 874.07343
892.0 0.001121 849.11816 875.76801
856.0 0.001168 847.70752 878.15424
871.0 0.001148 846.29333 881.46515
878.0 0.001139 844.87610 886.05328
969.0 0.001032 843.45557 892.55048
930.0 0.001075 842.03149 902.40417
930.0 0.001075 840.60486 919.56616
977.0 0.001024 839.17493 954.70563
1074.0 0.000931 837.74231 1032.12256
1240.0 0.000806 836.30670 1194.17017
1501.0 0.000666 834.86804 1488.76404
2076.0 0.000482 833.42700 1927.11829
2594.0 0.000386 831.98291 2430.66675
2893.0 0.0003457 830.53674 2823.11572
2893.0 0.0003457 829.08777 2929.86572
2857.0 0.0003500 827.63599 2768.30786
2595.0 0.000385 826.18225 2499.72461
2046.0 0.000489 824.72601 2195.88354
1733.0 0.000577 823.26770 1852.23145
1475.0 0.000678 821.80707 1512.71350
1207.0 0.000829 820.34399 1242.11975
1092.0 0.000916 818.87933 1064.97058
984.0 0.001016 817.41248 967.87878
916.0 0.001092 815.94391 921.76501
867.0 0.001153 814.47345 901.44202
882.0 0.001134 813.00092 892.78888
919.0 0.001088 811.52710 890.17279
862.0 0.001160 810.05127 892.49152
946.0 0.001057 808.57440 901.92511
908.0 0.001101 807.09564 926.33636
963.0 0.001038 805.61542 985.18744
1117.0 0.000895 804.13416 1114.95032
1346.0 0.000743 802.65149 1362.44519
1863.0 0.000537 801.16779 1751.50244
2446.0 0.000409 799.68286 2231.44873
2865.0 0.0003490 798.19653 2653.52100
2796.0 0.000358 796.70972 2834.07446
2796.0 0.000358 795.22174 2731.64600
2822.0 0.000354 793.73322 2488.95190
2349.0 0.000426 792.24384 2209.02417
1789.0 0.000559 790.75330 1891.52673
1533.0 0.000652 789.26288 1556.20679
1287.0 0.000777 787.77136 1267.20703
1074.0 0.000931 786.27985 1063.07349
908.0 0.001101 784.78760 942.09570
824.0 0.001214 783.29492 879.64539
839.0 0.001192 781.80231 848.93768
819.0 0.001221 780.30933 832.37659
842.0 0.001188 778.81647 821.66028
827.0 0.001209 777.32343 813.61310
754.0 0.001326 775.83008 807.08850
821.0 0.001218 774.33728 801.59772
757.0 0.001321 772.84448 796.86121
766.0 0.001305 771.35211 792.69763
777.0 0.001287 769.85999 788.97632
763.0 0.001311 768.36786 785.60242
778.0 0.001285 766.87683 782.50757
757.0 0.001321 765.38599 779.63690
772.0 0.001295 763.89581 776.95038
782.0 0.001279 762.40631 774.41583
767.0 0.001304 760.91736 772.00793
741.0 0.001350 759.42944 769.70764
763.0 0.001311 757.94238 767.49811
734.0 0.001362 756.45624 765.36652
788.0 0.001269 754.97119 763.30182
754.0 0.001326 753.48694 760.10040
768.0 0.001302 752.00433 758.19000
740.0 0.001351 750.52246 756.32111
712.0 0.001404 749.04242 754.48981
755.0 0.001325 747.56342 752.10663
758.0 0.001319 746.08539 750.35828
732.0 0.001366 744.60956 748.63580
744.0 0.001344 743.13483 746.93506
707.0 0.001414 741.66217 745.25500
750.0 0.001333 740.19104 743.59296
719.0 0.001391 738.72107 741.94696
701.0 0.001427 737.25372 740.31683
712.0 0.001404 735.78772 738.70020
730.0 0.001370 734.32422 737.09680
695.0 0.001439 732.86243 735.50507
763.0 0.001311 731.40253 733.92401
784.0 0.001276 729.94495 732.35358
746.0 0.001340 728.48932 730.79242
742.0 0.001348 727.03650 729.24084
754.0 0.001326 725.58569 727.69757
752.0 0.001330 724.13708 726.16217
684.0 0.001462 722.69110 724.63464
746.0 0.001340 721.24762 721.92975
730.0 0.001370 719.80676 720.46124
713.0 0.001403 718.36853 718.99707
728.0 0.001374 716.93268 717.53680
755.0 0.001325 715.49988 715.50000
715.0 0.001399 714.06982 714.06995
681.0 0.001468 712.64264 712.64276
704.0 0.001420 711.21832 711.21844
698.0 0.001433 709.79681 709.79694
690.0 0.001449 708.37872 708.37885
720.0 0.001389 706.96332 706.96344
700.0 0.001429 705.55151 705.55157
731.0 0.001368 704.14233 704.14246
696.0 0.001437 702.73645 702.73657
716.0 0.001397 701.33435 701.33447
704.0 0.001420 699.93512 699.93518
703.0 0.001422 698.53973 698.53986
719.0 0.001391 697.14752 697.14764
646.0 0.001548 695.75842 695.75848
641.0 0.001560 694.37354 694.37366
672.0 0.001488 692.99176 692.99188
652.0 0.001534 691.61414 691.84521
693.0 0.001443 690.23993 690.48022
685.0 0.001460 688.86902 689.11902
700.0 0.001429 687.50262 687.76288
666.0 0.001502 686.13959 686.52594
677.0 0.001477 684.78088 685.18347
639.0 0.001565 683.42590 683.84576
699.0 0.001431 682.07458 682.51288
677.0 0.001477 680.72760 681.18555
711.0 0.001406 679.38464 679.86353
702.0 0.001425 678.04578 678.54718
667.0 0.001499 676.71106 677.23657
629.0 0.001590 675.38031 675.93176
641.0 0.001560 674.05402 674.63330
682.0 0.001466 672.73193 673.34131
627.0 0.001595 671.41425 672.05597
675.0 0.001481 670.10083 670.77765
655.0 0.001527 668.79156 669.50647
646.0 0.001548 667.48724 668.24347
657.0 0.001522 666.18683 666.98816
684.0 0.001462 664.89124 665.74164
614.0 0.001629 663.60010 664.50439
662.0 0.001511 662.31329 663.27679
636.0 0.001572 661.03162 662.06030
651.0 0.001536 659.75403 660.85468
695.0 0.001439 658.48163 659.66211
665.0 0.001504 657.21362 658.48297
681.0 0.001468 655.94995 657.31866
634.0 0.001577 654.69171 656.17194
643.0 0.001555 653.43774 655.04370
671.0 0.001490 652.18909 653.93744
624.0 0.001603 650.94507 652.85559
650.0 0.001538 649.70551 651.80206
661.0 0.001513 648.47150 650.78253
638.0 0.001567 647.24194 649.80212
667.0 0.001499 646.01776 648.86981
656.0 0.001524 644.79840 647.99518
653.0 0.001531 643.58380 647.19183
640.0 0.001563 642.37445 646.47839
681.0 0.001468 641.17010 645.87970
692.0 0.001445 639.97095 645.43079
604.0 0.001656 638.77679 645.18408
623.0 0.001605 637.58759 645.23016
649.0 0.001541 636.40369 645.76648
650.0 0.001538 635.22504 647.31805
660.0 0.001515 634.05151 651.28510
647.0 0.001546 632.88318 660.93536
717.0 0.001395 631.71985 682.28766
762.0 0.001312 630.56219 723.11945
758.0 0.001319 629.40936 788.18927
936.0 0.001068 628.26202 871.27661
911.0 0.001098 627.11993 950.26367
910.0 0.001099 625.98297 993.84064
876.0 0.001142 624.85175 986.98279
886.0 0.001129 623.72540 948.92102
835.0 0.001198 622.60480 903.43982
755.0 0.001325 621.48938 854.51056
771.0 0.001297 620.37891 798.48212
647.0 0.001546 619.27441 741.71771
668.0 0.001497 618.17487 694.37744
668.0 0.001497 617.08118 661.27740
608.0 0.001645 615.99261 641.39087
663.0 0.001508 614.90918 630.61072
622.0 0.001608 613.83167 624.78503
659.0 0.001517 612.75922 621.21869
608.0 0.001645 611.69257 618.61713
594.0 0.001684 610.63116 616.46558
626.0 0.001597 609.57507 614.57245
639.0 0.001565 608.52460 612.85645
613.0 0.001631 607.47937 611.27094
637.0 0.001570 606.43994 609.78699
596.0 0.001678 605.40582 608.38239
595.0 0.001681 604.37701 607.04144
574.0 0.001742 603.35382 605.75317
620.0 0.001613 602.33606 604.50806
606.0 0.001650 601.32379 603.29932
567.0 0.001764 600.31702 602.12170
626.0 0.001597 599.31555 600.97058
564.0 0.001773 598.31970 599.84320
630.0 0.001587 597.32928 598.73621
583.0 0.001715 596.34436 597.64764
656.0 0.001524 595.36487 596.57568
609.0 0.001642 594.39069 595.51843
571.0 0.001751 593.42230 594.47528
584.0 0.001712 592.45905 593.44452
646.0 0.001548 591.50153 592.42578
627.0 0.001595 590.54926 591.41785
609.0 0.001642 589.60217 590.41986
579.0 0.001727 588.66095 589.43219
587.0 0.001704 587.72479 588.45349
594.0 0.001684 586.79443 587.48395
571.0 0.001751 585.86926 586.52271
571.0 0.001751 584.94916 585.56927
560.0 0.001786 584.03497 584.62427
529.0 0.001890 583.12579 583.68646
588.0 0.001701 582.22235 582.75647
596.0 0.001678 581.32410 581.83350
567.0 0.001764 580.43097 580.91736
610.0 0.001639 579.54340 580.00830
592.0 0.001689 578.66095 579.30658
565.0 0.001770 577.78418 578.41901
611.0 0.001637 576.91248 577.53815
572.0 0.001748 576.04596 576.66400
557.0 0.001795 575.18481 575.89600
579.0 0.001727 574.32898 574.81116
575.0 0.001739 573.47833 573.97021
611.0 0.001637 572.63293 573.13580
534.0 0.001873 571.79266 572.30798
532.0 0.001880 570.95764 571.37335
574.0 0.001742 570.12787 570.56311
565.0 0.001770 569.30322 569.75946
564.0 0.001773 568.48370 568.96252
594.0 0.001684 567.66919 568.17236
533.0 0.001876 566.86005 567.38934
554.0 0.001805 566.05573 566.61334
553.0 0.001808 565.25677 565.84497
578.0 0.001730 564.46259 565.08411
598.0 0.001672 563.67346 564.33105
530.0 0.001887 562.88965 563.58655
578.0 0.001730 562.11047 562.85040
534.0 0.001873 561.33661 562.12366
567.0 0.001764 560.56757 561.40637
565.0 0.001770 559.80316 560.69904
584.0 0.001712 559.04407 560.00299
560.0 0.001786 558.28967 559.31860
614.0 0.001629 557.54034 558.64722
545.0 0.001835 556.79572 557.98975
550.0 0.001818 556.05573 557.34772
532.0 0.001880 555.32086 556.72333
533.0 0.001876 554.59058 556.11835
603.0 0.001658 553.86530 555.53589
585.0 0.001709 553.14459 554.97900
613.0 0.001631 552.42847 554.45233
583.0 0.001715 551.71716 553.96112
574.0 0.001742 551.01056 553.51276
546.0 0.001832 550.30859 553.11615
512.0 0.001953 549.61121 552.78363
629.0 0.001590 548.91827 552.53180
567.0 0.001764 548.23010 552.38312
594.0 0.001684 547.54639 552.37042
588.0 0.001701 546.86725 552.54529
585.0 0.001709 546.19257 553.00995
567.0 0.001764 545.52222 554.01514
579.0 0.001727 544.85657 556.22919
610.0 0.001639 544.19507 561.30298
621.0 0.001610 543.53809 572.61230
639.0 0.001565 542.88544 595.44171
638.0 0.001567 542.23700 635.18341
801.0 0.001248 541.59314 692.80798
990.0 0.001010 540.95331 759.63287
1032.0 0.000969 540.31793 815.86334
960.0 0.001042 539.68665 839.67468
963.0 0.001038 539.05939 826.67932
999.0 0.001001 538.43658 795.12280
927.0 0.001079 537.81769 761.55713
777.0 0.001287 537.20319 725.45184
725.0 0.001379 536.59259 683.69928
701.0 0.001427 535.98584 640.19122
636.0 0.001572 535.38348 602.62146
576.0 0.001736 534.78485 575.64783
596.0 0.001678 534.19043 558.56207
538.0 0.001859 533.59985 549.08533
544.0 0.001838 533.01306 544.07025
598.0 0.001672 532.43030 541.23645
561.0 0.001783 531.85132 539.36450
556.0 0.001799 531.27618 537.93158
592.0 0.001689 530.70490 536.73633
528.0 0.001894 530.13721 535.69775
521.0 0.001919 529.57343 534.77570
544.0 0.001838 529.01331 533.94513
556.0 0.001799 528.45685 533.18896
513.0 0.001949 527.90411 532.49518
542.0 0.001845 527.35480 531.85461
522.0 0.001916 526.80933 531.26147
554.0 0.001805 526.26727 530.71106
552.0 0.001812 525.72882 530.20068
525.0 0.001905 525.19385 529.72852
525.0 0.001905 524.66223 529.29388
544.0 0.001838 524.13434 528.89734
507.0 0.001972 523.60962 528.53973
542.0 0.001845 523.08844 528.22345
528.0 0.001894 522.57062 527.95123
522.0 0.001916 522.05585 527.72736
550.0 0.001818 521.54474 527.55762
522.0 0.001916 521.03662 527.44855
558.0 0.001792 520.53198 527.40936
527.0 0.001898 520.03052 527.45099
514.0 0.001946 519.53198 527.58783
551.0 0.001815 519.03693 527.83813
507.0 0.001972 518.54480 528.22540
542.0 0.001845 518.05591 528.78015
538.0 0.001859 517.57007 529.54254
531.0 0.001883 517.08710 530.56677
545.0 0.001835 516.60730 531.92505
577.0 0.001733 516.13043 533.72180
549.0 0.001821 515.65662 536.11414
554.0 0.001805 515.18567 539.39172
493.0 0.002028 514.71753 544.22162
557.0 0.001795 514.25238 552.34668
569.0 0.001757 513.79004 568.18604
570.0 0.001754 513.33051 601.31396
670.0 0.001493 512.87378 668.23584
733.0 0.001364 512.41974 789.02722
934.0 0.001071 511.96851 975.99872
1159.0 0.000863 511.51996 1214.42725
1272.0 0.000786 511.07413 1450.27441
1448.0 0.000691 510.63092 1602.53809
1551.0 0.000645 510.19028 1617.46362
1582.0 0.000632 509.75238 1527.97473
1483.0 0.000674 509.31686 1407.07410
1124.0 0.000890 508.88409 1286.10938
964.0 0.001037 508.45374 1152.52466
915.0 0.001093 508.02573 998.84583
776.0 0.001289 507.60040 847.09454
698.0 0.001433 507.17740 722.02228
563.0 0.001776 506.75690 634.51184
552.0 0.001812 506.33875 581.67175
578.0 0.001730 505.92282 553.23798
557.0 0.001795 505.50943 538.64484
532.0 0.001880 505.09821 530.69952
509.0 0.001965 504.68942 525.70184
500.0 0.002000 504.28278 522.07300
515.0 0.001942 503.87836 519.19904
482.0 0.002075 503.47617 516.82391
485.0 0.002062 503.07614 514.81256
510.0 0.001961 502.67841 513.08044
482.0 0.002075 502.28271 511.56665
498.0 0.002008 501.88907 510.22650
481.0 0.002079 501.49762 509.05481
479.0 0.002088 501.10818 507.97086
509.0 0.001965 500.72083 506.98160
468.0 0.002137 500.33548 506.07114
504.0 0.001984 499.95203 505.24020
525.0 0.001905 499.57065 504.45279
493.0 0.002028 499.19119 503.71338
496.0 0.002016 498.81372 503.01538
432.0 0.002315 498.43811 502.35324
493.0 0.002028 498.06433 501.72220
522.0 0.001916 497.69254 501.11884
479.0 0.002088 497.32245 500.53955
483.0 0.002070 496.95432 499.98190
485.0 0.002062 496.58783 499.44333
476.0 0.002101 496.22318 498.92194
485.0 0.002062 495.86032 498.41620
456.0 0.002193 495.49915 497.92438
487.0 0.002053 495.13977 497.44550
491.0 0.002037 494.78201 496.97827
461.0 0.002169 494.42587 496.52164
497.0 0.002012 494.07150 496.07520
446.0 0.002242 493.71866 495.63785
485.0 0.002062 493.36755 495.20926
501.0 0.001996 493.01801 494.78876
490.0 0.002041 492.66989 494.37582
471.0 0.002123 492.32352 493.97043
448.0 0.002232 491.97855 493.57193
507.0 0.001972 491.63522 493.18042
446.0 0.002242 491.29333 492.79550
479.0 0.002088 490.95288 492.41718
465.0 0.002151 490.61395 491.27936
479.0 0.002088 490.27649 490.94315
506.0 0.001976 489.94043 490.61240
482.0 0.002075 489.60577 490.28763
464.0 0.002155 489.27246 489.58264
463.0 0.002160 488.94061 489.28656
443.0 0.002257 488.61011 488.99844
479.0 0.002088 488.28094 488.71991
507.0 0.001972 487.95313 488.45331
442.0 0.002262 487.62656 488.20184
457.0 0.002188 487.30142 487.97043
476.0 0.002101 486.97745 487.76770
525.0 0.001905 486.65479 487.61374
471.0 0.002123 486.33334 487.55920
457.0 0.002188 486.01312 487.73169
456.0 0.002193 485.69424 488.40845
502.0 0.001992 485.37643 490.07892
495.0 0.002020 485.05997 493.38007
523.0 0.001912 484.74460 498.78610
549.0 0.001821 484.43030 506.07779
595.0 0.001681 484.11731 513.87622
559.0 0.001789 483.80536 519.74713
574.0 0.001742 483.49460 521.71143
568.0 0.001761 483.18497 519.38025
560.0 0.001786 482.87628 515.26208
581.0 0.001721 482.56885 511.05707
549.0 0.001821 482.26242 506.79898
498.0 0.002008 481.95712 502.01059
498.0 0.002008 481.65283 496.63617
530.0 0.001887 481.34955 491.64450
476.0 0.002101 481.04733 487.67960
462.0 0.002165 480.74612 484.92490
472.0 0.002119 480.44592 483.19696
481.0 0.002079 480.14673 482.15317
473.0 0.002114 479.84845 481.48608
496.0 0.002016 479.55121 481.00027
484.0 0.002066 479.25494 480.59805
447.0 0.002237 478.95959 480.23804
479.0 0.002088 478.66522 479.90414
494.0 0.002024 478.37170 480.75107
495.0 0.002020 478.07922 480.49832
489.0 0.002045 477.78754 480.26184
516.0 0.001938 477.49683 480.04059
445.0 0.002247 477.20700 479.83411
499.0 0.002004 476.91800 480.22552
498.0 0.002008 476.62997 480.07202
492.0 0.002033 476.34274 479.93539
471.0 0.002123 476.05643 479.81689
549.0 0.001821 475.77097 479.71799
488.0 0.002049 475.48621 479.64035
487.0 0.002053 475.20245 479.58655
511.0 0.001957 474.91943 479.55923
551.0 0.001815 474.63730 479.56198
492.0 0.002033 474.35593 479.59891
500.0 0.002000 474.07529 479.67542
477.0 0.002096 473.79556 479.79782
458.0 0.002183 473.51654 479.97440
498.0 0.002008 473.23840 480.21536
536.0 0.001866 472.96100 480.53372
481.0 0.002079 472.68433 480.94666
530.0 0.001887 472.40842 481.47632
489.0 0.002045 472.13327 482.15369
490.0 0.002041 471.85895 483.02438
448.0 0.002232 471.58533 484.16931
483.0 0.002070 471.31238 485.76547
496.0 0.002016 471.04022 488.25381
475.0 0.002105 470.76877 492.71555
549.0 0.001821 470.49808 501.46698
541.0 0.001848 470.22809 518.57715
529.0 0.001890 469.95874 549.41492
599.0 0.001669 469.69016 598.19318
722.0 0.001385 469.42227 663.81348
825.0 0.001212 469.15512 735.88745
811.0 0.001233 468.88861 794.74304
826.0 0.001211 468.62277 820.19739
822.0 0.001217 468.35770 809.10693
837.0 0.001195 468.09320 779.07501
789.0 0.001267 467.82947 747.24615
711.0 0.001406 467.56638 717.05475
645.0 0.001550 467.30383 683.27020
688.0 0.001453 467.04211 644.92706
670.0 0.001493 466.78094 609.13812
602.0 0.001661 466.52051 584.94556
563.0 0.001776 466.26071 581.33740
570.0 0.001754 466.00143 609.97296
646.0 0.001548 465.74295 688.15918
774.0 0.001292 465.48502 836.94763
1047.0 0.000955 465.22781 1069.15332
1366.0 0.000732 464.97119 1370.49768
1717.0 0.000582 464.71515 1684.47791
1785.0 0.000560 464.45978 1917.78076
1724.0 0.000580 464.20499 1989.77637
1823.0 0.000549 463.95093 1907.77991
1864.0 0.000536 463.69742 1758.01636
1510.0 0.000662 463.44449 1606.51990
1164.0 0.000859 463.19220 1457.70020
996.0 0.001004 462.94055 1285.89258
989.0 0.001011 462.68948 1090.53931
844.0 0.001185 462.43903 901.28229
750.0 0.001333 462.18915 745.67737
599.0 0.001669 461.93988 635.35376
581.0 0.001721 461.69125 567.05005
513.0 0.001949 461.44315 529.07678
495.0 0.002020 461.19571 509.07535
485.0 0.002062 460.94882 498.19388
508.0 0.001969 460.70255 491.53662
459.0 0.002179 460.45685 486.86517
484.0 0.002066 460.21173 483.25540
488.0 0.002049 459.96716 480.32361
509.0 0.001965 459.72321 477.88199
455.0 0.002198 459.47986 475.81589
489.0 0.002045 459.23706 474.04727
525.0 0.001905 458.99487 472.51767
460.0 0.002174 458.75320 471.18372
473.0 0.002114 458.51218 470.01202
497.0 0.002012 458.27164 468.97617
505.0 0.001980 458.03177 468.05658
485.0 0.002062 457.79239 467.23688
461.0 0.002169 457.55356 466.50516
452.0 0.002212 457.31540 465.85211
470.0 0.002128 457.07770 465.27039
485.0 0.002062 456.84064 464.75522
497.0 0.002012 456.60406 464.30328
471.0 0.002123 456.36807 463.91324
502.0 0.001992 456.13269 464.00143
510.0 0.001961 455.89780 463.49979
493.0 0.002028 455.66354 463.33395
474.0 0.002110 455.42975 463.24588
456.0 0.002193 455.19653 463.24695
451.0 0.002217 454.96393 463.56039
504.0 0.001984 454.73178 463.67883
491.0 0.002037 454.50031 464.09497
455.0 0.002198 454.26926 464.74747
487.0 0.002053 454.03882 465.79263
477.0 0.002096 453.80893 467.62045
495.0 0.002020 453.57956 471.17789
474.0 0.002110 453.35074 478.47971
494.0 0.002024 453.12244 493.08124
557.0 0.001795 452.89471 519.78333
524.0 0.001908 452.66751 562.73224
604.0 0.001656 452.44083 621.94214
620.0 0.001613 452.21472 689.67480
697.0 0.001435 451.98914 748.41290
704.0 0.001420 451.76404 780.82275
658.0 0.001520 451.53955 777.36298
617.0 0.001621 451.31552 750.16986
670.0 0.001493 451.09204 717.28973
593.0 0.001686 450.86911 685.85632
534.0 0.001873 450.64664 653.62476
559.0 0.001789 450.42480 615.40344
556.0 0.001799 450.20337 573.89606
495.0 0.002020 449.98257 535.67505
480.0 0.002083 449.76221 505.47168
470.0 0.002128 449.54236 484.75613
459.0 0.002179 449.32309 472.26038
468.0 0.002137 449.10428 465.44995
443.0 0.002257 448.88602 461.93625
474.0 0.002110 448.66824 460.10376
509.0 0.001965 448.45096 459.09457
444.0 0.002252 448.23425 458.52872
467.0 0.002141 448.01797 458.26123
464.0 0.002155 447.80228 458.24716
487.0 0.002053 447.58701 458.48529
486.0 0.002058 447.37228 459.00378
471.0 0.002123 447.15802 459.87173
503.0 0.001988 446.94431 461.25391
498.0 0.002008 446.73105 463.56564
496.0 0.002016 446.51828 467.84451
533.0 0.001876 446.30600 476.41568
497.0 0.002012 446.09424 493.68658
499.0 0.002004 445.88293 526.33771
595.0 0.001681 445.67215 581.56458
747.0 0.001339 445.46182 662.80188
916.0 0.001092 445.25192 764.02057
1056.0 0.000947 445.04260 866.13757
1091.0 0.000917 444.83368 939.83990
1169.0 0.000855 444.62524 961.01355
1227.0 0.000815 444.41730 933.45789
1121.0 0.000892 444.20978 884.22717
1017.0 0.000983 444.00278 834.81708
881.0 0.001135 443.79620 787.94897
774.0 0.001292 443.59012 735.05969
711.0 0.001406 443.38443 673.09686
656.0 0.001524 443.17920 609.82574
608.0 0.001645 442.97449 554.72845
505.0 0.001980 442.77017 513.16528
500.0 0.002000 442.56635 485.70880
512.0 0.001953 442.36288 469.50345
468.0 0.002137 442.15991 460.62320
440.0 0.002273 441.95740 455.78436
477.0 0.002096 441.75525 452.92465
471.0 0.002123 441.55362 450.99377
438.0 0.002283 441.35236 449.52588
456.0 0.002193 441.15152 448.32782
454.0 0.002203 440.95111 447.31320
498.0 0.002008 440.75110 446.18152
480.0 0.002083 440.55154 445.41989
458.0 0.002183 440.35236 444.74286
476.0 0.002101 440.15363 444.13431
441.0 0.002268 439.95526 443.58191
499.0 0.002004 439.75729 442.94992
419.0 0.002387 439.55972 442.48718
419.0 0.002387 439.36258 442.05661
420.0 0.002381 439.16577 441.65332
436.0 0.002294 438.96939 441.27350
447.0 0.002237 438.77338 440.91364
456.0 0.002193 438.57773 440.57108
418.0 0.002392 438.38248 440.24359
436.0 0.002294 438.18756 439.92920
441.0 0.002268 437.99307 439.62643
393.0 0.002545 437.79886 439.33374
427.0 0.002342 437.60507 439.05020
483.0 0.002070 437.41159 438.77460
435.0 0.002299 437.21844 438.50613
463.0 0.002160 437.02573 438.24420
390.0 0.002564 436.83328 437.98798
421.0 0.002375 436.64124 437.73709
441.0 0.002268 436.44946 437.49078
407.0 0.002457 436.25800 437.24884
471.0 0.002123 436.06693 437.01083
455.0 0.002198 435.87613 436.77637
443.0 0.002257 435.68570 436.54529
436.0 0.002294 435.49551 436.31708
422.0 0.002370 435.30566 436.09174
449.0 0.002227 435.11612 435.86893
390.0 0.002564 434.92682 435.64847
441.0 0.002268 434.73788 435.43024
412.0 0.002427 434.54919 434.80118
413.0 0.002421 434.36081 434.60239
425.0 0.002353 434.17267 434.40445
426.0 0.002347 433.98483 434.20740
447.0 0.002237 433.79727 434.01117
405.0 0.002469 433.60995 433.61023
419.0 0.002387 433.42285 433.42313
424.0 0.002358 433.23605 433.23633
417.0 0.002398 433.04950 433.04977
428.0 0.002336 432.86322 432.86349
422.0 0.002370 432.67712 432.67740
435.0 0.002299 432.49127 432.51041
455.0 0.002198 432.30569 432.32559
412.0 0.002427 432.12027 432.14096
391.0 0.002558 431.93512 431.95667
405.0 0.002469 431.75015 431.77258
427.0 0.002342 431.56534 431.59805
417.0 0.002398 431.38086 431.41492
452.0 0.002212 431.19647 431.23199
388.0 0.002577 431.01233 431.04947
398.0 0.002513 430.82834 430.86716
399.0 0.002506 430.64450 430.68518
410.0 0.002439 430.46094 430.50351
422.0 0.002370 430.27744 430.32214
411.0 0.002433 430.09421 430.14111
404.0 0.002475 429.91104 429.96042
443.0 0.002257 429.72806 429.78006
430.0 0.002326 429.54526 429.60010
384.0 0.002604 429.36255 429.42044
398.0 0.002513 429.18005 429.24127
435.0 0.002299 428.99765 429.06250
358.0 0.002793 428.81537 428.88419
431.0 0.002320 428.63321 428.70642
382.0 0.002618 428.45117 428.52917
424.0 0.002358 428.26926 428.35254
418.0 0.002392 428.08740 428.17648
421.0 0.002375 427.90570 428.00125
428.0 0.002336 427.72409 427.82684
419.0 0.002387 427.54254 427.65332
418.0 0.002392 427.36111 427.48093
413.0 0.002421 427.17975 427.30978
400.0 0.002500 426.99841 427.14001
405.0 0.002469 426.81723 426.97278
391.0 0.002558 426.63605 426.80673
450.0 0.002222 426.45493 426.64307
393.0 0.002545 426.27386 426.48230
382.0 0.002618 426.09283 426.32504
430.0 0.002326 425.91190 426.17221
446.0 0.002242 425.73093 426.02521
431.0 0.002320 425.55008 425.88492
382.0 0.002618 425.36917 425.75409
419.0 0.002387 425.18829 425.63742
414.0 0.002415 425.00748 425.54538
460.0 0.002174 424.82660 425.50269
454.0 0.002203 424.64581 425.56665
414.0 0.002415 424.46497 425.85330
422.0 0.002370 424.28409 426.56116
388.0 0.002577 424.10327 427.95712
410.0 0.002439 423.92239 430.28931
426.0 0.002347 423.74152 433.61417
434.0 0.002304 423.56058 437.61453
435.0 0.002299 423.37964 441.50455
432.0 0.002315 423.19864 444.17145
446.0 0.002242 423.01761 444.76511
437.0 0.002288 422.83655 443.47324
415.0 0.002410 422.65540 441.31561
399.0 0.002506 422.47421 439.14612
427.0 0.002342 422.29294 437.15424
443.0 0.002257 422.11163 435.02484
428.0 0.002336 421.93024 432.51096
439.0 0.002278 421.74878 429.78964
428.0 0.002336 421.56720 427.23041
409.0 0.002445 421.38559 425.11356
414.0 0.002415 421.20383 423.54648
424.0 0.002358 421.02200 422.48340
415.0 0.002410 420.84006 421.79230
435.0 0.002299 420.65802 421.33231
444.0 0.002252 420.47589 420.99741
418.0 0.002392 420.29361 420.72403
406.0 0.002463 420.11127 420.48062
394.0 0.002538 419.92871 420.25284
418.0 0.002392 419.74606 420.03476
427.0 0.002342 419.56332 419.82361
412.0 0.002427 419.38037 419.61804
381.0 0.002625 419.19739 419.51968
432.0 0.002315 419.01416 419.32892
429.0 0.002331 418.83078 419.14737
425.0 0.002353 418.64734 418.98132
398.0 0.002513 418.46362 418.83984
437.0 0.002288 418.27985 418.73386
444.0 0.002252 418.09583 418.97562
476.0 0.002101 417.91168 418.96066
494.0 0.002024 417.72736 418.96075
470.0 0.002128 417.54285 418.93631
445.0 0.002247 417.35818 418.84344
431.0 0.002320 417.17328 418.66556
488.0 0.002049 416.98822 418.43015
485.0 0.002062 416.80298 418.17984
433.0 0.002309 416.61752 417.93814
472.0 0.002119 416.43188 417.70200
442.0 0.002262 416.24603 417.45660
451.0 0.002217 416.05997 417.19839
471.0 0.002123 415.87369 416.93918
454.0 0.002203 415.68723 416.69348
449.0 0.002227 415.50052 416.47067
402.0 0.002488 415.31363 416.27307
443.0 0.002257 415.12643 416.09769
422.0 0.002370 414.93912 415.93945
422.0 0.002370 414.75153 416.10114
396.0 0.002525 414.56375 415.97363
423.0 0.002364 414.37567 415.85373
381.0 0.002625 414.18735 415.74115
428.0 0.002336 413.99887 415.63620
390.0 0.002564 413.81009 415.53958
430.0 0.002326 413.62112 415.58856
425.0 0.002353 413.43182 415.51752
430.0 0.002326 413.24231 415.45859
427.0 0.002342 413.05258 415.41373
398.0 0.002513 412.86255 415.38486
409.0 0.002445 412.67236 415.36539
455.0 0.002198 412.48181 415.37741
420.0 0.002381 412.29105 415.41528
471.0 0.002123 412.10004 415.48349
415.0 0.002410 411.90872 415.58810
410.0 0.002439 411.71719 415.88483
449.0 0.002227 411.52536 416.09161
392.0 0.002551 411.33328 416.36441
396.0 0.002525 411.14093 416.71948
408.0 0.002451 410.94833 417.17981
424.0 0.002358 410.75543 417.78049
423.0 0.002364 410.56229 418.66162
423.0 0.002364 410.36880 419.81915
445.0 0.002247 410.17511 421.65918
472.0 0.002119 409.98114 424.93777
439.0 0.002278 409.78690 431.18246
458.0 0.002183 409.59238 443.04047
453.0 0.002208 409.39752 464.21698
468.0 0.002137 409.20248 498.49869
529.0 0.001890 409.00708 547.68549
629.0 0.001590 408.81149 608.94409
763.0 0.001311 408.61554 673.16998
765.0 0.001307 408.41931 725.49207
806.0 0.001241 408.22287 750.76508
811.0 0.001233 408.02606 744.76270
824.0 0.001214 407.82907 718.56604
750.0 0.001333 407.63171 687.26501
737.0 0.001357 407.43408 658.81683
657.0 0.001522 407.23624 631.93610
569.0 0.001757 407.03806 601.09851
536.0 0.001866 406.83966 564.64124
542.0 0.001845 406.64093 526.51825
514.0 0.001946 406.44189 491.95795
523.0 0.001912 406.24268 464.47119
447.0 0.002237 406.04309 445.13705
423.0 0.002364 405.84332 433.03769
423.0 0.002364 405.64319 426.22849
436.0 0.002294 405.44281 422.75525
453.0 0.002208 405.24219 421.18140
435.0 0.002299 405.04126 420.67087
401.0 0.002494 404.84009 420.84787
420.0 0.002381 404.63858 421.65369
467.0 0.002141 404.43686 423.33481
453.0 0.002208 404.23489 426.62775
417.0 0.002398 404.03262 433.17740
484.0 0.002066 403.83011 446.07019
416.0 0.002404 403.62735 470.11447
464.0 0.002155 403.42429 511.09241
502.0 0.001992 403.22101 573.40662
643.0 0.001555 403.01743 656.51221
807.0 0.001239 402.81360 751.53992
947.0 0.001056 402.60956 840.42786
887.0 0.001127 402.40521 899.24054
826.0 0.001211 402.20068 911.45203
851.0 0.001175 401.99585 883.78149
917.0 0.001091 401.79083 838.85101
837.0 0.001195 401.58551 794.90051
724.0 0.001381 401.37994 756.73108
672.0 0.001488 401.17422 717.79401
574.0 0.001742 400.96817 671.25000
568.0 0.001761 400.76199 619.87073
589.0 0.001698 400.55551 572.92688
520.0 0.001923 400.34879 539.79462
489.0 0.002045 400.14194 526.79199
528.0 0.001894 399.93478 535.53198
565.0 0.001770 399.72748 562.21234
626.0 0.001597 399.51990 598.02917
716.0 0.001397 399.31213 630.51715
782.0 0.001279 399.10416 647.13043
688.0 0.001453 398.89600 642.83582
781.0 0.001280 398.68765 624.06177
703.0 0.001422 398.47903 601.19495
614.0 0.001629 398.27029 580.49054
520.0 0.001923 398.06137 561.85596
564.0 0.001773 397.85223 541.30066
506.0 0.001976 397.64294 516.58716
565.0 0.001770 397.43347 489.73566
473.0 0.002114 397.22379 464.35138
454.0 0.002203 397.01401 443.21188
403.0 0.002481 396.80399 427.53061
415.0 0.002410 396.59384 417.05399
429.0 0.002331 396.38354 410.60452
383.0 0.002611 396.17307 406.80115
404.0 0.002475 395.96249 404.51904
411.0 0.002433 395.75174 403.03088
384.0 0.002604 395.54089 401.94272
376.0 0.002660 395.32983 401.06491
381.0 0.002625 395.11865 400.31247
393.0 0.002545 394.90741 399.64612
413.0 0.002421 394.69601 399.04459
409.0 0.002445 394.48456 398.49496
396.0 0.002525 394.27289 397.98776
431.0 0.002320 394.06116 397.24289
367.0 0.002725 393.84937 396.80872
405.0 0.002469 393.63742 396.39911
382.0 0.002618 393.42545 396.01080
401.0 0.002494 393.21335 395.64066
405.0 0.002469 393.00116 395.28632
389.0 0.002571 392.78891 394.94586
402.0 0.002488 392.57657 394.61743
370.0 0.002703 392.36423 394.29993
374.0 0.002674 392.15176 393.99191
372.0 0.002688 391.93927 393.69254
421.0 0.002375 391.72675 393.40106
378.0 0.002646 391.51416 393.11658
399.0 0.002506 391.30154 392.83871
395.0 0.002532 391.08890 392.56702
334.0 0.002994 390.87616 392.30099
365.0 0.002740 390.66348 392.04047
380.0 0.002632 390.45078 391.78534
389.0 0.002571 390.23804 391.58893
404.0 0.002475 390.02533 391.34616
389.0 0.002571 389.81256 391.10898
354.0 0.002825 389.59991 390.87787
386.0 0.002591 389.38718 390.65320
340.0 0.002941 389.17453 390.12222
349.0 0.002865 388.96182 389.95081
357.0 0.002801 388.74918 389.76608
358.0 0.002793 388.53662 389.60211
390.0 0.002564 388.32407 389.47742
375.0 0.002667 388.11160 389.43240
361.0 0.002770 387.89914 389.38919
398.0 0.002513 387.68674 389.78696
426.0 0.002347 387.47446 390.63181
382.0 0.002618 387.26221 392.08453
389.0 0.002571 387.05008 394.21069
387.0 0.002584 386.83798 396.88052
411.0 0.002433 386.62601 399.70087
371.0 0.002695 386.41415 402.03580
393.0 0.002545 386.20236 403.20981
368.0 0.002717 385.99075 402.95544
389.0 0.002571 385.77917 401.51190
385.0 0.002597 385.56775 399.84418
396.0 0.002525 385.35648 398.25699
395.0 0.002532 385.14536 396.81607
381.0 0.002625 384.93436 395.30383
396.0 0.002525 384.72351 393.53311
377.0 0.002653 384.51279 391.49332
362.0 0.002762 384.30225 389.54880
412.0 0.002427 384.09189 387.82803
415.0 0.002410 383.88171 386.44904
371.0 0.002695 383.67169 385.42944
374.0 0.002674 383.46185 384.71417
385.0 0.002597 383.25226 384.21643
396.0 0.002525 383.04282 383.85410
368.0 0.002717 382.83365 383.56805
361.0 0.002770 382.62460 383.32269
366.0 0.002732 382.41580 383.09973
374.0 0.002674 382.20728 382.89084
380.0 0.002632 381.99893 382.69241
387.0 0.002584 381.79089 382.50327
354.0 0.002825 381.58304 382.32303
378.0 0.002646 381.37543 382.15213
407.0 0.002457 381.16812 381.99118
387.0 0.002584 380.96103 381.84134
390.0 0.002564 380.75430 381.70438
409.0 0.002445 380.54776 381.58228
388.0 0.002577 380.34152 381.47821
368.0 0.002717 380.13562 381.39648
379.0 0.002639 379.92996 381.34387
420.0 0.002381 379.72467 381.33276
382.0 0.002618 379.51962 381.38950
388.0 0.002577 379.31491 381.57376
367.0 0.002725 379.11053 382.01718
384.0 0.002604 378.90649 382.98404
417.0 0.002398 378.70279 384.93729
433.0 0.002309 378.49939 388.56015
401.0 0.002494 378.29636 394.64063
387.0 0.002584 378.09369 403.76382
373.0 0.002681 377.89139 415.86813
341.0 0.002933 377.68945 429.81967
401.0 0.002494 377.48788 443.29749
469.0 0.002132 377.28668 453.10678
364.0 0.002747 377.08591 456.57010
374.0 0.002674 376.88544 453.70401
417.0 0.002398 376.68542 447.22986
397.0 0.002519 376.48584 440.10645
371.0 0.002695 376.28659 433.81323
369.0 0.002710 376.08783 428.06238
397.0 0.002519 375.88943 421.61423
376.0 0.002660 375.69153 413.84213
409.0 0.002445 375.49399 405.33517
430.0 0.002326 375.29691 397.15738
360.0 0.002778 375.10031 390.17294
393.0 0.002545 374.90411 384.81439
364.0 0.002747 374.70844 381.08328
399.0 0.002506 374.51315 378.67734
395.0 0.002532 374.31833 377.19110
391.0 0.002558 374.12405 376.26379
372.0 0.002688 373.93021 375.64175
357.0 0.002801 373.73691 375.17682
393.0 0.002545 373.54401 374.79221
357.0 0.002801 373.35165 374.44455
411.0 0.002433 373.15979 374.13019
354.0 0.002825 372.96844 373.83899
402.0 0.002488 372.77759 373.56345
389.0 0.002571 372.58725 373.30045
374.0 0.002674 372.39746 373.04785
369.0 0.002710 372.20819 372.79996
366.0 0.002732 372.01944 372.56198
394.0 0.002538 371.83124 372.33182
362.0 0.002762 371.64359 372.10703
403.0 0.002481 371.45645 371.88687
364.0 0.002747 371.26993 371.67084
372.0 0.002688 371.08389 371.45850
351.0 0.002849 370.89847 371.24933
413.0 0.002421 370.71362 371.04312
330.0 0.003030 370.52930 370.83954
378.0 0.002646 370.34561 370.63843
348.0 0.002874 370.16245 370.43948
356.0 0.002809 369.97995 370.24271
393.0 0.002545 369.79797 370.25824
378.0 0.002646 369.61658 370.07196
363.0 0.002755 369.43585 369.88782
375.0 0.002667 369.25568 369.70560
375.0 0.002667 369.07617 369.52548
346.0 0.002890 368.89722 369.34729
404.0 0.002475 368.71890 369.27484
374.0 0.002674 368.54123 369.10422
374.0 0.002674 368.36417 368.93591
380.0 0.002632 368.18777 368.77045
407.0 0.002457 368.01193 368.60840
330.0 0.003030 367.83679 368.45148
381.0 0.002625 367.66229 368.30298
362.0 0.002762 367.48840 368.16901
358.0 0.002793 367.31525 368.05881
361.0 0.002770 367.14264 367.98456
365.0 0.002740 366.97076 367.95789
357.0 0.002801 366.79953 367.98328
407.0 0.002457 366.62894 368.05237
388.0 0.002577 366.45905 368.13821
393.0 0.002545 366.28983 368.19742
431.0 0.002320 366.12125 368.17947
368.0 0.002717 365.95337 368.05655
432.0 0.002315 365.78619 367.84805
353.0 0.002833 365.61969 367.60297
395.0 0.002532 365.45389 367.30991
383.0 0.002611 365.28873 367.08960
340.0 0.002941 365.12433 366.87802
397.0 0.002519 364.96057 366.65594
353.0 0.002833 364.79758 366.41785
352.0 0.002841 364.63522 366.17566
374.0 0.002674 364.47357 365.92075
380.0 0.002632 364.31268 365.71921
376.0 0.002660 364.15247 365.55109
357.0 0.002801 363.99301 365.41702
376.0 0.002660 363.83420 365.31299
361.0 0.002770 363.67612 365.23392
404.0 0.002475 363.51883 365.17566
382.0 0.002618 363.36218 365.13574
392.0 0.002551 363.20633 365.11398
349.0 0.002865 363.05118 365.11151
390.0 0.002564 362.89676 365.13065
394.0 0.002538 362.74304 365.17477
412.0 0.002427 362.59009 365.24829
375.0 0.002667 362.43790 365.35666
389.0 0.002571 362.28638 365.50690
377.0 0.002653 362.13562 365.70798
419.0 0.002387 361.98563 365.97186
387.0 0.002584 361.83636 366.31558
375.0 0.002667 361.68787 366.76636
385.0 0.002597 361.54010 367.37631
398.0 0.002513 361.39304 368.25558
431.0 0.002320 361.24677 369.64648
380.0 0.002632 361.10126 372.05981
382.0 0.002618 360.95648 376.46893
409.0 0.002445 360.81244 384.51013
376.0 0.002660 360.66916 398.50009
447.0 0.002237 360.52667 421.03989
455.0 0.002198 360.38489 454.26004
473.0 0.002114 360.24390 497.61472
562.0 0.001779 360.10364 547.83801
732.0 0.001366 359.96411 597.63507
716.0 0.001397 359.82541 636.72321
689.0 0.001451 359.68741 655.39178
627.0 0.001595 359.55023 651.24976
678.0 0.001475 359.41376 631.31519
626.0 0.001597 359.27802 606.14838
585.0 0.001709 359.14313 582.80280
528.0 0.001894 359.00891 562.64008
536.0 0.001866 358.87552 542.40613
483.0 0.002070 358.74286 518.23523
492.0 0.002033 358.61093 489.83014
483.0 0.002070 358.47983 460.10861
421.0 0.002375 358.34943 432.51053
370.0 0.002703 358.21985 409.54199
421.0 0.002375 358.09097 392.26810
378.0 0.002646 357.96286 380.44128
396.0 0.002525 357.83554 372.96671
369.0 0.002710 357.70895 368.49704
353.0 0.002833 357.58316 365.87036
364.0 0.002747 357.45807 364.27042
374.0 0.002674 357.33377 363.21127
376.0 0.002660 357.21024 362.43637
356.0 0.002809 357.08743 361.82132
392.0 0.002551 356.96539 361.30969
370.0 0.002703 356.84412 360.86984
355.0 0.002817 356.72357 360.48724
343.0 0.002915 356.60382 360.15198
370.0 0.002703 356.48477 359.85651
375.0 0.002667 356.36649 359.59555
361.0 0.002770 356.24896 359.36627
353.0 0.002833 356.13217 359.16266
371.0 0.002695 356.01614 358.98474
388.0 0.002577 355.90085 358.83032
395.0 0.002532 355.78632 358.69852
360.0 0.002778 355.67249 358.58893
384.0 0.002604 355.55939 358.50174
350.0 0.002857 355.44708 358.43762
365.0 0.002740 355.33548 358.39789
347.0 0.002882 355.22464 358.38431
372.0 0.002688 355.11450 358.39975
387.0 0.002584 355.00510 358.44775
392.0 0.002551 354.89645 358.53302
363.0 0.002755 354.78848 358.66171
323.0 0.003096 354.68130 358.84213
369.0 0.002710 354.57480 359.08578
343.0 0.002915 354.46902 359.41010
363.0 0.002755 354.36398 359.84540
358.0 0.002793 354.25964 360.45325
364.0 0.002747 354.15604 361.36566
379.0 0.002639 354.05310 362.86606
393.0 0.002545 353.95090 365.51962
382.0 0.002618 353.84940 370.33911
437.0 0.002288 353.74863 378.91211
411.0 0.002433 353.64853 393.30844
409.0 0.002445 353.54913 415.62988
419.0 0.002387 353.45041 447.07605
475.0 0.002105 353.35245 486.81427
531.0 0.001883 353.25510 531.14661
595.0 0.001681 353.15848 573.29437
557.0 0.001795 353.06253 604.48486
564.0 0.001773 352.96725 617.31287
587.0 0.001704 352.87268 611.12762
614.0 0.001629 352.77878 592.73322
577.0 0.001733 352.68555 570.73999
528.0 0.001894 352.59296 550.62695
485.0 0.002062 352.50104 533.05396
467.0 0.002141 352.40982 515.62585
401.0 0.002494 352.31921 494.86728
415.0 0.002410 352.22931 470.42105
412.0 0.002427 352.14001 444.60803
420.0 0.002381 352.05139 420.33344
372.0 0.002688 351.96341 399.68842
391.0 0.002558 351.87604 383.93256
394.0 0.002538 351.78937 372.90463
344.0 0.002907 351.70328 365.77618
343.0 0.002915 351.61783 361.44186
343.0 0.002915 351.53302 358.88824
351.0 0.002849 351.44882 357.37509
371.0 0.002695 351.36526 356.45135
393.0 0.002545 351.28229 355.88150
330.0 0.003030 351.19995 355.56134
369.0 0.002710 351.11819 355.44592
388.0 0.002577 351.03705 355.50076
387.0 0.002584 350.95651 355.67294
369.0 0.002710 350.87659 355.87927
400.0 0.002500 350.79721 356.01138
390.0 0.002564 350.71844 355.96622
376.0 0.002660 350.64026 355.70731
356.0 0.002809 350.56265 355.29385
332.0 0.003012 350.48563 354.82700
348.0 0.002874 350.40915 354.38382
359.0 0.002786 350.33325 353.98917
394.0 0.002538 350.25790 353.61816
394.0 0.002538 350.18314 353.29996
376.0 0.002660 350.10889 352.87161
337.0 0.002967 350.03519 352.42224
326.0 0.003067 349.96207 351.98569
341.0 0.002933 349.88947 351.59128
353.0 0.002833 349.81738 351.25647
321.0 0.003115 349.74585 351.02026
342.0 0.002924 349.67480 350.80591
382.0 0.002618 349.60434 350.63489
320.0 0.003125 349.53433 350.49380
333.0 0.003003 349.46487 350.37195
344.0 0.002907 349.39590 350.26205
351.0 0.002849 349.32742 350.15997
343.0 0.002915 349.25946 350.06317
359.0 0.002786 349.19196 349.97052
362.0 0.002762 349.12497 349.88141
317.0 0.003155 349.05847 349.79541
357.0 0.002801 348.99243 349.71228
318.0 0.003145 348.92685 349.63193
346.0 0.002890 348.86176 349.55408
339.0 0.002950 348.79712 349.47870
358.0 0.002793 348.73294 349.40570
364.0 0.002747 348.66919 349.33502
350.0 0.002857 348.60590 349.26657
334.0 0.002994 348.54306 349.20047
371.0 0.002695 348.48065 349.13654
359.0 0.002786 348.41867 349.07498
369.0 0.002710 348.35712 349.01575
394.0 0.002538 348.29599 348.95886
355.0 0.002817 348.23526 348.90451
345.0 0.002899 348.17499 348.66150
365.0 0.002740 348.11505 348.61832
372.0 0.002688 348.05554 348.57788
320.0 0.003125 347.99646 348.54034
324.0 0.003086 347.93771 348.50589
382.0 0.002618 347.87939 348.47501
355.0 0.002817 347.82144 348.35129
388.0 0.002577 347.76385 348.33170
346.0 0.002890 347.70663 348.31689
371.0 0.002695 347.64978 348.30753
351.0 0.002849 347.59329 348.30453
359.0 0.002786 347.53714 348.30884
354.0 0.002825 347.48132 348.32181
367.0 0.002725 347.42587 348.34488
370.0 0.002703 347.37076 348.38004
320.0 0.003125 347.31598 348.42975
330.0 0.003030 347.26151 348.49725
352.0 0.002841 347.20737 348.58728
354.0 0.002825 347.15353 348.70731
361.0 0.002770 347.10001 348.87152
342.0 0.002924 347.04678 349.10876
318.0 0.003145 346.99384 349.48059
322.0 0.003106 346.94122 350.11093
356.0 0.002809 346.88885 351.23080
377.0 0.002653 346.83679 353.22708
392.0 0.002551 346.78503 356.65891
389.0 0.002571 346.73349 362.20132
347.0 0.002882 346.68225 370.47205
344.0 0.002907 346.63126 381.72113
387.0 0.002584 346.58051 395.52527
401.0 0.002494 346.53003 410.54965
466.0 0.002146 346.47977 424.57437
451.0 0.002217 346.42975 434.82831
395.0 0.002532 346.37997 439.06146
417.0 0.002398 346.33041 437.09735
462.0 0.002165 346.28110 431.02155
423.0 0.002364 346.23196 423.55801
380.0 0.002632 346.18304 416.58856
398.0 0.002513 346.13434 410.61887
402.0 0.002488 346.08585 404.92862
380.0 0.002632 346.03754 398.39066
386.0 0.002591 345.98941 390.54871
364.0 0.002747 345.94144 381.91196
355.0 0.002817 345.89368 373.39069
337.0 0.002967 345.84610 365.79221
331.0 0.003021 345.79868 359.62726
374.0 0.002674 345.75140 355.04495
373.0 0.002681 345.70428 351.90115
338.0 0.002959 345.65735 349.88257
332.0 0.003012 345.61050 348.64056
347.0 0.002882 345.56384 347.88239
347.0 0.002882 345.51727 347.40134
352.0 0.002841 345.47086 347.07101
322.0 0.003106 345.42456 346.82214
361.0 0.002770 345.37839 346.61938
329.0 0.003040 345.33234 346.44562
341.0 0.002933 345.28638 346.29208
327.0 0.003058 345.24051 346.15402
348.0 0.002874 345.19476 346.02841
344.0 0.002907 345.14908 345.91299
334.0 0.002994 345.10349 345.80615
333.0 0.003003 345.05798 345.70654
330.0 0.003030 345.01254 345.61301
333.0 0.003003 344.96719 345.52481
340.0 0.002941 344.92188 345.44257
354.0 0.002825 344.87665 345.36722
345.0 0.002899 344.83145 345.29105
350.0 0.002857 344.78632 345.21783
350.0 0.002857 344.74121 345.14731
344.0 0.002907 344.69617 345.07907
327.0 0.003058 344.65115 345.01288
349.0 0.002865 344.60614 344.94925
336.0 0.002976 344.56116 344.88870
346.0 0.002890 344.51620 344.82751
311.0 0.003215 344.47125 344.76767
353.0 0.002833 344.42633 344.70895
366.0 0.002732 344.38138 344.65131
316.0 0.003165 344.33646 344.59467
352.0 0.002841 344.29150 344.53885
374.0 0.002674 344.24652 344.48386
318.0 0.003145 344.20157 344.42950
327.0 0.003058 344.15656 344.37589
348.0 0.002874 344.11154 344.32285
328.0 0.003049 344.06647 344.27032
340.0 0.002941 344.02139 344.21835
316.0 0.003165 343.97623 344.16678
334.0 0.002994 343.93106 344.11569
343.0 0.002915 343.88580 344.06497
325.0 0.003077 343.84052 344.01465
314.0 0.003185 343.79517 343.96463
353.0 0.002833 343.74973 343.91489
349.0 0.002865 343.70422 343.86545
341.0 0.002933 343.65866 343.81638
317.0 0.003155 343.61301 343.76758
334.0 0.002994 343.56726 343.71893
356.0 0.002809 343.52145 343.67065
336.0 0.002976 343.47552 343.55127
338.0 0.002959 343.42950 343.50562
305.0 0.003279 343.38339 343.46017
319.0 0.003135 343.33716 343.41483
362.0 0.002762 343.29080 343.36972
390.0 0.002564 343.24435 343.32483
333.0 0.003003 343.19775 343.28015
351.0 0.002849 343.15106 343.26089
358.0 0.002793 343.10422 343.21988
323.0 0.003096 343.05725 343.17932
346.0 0.002890 343.01016 343.13931
372.0 0.002688 342.96289 343.09988
333.0 0.003003 342.91550 343.06128
358.0 0.002793 342.86795 343.02359
372.0 0.002688 342.82025 342.98700
339.0 0.002950 342.77240 342.98267
356.0 0.002809 342.72437 342.95041
347.0 0.002882 342.67618 342.92090
341.0 0.002933 342.62781 342.89572
365.0 0.002740 342.57928 342.87799
354.0 0.002825 342.53058 342.93817
364.0 0.002747 342.48166 342.96252
333.0 0.003003 342.43256 343.03375
362.0 0.002762 342.38330 343.18378
346.0 0.002890 342.33383 343.45496
365.0 0.002740 342.28415 343.89325
355.0 0.002817 342.23428 344.53406
323.0 0.003096 342.18420 345.41354
361.0 0.002770 342.13391 346.42484
363.0 0.002755 342.08344 347.49271
372.0 0.002688 342.03271 348.45718
346.0 0.002890 341.98175 349.13214
323.0 0.003096 341.93060 349.37946
333.0 0.003003 341.87921 349.19821
343.0 0.002915 341.82761 348.72882
346.0 0.002890 341.77573 348.15369
359.0 0.002786 341.72366 347.60565
367.0 0.002725 341.67133 347.12936
347.0 0.002882 341.61874 346.68732
331.0 0.003021 341.56595 346.20444
355.0 0.002817 341.51288 345.63480
347.0 0.002882 341.45953 344.99585
330.0 0.003030 341.40598 344.34445
320.0 0.003125 341.35211 343.74039
347.0 0.002882 341.29803 343.22815
350.0 0.002857 341.24365 342.82910
332.0 0.003012 341.18903 342.54321
347.0 0.002882 341.13412 342.35477
346.0 0.002890 341.07898 342.24121
322.0 0.003106 341.02350 342.18124
337.0 0.002967 340.96777 342.15802
344.0 0.002907 340.91177 342.16113
339.0 0.002950 340.85547 342.18503
355.0 0.002817 340.79889 342.22833
355.0 0.002817 340.74200 342.29254
367.0 0.002725 340.68484 342.38260
369.0 0.002710 340.62738 342.50867
334.0 0.002994 340.56961 342.69199
351.0 0.002849 340.51157 342.97549
325.0 0.003077 340.45322 343.44293
362.0 0.002762 340.39453 344.31442
354.0 0.002825 340.33557 345.70554
324.0 0.003086 340.27631 348.03766
319.0 0.003135 340.21671 351.75763
331.0 0.003021 340.15683 357.30029
332.0 0.003012 340.09659 364.93414
332.0 0.003012 340.03607 374.55475
384.0 0.002604 339.97522 385.52487
386.0 0.002591 339.91403 396.66586
390.0 0.002564 339.85257 406.20807
341.0 0.002933 339.79074 412.41028
386.0 0.002591 339.72858 414.25558
400.0 0.002500 339.66614 412.29449
389.0 0.002571 339.60333 408.34839
360.0 0.002778 339.54022 404.46173
366.0 0.002732 339.47675 402.14859
367.0 0.002725 339.41296 402.11887
389.0 0.002571 339.34882 404.28040
368.0 0.002717 339.28436 408.05307
419.0 0.002387 339.21957 412.82535
413.0 0.002421 339.15442 418.04608
435.0 0.002299 339.08893 422.89301
433.0 0.002309 339.02313 426.10526
394.0 0.002538 338.95697 426.32550
431.0 0.002320 338.89044 422.96823
440.0 0.002273 338.82361 416.83133
456.0 0.002193 338.75641 409.60284
409.0 0.002445 338.68887 402.68048
404.0 0.002475 338.62097 396.84393
357.0 0.002801 338.55273 391.98676
409.0 0.002445 338.48416 387.35431
353.0 0.002833 338.41519 382.11298
354.0 0.002825 338.34592 375.97174
385.0 0.002597 338.27628 369.28906
372.0 0.002688 338.20630 362.63568
386.0 0.002591 338.13596 356.59415
347.0 0.002882 338.06525 351.55679
335.0 0.002985 337.99420 347.67422
360.0 0.002778 337.92282 344.89127
333.0 0.003003 337.85107 343.01996
327.0 0.003058 337.77896 341.82047
339.0 0.002950 337.70648 341.07095
328.0 0.003049 337.63370 340.60022
341.0 0.002933 337.56052 340.29776
346.0 0.002890 337.48703 340.09390
328.0 0.003049 337.41312 339.95245
344.0 0.002907 337.33890 339.85657
360.0 0.002778 337.26434 339.80035
345.0 0.002899 337.18939 339.78522
358.0 0.002793 337.11411 339.82190
338.0 0.002959 337.03848 339.93527
336.0 0.002976 336.96249 340.17776
309.0 0.003236 336.88614 340.65045
319.0 0.003135 336.80945 341.53186
399.0 0.002506 336.73242 343.10461
315.0 0.003175 336.65503 345.76630
338.0 0.002959 336.57727 349.99011
367.0 0.002725 336.49918 356.21939
390.0 0.002564 336.42075 364.69986
393.0 0.002545 336.34195 375.26788
427.0 0.002342 336.26282 387.20831
451.0 0.002217 336.18332 399.19589
468.0 0.002137 336.10352 409.41891
499.0 0.002004 336.02335 415.98679
480.0 0.002083 335.94284 417.76105
492.0 0.002033 335.86200 415.15625
511.0 0.001957 335.78079 409.85330
449.0 0.002227 335.69928 403.72815
421.0 0.002375 335.61740 398.04269
441.0 0.002268 335.53522 393.17209
410.0 0.002439 335.45267 388.67273
393.0 0.002545 335.36978 383.72849
406.0 0.002463 335.28659 377.82596
388.0 0.002577 335.20306 371.04440
398.0 0.002513 335.11920 364.08710
371.0 0.002695 335.03500 357.53400
358.0 0.002793 334.95050 351.90985
332.0 0.003012 334.86566 347.54477
326.0 0.003067 334.78049 344.57877
330.0 0.003030 334.69501 343.03397
336.0 0.002976 334.60919 342.89862
333.0 0.003003 334.52310 344.16238
353.0 0.002833 334.43668 346.93213
355.0 0.002817 334.34995 351.18161
355.0 0.002817 334.26288 356.75540
419.0 0.002387 334.17554 363.24225
461.0 0.002169 334.08786 369.85498
438.0 0.002283 333.99991 375.73209
439.0 0.002278 333.91162 379.72986
430.0 0.002326 333.82306 381.09909
446.0 0.002242 333.73422 379.90469
442.0 0.002262 333.64505 376.99158
413.0 0.002421 333.55560 373.42844
433.0 0.002309 333.46588 369.97607
381.0 0.002625 333.37585 367.01910
416.0 0.002404 333.28555 364.36603
378.0 0.002646 333.19495 361.57623
388.0 0.002577 333.10413 358.28464
398.0 0.002513 333.01297 354.47125
357.0 0.002801 332.92157 350.41080
359.0 0.002786 332.82990 346.45871
366.0 0.002732 332.73795 342.92035
359.0 0.002786 332.64572 339.98871
382.0 0.002618 332.55325 337.72662
346.0 0.002890 332.46054 336.08795
303.0 0.003300 332.36755 334.95801
326.0 0.003067 332.27432 334.20056
317.0 0.003155 332.18088 333.69171
303.0 0.003300 332.08713 333.33585
339.0 0.002950 331.99319 333.06937
352.0 0.002841 331.89896 332.85309
371.0 0.002695 331.80453 332.66589
342.0 0.002924 331.70987 332.49591
325.0 0.003077 331.61496 332.33731
300.0 0.003333 331.51987 332.18726
346.0 0.002890 331.42450 332.04352
349.0 0.002865 331.32895 331.90509
340.0 0.002941 331.23318 331.77121
345.0 0.002899 331.13721 331.64246
373.0 0.002681 331.04102 331.51553
317.0 0.003155 330.94464 331.39133
314.0 0.003185 330.84802 331.26947
364.0 0.002747 330.75125 331.14978
334.0 0.002994 330.65427 331.03180
339.0 0.002950 330.55713 330.91541
310.0 0.003226 330.45978 330.80038
353.0 0.002833 330.36224 330.68726
329.0 0.003040 330.26456 330.50528
318.0 0.003145 330.16666 330.39655
357.0 0.002801 330.06863 330.28763
319.0 0.003135 329.97043 330.17941
310.0 0.003226 329.87204 330.07175
296.0 0.003378 329.77356 329.96457
327.0 0.003058 329.67487 329.85788
330.0 0.003030 329.57605 329.71753
327.0 0.003058 329.47708 329.61188
311.0 0.003215 329.37796 329.50784
304.0 0.003289 329.27875 329.40353
327.0 0.003058 329.17938 329.29947
313.0 0.003195 329.07990 329.19559
332.0 0.003012 328.98029 329.09186
332.0 0.003012 328.88055 328.98828
315.0 0.003175 328.78070 328.88501
318.0 0.003145 328.68076 328.78171
327.0 0.003058 328.58069 328.67856
279.0 0.00358 328.48053 328.57559
302.0 0.003311 328.38028 328.47272
327.0 0.003058 328.27994 328.36990
357.0 0.002801 328.17950 328.26724
329.0 0.003040 328.07898 328.16461
304.0 0.003289 327.97839 328.06216
360.0 0.002778 327.87772 327.95972
327.0 0.003058 327.77701 327.81699
317.0 0.003155 327.67621 327.71606
321.0 0.003115 327.57535 327.61511
333.0 0.003003 327.47443 327.51431
310.0 0.003226 327.37347 327.41348
323.0 0.003096 327.27246 327.31287
298.0 0.003356 327.17139 327.21225
322.0 0.003106 327.07034 327.09137
315.0 0.003175 326.96921 326.99170
303.0 0.003300 326.86804 326.89215
313.0 0.003195 326.76688 326.79285
317.0 0.003155 326.66568 326.69379
335.0 0.002985 326.56448 326.59525
285.0 0.00351 326.46326 326.49738
344.0 0.002907 326.36203 326.40076
315.0 0.003175 326.26083 326.30643
311.0 0.003215 326.15961 326.21594
342.0 0.002924 326.05844 326.13150
329.0 0.003040 325.95724 326.05624
311.0 0.003215 325.85608 325.99356
316.0 0.003165 325.75491 325.94644
312.0 0.003205 325.65378 325.91617
325.0 0.003077 325.55270 325.90134
302.0 0.003311 325.45166 325.89618
354.0 0.002825 325.35065 325.89148
353.0 0.002833 325.24969 325.87463
282.0 0.00355 325.14877 325.83249
324.0 0.003086 325.04791 325.75677
292.0 0.003425 324.94714 325.64999
323.0 0.003096 324.84637 325.52438
337.0 0.002967 324.74573 325.39682
309.0 0.003236 324.64514 325.28247
319.0 0.003135 324.54462 325.19354
340.0 0.002941 324.44421 325.13858
312.0 0.003205 324.34384 325.12354
318.0 0.003145 324.24362 325.15314
320.0 0.003125 324.14343 325.23087
351.0 0.002849 324.04340 325.35529
318.0 0.003145 323.94345 325.51459
320.0 0.003125 323.84360 325.69788
319.0 0.003135 323.74387 325.84204
298.0 0.003356 323.64426 325.92093
336.0 0.002976 323.54477 325.90784
303.0 0.003300 323.44540 325.80841
317.0 0.003155 323.34616 325.66122
288.0 0.003472 323.24707 325.51645
333.0 0.003003 323.14807 325.41339
333.0 0.003003 323.04929 325.37415
322.0 0.003106 322.95059 325.37314
372.0 0.002688 322.85208 325.38098
332.0 0.003012 322.75372 325.35098
318.0 0.003145 322.65549 325.24414
325.0 0.003077 322.55750 325.06503
329.0 0.003040 322.45959 324.77826
337.0 0.002967 322.36188 324.44318
347.0 0.002882 322.26434 324.09604
303.0 0.003300 322.16699 323.77310
335.0 0.002985 322.06982 323.49130
343.0 0.002915 321.97284 323.24915
338.0 0.002959 321.87604 323.03201
327.0 0.003058 321.77945 322.83206
344.0 0.002907 321.68304 322.61444
318.0 0.003145 321.58682 322.39075
297.0 0.003367 321.49084 322.16455
328.0 0.003049 321.39505 321.94620
335.0 0.002985 321.29947 321.74313
324.0 0.003086 321.20410 321.56003
333.0 0.003003 321.10895 321.39816
305.0 0.003279 321.01401 321.25604
305.0 0.003279 320.91928 321.13016
301.0 0.003322 320.82483 321.01660
328.0 0.003049 320.73056 320.91153
297.0 0.003367 320.63657 320.81223
320.0 0.003125 320.54279 320.71658
299.0 0.003344 320.44922 320.62329
312.0 0.003205 320.35596 320.53180
332.0 0.003012 320.26288 320.44144
334.0 0.002994 320.17010 320.35233
278.0 0.00360 320.07755 320.26416
329.0 0.003040 319.98523 320.17712
298.0 0.003356 319.89319 320.09100
309.0 0.003236 319.80139 320.00589
312.0 0.003205 319.70987 319.92184
306.0 0.003268 319.61859 319.83896
336.0 0.002976 319.52762 319.75720
301.0 0.003322 319.43689 319.67670
296.0 0.003378 319.34641 319.59760
304.0 0.003289 319.25623 319.51987
281.0 0.00356 319.16629 319.44373
314.0 0.003185 319.07666 319.36935
303.0 0.003300 318.98730 319.29688
285.0 0.00351 318.89822 319.22650
323.0 0.003096 318.80942 319.15863
298.0 0.003356 318.72092 319.09341
304.0 0.003289 318.63266 319.03125
303.0 0.003300 318.54474 318.97269
307.0 0.003257 318.45703 318.91827
300.0 0.003333 318.36969 318.86905
305.0 0.003279 318.28259 318.82626
320.0 0.003125 318.19583 318.79254
314.0 0.003185 318.10931 318.77258
295.0 0.003390 318.02313 318.77512
312.0 0.003205 317.93719 318.81613
319.0 0.003135 317.85159 318.92444
313.0 0.003195 317.76630 319.14301
290.0 0.003448 317.68124 319.53745
334.0 0.002994 317.59653 320.19257
315.0 0.003175 317.51212 321.20239
301.0 0.003322 317.42798 322.65173
362.0 0.002762 317.34415 324.58322
355.0 0.002817 317.26065 326.96448
323.0 0.003096 317.17740 329.66647
331.0 0.003021 317.09445 332.44809
348.0 0.002874 317.01184 334.98404
368.0 0.002717 316.92950 336.91385
341.0 0.002933 316.84750 337.96878
357.0 0.002801 316.76575 338.13684
368.0 0.002717 316.68436 337.71915
331.0 0.003021 316.60321 337.20767
341.0 0.002933 316.52237 337.09561
318.0 0.003145 316.44183 337.76102
347.0 0.002882 316.36160 339.39594
337.0 0.002967 316.28168 341.97034
321.0 0.003115 316.20203 345.25037
359.0 0.002786 316.12265 348.86612
375.0 0.002667 316.04361 352.37317
365.0 0.002740 315.96484 355.26682
345.0 0.002899 315.88638 357.00919
372.0 0.002688 315.80817 357.21384
349.0 0.002865 315.73026 355.86752
387.0 0.002584 315.65268 353.37381
365.0 0.002740 315.57535 350.33215
382.0 0.002618 315.49832 347.28839
371.0 0.002695 315.42157 344.57260
339.0 0.002950 315.34506 342.24454
356.0 0.002809 315.26889 340.12405
328.0 0.003049 315.19296 337.92273
352.0 0.002841 315.11734 335.43216
339.0 0.002950 315.04193 332.63068
341.0 0.002933 314.96683 329.67734
330.0 0.003030 314.89200 326.72711
334.0 0.002994 314.81741 324.02246
292.0 0.003425 314.74313 321.65836
346.0 0.002890 314.66907 319.73239
317.0 0.003155 314.59528 318.24976
317.0 0.003155 314.52173 317.16241
293.0 0.003413 314.44843 316.39340
306.0 0.003268 314.37540 315.87183
314.0 0.003185 314.30261 315.50067
281.0 0.00356 314.23004 315.24689
326.0 0.003067 314.15771 315.04544
317.0 0.003155 314.08563 314.92432
299.0 0.003344 314.01379 314.78613
315.0 0.003175 313.94217 314.66241
320.0 0.003125 313.87076 314.54877
316.0 0.003165 313.79959 314.44214
321.0 0.003115 313.72861 314.34134
318.0 0.003145 313.65787 314.24518
320.0 0.003125 313.58731 314.15314
315.0 0.003175 313.51700 314.08527
317.0 0.003155 313.44684 314.00073
312.0 0.003205 313.37686 313.91928
307.0 0.003257 313.30713 313.84085
301.0 0.003322 313.23755 313.76556
305.0 0.003279 313.16818 313.69388
304.0 0.003289 313.09897 313.62662
313.0 0.003195 313.02994 313.56583
304.0 0.003289 312.96106 313.51428
315.0 0.003175 312.89236 313.47672
305.0 0.003279 312.82379 313.45886
318.0 0.003145 312.75540 313.46783
343.0 0.002915 312.68713 313.51025
296.0 0.003378 312.61902 313.59036
307.0 0.003257 312.55106 313.70795
321.0 0.003115 312.48322 313.85553
318.0 0.003145 312.41550 314.01797
340.0 0.002941 312.34790 314.17239
295.0 0.003390 312.28043 314.29138
302.0 0.003311 312.21304 314.34857
316.0 0.003165 312.14575 314.32925
341.0 0.002933 312.07861 314.23972
340.0 0.002941 312.01151 314.10278
287.0 0.003484 311.94452 313.94675
292.0 0.003425 311.87756 313.79401
324.0 0.003086 311.81073 313.65631
293.0 0.003413 311.74396 313.53345
315.0 0.003175 311.67722 313.41638
304.0 0.003289 311.61053 313.29355
327.0 0.003058 311.54391 313.15845
297.0 0.003367 311.47733 313.01389
331.0 0.003021 311.41077 312.86746
345.0 0.002899 311.34424 312.71585
326.0 0.003067 311.27774 312.59567
322.0 0.003106 311.21124 312.49924
339.0 0.002950 311.14474 312.43015
316.0 0.003165 311.07828 312.38953
325.0 0.003077 311.01178 312.37698
329.0 0.003040 310.94528 312.39203
343.0 0.002915 310.87875 312.43677
298.0 0.003356 310.81219 312.51007
286.0 0.003497 310.74561 312.64063
347.0 0.002882 310.67896 312.85046
300.0 0.003333 310.61230 313.19159
300.0 0.003333 310.54553 313.72742
309.0 0.003236 310.47873 314.63589
311.0 0.003215 310.41183 316.07410
337.0 0.002967 310.34488 318.27945
328.0 0.003049 310.27783 321.50095
325.0 0.003077 310.21069 325.96600
301.0 0.003322 310.14343 331.80252
312.0 0.003205 310.07608 338.96133
327.0 0.003058 310.00861 347.14597
361.0 0.002770 309.94101 355.85574
335.0 0.002985 309.87329 364.21674
360.0 0.002778 309.80539 371.36407
346.0 0.002890 309.73740 376.55594
358.0 0.002793 309.66919 379.49762
390.0 0.002564 309.60086 380.49896
376.0 0.002660 309.53235 380.41574
328.0 0.003049 309.46362 380.35324
324.0 0.003086 309.39478 381.25275
365.0 0.002740 309.32568 383.58270
411.0 0.002433 309.25641 387.12820
430.0 0.002326 309.18689 391.16211
434.0 0.002304 309.11719 394.59644
463.0 0.002160 309.04724 396.23514
400.0 0.002500 308.97708 395.20105
403.0 0.002481 308.90665 391.23770
428.0 0.002336 308.83597 384.88922
456.0 0.002193 308.76505 377.25427
418.0 0.002392 308.69382 369.50034
384.0 0.002604 308.62238 362.48978
386.0 0.002591 308.55060 356.63406
423.0 0.002364 308.47855 351.88092
355.0 0.002817 308.40619 347.80423
343.0 0.002915 308.33353 343.87717
366.0 0.002732 308.26056 339.72467
343.0 0.002915 308.18723 335.28207
357.0 0.002801 308.11362 330.71622
335.0 0.002985 308.03964 326.28653
335.0 0.002985 307.96533 322.24026
321.0 0.003115 307.89066 318.75601
323.0 0.003096 307.81561 315.92487
330.0 0.003030 307.74020 313.74377
293.0 0.003413 307.66440 312.14182
287.0 0.003484 307.58823 311.00824
291.0 0.003436 307.51166 310.22293
302.0 0.003311 307.43469 309.67966
275.0 0.00364 307.35730 309.29428
342.0 0.002924 307.27948 309.00784
295.0 0.003390 307.20129 308.78207
325.0 0.003077 307.12262 308.59387
312.0 0.003205 307.04352 308.43085
300.0 0.003333 306.96396 308.28650
319.0 0.003135 306.88394 308.15686
302.0 0.003311 306.80350 308.04401
309.0 0.003236 306.72256 307.94733
298.0 0.003356 306.64117 307.86801
309.0 0.003236 306.55927 307.80658
270.0 0.00370 306.47684 307.76245
319.0 0.003135 306.39398 307.73303
315.0 0.003175 306.31058 307.71362
338.0 0.002959 306.22668 307.69730
318.0 0.003145 306.14224 307.67563
295.0 0.003390 306.05728 307.64130
326.0 0.003067 305.97180 307.58887
319.0 0.003135 305.88577 307.51941
331.0 0.003021 305.79922 307.43994
318.0 0.003145 305.71207 307.36029
328.0 0.003049 305.62436 307.28992
326.0 0.003067 305.53613 307.23734
325.0 0.003077 305.44730 307.20999
307.0 0.003257 305.35791 307.21808
281.0 0.00356 305.26791 307.27994
339.0 0.002950 305.17731 307.50281
304.0 0.003289 305.08615 307.80667
307.0 0.003257 304.99435 308.35947
325.0 0.003077 304.90198 309.29782
291.0 0.003436 304.80896 310.79407
276.0 0.00362 304.71533 313.03583
314.0 0.003185 304.62109 316.19000
306.0 0.003268 304.52621 320.35229
318.0 0.003145 304.43073 325.48383
320.0 0.003125 304.33453 331.40680
384.0 0.002604 304.23776 337.63416
394.0 0.002538 304.14029 343.60242
423.0 0.002364 304.04218 348.60159
407.0 0.002457 303.94342 351.95175
390.0 0.002564 303.84396 353.27090
420.0 0.002381 303.74390 352.69934
393.0 0.002545 303.64310 350.83896
441.0 0.002268 303.54166 348.55017
393.0 0.002545 303.43951 346.49344
353.0 0.002833 303.33670 345.15622
351.0 0.002849 303.23315 344.60825
365.0 0.002740 303.12894 344.61581
381.0 0.002625 303.02405 344.72400
357.0 0.002801 302.91843 344.44940
390.0 0.002564 302.81213 343.44876
392.0 0.002551 302.70511 341.54968
401.0 0.002494 302.59738 338.77890
362.0 0.002762 302.48892 335.29330
387.0 0.002584 302.37979 331.42694
359.0 0.002786 302.26990 327.65521
329.0 0.003040 302.15927 324.26828
316.0 0.003165 302.04797 321.44870
315.0 0.003175 301.93591 319.21527
318.0 0.003145 301.82318 317.45108
315.0 0.003175 301.70966 315.95264
297.0 0.003367 301.59540 314.51309
345.0 0.002899 301.48044 312.98190
304.0 0.003289 301.36475 311.38211
289.0 0.003460 301.24832 309.74075
287.0 0.003484 301.13113 308.14426
317.0 0.003155 301.01318 306.67368
311.0 0.003215 300.89456 305.38910
330.0 0.003030 300.77515 304.32123
278.0 0.00360 300.65506 303.47275
307.0 0.003257 300.53418 302.82230
303.0 0.003300 300.41254 302.33572
282.0 0.00355 300.29022 301.97662
297.0 0.003367 300.16711 301.70599
296.0 0.003378 300.04333 301.49722
315.0 0.003175 299.91873 301.32999
295.0 0.003390 299.79343 301.19067
299.0 0.003344 299.66742 301.07138
319.0 0.003135 299.54062 300.96759
274.0 0.00365 299.41315 300.87769
325.0 0.003077 299.28488 300.80118
286.0 0.003497 299.15588 300.73923
300.0 0.003333 299.02621 300.69421
267.0 0.00375 298.89578 300.67059
277.0 0.00361 298.76465 300.67645
287.0 0.003484 298.63275 300.72708
305.0 0.003279 298.50012 300.85028
292.0 0.003425 298.36682 301.09528
309.0 0.003236 298.23279 301.54520
292.0 0.003425 298.09808 302.33105
249.0 0.00402 297.96262 303.64536
310.0 0.003226 297.82645 305.74619
311.0 0.003215 297.68961 308.94290
290.0 0.003448 297.55203 313.56110
320.0 0.003125 297.41379 319.86484
321.0 0.003115 297.27484 327.97281
310.0 0.003226 297.13519 337.75247
327.0 0.003058 296.99490 348.74976
356.0 0.002809 296.85391 360.17386
349.0 0.002865 296.71228 370.91925
373.0 0.002681 296.56995 379.70749
338.0 0.002959 296.42697 385.34021
396.0 0.002525 296.28333 387.14850
393.0 0.002545 296.13907 385.34982
364.0 0.002747 295.99411 380.94815
345.0 0.002899 295.84851 375.24005
338.0 0.002959 295.70236 369.35031
319.0 0.003135 295.55548 363.97662
319.0 0.003135 295.40808 359.30560
350.0 0.002857 295.25998 355.08105
328.0 0.003049 295.11136 350.72406
325.0 0.003077 294.96207 345.74255
320.0 0.003125 294.81223 339.95242
327.0 0.003058 294.66177 333.53180
329.0 0.003040 294.51071 326.87296
315.0 0.003175 294.35916 320.36566
288.0 0.003472 294.20697 314.45352
304.0 0.003289 294.05432 309.35501
292.0 0.003425 293.90103 305.19635
312.0 0.003205 293.74728 301.96027
300.0 0.003333 293.59296 299.55368
277.0 0.00361 293.43811 297.82581
300.0 0.003333 293.28278 296.61255
305.0 0.003279 293.12689 295.76459
257.0 0.00389 292.97061 295.14627
292.0 0.003425 292.81378 294.71057
253.0 0.00395 292.65646 294.38690
264.0 0.00379 292.49875 294.14825
302.0 0.003311 292.34052 293.97052
315.0 0.003175 292.18188 293.88651
275.0 0.00364 292.02280 293.88876
269.0 0.00372 291.86328 293.98459
272.0 0.00368 291.70340 294.17502
286.0 0.003497 291.54306 294.44940
303.0 0.003300 291.38239 294.78241
277.0 0.00361 291.22128 295.13318
314.0 0.003185 291.05981 295.43988
274.0 0.00365 290.89804 295.65649
323.0 0.003096 290.73587 295.72049
290.0 0.003448 290.57343 295.60413
289.0 0.003460 290.41061 295.32138
274.0 0.00365 290.24747 294.92126
317.0 0.003155 290.08411 294.46481
261.0 0.00383 289.92041 294.00354
293.0 0.003413 289.75647 293.58902
292.0 0.003425 289.59222 293.19049
250.0 0.00400 289.42773 292.81601
296.0 0.003378 289.26306 292.43607
290.0 0.003448 289.09814 292.02817
267.0 0.00375 288.93304 291.58295
263.0 0.00380 288.76767 291.10776
291.0 0.003436 288.60214 290.62070
282.0 0.00355 288.43652 290.14212
278.0 0.00360 288.27069 289.68948
272.0 0.00368 288.10474 289.28571
279.0 0.00358 287.93860 288.91736
277.0 0.00361 287.77237 288.59595
301.0 0.003322 287.60611 288.31543
283.0 0.00353 287.43970 288.06992
278.0 0.00360 287.27328 287.85190
280.0 0.00357 287.10672 287.65408
274.0 0.00365 286.94019 287.47073
293.0 0.003413 286.77359 287.29755
291.0 0.003436 286.60696 287.13184
294.0 0.003401 286.44037 286.97205
302.0 0.003311 286.27377 286.81763
288.0 0.003472 286.10727 286.66901
321.0 0.003115 285.94070 286.52783
290.0 0.003448 285.77429 286.39740
277.0 0.00361 285.60791 286.28384
295.0 0.003390 285.44165 286.19778
301.0 0.003322 285.27545 286.15659
296.0 0.003378 285.10934 286.18661
286.0 0.003497 284.94345 286.32587
289.0 0.003460 284.77768 286.62286
288.0 0.003472 284.61209 287.13528
279.0 0.00358 284.44666 287.92072
248.0 0.00403 284.28146 288.95331
291.0 0.003436 284.11642 290.39627
271.0 0.00369 283.95166 292.14886
312.0 0.003205 283.78711 294.12878
299.0 0.003344 283.62280 296.19257
291.0 0.003436 283.45883 298.14297
294.0 0.003401 283.29510 299.75089
259.0 0.00386 283.13171 300.79544
321.0 0.003115 282.96860 301.13879
268.0 0.00373 282.80585 300.75574
300.0 0.003333 282.64349 299.87704
305.0 0.003279 282.48145 298.69623
309.0 0.003236 282.31982 297.43109
300.0 0.003333 282.15857 296.23257
288.0 0.003472 281.99771 295.16614
300.0 0.003333 281.83734 294.21146
318.0 0.003145 281.67740 293.28268
275.0 0.00364 281.51794 292.27814
315.0 0.003175 281.35892 291.13214
283.0 0.00353 281.20038 289.84668
307.0 0.003257 281.04242 288.47641
313.0 0.003195 280.88492 287.09738
268.0 0.00373 280.72803 285.78558
304.0 0.003289 280.57166 284.60107
330.0 0.003030 280.41580 283.58401
324.0 0.003086 280.26062 282.75198
253.0 0.00395 280.10599 282.10306
286.0 0.003497 279.95203 281.62506
300.0 0.003333 279.79868 281.30331
294.0 0.003401 279.64590 281.13123
270.0 0.00370 279.49390 281.11688
300.0 0.003333 279.34253 281.28839
289.0 0.003460 279.19186 281.69446
279.0 0.00358 279.04190 282.40091
270.0 0.00370 278.89261 283.47949
256.0 0.00391 278.74414 284.99149
302.0 0.003311 278.59637 286.96756
289.0 0.003460 278.44940 289.37936
300.0 0.003333 278.30319 292.14038
344.0 0.002907 278.15778 295.07205
342.0 0.002924 278.01318 297.92551
332.0 0.003012 277.86938 300.40125
325.0 0.003077 277.72647 302.19333
357.0 0.002801 277.58438 303.07864
349.0 0.002865 277.44315 303.00638
314.0 0.003185 277.30283 302.12549
340.0 0.002941 277.16333 300.71042
344.0 0.002907 277.02484 299.06369
268.0 0.00373 276.88718 297.42163
289.0 0.003460 276.75052 295.92093
280.0 0.00357 276.61475 294.58246
298.0 0.003356 276.47998 293.32761
323.0 0.003096 276.34613 292.02768
277.0 0.00361 276.21329 290.57138
329.0 0.003040 276.08148 288.92099
299.0 0.003344 275.95062 287.11639
278.0 0.00360 275.82083 285.24417
281.0 0.00356 275.69202 283.40619
305.0 0.003279 275.56430 281.69366
292.0 0.003425 275.43759 280.17493
297.0 0.003367 275.31201 278.88861
271.0 0.00369 275.18744 277.84207
279.0 0.00358 275.06396 277.01965
289.0 0.003460 274.94162 276.38873
273.0 0.00366 274.82034 275.91031
285.0 0.00351 274.70023 275.54596
272.0 0.00368 274.58121 275.26218
268.0 0.00373 274.46338 275.03281
255.0 0.00392 274.34665 274.83890
261.0 0.00383 274.23105 274.66788
285.0 0.00351 274.11667 274.51157
266.0 0.00376 274.00345 274.36496
290.0 0.003448 273.89145 274.22534
267.0 0.00375 273.78058 274.09100
266.0 0.00376 273.67093 273.96097
296.0 0.003378 273.56253 273.83496
272.0 0.00368 273.45529 273.71265
265.0 0.00377 273.34933 273.59402
283.0 0.00353 273.24457 273.47955
287.0 0.003484 273.14105 273.36957
322.0 0.003106 273.03879 273.26483
257.0 0.00389 272.93777 273.16611
292.0 0.003425 272.83804 273.07410
267.0 0.00375 272.73956 272.97437
270.0 0.00370 272.64236 272.89728
280.0 0.00357 272.54645 272.82669
259.0 0.00386 272.45178 272.76114
298.0 0.003356 272.35843 272.69803
288.0 0.003472 272.26636 272.63428
264.0 0.00379 272.17560 272.56616
289.0 0.003460 272.08615 272.49042
295.0 0.003390 271.99799 272.40515
255.0 0.00392 271.91116 272.30307
239.0 0.00418 271.82562 272.20178
261.0 0.00383 271.74139 272.09720
283.0 0.00353 271.65854 271.99268
245.0 0.00408 271.57693 271.89047
311.0 0.003215 271.49670 271.79807
279.0 0.00358 271.41779 271.70377
293.0 0.003413 271.34021 271.61096
266.0 0.00376 271.26398 271.51877
262.0 0.00382 271.18906 271.42593
255.0 0.00392 271.11548 271.33215
260.0 0.00385 271.04324 271.23819
279.0 0.00358 270.97232 271.14505
278.0 0.00360 270.90277 271.05386
304.0 0.003289 270.83453 270.96576
272.0 0.00368 270.76764 270.88443
298.0 0.003356 270.70206 270.80472
290.0 0.003448 270.63785 270.72879
272.0 0.00368 270.57492 270.65686
249.0 0.00402 270.51337 270.58856
240.0 0.00417 270.45313 270.52341
284.0 0.00352 270.39420 270.46091
278.0 0.00360 270.33661 270.40070
268.0 0.00373 270.28036 270.34250
276.0 0.00362 270.22540 270.28613
255.0 0.00392 270.17178 270.23129
267.0 0.00375 270.11948 270.15811
253.0 0.00395 270.06845 270.10681
267.0 0.00375 270.01874 270.05502
279.0 0.00358 269.97034 270.00662
268.0 0.00373 269.92322 269.95969
282.0 0.00355 269.87741 269.91406
268.0 0.00373 269.83286 269.86981
280.0 0.00357 269.78958 269.82690
270.0 0.00370 269.74759 269.78537
285.0 0.00351 269.70688 269.74524
252.0 0.00397 269.66742 269.69656
243.0 0.00412 269.62918 269.65933
291.0 0.003436 269.59222 269.62247
270.0 0.00370 269.55649 269.58786
241.0 0.00415 269.52200 269.55469
331.0 0.003021 269.48871 269.52271
255.0 0.00392 269.45667 269.49213
286.0 0.003497 269.42581 269.46289
270.0 0.00370 269.39612 269.43497
290.0 0.003448 269.36765 269.40836
266.0 0.00376 269.34036 269.38312
238.0 0.00420 269.31424 269.35922
244.0 0.00410 269.28928 269.33667
246.0 0.00407 269.26544 269.31549
277.0 0.00361 269.24277 269.29572
264.0 0.00379 269.22119 269.27728
275.0 0.00364 269.20078 269.26038
261.0 0.00383 269.18143 269.24484
298.0 0.003356 269.16318 269.23080
299.0 0.003344 269.14603 269.21838
246.0 0.00407 269.12991 269.20746
239.0 0.00418 269.11490 269.19827
285.0 0.00351 269.10089 269.19086
289.0 0.003460 269.08795 269.18536
255.0 0.00392 269.07602 269.18204
261.0 0.00383 269.06506 269.18127
236.0 0.00424 269.05511 269.18372
263.0 0.00380 269.04614 269.19073
260.0 0.00385 269.03815 269.20432
285.0 0.00351 269.03110 269.22784
286.0 0.003497 269.02496 269.26694
270.0 0.00370 269.01978 269.32983
277.0 0.00361 269.01547 269.42828
294.0 0.003401 269.01208 269.57770
265.0 0.00377 269.00955 269.79657
313.0 0.003195 269.00790 270.10486
256.0 0.00391 269.00705 270.52084
287.0 0.003484 269.00708 271.05661
263.0 0.00380 269.00787 271.71304
265.0 0.00377 269.00949 272.47592
281.0 0.00356 269.01190 273.31198
283.0 0.00353 269.01505 274.16907
272.0 0.00368 269.01895 274.97842
285.0 0.00351 269.02356 275.66260
286.0 0.003497 269.02890 276.14706
290.0 0.003448 269.03494 276.38278
286.0 0.003497 269.04166 276.36591
287.0 0.003484 269.04901 276.14136
291.0 0.003436 269.05704 275.78314
290.0 0.003448 269.06567 275.36871
241.0 0.00415 269.07492 274.95898
268.0 0.00373 269.08475 274.58963
257.0 0.00389 269.09512 274.26840
256.0 0.00391 269.10605 273.97763
289.0 0.003460 269.11755 273.68469
275.0 0.00364 269.12952 273.35654
258.0 0.00388 269.14203 272.97577
299.0 0.003344 269.15497 272.54608
289.0 0.003460 269.16840 272.08649
258.0 0.00388 269.18222 271.62317
269.0 0.00372 269.19650 271.18066
266.0 0.00376 269.21118 270.78024
295.0 0.003390 269.22623 270.43628
285.0 0.00351 269.24164 270.15555
285.0 0.00351 269.25735 269.93747
298.0 0.003356 269.27344 269.77664
234.0 0.00427 269.28979 269.66403
277.0 0.00361 269.30643 269.58972
275.0 0.00364 269.32336 269.54388
258.0 0.00388 269.34052 269.51831
251.0 0.00398 269.35788 269.50659
289.0 0.003460 269.37546 269.50378
300.0 0.003333 269.39319 269.50671
239.0 0.00418 269.41113 269.51501
239.0 0.00418 269.42920 269.52411
285.0 0.00351 269.44736 269.53500
269.0 0.00372 269.46567 269.54700
271.0 0.00369 269.48404 269.55978
264.0 0.00379 269.50247 269.57330
268.0 0.00373 269.52097 269.58737
300.0 0.003333 269.53946 269.60190
247.0 0.00405 269.55798 269.61685
251.0 0.00398 269.57645 269.63217
278.0 0.00360 269.59494 269.64771
260.0 0.00385 269.61334 269.66418
271.0 0.00369 269.63165 269.68005
282.0 0.00355 269.64990 269.69604
288.0 0.003472 269.66803 269.71216
259.0 0.00386 269.68600 269.72833
274.0 0.00365 269.70386 269.74442
249.0 0.00402 269.72153 269.76053
276.0 0.00362 269.73901 269.77661
286.0 0.003497 269.75629 269.79248
259.0 0.00386 269.77335 269.80838
273.0 0.00366 269.79013 269.82401
279.0 0.00358 269.80667 269.83951
252.0 0.00397 269.82294 269.85480
262.0 0.00382 269.83890 269.86984
259.0 0.00386 269.85452 269.88470
260.0 0.00385 269.86984 269.89929
260.0 0.00385 269.88477 269.91354
270.0 0.00370 269.89935 269.92749
274.0 0.00365 269.91354 269.94110
270.0 0.00370 269.92731 269.95450
264.0 0.00379 269.94064 269.96738
281.0 0.00356 269.95355 269.97989
259.0 0.00386 269.96600 269.99200
267.0 0.00375 269.97800 270.00366
270.0 0.00370 269.98947 270.01492
262.0 0.00382 270.00046 270.02560
257.0 0.00389 270.01089 270.03598
254.0 0.00394 270.02081 270.04572
246.0 0.00407 270.03018 270.05499
283.0 0.00353 270.03897 270.06381
266.0 0.00376 270.04715 270.07202
264.0 0.00379 270.05475 270.07974
263.0 0.00380 270.06174 270.08685
279.0 0.00358 270.06808 270.09335
284.0 0.00352 270.07382 270.10910
247.0 0.00405 270.07886 270.11475
254.0 0.00394 270.08325 270.11356
279.0 0.00358 270.08691 270.11746
273.0 0.00366 270.08994 270.12134
264.0 0.00379 270.09222 270.12463
278.0 0.00360 270.09378 270.12729
283.0 0.00353 270.09460 270.12933
252.0 0.00397 270.09467 270.13080
272.0 0.00368 270.09399 270.13159
251.0 0.00398 270.09256 270.13666
241.0 0.00415 270.09030 270.13641
298.0 0.003356 270.08728 270.13260
250.0 0.00400 270.08344 270.13116
264.0 0.00379 270.07880 270.12988
299.0 0.003344 270.07333 270.12863
277.0 0.00361 270.06705 270.12793
286.0 0.003497 270.05988 270.12845
290.0 0.003448 270.05188 270.13089
276.0 0.00362 270.04303 270.13651
250.0 0.00400 270.03329 270.14667
297.0 0.003367 270.02271 270.16309
256.0 0.00391 270.01120 270.19165
259.0 0.00386 269.99881 270.22464
271.0 0.00369 269.98553 270.26727
303.0 0.003300 269.97134 270.32620
286.0 0.003497 269.95624 270.38684
252.0 0.00397 269.94025 270.45361
267.0 0.00375 269.92331 270.52325
241.0 0.00415 269.90543 270.59164
293.0 0.003413 269.88663 270.65524
271.0 0.00369 269.86688 270.71176
242.0 0.00413 269.84622 270.76169
258.0 0.00388 269.82458 270.81088
240.0 0.00417 269.80200 270.86053
270.0 0.00370 269.77847 270.92099
254.0 0.00394 269.75400 271.00385
244.0 0.00410 269.72855 271.10754
275.0 0.00364 269.70215 271.23737
267.0 0.00375 269.67477 271.38879
269.0 0.00372 269.64645 271.55161
272.0 0.00368 269.61719 271.70984
240.0 0.00417 269.58691 271.84433
271.0 0.00369 269.55569 271.93515
284.0 0.00352 269.52353 271.96634
275.0 0.00364 269.49039 271.93036
295.0 0.003390 269.45627 271.83273
263.0 0.00380 269.42117 271.68875
281.0 0.00356 269.38516 271.51874
269.0 0.00372 269.34818 271.34177
284.0 0.00352 269.31024 271.17194
286.0 0.003497 269.27133 271.01682
270.0 0.00370 269.23148 270.87698
250.0 0.00400 269.19070 270.74716
259.0 0.00386 269.14896 270.61850
293.0 0.003413 269.10629 270.48233
293.0 0.003413 269.06268 270.33405
275.0 0.00364 269.01816 270.17386
295.0 0.003390 268.97269 270.00598
275.0 0.00364 268.92630 269.83646
291.0 0.003436 268.87903 269.67136
288.0 0.003472 268.83081 269.51608
255.0 0.00392 268.78174 269.37424
278.0 0.00360 268.73175 269.24799
291.0 0.003436 268.68088 269.13763
269.0 0.00372 268.62909 269.04239
264.0 0.00379 268.57648 268.96066
269.0 0.00372 268.52298 268.89063
226.0 0.00442 268.46863 268.83081
257.0 0.00389 268.41345 268.78006
286.0 0.003497 268.35742 268.73880
305.0 0.003279 268.30057 268.70871
235.0 0.00426 268.24289 268.69360
296.0 0.003378 268.18442 268.70047
287.0 0.003484 268.12515 268.74026
271.0 0.00369 268.06509 268.82843
287.0 0.003484 268.00424 268.98590
268.0 0.00373 267.94266 269.23859
250.0 0.00400 267.88028 269.61594
263.0 0.00380 267.81720 270.14752
259.0 0.00386 267.75339 270.85873
253.0 0.00395 267.68884 271.76321
258.0 0.00388 267.62360 272.85767
264.0 0.00379 267.55765 274.11481
248.0 0.00403 267.49103 275.48032
291.0 0.003436 267.42374 276.87430
320.0 0.003125 267.35583 278.19302
299.0 0.003344 267.28723 279.32025
304.0 0.003289 267.21802 280.14240
302.0 0.003311 267.14822 280.57620
295.0 0.003390 267.07779 280.59952
255.0 0.00392 267.00681 280.26089
302.0 0.003311 266.93524 279.66266
299.0 0.003344 266.86310 278.92526
277.0 0.00361 266.79047 278.15784
294.0 0.003401 266.71729 277.44003
278.0 0.00360 266.64359 276.81555
284.0 0.00352 266.56940 276.29156
285.0 0.00351 266.49472 275.84760
301.0 0.003322 266.41962 275.44965
294.0 0.003401 266.34402 275.07306
267.0 0.00375 266.26804 274.72055
284.0 0.00352 266.19162 274.42682
282.0 0.00355 266.11478 274.24701
276.0 0.00362 266.03760 274.23996
274.0 0.00365 265.96002 274.45309
252.0 0.00397 265.88211 274.91544
277.0 0.00361 265.80386 275.61069
258.0 0.00388 265.72528 276.50089
288.0 0.003472 265.64642 277.50876
298.0 0.003356 265.56726 278.52942
300.0 0.003333 265.48785 279.44528
281.0 0.00356 265.40814 280.14810
269.0 0.00372 265.32828 280.55710
269.0 0.00372 265.24811 280.64560
291.0 0.003436 265.16779 280.39392
264.0 0.00379 265.08728 279.87885
262.0 0.00382 265.00659 279.16864
266.0 0.00376 264.92575 278.36365
289.0 0.003460 264.84479 277.54468
271.0 0.00369 264.76370 276.75867
285.0 0.00351 264.68250 276.01950
308.0 0.003247 264.60123 275.31128
258.0 0.00388 264.51987 274.60205
284.0 0.00352 264.43845 273.85678
279.0 0.00358 264.35703 273.05341
292.0 0.003425 264.27554 272.16812
284.0 0.00352 264.19409 271.22430
313.0 0.003195 264.11261 270.24240
252.0 0.00397 264.03119 269.26651
270.0 0.00370 263.94977 268.33395
279.0 0.00358 263.86847 267.47641
268.0 0.00373 263.78717 266.71384
255.0 0.00392 263.70596 266.05661
245.0 0.00408 263.62491 265.50354
262.0 0.00382 263.54391 265.04913
266.0 0.00376 263.46310 264.67862
266.0 0.00376 263.38239 264.37726
259.0 0.00386 263.30182 264.12994
292.0 0.003425 263.22147 263.92380
272.0 0.00368 263.14127 263.74805
269.0 0.00372 263.06131 263.59467
250.0 0.00400 262.98154 263.45770
275.0 0.00364 262.90195 263.33286
261.0 0.00383 262.82266 263.21689
265.0 0.00377 262.74359 263.10913
275.0 0.00364 262.66483 263.00748
284.0 0.00352 262.58627 262.91080
253.0 0.00395 262.50803 262.81815
269.0 0.00372 262.43008 262.72900
256.0 0.00391 262.35245 262.64261
267.0 0.00375 262.27515 262.55869
286.0 0.003497 262.19815 262.47659
274.0 0.00365 262.12146 262.39639
257.0 0.00389 262.04517 262.31781
259.0 0.00386 261.96921 262.24091
271.0 0.00369 261.89365 262.16553
262.0 0.00382 261.81842 262.09195
254.0 0.00394 261.74359 262.02008
246.0 0.00407 261.66916 261.95029
228.0 0.00439 261.59512 261.88251
239.0 0.00418 261.52148 261.81744
274.0 0.00365 261.44827 261.75439
269.0 0.00372 261.37546 261.69363
251.0 0.00398 261.30310 261.63507
242.0 0.00413 261.23111 261.57858
258.0 0.00388 261.15961 261.52362
275.0 0.00364 261.08853 261.46967
281.0 0.00356 261.01788 261.41632
254.0 0.00394 260.94772 261.36285
282.0 0.00355 260.87796 261.30927
238.0 0.00420 260.80872 261.25549
257.0 0.00389 260.73987 261.20233
274.0 0.00365 260.67151 261.15027
275.0 0.00364 260.60361 261.10104
261.0 0.00383 260.53616 261.05591
267.0 0.00375 260.46921 261.01700
259.0 0.00386 260.40268 260.98706
266.0 0.00376 260.33664 260.95972
265.0 0.00377 260.27106 260.95981
276.0 0.00362 260.20596 260.98453
257.0 0.00389 260.14130 261.04324
286.0 0.003497 260.07709 261.14825
255.0 0.00392 260.01334 261.31418
276.0 0.00362 259.95004 261.55777
306.0 0.003268 259.88724 261.89688
284.0 0.00352 259.82486 262.34866
258.0 0.00388 259.76291 262.92871
229.0 0.00437 259.70142 263.65027
254.0 0.00394 259.64035 264.51883
261.0 0.00383 259.57971 265.55289
305.0 0.003279 259.51950 266.75446
281.0 0.00356 259.45972 268.13065
263.0 0.00380 259.40033 269.68747
261.0 0.00383 259.34137 271.43655
251.0 0.00398 259.28278 273.37817
269.0 0.00372 259.22461 275.52771
251.0 0.00398 259.16678 277.88876
288.0 0.003472 259.10934 280.43631
249.0 0.00402 259.05228 283.10089
270.0 0.00370 258.99554 285.76059
266.0 0.00376 258.93921 288.23657
314.0 0.003185 258.88315 290.33395
288.0 0.003472 258.82742 291.84396
292.0 0.003425 258.77203 292.60593
278.0 0.00360 258.71689 292.57706
334.0 0.002994 258.66208 291.79892
310.0 0.003226 258.60754 290.42719
302.0 0.003311 258.55325 288.67142
284.0 0.00352 258.49924 286.74493
266.0 0.00376 258.44543 284.82147
298.0 0.003356 258.39185 283.00964
263.0 0.00380 258.33850 281.35248
281.0 0.00356 258.28531 279.82175
268.0 0.00373 258.23233 278.34369
265.0 0.00377 258.17947 276.84207
256.0 0.00391 258.12680 275.25024
316.0 0.003165 258.07425 273.54340
277.0 0.00361 258.02182 271.74005
263.0 0.00380 257.96951 269.89056
259.0 0.00386 257.91724 268.05865
282.0 0.00355 257.86508 266.31036
279.0 0.00358 257.81293 264.70062
282.0 0.00355 257.76083 263.27036
257.0 0.00389 257.70877 262.04236
245.0 0.00408 257.65668 261.02087
228.0 0.00439 257.60458 260.19662
242.0 0.00413 257.55243 259.54825
225.0 0.00444 257.50021 259.04852
259.0 0.00386 257.44797 258.66849
282.0 0.00355 257.39560 258.38043
261.0 0.00383 257.34314 258.16058
243.0 0.00412 257.29050 257.98923
264.0 0.00379 257.23773 257.85165
262.0 0.00382 257.18481 257.73752
263.0 0.00380 257.13171 257.63940
286.0 0.003497 257.07840 257.55286
251.0 0.00398 257.02484 257.47504
257.0 0.00389 256.97107 257.40469
248.0 0.00403 256.91699 257.34116
239.0 0.00418 256.86267 257.29291
255.0 0.00392 256.80807 257.24252
254.0 0.00394 256.75305 257.19824
280.0 0.00357 256.69778 257.15955
256.0 0.00391 256.64209 257.12506
235.0 0.00426 256.58603 257.09344
301.0 0.003322 256.52963 257.06241
249.0 0.00402 256.47275 257.02954
279.0 0.00358 256.41547 256.99207
238.0 0.00420 256.35767 256.94742
258.0 0.00388 256.29944 256.89407
265.0 0.00377 256.24078 256.83154
260.0 0.00385 256.18152 256.76526
228.0 0.00439 256.12180 256.68872
255.0 0.00392 256.06146 256.60864
279.0 0.00358 256.00058 256.52765
254.0 0.00394 255.93921 256.44757
237.0 0.00422 255.87712 256.36914
232.0 0.00431 255.81448 256.29297
237.0 0.00422 255.75117 256.21841
273.0 0.00366 255.68723 256.14484
275.0 0.00364 255.62271 256.07135
269.0 0.00372 255.55740 255.99757
231.0 0.00433 255.49146 255.92404
246.0 0.00407 255.42476 255.85260
223.0 0.00448 255.35736 255.78702
255.0 0.00392 255.28931 255.72981
254.0 0.00394 255.22038 255.68741
273.0 0.00366 255.15077 255.66721
238.0 0.00420 255.08034 255.67810
250.0 0.00400 255.00916 255.73071
255.0 0.00392 254.93723 255.83667
242.0 0.00413 254.86438 256.00778
232.0 0.00431 254.79079 256.25388
252.0 0.00397 254.71632 256.58185
247.0 0.00405 254.64104 256.99203
245.0 0.00408 254.56497 257.47690
244.0 0.00410 254.48795 258.02124
280.0 0.00357 254.41013 258.59689
253.0 0.00395 254.33139 259.16953
284.0 0.00352 254.25180 259.69568
265.0 0.00377 254.17140 260.12915
301.0 0.003322 254.09003 260.42776
270.0 0.00370 254.00783 260.56036
286.0 0.003497 253.92462 260.51425
289.0 0.003460 253.84061 260.31729
262.0 0.00382 253.75572 260.00275
276.0 0.00362 253.66986 259.61581
266.0 0.00376 253.58318 259.20093
274.0 0.00365 253.49547 258.79114
250.0 0.00400 253.40695 258.40787
247.0 0.00405 253.31757 258.05728
241.0 0.00415 253.22720 257.73169
254.0 0.00394 253.13603 257.40161
241.0 0.00415 253.04385 257.06180
273.0 0.00366 252.95085 256.70087
265.0 0.00377 252.85701 256.30582
255.0 0.00392 252.76222 255.87654
272.0 0.00368 252.66664 255.42513
270.0 0.00370 252.57013 254.96558
239.0 0.00418 252.47276 254.51381
252.0 0.00397 252.37468 254.08383
250.0 0.00400 252.27559 253.68546
257.0 0.00389 252.17581 253.32004
284.0 0.00352 252.07512 253.00380
292.0 0.003425 251.97366 252.72484
237.0 0.00422 251.87154 252.49101
242.0 0.00413 251.76846 252.29185
257.0 0.00389 251.66476 252.12300
271.0 0.00369 251.56024 251.97940
268.0 0.00373 251.45502 251.85797
258.0 0.00388 251.34921 251.75748
253.0 0.00395 251.24257 251.67886
235.0 0.00426 251.13533 251.62646
256.0 0.00391 251.02737 251.60776
239.0 0.00418 250.91884 251.63367
242.0 0.00413 250.80980 251.71826
254.0 0.00394 250.70003 251.87842
254.0 0.00394 250.58978 252.13156
253.0 0.00395 250.47893 252.49474
261.0 0.00383 250.36761 252.98000
280.0 0.00357 250.25591 253.59190
238.0 0.00420 250.14360 254.32611
268.0 0.00373 250.03093 255.16187
275.0 0.00364 249.91780 256.06702
232.0 0.00431 249.80434 256.99188
264.0 0.00379 249.69063 257.87561
254.0 0.00394 249.57646 258.65140
258.0 0.00388 249.46208 259.24820
252.0 0.00397 249.34737 259.60956
255.0 0.00392 249.23247 259.70364
258.0 0.00388 249.11751 259.53790
251.0 0.00398 249.00223 259.15488
289.0 0.003460 248.88690 258.62067
253.0 0.00395 248.77141 258.00516
250.0 0.00400 248.65590 257.37070
264.0 0.00379 248.54048 256.76248
287.0 0.003484 248.42494 256.20334
243.0 0.00412 248.30952 255.69765
283.0 0.00353 248.19409 255.22881
261.0 0.00383 248.07886 254.77068
253.0 0.00395 247.96388 254.29361
249.0 0.00402 247.84895 253.77571
249.0 0.00402 247.73434 253.21254
240.0 0.00417 247.61992 252.62021
261.0 0.00383 247.50591 252.00406
237.0 0.00422 247.39226 251.39421
260.0 0.00385 247.27890 250.81087
240.0 0.00417 247.16609 250.27254
239.0 0.00418 247.05357 249.78934
246.0 0.00407 246.94170 249.36623
266.0 0.00376 246.83040 249.00121
250.0 0.00400 246.71956 248.68568
264.0 0.00379 246.60947 248.40930
248.0 0.00403 246.49992 248.15994
242.0 0.00413 246.39111 247.92842
238.0 0.00420 246.28311 247.71220
260.0 0.00385 246.17578 247.50110
277.0 0.00361 246.06937 247.29904
241.0 0.00415 245.96371 247.10669
248.0 0.00403 245.85898 246.92513
255.0 0.00392 245.75525 246.75464
248.0 0.00403 245.65236 246.59395
260.0 0.00385 245.55058 246.44130
266.0 0.00376 245.44975 246.29321
269.0 0.00372 245.35002 246.14647
225.0 0.00444 245.25150 245.99820
260.0 0.00385 245.15393 245.84639
260.0 0.00385 245.05769 245.69144
245.0 0.00408 244.96255 245.53415
267.0 0.00375 244.86868 245.37698
212.0 0.00472 244.77618 245.22218
220.0 0.00455 244.68488 245.06622
239.0 0.00418 244.59492 244.92200
237.0 0.00422 244.50629 244.78503
224.0 0.00446 244.41907 244.65631
228.0 0.00439 244.33334 244.53601
252.0 0.00397 244.24896 244.42352
233.0 0.00429 244.16608 244.31857
226.0 0.00442 244.08463 244.22009
244.0 0.00410 244.00471 244.12737
216.0 0.00463 243.92641 244.03952
223.0 0.00448 243.84953 243.95567
267.0 0.00375 243.77429 243.87531
235.0 0.00426 243.70058 243.79523
258.0 0.00388 243.62848 243.72043
256.0 0.00391 243.55807 243.64809
231.0 0.00433 243.48920 243.57780
259.0 0.00386 243.42200 243.50960
250.0 0.00400 243.35638 243.44336
262.0 0.00382 243.29247 243.37909
252.0 0.00397 243.23026 243.31685
233.0 0.00429 243.16962 243.25641
265.0 0.00377 243.11070 243.19795
241.0 0.00415 243.05341 243.14134
252.0 0.00397 242.99777 243.08669
261.0 0.00383 242.94388 243.03404
248.0 0.00403 242.89156 242.98318
250.0 0.00400 242.84091 242.93439
245.0 0.00408 242.79189 242.88753
260.0 0.00385 242.74449 242.84251
227.0 0.00441 242.69878 242.79961
230.0 0.00435 242.65459 242.75858
240.0 0.00417 242.61201 242.71959
239.0 0.00418 242.57098 242.68265
237.0 0.00422 242.53151 242.64771
235.0 0.00426 242.49361 242.61502
266.0 0.00376 242.45714 242.58443
241.0 0.00415 242.42218 242.55632
249.0 0.00402 242.38864 242.53067
246.0 0.00407 242.35652 242.50803
222.0 0.00450 242.32579 242.48885
234.0 0.00427 242.29637 242.47417
251.0 0.00398 242.26830 242.46548
254.0 0.00394 242.24144 242.46504
232.0 0.00431 242.21584 242.47620
230.0 0.00435 242.19142 242.50368
248.0 0.00403 242.16812 242.55818
239.0 0.00418 242.14592 242.63988
259.0 0.00386 242.12473 242.75455
244.0 0.00410 242.10454 242.93163
241.0 0.00415 242.08528 243.17480
221.0 0.00452 242.06688 243.49692
236.0 0.00424 242.04932 243.90733
235.0 0.00426 242.03249 244.41245
251.0 0.00398 242.01636 245.01065
261.0 0.00383 242.00087 245.69211
241.0 0.00415 241.98593 246.43910
250.0 0.00400 241.97151 247.22229
257.0 0.00389 241.95750 248.00340
246.0 0.00407 241.94386 248.72868
238.0 0.00420 241.93051 249.35925
261.0 0.00383 241.91737 249.84477
279.0 0.00358 241.90437 250.14798
236.0 0.00424 241.89142 250.25432
254.0 0.00394 241.87848 250.17470
238.0 0.00420 241.86545 249.94373
253.0 0.00395 241.85223 249.60815
245.0 0.00408 241.83876 249.21771
249.0 0.00402 241.82497 248.81396
244.0 0.00410 241.81075 248.42851
256.0 0.00391 241.79607 248.07605
242.0 0.00413 241.78076 247.75803
241.0 0.00415 241.76480 247.46295
240.0 0.00417 241.74811 247.17201
246.0 0.00407 241.73056 246.86218
241.0 0.00415 241.71213 246.51610
231.0 0.00433 241.69266 246.12550
208.0 0.00481 241.67213 245.69485
237.0 0.00422 241.65042 245.23517
273.0 0.00366 241.62744 244.76299
249.0 0.00402 241.60318 244.29526
233.0 0.00429 241.57745 243.84641
247.0 0.00405 241.55026 243.43005
253.0 0.00395 241.52147 243.05432
272.0 0.00368 241.49103 242.72412
222.0 0.00450 241.45889 242.44147
271.0 0.00369 241.42490 242.20316
247.0 0.00405 241.38904 242.00522
244.0 0.00410 241.35123 241.84152
241.0 0.00415 241.31140 241.70593
227.0 0.00441 241.26952 241.59230
228.0 0.00439 241.22545 241.49487
214.0 0.00467 241.17917 241.41167
250.0 0.00400 241.13060 241.33379
220.0 0.00455 241.07973 241.26100
242.0 0.00413 241.02652 241.19122
253.0 0.00395 240.97084 241.12276
250.0 0.00400 240.91270 241.05464
248.0 0.00403 240.85202 240.98613
274.0 0.00365 240.78885 240.91679
235.0 0.00426 240.72311 240.84631
227.0 0.00441 240.65472 240.77435
232.0 0.00431 240.58377 240.70102
226.0 0.00442 240.51007 240.62610
248.0 0.00403 240.43381 240.55103
241.0 0.00415 240.35492 240.47325
232.0 0.00431 240.27330 240.39409
251.0 0.00398 240.18912 240.31360
260.0 0.00385 240.10222 240.23170
230.0 0.00435 240.01273 240.14832
246.0 0.00407 239.92072 240.06335
261.0 0.00383 239.82607 239.97658
230.0 0.00435 239.72900 239.88760
246.0 0.00407 239.62938 239.79929
275.0 0.00364 239.52736 239.70479
242.0 0.00413 239.42308 239.60699
270.0 0.00370 239.31645 239.50542
249.0 0.00402 239.20772 239.40013
244.0 0.00410 239.09679 239.29112
221.0 0.00452 238.98387 239.17886
246.0 0.00407 238.86920 239.06410
237.0 0.00422 238.75253 238.94704
240.0 0.00417 238.63438 238.82870
234.0 0.00427 238.51459 238.70937
282.0 0.00355 238.39346 238.58971
235.0 0.00426 238.27122 238.47023
252.0 0.00397 238.14777 238.35260
260.0 0.00385 238.02350 238.23436
238.0 0.00420 237.89845 238.11760
251.0 0.00398 237.77292 238.00343
248.0 0.00403 237.64720 237.89359
215.0 0.00465 237.52122 237.79024
269.0 0.00372 237.39543 237.69696
248.0 0.00403 237.26993 237.61818
235.0 0.00426 237.14507 237.55975
237.0 0.00422 237.02116 237.52856
220.0 0.00455 236.89822 237.53246
237.0 0.00422 236.77673 237.57993
231.0 0.00433 236.65683 237.67946
232.0 0.00431 236.53893 237.83801
225.0 0.00444 236.42339 238.06027
207.0 0.00483 236.31026 238.34790
231.0 0.00433 236.20009 238.69693
237.0 0.00422 236.09306 239.09918
202.0 0.00495 235.98961 239.53940
228.0 0.00439 235.89014 239.99750
247.0 0.00405 235.79477 240.45003
228.0 0.00439 235.70407 240.86882
252.0 0.00397 235.61824 241.22733
246.0 0.00407 235.53778 241.50166
246.0 0.00407 235.46310 241.67824
247.0 0.00405 235.39439 241.75728
218.0 0.00459 235.33218 241.74535
237.0 0.00422 235.27678 241.68163
231.0 0.00433 235.22864 241.58562
245.0 0.00408 235.18814 241.48131
250.0 0.00400 235.15564 241.38498
243.0 0.00412 235.13153 241.30386
261.0 0.00383 235.11620 241.23511
234.0 0.00427 235.11006 241.16736
260.0 0.00385 235.11348 241.08353
257.0 0.00389 235.12682 240.96521
226.0 0.00442 235.15044 240.79883
236.0 0.00424 235.18477 240.57951
262.0 0.00382 235.23006 240.30914
246.0 0.00407 235.28670 240.00919
258.0 0.00388 235.35504 239.69356
251.0 0.00398 235.43532 239.38185
278.0 0.00360 235.52800 239.09058
229.0 0.00437 235.63312 238.83295
238.0 0.00420 235.75101 238.61752
240.0 0.00417 235.88205 238.44730
232.0 0.00431 236.02618 238.32213
242.0 0.00413 236.18390 238.23880
233.0 0.00429 236.35510 238.19334
231.0 0.00433 236.53984 238.18275
239.0 0.00418 236.73851 238.20546
235.0 0.00426 236.95073 238.26187
212.0 0.00472 237.17693 238.35391
223.0 0.00448 237.41673 238.48438
231.0 0.00433 237.66986 238.65697
224.0 0.00446 237.93683 238.87660
243.0 0.00412 238.21664 239.14719
240.0 0.00417 238.50963 239.47350
232.0 0.00431 238.81508 239.85847
255.0 0.00392 239.13231 240.30324
274.0 0.00365 239.46175 240.80843
243.0 0.00412 239.80174 241.36906
226.0 0.00442 240.15247 241.97954
235.0 0.00426 240.51271 242.62874
252.0 0.00397 240.88133 243.30264
258.0 0.00388 241.25827 243.98611
264.0 0.00379 241.64168 244.65887
256.0 0.00391 242.03093 245.30222
238.0 0.00420 242.42430 245.89671
271.0 0.00369 242.82008 246.42740
269.0 0.00372 243.21770 246.88864
263.0 0.00380 243.61458 247.28035
237.0 0.00422 244.00943 247.61429
259.0 0.00386 244.39983 247.90671
233.0 0.00429 244.78333 248.17638
217.0 0.00461 245.15852 248.44196
204.0 0.00490 245.52206 248.71819
231.0 0.00433 245.87172 249.01649
248.0 0.00403 246.20419 249.34288
248.0 0.00403 246.51616 249.69824
249.0 0.00402 246.80496 250.08014
245.0 0.00408 247.06641 250.47874
261.0 0.00383 247.29700 250.88435
255.0 0.00392 247.49239 251.28433
266.0 0.00376 247.64815 251.66498
256.0 0.00391 247.75996 252.01344
262.0 0.00382 247.82266 252.31305
243.0 0.00412 247.83105 252.54570
269.0 0.00372 247.77954 252.68970
251.0 0.00398 247.66241 252.72252
241.0 0.00415 247.47308 252.62099
250.0 0.00400 247.20529 252.36665
250.0 0.00400 246.85168 251.94803
283.0 0.00353 246.40518 251.36421
264.0 0.00379 245.85851 250.62224
256.0 0.00391 245.20207 249.73242
269.0 0.00372 244.42850 248.70869
254.0 0.00394 243.52756 247.55867
235.0 0.00426 242.49089 246.28802
228.0 0.00439 241.30824 244.89438
250.0 0.00400 239.96722 243.36674
237.0 0.00422 238.45946 241.69331
226.0 0.00442 236.76941 239.84995
264.0 0.00379 234.88878 237.81741
215.0 0.00465 232.80371 235.57156
236.0 0.00424 230.49759 233.08778
237.0 0.00422 227.96092 230.35423
244.0 0.00410 225.17357 227.35216
205.0 0.00488 222.12349 224.07533
264.0 . . .
loop_
_refln_index_h
_refln_index_k
_refln_index_l
_pd_refln_wavelength_id
_refln_observed_status
_refln_F_squared_meas
_refln_F_squared_calc
_refln_phase_calc
_refln_d_spacing
_gsas_i100_meas
0 0 1 1 o 397.347 405.973 0.00 7.39492 31.04
0 0 1 2 o 387.597 405.973 0.00 7.39492 15.09
1 0 1 1 o 159.325 156.129 180.00 4.77561 28.95
1 0 1 2 o 161.491 156.129 180.00 4.77561 14.60
1 1 0 1 o 104.273 86.530 180.00 4.42281 7.59
1 1 0 2 o 98.075 86.530 180.00 4.42281 3.53
1 1 1 1 o 951.515 944.320 0.00 3.79573 100.00
1 1 1 2 o 975.865 944.320 0.00 3.79573 50.96
0 0 2 1 o 631.476 588.359 0.00 3.69746 11.49
0 0 2 2 o 588.171 588.359 0.00 3.69746 5.34
1 0 2 1 o 76.334 62.266 180.00 3.18292 4.73
1 0 2 2 o 74.217 62.266 180.00 3.18292 2.29
2 0 0 1 o 2353.629 2300.920 180.00 3.12740 57.89
2 0 0 2 o 2241.958 2300.920 180.00 3.12740 27.46
2 0 1 1 o 271.305 256.575 180.00 2.88040 19.00
2 0 1 2 o 252.889 256.575 180.00 2.88040 8.85
1 1 2 1 o 394.593 374.698 0.00 2.83675 18.51
1 1 2 2 o 381.205 374.698 0.00 2.83675 8.91
2 1 1 1 o 29.789 35.661 0.00 2.61631 2.86
2 1 1 2 o 25.376 35.661 0.00 2.61631 1.21
0 0 3 1 o 711.534 383.506 0.00 2.46497 5.22
0 0 3 2 o 642.249 383.506 0.00 2.46497 2.35
2 0 2 1 o 221.130 256.213 180.00 2.38780 9.59
2 0 2 2 o 200.248 256.213 180.00 2.38780 4.35
1 0 3 1 o 21.806 13.444 180.00 2.29331 0.62
1 0 3 2 o 20.425 13.444 180.00 2.29331 0.29
2 1 2 1 o 65.760 56.557 0.00 2.23078 4.07
2 1 2 2 o 62.917 56.557 0.00 2.23078 1.94
2 2 0 1 o 852.929 889.444 0.00 2.21141 15.33
2 2 0 2 o 790.943 889.444 0.00 2.21141 7.09
1 1 3 1 o 108.833 134.462 0.00 2.15315 2.91
1 1 3 2 o 93.539 134.462 0.00 2.15315 1.26
2 2 1 1 o 244.088 166.644 0.00 2.11870 8.03
2 2 1 2 o 225.770 166.644 0.00 2.11870 3.71
3 0 1 1 o -0.167 9.888 0.00 2.00670 0.00
3 0 1 2 o -0.167 9.888 0.00 2.00670 0.00
3 1 0 1 o 18.401 0.227 0.00 1.97794 0.33
3 1 0 2 o 17.771 0.227 0.00 1.97794 0.16
2 0 3 2 o 224.878 181.077 180.00 1.93593 2.46
2 0 3 1 o 235.964 181.077 180.00 1.93593 5.18
3 1 1 1 o 133.178 135.486 180.00 1.91077 5.93
3 1 1 2 o 120.341 135.486 180.00 1.91077 2.68
2 2 2 1 o 149.497 124.710 0.00 1.89786 3.38
2 2 2 2 o 137.154 124.710 0.00 1.89786 1.55
2 1 3 1 o -0.094 4.220 0.00 1.84937 0.00
0 0 4 1 o -2.943 12.647 0.00 1.84873 0.00
2 1 3 2 o 0.181 4.220 0.00 1.84937 0.00
0 0 4 2 o -0.652 12.647 0.00 1.84873 0.00
3 0 2 1 o 20.747 41.917 0.00 1.81610 0.50
3 0 2 2 o 25.875 41.917 0.00 1.81610 0.31
1 0 4 1 o 13.540 1.140 180.00 1.77291 0.20
1 0 4 2 o 5.616 1.140 180.00 1.77291 0.04
3 1 2 1 o 124.744 93.221 180.00 1.74407 5.10
3 1 2 2 o 106.341 93.221 180.00 1.74407 2.18
1 1 4 1 o 245.012 242.683 0.00 1.70571 3.57
1 1 4 2 o 197.514 242.683 0.00 1.70571 1.45
3 2 1 1 o 5.505 1.263 180.00 1.68892 0.19
3 2 1 2 o 3.322 1.263 180.00 1.68892 0.06
2 2 3 1 o 79.144 92.999 0.00 1.64607 1.11
2 2 3 2 o 39.687 92.999 0.00 1.64607 0.30
3 0 3 1 o 4.099 1.695 0.00 1.59187 0.06
2 0 4 1 o 11.231 4.742 180.00 1.59146 0.16
3 0 3 2 o 1.568 1.695 0.00 1.59187 0.01
2 0 4 2 o 3.146 4.742 180.00 1.59146 0.03
3 2 2 1 o 22.080 36.770 180.00 1.57050 0.65
3 2 2 2 o 28.308 36.770 180.00 1.57050 0.41
4 0 0 1 o 227.244 224.024 0.00 1.56370 1.13
4 0 0 2 o 225.058 224.024 0.00 1.56370 0.56
3 1 3 1 o 74.719 41.168 180.00 1.54269 2.08
2 1 4 1 o 2.249 1.271 0.00 1.54232 0.05
3 1 3 2 o 63.607 41.168 180.00 1.54269 0.89
2 1 4 2 o 1.846 1.271 0.00 1.54232 0.02
4 0 1 1 o 119.761 56.776 0.00 1.52987 1.43
4 0 1 2 o 109.264 56.776 0.00 1.52987 0.65
4 1 1 1 o -0.016 0.483 180.00 1.48607 0.00
4 1 1 2 o -0.016 0.483 180.00 1.48607 0.00
0 0 5 1 o -2.112 14.389 0.00 1.47898 0.00
0 0 5 2 o 8.864 14.389 0.00 1.47898 0.01
3 3 0 1 o 5.812 2.794 0.00 1.47427 0.04
3 3 0 2 o 8.166 2.794 0.00 1.47427 0.03
3 3 1 1 o 14.240 23.682 0.00 1.44582 0.21
3 3 1 2 o 13.636 23.682 0.00 1.44582 0.10
4 0 2 1 o 32.777 38.953 0.00 1.44020 0.46
1 0 5 1 o 7.969 8.263 180.00 1.43930 0.07
4 0 2 2 o 37.340 38.953 0.00 1.44020 0.26
1 0 5 2 o 6.238 8.263 180.00 1.43930 0.03
3 2 3 1 o 0.653 0.369 180.00 1.41866 0.01
2 2 4 1 o 2.920 1.548 0.00 1.41837 0.03
3 2 3 2 o 0.804 0.369 180.00 1.41866 0.01
2 2 4 2 o 5.568 1.548 0.00 1.41837 0.03
4 1 2 1 o 18.678 23.658 180.00 1.40348 0.43
1 1 5 1 o 54.267 66.164 0.00 1.40264 0.50
4 1 2 2 o 27.794 23.658 180.00 1.40348 0.32
1 1 5 2 o 88.641 66.164 0.00 1.40264 0.39
4 2 0 1 o 148.774 103.997 180.00 1.39862 1.35
4 2 0 2 o 159.437 103.997 180.00 1.39862 0.72
3 0 4 1 o 6.018 0.963 0.00 1.38325 0.06
3 0 4 2 o 3.938 0.963 0.00 1.38325 0.02
4 2 1 1 o 80.018 42.484 180.00 1.37425 1.53
4 2 1 2 o 80.465 42.484 180.00 1.37425 0.76
3 3 2 1 o 55.641 29.971 0.00 1.36943 0.62
3 3 2 2 o 28.490 29.971 0.00 1.36943 0.16
3 1 4 1 o 49.559 88.379 180.00 1.35062 0.95
3 1 4 2 o 40.202 88.379 180.00 1.35062 0.39
2 0 5 1 o -1.329 8.911 180.00 1.33701 0.00
2 0 5 2 o -1.329 8.911 180.00 1.33701 0.00
4 0 3 1 o 23.189 28.669 0.00 1.32043 0.27
4 0 3 2 o 67.524 28.669 0.00 1.32043 0.37
4 2 2 1 o 50.249 21.884 180.00 1.30816 0.95
2 1 5 1 o 6.028 2.891 0.00 1.30748 0.09
4 2 2 2 o 45.890 21.884 180.00 1.30816 0.43
2 1 5 2 o 5.937 2.891 0.00 1.30748 0.04
4 1 3 1 o 2.194 0.290 180.00 1.29195 0.04
4 1 3 2 o 4.888 0.290 180.00 1.29195 0.05
3 3 3 1 o 21.142 14.660 0.00 1.26524 0.18
3 2 4 1 o 1.153 0.988 180.00 1.26504 0.02
3 3 3 2 o 11.194 14.660 0.00 1.26524 0.05
3 2 4 2 o 1.026 0.988 180.00 1.26504 0.01
4 3 1 1 o -0.002 0.449 180.00 1.23344 0.00
5 0 1 1 o -0.003 0.051 180.00 1.23344 0.00
0 0 6 1 o -0.800 4.749 0.00 1.23249 0.00
4 3 1 2 o -0.002 0.449 180.00 1.23344 0.00
5 0 1 2 o -0.003 0.051 180.00 1.23344 0.00
0 0 6 2 o -0.800 4.749 0.00 1.23249 0.00
2 2 5 1 o -0.846 5.667 0.00 1.22938 0.00
5 1 0 1 o 1.219 0.069 0.00 1.22667 0.01
2 2 5 2 o 40.918 5.667 0.00 1.22938 0.13
5 1 0 2 o 0.799 0.069 0.00 1.22667 0.00
4 2 3 1 o 27.113 16.333 180.00 1.21645 0.45
4 2 3 2 o 29.808 16.333 180.00 1.21645 0.24
5 1 1 1 o 10.747 9.667 0.00 1.21013 0.14
1 0 6 1 o 37.267 33.338 0.00 1.20924 0.22
5 1 1 2 o 16.472 9.667 0.00 1.21013 0.11
3 0 5 1 o 2.174 1.182 0.00 1.20630 0.01
1 0 6 2 o 61.620 33.338 0.00 1.20924 0.18
3 0 5 2 o 4.728 1.182 0.00 1.20630 0.02
4 0 4 1 o 0.364 0.061 0.00 1.19390 0.00
4 0 4 2 o 1.420 0.061 0.00 1.19390 0.01
1 1 6 1 o 29.901 22.651 0.00 1.18725 0.18
5 0 2 1 o 10.361 10.998 180.00 1.18498 0.08
4 3 2 1 o 16.778 17.807 0.00 1.18498 0.27
3 1 5 1 o 21.197 21.375 180.00 1.18447 0.29
1 1 6 2 o 22.704 22.651 0.00 1.18725 0.07
5 0 2 2 o 10.142 10.998 180.00 1.18498 0.04
4 3 2 2 o 16.423 17.807 0.00 1.18498 0.13
3 1 5 2 o 17.086 21.375 180.00 1.18447 0.12
4 1 4 1 o 0.370 0.518 180.00 1.17273 0.01
4 1 4 2 o -0.014 0.518 180.00 1.17273 0.00
5 1 2 1 o 16.303 9.167 0.00 1.16427 0.25
5 1 2 2 o 22.833 9.167 0.00 1.16427 0.17
3 3 4 1 o 49.977 37.117 0.00 1.15264 0.32
3 3 4 2 o 47.842 37.117 0.00 1.15264 0.15
5 2 1 1 o 0.324 0.136 180.00 1.14742 0.00
2 0 6 1 o 14.052 3.549 180.00 1.14666 0.08
5 2 1 2 o 0.535 0.136 180.00 1.14742 0.00
2 0 6 2 o -0.553 3.549 180.00 1.14666 0.00
2 1 6 1 o 20.657 17.365 180.00 1.12786 0.23
3 2 5 1 o 0.191 0.223 180.00 1.12548 0.00
2 1 6 2 o 16.535 17.365 180.00 1.12786 0.09
3 2 5 2 o -0.002 0.223 180.00 1.12548 0.00
4 3 3 2 o 0.002 0.000 180.00 1.11553 0.00
5 0 3 2 o 5.167 0.174 180.00 1.11553 0.02
4 2 4 2 o 1.319 0.009 0.00 1.11539 0.01
5 0 3 1 o 7.376 0.174 180.00 1.11553 0.06
4 3 3 1 o 0.003 0.000 180.00 1.11553 0.00
4 2 4 1 o 1.987 0.009 0.00 1.11539 0.03
5 2 2 1 o 4.183 10.660 0.00 1.10810 0.06
4 4 0 1 o 30.802 13.695 0.00 1.10570 0.11
5 2 2 2 o 23.960 10.660 0.00 1.10810 0.16
4 4 0 2 o -1.123 13.695 0.00 1.10570 0.00
5 1 3 1 o 9.619 5.314 0.00 1.09820 0.15
5 1 3 2 o 2.994 5.314 0.00 1.09820 0.03
4 4 1 1 o 26.845 14.882 0.00 1.09355 0.20
4 4 1 2 o 15.400 14.882 0.00 1.09355 0.06
