#------------------------------------------------------------------------------
#$Date: 2016-02-14 16:26:36 +0200 (Sun, 14 Feb 2016) $
#$Revision: 176435 $
#$URL: svn://www.crystallography.net/cod/cif/1/51/62/1516214.cif $
#------------------------------------------------------------------------------
#
# This file is available in the Crystallography Open Database (COD),
# http://www.crystallography.net/
#
# All data on this site have been placed in the public domain by the
# contributors.
#
data_1516214
loop_
_publ_author_name
'Migliorati, Valentina'
'Ballirano, Paolo'
'Gontrani, Lorenzo'
'Russina, Olga'
'Caminiti, Ruggero'
_publ_section_title
;
 Crystal polymorphism of propylammonium chloride and structural properties
 of its mixture with water.
;
_journal_issue                   41
_journal_name_full               'The journal of physical chemistry. B'
_journal_page_first              11805
_journal_page_last               11815
_journal_paper_doi               10.1021/jp206831d
_journal_volume                  115
_journal_year                    2011
_chemical_formula_sum            'C3 Cl N'
_chemical_formula_weight         85.49
_chemical_name_systematic        ' ?'
_space_group_IT_number           129
_symmetry_cell_setting           tetragonal
_symmetry_space_group_name_Hall  '-P 4a 2a'
_symmetry_space_group_name_H-M   'P 4/n m m :2'
_audit_creation_date             2011-07-21T08:59
_audit_creation_method           'from EXP file using GSAS2CIF'
_audit_update_record
' 2011-07-21T08:59  Initial CIF as created by GSAS2CIF'
_cell_angle_alpha                90.0
_cell_angle_beta                 90.0
_cell_angle_gamma                90.0
_cell_formula_units_Z            2
_cell_length_a                   6.28957(7)
_cell_length_b                   6.28957
_cell_length_c                   7.43727(19)
_cell_volume                     294.209(8)
_computing_structure_refinement  GSAS
_diffrn_radiation_probe          x-ray
_exptl_absorpt_correction_T_max  0.81790
_exptl_absorpt_correction_T_min  0.81483
_exptl_absorpt_process_details
;   GSAS Absorption/surface roughness correction: function number 0
 Debye-Scherrer absorption correction
Term (= MU.r/wave) =     0.78580E-01
Correction is not refined.
;
_pd_block_id
2011-07-21T08:59|125|paolo|Bruker_AXS_D8_Advance
_pd_calc_method                  'Rietveld Refinement'
_pd_instr_location               ' ?'
_pd_meas_2theta_range_inc        0.022
_pd_meas_2theta_range_max        89.988
_pd_meas_2theta_range_min        3.0
_pd_meas_number_of_points        3955
_pd_phase_name                   'Propylammonium chloride'
_pd_proc_2theta_range_inc        0.022
_pd_proc_2theta_range_max        89.988
_pd_proc_2theta_range_min        3.0
_pd_proc_info_datetime           2011-07-21T08:59:13
_pd_proc_info_excluded_regions   ' ?'
_pd_proc_ls_background_function
;   GSAS Background function number 1 with 30 terms.
 Shifted Chebyshev function of 1st kind
      1:    525.279     2:   -321.544     3:    19.5180     4:    87.7488    
      5:   -78.8674     6:   0.786254     7:    70.8851     8:   -79.3782    
      9:    35.5806    10:    9.91210    11:   -29.9555    12:    25.3875    
     13:   -4.67727    14:   -9.32259    15:    3.96307    16:    1.01311    
     17:   -2.71872    18:   0.829781    19:    1.28979    20:    2.35497    
     21:   -5.30245    22:    3.89810    23:   -1.19324    24:   -1.01214    
     25:    2.97647    26:  -0.311039    27:   -1.66583    28:    3.01118    
     29:   -1.55928    30:   0.820112    
;
_pd_proc_ls_peak_cutoff          0.00100
_pd_proc_ls_profile_function
;
 CW Profile function number 3 with  19 terms
 Pseudovoigt profile coefficients as parameterized in
 P. Thompson, D.E. Cox & J.B. Hastings (1987). J. Appl. Cryst.,20,79-83.
 Asymmetry correction of L.W. Finger, D.E. Cox & A. P. Jephcoat (1994).
 J. Appl. Cryst.,27,892-900.
 Peak tails are ignored  where the intensity is below 0.0010 times the peak
   Aniso. broadening axis   0.0   1.0   0.0
;
_pd_proc_ls_prof_R_factor        0.0429
_pd_proc_ls_prof_wR_expected     0.0406
_pd_proc_ls_prof_wR_factor       0.0567
_pd_proc_number_of_points        3955
_pd_spec_mounting                ' ?'
_refine_ls_goodness_of_fit_all   1.41
_refine_ls_matrix_type           full
_refine_ls_number_parameters     47
_refine_ls_number_restraints     8
_refine_ls_R_Fsqd_factor         0.15482
_refine_ls_shift/su_max          0.08
_refine_ls_shift/su_mean         0.01
_reflns_d_resolution_high        1.100
_reflns_d_resolution_low         7.437
_reflns_limit_h_max              5
_reflns_limit_h_min              0
_reflns_limit_k_max              4
_reflns_limit_k_min              0
_reflns_limit_l_max              6
_reflns_limit_l_min              0
_reflns_number_total             174
_cod_data_source_file            398K.cif
_cod_data_source_block           125_publ
_cod_depositor_comments
;
The following automatic conversions were performed:

'_geom_bond_publ_flag' value 'N' changed to 'n' according to
/usr/data/users/saulius/automatic-downloads/retrospective/ACS/lib/dictionaries/cif_core.dic
dictionary named 'cif_core.dic' version 2.4.2 from 2011-04-26 (24
times).

'_geom_angle_publ_flag' value 'N' changed to 'n' according
to
/usr/data/users/saulius/automatic-downloads/retrospective/ACS/lib/dictionaries/cif_core.dic
dictionary named 'cif_core.dic' version 2.4.2 from 2011-04-26 (68
times).

Automatic conversion script
Id: cif_fix_values 2281 2013-09-26 08:29:07Z andrius 
;
_cod_original_cell_volume        294.209(10)
_cod_original_sg_symbol_H-M      'p 4/n m m'
_cod_original_formula_sum        'C3.00 Cl N'
_cod_database_code               1516214
#BEGIN Tags that were not found in dictionaries:
_gsas_exptl_extinct_corr_t_min   1.00000
_gsas_exptl_extinct_corr_t_max   1.00000
#END Tags that were not found in dictionaries
loop_
_symmetry_equiv_pos_site_id
_symmetry_equiv_pos_as_xyz
1 +x,+y,+z
2 -y+1/2,+x,+z
3 -x+1/2,-y+1/2,+z
4 +y,-x+1/2,+z
5 -x+1/2,+y,+z
6 -y+1/2,-x+1/2,+z
7 +x,-y+1/2,+z
8 +y,+x,+z
-1 -x,-y,-z
-2 +y+1/2,-x,-z
-3 +x+1/2,+y+1/2,-z
-4 -y,+x+1/2,-z
-5 +x+1/2,-y,-z
-6 +y+1/2,+x+1/2,-z
-7 -x,+y+1/2,-z
-8 -y,-x,-z
loop_
_atom_site_type_symbol
_atom_site_label
_atom_site_fract_x
_atom_site_fract_y
_atom_site_fract_z
_atom_site_occupancy
_atom_site_thermal_displace_type
_atom_site_U_iso_or_equiv
_atom_site_symmetry_multiplicity
Cl CL1 0.25 -0.25 0.0 1.0 Uiso 0.1218(9) 2
C C(1) 0.25 0.3320(6) 0.28649(32) 0.25 Uiso 0.0850(18) 8
N N 0.25 0.25 0.10208(28) 1.0 Uiso 0.0850(18) 2
C C(2) 0.25 0.1474(5) 0.42318(28) 0.25 Uiso 0.0850(18) 8
C C(3) 0.25 0.25 0.6130(4) 1.0 Uiso 0.0850(18) 2
loop_
_atom_type_symbol
_atom_type_number_in_cell
_atom_type_scat_dispersion_real
_atom_type_scat_dispersion_imag
_atom_type_scat_Cromer_Mann_a1
_atom_type_scat_Cromer_Mann_a2
_atom_type_scat_Cromer_Mann_a3
_atom_type_scat_Cromer_Mann_a4
_atom_type_scat_Cromer_Mann_b1
_atom_type_scat_Cromer_Mann_b2
_atom_type_scat_Cromer_Mann_b3
_atom_type_scat_Cromer_Mann_b4
_atom_type_scat_Cromer_Mann_c
_atom_type_scat_source
Cl 2.0 0.000 0.000 11.4604 0.01040 7.19640 1.16620 6.25560 18.5194 1.64550
47.7784 -9.5574 International_Tables_Vol_C
C 6.0 0.000 0.000 2.31000 20.8439 1.02000 10.2075 1.58860 0.56870 0.86500
51.6512 0.21560 International_Tables_Vol_C
N 2.0 0.000 0.000 12.2126 0.00570 3.13220 9.89330 2.01250 28.9975 1.16630
0.58260 -11.529 International_Tables_Vol_C
loop_
_diffrn_radiation_wavelength
_diffrn_radiation_wavelength_wt
_diffrn_radiation_type
_diffrn_radiation_wavelength_id
1.540598 1.000 K\a~1~ 1
1.544390 0.500 K\a~2~ 2
loop_
_geom_angle_atom_site_label_1
_geom_angle_atom_site_label_2
_geom_angle_atom_site_label_3
_geom_angle
_geom_angle_site_symmetry_1
_geom_angle_site_symmetry_3
_geom_angle_publ_flag
C(1) C(1) C(1) 45.0 2_555 3_555 n
C(1) C(1) C(1) 90.0 2_555 4_555 n
C(1) C(1) N 75.59(9) 2_555 1_555 n
C(1) C(1) C(2) 57.86(8) 2_555 1_555 n
C(1) C(1) C(2) 94.00(15) 2_555 2_555 n
C(1) C(1) C(2) 95.11(19) 2_555 3_555 n
C(1) C(1) C(2) 51.19(15) 2_555 4_555 n
C(1) C(1) C(1) 45.0 3_555 4_555 n
C(1) C(1) N 69.39(14) 3_555 1_555 n
C(1) C(1) C(2) 41.21(15) 3_555 1_555 n
C(1) C(1) C(2) 66.81(15) 3_555 2_555 n
C(1) C(1) C(2) 97.24(27) 3_555 3_555 n
C(1) C(1) C(2) 66.81(15) 3_555 4_555 n
C(1) C(1) N 75.59(9) 4_555 1_555 n
C(1) C(1) C(2) 57.86(8) 4_555 1_555 n
C(1) C(1) C(2) 51.19(15) 4_555 2_555 n
C(1) C(1) C(2) 95.11(19) 4_555 3_555 n
C(1) C(1) C(2) 94.00(15) 4_555 4_555 n
N C(1) C(2) 110.60(24) 1_555 1_555 n
N C(1) C(2) 126.00(23) 1_555 2_555 n
N C(1) C(2) 166.6(4) 1_555 3_555 n
N C(1) C(2) 126.00(23) 1_555 4_555 n
C(2) C(1) C(2) 36.14(17) 1_555 2_555 n
C(2) C(1) C(2) 56.03(31) 1_555 3_555 n
C(2) C(1) C(2) 36.14(17) 1_555 4_555 n
C(2) C(1) C(2) 43.92(23) 2_555 3_555 n
C(2) C(1) C(2) 59.00(29) 2_555 4_555 n
C(2) C(1) C(2) 43.92(23) 3_555 4_555 n
C(1) N C(1) 28.83(19) 1_555 2_555 n
C(1) N C(1) 41.22(28) 1_555 3_555 n
C(1) N C(1) 28.83(19) 1_555 4_555 n
C(1) N C(1) 28.83(19) 2_555 3_555 n
C(1) N C(1) 41.22(28) 2_555 4_555 n
C(1) N C(1) 28.83(19) 3_555 4_555 n
C(1) C(2) C(1) 28.14(18) 1_555 2_555 n
C(1) C(2) C(1) 41.55(31) 1_555 3_555 n
C(1) C(2) C(1) 28.14(18) 1_555 4_555 n
C(1) C(2) C(2) 57.86(8) 1_555 2_555 n
C(1) C(2) C(2) 41.21(15) 1_555 3_555 n
C(1) C(2) C(2) 57.86(8) 1_555 4_555 n
C(1) C(2) C(3) 106.66(23) 1_555 1_555 n
C(1) C(2) C(1) 33.69(25) 2_555 3_555 n
C(1) C(2) C(1) 46.39(31) 2_555 4_555 n
C(1) C(2) C(2) 86.00(15) 2_555 2_555 n
C(1) C(2) C(2) 60.50(14) 2_555 3_555 n
C(1) C(2) C(2) 51.19(15) 2_555 4_555 n
C(1) C(2) C(3) 120.09(22) 2_555 1_555 n
C(1) C(2) C(1) 33.69(25) 3_555 4_555 n
C(1) C(2) C(2) 84.89(19) 3_555 2_555 n
C(1) C(2) C(2) 82.76(27) 3_555 3_555 n
C(1) C(2) C(2) 84.89(19) 3_555 4_555 n
C(1) C(2) C(3) 148.2(4) 3_555 1_555 n
C(1) C(2) C(2) 51.19(15) 4_555 2_555 n
C(1) C(2) C(2) 60.50(14) 4_555 3_555 n
C(1) C(2) C(2) 86.00(15) 4_555 4_555 n
C(1) C(2) C(3) 120.09(22) 4_555 1_555 n
C(2) C(2) C(2) 45.0 2_555 3_555 n
C(2) C(2) C(2) 90.0 2_555 4_555 n
C(2) C(2) C(3) 72.91(8) 2_555 1_555 n
C(2) C(2) C(2) 45.0 3_555 4_555 n
C(2) C(2) C(3) 65.45(12) 3_555 1_555 n
C(2) C(2) C(3) 72.91(8) 4_555 1_555 n
C(2) C(3) C(2) 34.17(16) 1_555 2_555 n
C(2) C(3) C(2) 49.10(24) 1_555 3_555 n
C(2) C(3) C(2) 34.17(16) 1_555 4_555 n
C(2) C(3) C(2) 34.17(16) 2_555 3_555 n
C(2) C(3) C(2) 49.10(24) 2_555 4_555 n
C(2) C(3) C(2) 34.17(16) 3_555 4_555 n
loop_
_geom_bond_atom_site_label_1
_geom_bond_atom_site_label_2
_geom_bond_distance
_geom_bond_site_symmetry_2
_geom_bond_publ_flag
C(1) C(1) 0.730(5) 2_555 n
C(1) C(1) 1.032(7) 3_555 n
C(1) C(1) 0.730(5) 4_555 n
C(1) N 1.4654(32) 1_555 n
C(1) C(2) 1.543(4) 1_555 n
C(1) C(2) 1.3098(32) 2_555 n
C(1) C(2) 1.0248(32) 3_555 n
C(1) C(2) 1.3098(32) 4_555 n
N C(1) 1.4654(32) 1_555 n
N C(1) 1.4654(32) 2_555 n
N C(1) 1.4654(32) 3_555 n
N C(1) 1.4654(32) 4_555 n
C(2) C(1) 1.543(4) 1_555 n
C(2) C(1) 1.3098(32) 2_555 n
C(2) C(1) 1.0248(32) 3_555 n
C(2) C(1) 1.3098(32) 4_555 n
C(2) C(2) 0.912(5) 2_555 n
C(2) C(2) 1.290(7) 3_555 n
C(2) C(2) 0.912(5) 4_555 n
C(2) C(3) 1.5524(34) 1_555 n
C(3) C(2) 1.5524(34) 1_555 n
C(3) C(2) 1.5524(34) 2_555 n
C(3) C(2) 1.5524(34) 3_555 n
C(3) C(2) 1.5524(34) 4_555 n
loop_
_pd_meas_counts_total
_pd_proc_ls_weight
_pd_proc_intensity_bkg_calc
_pd_calc_intensity_total
21629.0 0.0 -30894138.00000 .
20652.0 0.0 -30136086.00000 .
19608.0 0.0 -29395440.00000 .
19195.0 0.0 -28671794.00000 .
18606.0 0.0 -27964800.00000 .
17952.0 0.0 -27274096.00000 .
17197.0 0.0 -26599350.00000 .
16541.0 0.0 -25940198.00000 .
16190.0 0.0 -25296306.00000 .
15693.0 0.0 -24667358.00000 .
15189.0 0.0 -24053018.00000 .
14601.0 0.0 -23452962.00000 .
14338.0 0.0 -22866896.00000 .
13785.0 0.0 -22294520.00000 .
13374.0 0.0 -21735506.00000 .
13131.0 0.0 -21189592.00000 .
12487.0 0.0 -20656470.00000 .
12177.0 0.0 -20135902.00000 .
11933.0 0.0 -19627564.00000 .
11504.0 0.0 -19131210.00000 .
11001.0 0.0 -18646570.00000 .
10711.0 0.0 -18173390.00000 .
10472.0 0.0 -17711422.00000 .
10044.0 0.0 -17260406.00000 .
10035.0 0.0 -16820112.00000 .
9726.0 0.0 -16390302.00000 .
9485.0 0.0 -15970726.00000 .
9243.0 0.0 -15561180.00000 .
8732.0 0.0 -15161432.00000 .
8717.0 0.0 -14771262.00000 .
8520.0 0.0 -14390457.00000 .
8256.0 0.0 -14018799.00000 .
8059.0 0.0 -13656104.00000 .
7958.0 0.0 -13302154.00000 .
7753.0 0.0 -12956757.00000 .
7644.0 0.0 -12619724.00000 .
7413.0 0.0 -12290857.00000 .
7309.0 0.0 -11969981.00000 .
6944.0 0.0 -11656913.00000 .
6898.0 0.0 -11351474.00000 .
6679.0 0.0 -11053488.00000 .
6510.0 0.0 -10762794.00000 .
6519.0 0.0 -10479221.00000 .
6417.0 0.0 -10202607.00000 .
6035.0 0.0 -9932800.00000 .
6026.0 0.0 -9669631.00000 .
6038.0 0.0 -9412960.00000 .
5798.0 0.0 -9162631.00000 .
5742.0 0.0 -8918497.00000 .
5710.0 0.0 -8680422.00000 .
5427.0 0.0 -8448265.00000 .
5548.0 0.0 -8221880.00000 .
5398.0 0.0 -8001144.00000 .
5353.0 0.0 -7785929.50000 .
5183.0 0.0 -7576096.00000 .
5135.0 0.0 -7371519.50000 .
5100.0 0.0 -7172083.00000 .
4890.0 0.0 -6977674.50000 .
5062.0 0.0 -6788155.50000 .
4868.0 0.0 -6603429.50000 .
4731.0 0.0 -6423374.50000 .
4590.0 0.0 -6247889.00000 .
4620.0 0.0 -6076856.50000 .
4585.0 0.0 -5910176.50000 .
4518.0 0.0 -5747746.00000 .
4488.0 0.0 -5589467.00000 .
4360.0 0.0 -5435234.50000 .
4401.0 0.0 -5284957.50000 .
4157.0 0.0 -5138538.50000 .
4160.0 0.0 -4995893.50000 .
4104.0 0.0 -4856918.00000 .
4080.0 0.0 -4721535.50000 .
4048.0 0.0 -4589658.50000 .
4096.0 0.0 -4461204.50000 .
3980.0 0.0 -4336086.50000 .
3943.0 0.0 -4214223.00000 .
3895.0 0.0 -4095539.50000 .
3866.0 0.0 -3979958.75000 .
3853.0 0.0 -3867401.50000 .
3801.0 0.0 -3757800.00000 .
3742.0 0.0 -3651079.50000 .
3639.0 0.0 -3547169.25000 .
3588.0 0.0 -3446003.75000 .
3531.0 0.0 -3347511.25000 .
3564.0 0.0 -3251630.00000 .
3544.0 0.0 -3158295.25000 .
3286.0 0.0 -3067441.25000 .
3356.0 0.0 -2979013.50000 .
3430.0 0.0 -2892946.50000 .
3169.0 0.0 -2809183.00000 .
3350.0 0.0 -2727665.00000 .
3273.0 0.0 -2648337.50000 .
3167.0 0.0 -2571150.00000 .
3224.0 0.0 -2496046.00000 .
3306.0 0.0 -2422971.00000 .
3228.0 0.0 -2351876.00000 .
3131.0 0.0 -2282714.75000 .
3233.0 0.0 -2215432.25000 .
3129.0 0.0 -2149987.00000 .
3156.0 0.0 -2086332.37500 .
3093.0 0.0 -2024418.37500 .
2960.0 0.0 -1964205.00000 .
2969.0 0.0 -1905645.00000 .
2876.0 0.0 -1848703.12500 .
2929.0 0.0 -1793336.37500 .
2945.0 0.0 -1739496.62500 .
2857.0 0.0 -1687154.62500 .
2713.0 0.0 -1636265.00000 .
2857.0 0.0 -1586795.12500 .
2808.0 0.0 -1538708.25000 .
2797.0 0.0 -1491965.37500 .
2773.0 0.0 -1446535.87500 .
2752.0 0.0 -1402380.62500 .
2668.0 0.0 -1359471.25000 .
2683.0 0.0 -1317776.00000 .
2618.0 0.0 -1277257.12500 .
2704.0 0.0 -1237890.25000 .
2661.0 0.0 -1199640.62500 .
2547.0 0.0 -1162482.87500 .
2627.0 0.0 -1126387.87500 .
2534.0 0.0 -1091322.62500 .
2492.0 0.0 -1057266.25000 .
2550.0 0.0 -1024188.31250 .
2490.0 0.0 -992064.25000 .
2485.0 0.0 -960869.81250 .
2478.0 0.0 -930576.75000 .
2553.0 0.0 -901165.25000 .
2348.0 0.0 -872607.81250 .
2432.0 0.0 -844883.93750 .
2327.0 0.0 -817972.81250 .
2473.0 0.0 -791848.12500 .
2386.0 0.0 -766492.81250 .
2452.0 0.0 -741882.37500 .
2239.0 0.0 -717999.62500 .
2209.0 0.0 -694825.18750 .
2260.0 0.0 -672336.50000 .
2211.0 0.0 -650517.68750 .
2315.0 0.0 -629348.62500 .
2261.0 0.0 -608812.87500 .
2231.0 0.0 -588893.75000 .
2292.0 0.0 -569571.50000 .
2263.0 0.0 -550832.12500 .
2178.0 0.0 -532657.06250 .
2196.0 0.0 -515033.09375 .
2080.0 0.0 -497945.31250 .
2106.0 0.0 -481375.78125 .
2162.0 0.0 -465313.21875 .
2111.0 0.0 -449740.68750 .
2040.0 0.0 -434645.90625 .
1972.0 0.0 -420016.43750 .
2097.0 0.0 -405836.50000 .
2059.0 0.0 -392096.00000 .
1998.0 0.0 -378780.28125 .
2026.0 0.0 -365879.25000 .
1962.0 0.0 -353380.59375 .
2035.0 0.0 -341271.31250 .
1914.0 0.0 -329541.90625 .
1929.0 0.0 -318180.53125 .
1957.0 0.0 -307177.68750 .
2001.0 0.0 -296522.56250 .
1857.0 0.0 -286204.37500 .
1877.0 0.0 -276214.34375 .
1979.0 0.0 -266542.12500 .
1878.0 0.0 -257178.85938 .
1902.0 0.0 -248116.37500 .
1820.0 0.0 -239344.00000 .
1846.0 0.0 -230854.92188 .
1869.0 0.0 -222639.56250 .
1774.0 0.0 -214690.48438 .
1746.0 0.0 -207000.32813 .
1842.0 0.0 -199560.35938 .
1822.0 0.0 -192363.75000 .
1699.0 0.0 -185402.78125 .
1635.0 0.0 -178670.96875 .
1701.0 0.0 -172161.48438 .
1686.0 0.0 -165866.84375 .
1656.0 0.0 -159781.23438 .
1670.0 0.0 -153898.17188 .
1772.0 0.0 -148211.40625 .
1709.0 0.0 -142715.54688 .
1685.0 0.0 -137403.67188 .
1680.0 0.0 -132271.26563 .
1631.0 0.0 -127311.93750 .
1607.0 0.0 -122520.93750 .
1483.0 0.0 -117893.18750 .
1610.0 0.0 -113422.92188 .
1676.0 0.0 -109106.03125 .
1578.0 0.0 -104937.06250 .
1642.0 0.0 -100912.00000 .
1614.0 0.0 -97026.17188 .
1611.0 0.0 -93274.84375 .
1522.0 0.0 -89654.17969 .
1595.0 0.0 -86159.79688 .
1494.0 0.0 -82788.00000 .
1559.0 0.0 -79534.85938 .
1471.0 0.0 -76396.15625 .
1542.0 0.0 -73368.68750 .
1593.0 0.0 -70448.55469 .
1575.0 0.0 -67632.60156 .
1486.0 0.0 -64917.55078 .
1522.0 0.0 -62299.64844 .
1568.0 0.0 -59776.17188 .
1524.0 0.0 -57343.78516 .
1552.0 0.0 -54999.61328 .
1567.0 0.0 -52740.95313 .
1517.0 0.0 -50564.64844 .
1550.0 0.0 -48468.26563 .
1498.0 0.0 -46448.92969 .
1441.0 0.0 -44504.25391 .
1397.0 0.0 -42631.77734 .
1384.0 0.0 -40828.80859 .
1368.0 0.0 -39093.32031 .
1396.0 0.0 -37422.87891 .
1308.0 0.0 -35815.32422 .
1372.0 0.0 -34268.59766 .
1329.0 0.0 -32780.48047 .
1299.0 0.0 -31349.12891 .
1361.0 0.0 -29972.41992 .
1297.0 0.0 -28648.62109 .
1305.0 0.0 -27375.95313 .
1283.0 0.0 -26152.44336 .
1280.0 0.0 -24976.56641 .
1264.0 0.0 -23846.53906 .
1238.0 0.0 -22760.82617 .
1293.0 0.0 -21717.87500 .
1245.0 0.0 -20716.12500 .
1134.0 0.0 -19754.16602 .
1252.0 0.0 -18830.50586 .
1142.0 0.0 -17943.87305 .
1231.0 0.0 -17092.98242 .
1170.0 0.0 -16276.35742 .
1156.0 0.0 -15492.94824 .
1108.0 0.0 -14741.43848 .
1123.0 0.0 -14020.70996 .
1084.0 0.0 -13329.69434 .
1073.0 0.0 -12667.16504 .
1099.0 0.0 -12032.20313 .
1127.0 0.0 -11423.68945 .
1035.0 0.0 -10840.73828 .
1053.0 0.0 -10282.34570 .
1069.0 0.0 -9747.58203 .
1095.0 0.0 -9235.59863 .
1101.0 0.0 -8745.45801 .
1111.0 0.0 -8276.41699 .
1062.0 0.0 -7827.67041 .
1085.0 0.0 -7398.35596 .
1049.0 0.0 -6987.81641 .
976.0 0.0 -6595.27832 .
962.0 0.0 -6220.05957 .
969.0 0.0 -5861.49463 .
996.0 0.0 -5518.91406 .
1057.0 0.0 -5191.71191 .
1001.0 0.0 -4879.24121 .
960.0 0.0 -4580.96094 .
1014.0 0.0 -4296.29688 .
979.0 0.0 -4024.67798 .
930.0 0.0 -3765.60034 .
1011.0 0.0 -3518.54761 .
962.0 0.0 -3283.04028 .
997.0 0.0 -3058.62061 .
1016.0 0.0 -2844.78638 .
958.0 0.0 -2641.14771 .
946.0 0.0 -2447.25635 .
944.0 0.0 -2262.70996 .
895.0 0.0 -2087.13086 .
982.0 0.0 -1920.12402 .
923.0 0.0 -1761.33643 .
970.0 0.0 -1610.40466 .
965.0 0.0 -1467.01099 .
917.0 0.0 -1330.82471 .
920.0 0.0 -1201.52319 .
937.0 0.0 -1078.81335 .
931.0 0.0 -962.40735 .
881.0 0.0 -852.02789 .
923.0 0.0 -747.41492 .
878.0 0.0 -648.29102 .
912.0 0.0 -554.42993 .
880.0 0.0 -465.58228 .
844.0 0.0 -381.52475 .
908.0 0.0 -302.03888 .
967.0 0.0 -226.91302 .
948.0 0.0 -155.94647 .
908.0 0.0 -88.93984 .
916.0 0.0 -25.71419 .
924.0 0.0 33.90662 .
922.0 0.0 90.10546 .
900.0 0.0 143.03506 .
882.0 0.0 192.86060 .
927.0 0.0 239.72937 .
860.0 0.0 283.78287 .
887.0 0.0 325.16928 .
937.0 0.0 364.01187 .
915.0 0.0 400.44370 .
910.0 0.0 434.58420 .
896.0 0.0 466.54898 .
862.0 0.0 496.45139 .
879.0 0.0 524.39642 .
828.0 0.0 550.48895 .
875.0 0.0 574.82312 .
841.0 0.0 597.49164 .
922.0 0.0 618.58771 .
875.0 0.0 638.19220 .
870.0 0.0 656.38873 .
892.0 0.0 673.25366 .
883.0 0.0 688.86084 .
827.0 0.0 703.28143 .
892.0 0.0 716.58179 .
839.0 0.0 728.82733 .
791.0 0.0 740.07733 .
876.0 0.0 750.39063 .
835.0 0.0 759.82300 .
858.0 0.0 768.42664 .
860.0 0.0 776.25214 .
884.0 0.0 783.34637 .
908.0 0.0 789.75421 .
838.0 0.0 795.52026 .
841.0 0.0 800.68390 .
890.0 0.0 805.28442 .
791.0 0.001264 809.35840 809.35846
809.0 0.001236 812.94067 812.94073
849.0 0.001178 816.06433 816.06439
874.0 0.001144 818.76056 818.76056
883.0 0.001133 821.05914 821.05908
806.0 0.001241 822.98767 822.98761
805.0 0.001242 824.57288 824.57281
804.0 0.001244 825.83972 825.83966
790.0 0.001266 826.81183 826.81171
813.0 0.001230 827.51141 827.51129
852.0 0.001174 827.95947 827.95929
823.0 0.001215 828.17578 828.17560
800.0 0.001250 828.17902 828.17883
850.0 0.001176 827.98676 827.98651
830.0 0.001205 827.61536 827.61517
821.0 0.001218 827.08044 827.08020
802.0 0.001247 826.39642 826.39618
801.0 0.001248 825.57703 825.57678
831.0 0.001203 824.63489 824.63458
858.0 0.001166 823.58209 823.58179
813.0 0.001230 822.42969 822.42938
817.0 0.001224 821.18823 821.18793
818.0 0.001222 819.86731 819.86694
787.0 0.001271 818.47589 818.47552
865.0 0.001156 817.02271 817.02234
801.0 0.001248 815.51526 815.51489
801.0 0.001248 813.96112 813.96075
811.0 0.001233 812.36682 812.36646
802.0 0.001247 810.73853 810.73816
787.0 0.001271 809.08215 809.08179
789.0 0.001267 807.40283 807.40247
834.0 0.001199 805.70557 805.70520
770.0 0.001299 803.99475 803.99438
801.0 0.001248 802.27435 802.27399
818.0 0.001222 800.54828 800.54791
760.0 0.001316 798.81982 798.81946
829.0 0.001206 797.09216 797.09180
794.0 0.001259 795.36786 795.36749
822.0 0.001217 793.64954 793.64917
784.0 0.001276 791.93958 791.93921
802.0 0.001247 790.23969 790.23932
786.0 0.001272 788.55194 788.55157
802.0 0.001247 786.87769 786.87738
725.0 0.001379 785.21838 785.21802
804.0 0.001244 783.57513 783.57483
768.0 0.001302 781.94904 781.94873
771.0 0.001297 780.34100 783.43469
803.0 0.001245 778.75165 783.51813
788.0 0.001269 777.18140 782.19531
793.0 0.001261 775.63098 780.91235
745.0 0.001342 774.10059 779.67120
769.0 0.001300 772.59052 778.47504
794.0 0.001259 771.10077 777.32654
795.0 0.001258 769.63153 776.22925
744.0 0.001344 768.18280 775.18683
705.0 0.001418 766.75421 774.20343
805.0 0.001242 765.34601 773.28436
789.0 0.001267 763.95770 772.43530
778.0 0.001285 762.58905 771.66296
792.0 0.001263 761.23969 770.97540
769.0 0.001300 759.90942 770.38245
800.0 0.001250 758.59778 769.89563
758.0 0.001319 757.30432 769.52905
791.0 0.001264 756.02850 769.29980
803.0 0.001245 754.77002 769.22937
764.0 0.001309 753.52832 769.34424
805.0 0.001242 752.30292 769.67725
810.0 0.001235 751.09338 770.27112
801.0 0.001248 749.89905 771.18011
793.0 0.001261 748.71948 772.47498
849.0 0.001178 747.55408 774.24994
806.0 0.001241 746.40247 776.63177
838.0 0.001193 745.26404 779.79578
859.0 0.001164 744.13824 783.99005
866.0 0.001155 743.02472 789.57703
842.0 0.001188 741.92285 797.12457
916.0 0.001092 740.83228 807.68555
904.0 0.001106 739.75244 823.82684
947.0 0.001056 738.68286 852.30426
929.0 0.001076 737.62323 907.76331
1056.0 0.000947 736.57294 1012.70886
1137.0 0.000880 735.53168 1189.20947
1355.0 0.000738 734.49915 1454.00964
1674.0 0.000597 733.47485 1826.47644
2090.0 0.000478 732.45844 2351.09741
3076.0 0.0003251 731.44965 3115.69409
4147.0 0.0002411 730.44812 4175.36475
5031.0 0.0001988 729.45355 5286.37646
5518.0 0.0001812 728.46564 5700.61719
4681.0 0.0002136 727.48419 4843.83691
3183.0 0.0003142 726.50891 3314.44800
1855.0 0.000539 725.53967 2016.34521
1231.0 0.000812 724.57611 1310.97485
984.0 0.001016 723.61816 1021.30371
895.0 0.001117 722.66571 910.51013
781.0 0.001280 721.71851 858.33246
715.0 0.001399 720.77649 826.36499
778.0 0.001285 719.83948 804.11298
769.0 0.001300 718.90741 787.75665
746.0 0.001340 717.98029 775.29803
740.0 0.001351 717.05792 765.52588
762.0 0.001312 716.14044 757.66803
711.0 0.001406 715.22766 751.21069
737.0 0.001357 714.31964 745.80206
755.0 0.001325 713.41638 741.19550
732.0 0.001366 712.51788 737.21252
741.0 0.001350 711.62421 733.72260
683.0 0.001464 710.73535 730.62750
728.0 0.001374 709.85144 727.85260
725.0 0.001379 708.97253 725.34088
756.0 0.001323 708.09857 723.04706
740.0 0.001351 707.22986 720.93597
728.0 0.001374 706.36639 718.97906
685.0 0.001460 705.50824 717.15350
687.0 0.001456 704.65552 715.44092
751.0 0.001332 703.80841 713.82581
741.0 0.001350 702.96704 712.29590
733.0 0.001364 702.13153 710.84045
675.0 0.001481 701.30200 709.45099
696.0 0.001437 700.47870 708.12000
740.0 0.001351 699.66168 706.84149
690.0 0.001449 698.85114 705.61005
710.0 0.001408 698.04724 704.42126
685.0 0.001460 697.25012 703.27118
714.0 0.001401 696.46002 702.15680
708.0 0.001412 695.67700 701.07495
716.0 0.001397 694.90137 700.02350
672.0 0.001488 694.13324 699.00012
675.0 0.001481 693.37280 698.00311
773.0 0.001294 692.62018 694.14966
691.0 0.001447 691.87561 691.87549
670.0 0.001493 691.13922 691.13910
673.0 0.001486 690.41132 690.41119
671.0 0.001490 689.69183 689.69171
663.0 0.001508 688.98120 688.98108
676.0 0.001479 688.27942 688.27930
686.0 0.001458 687.58673 687.58661
703.0 0.001422 686.90332 686.90320
692.0 0.001445 686.22931 686.22913
688.0 0.001453 685.56488 685.56470
676.0 0.001479 684.91010 684.90991
708.0 0.001412 684.26526 684.26508
716.0 0.001397 683.63043 683.63025
681.0 0.001468 683.00574 683.00555
702.0 0.001425 682.39142 682.39124
688.0 0.001453 681.78754 681.78735
716.0 0.001397 681.19421 681.19403
719.0 0.001391 680.61163 680.61145
677.0 0.001477 680.03986 680.03967
690.0 0.001449 679.47900 679.47882
681.0 0.001468 678.92920 678.92902
691.0 0.001447 678.39056 678.39038
705.0 0.001418 677.86322 677.86298
667.0 0.001499 677.34717 677.34692
676.0 0.001479 676.84253 676.84229
700.0 0.001429 676.34937 676.34918
654.0 0.001529 675.86786 675.86761
699.0 0.001431 675.39801 675.39777
658.0 0.001520 674.93982 674.93958
656.0 0.001524 674.49341 674.49316
680.0 0.001471 674.05878 674.05853
703.0 0.001422 673.63605 673.63580
682.0 0.001466 673.22522 673.22498
665.0 0.001504 672.82629 672.82599
658.0 0.001520 672.43933 672.43909
677.0 0.001477 672.06427 672.06403
692.0 0.001445 671.70123 671.70093
676.0 0.001479 671.35022 671.34991
683.0 0.001464 671.01111 671.01080
671.0 0.001490 670.68396 670.68372
682.0 0.001466 670.36884 670.36859
699.0 0.001431 670.06567 670.06537
687.0 0.001456 669.77441 669.77411
647.0 0.001546 669.49500 669.49469
613.0 0.001631 669.22748 669.22717
693.0 0.001443 668.97180 668.97150
723.0 0.001383 668.72784 668.72754
663.0 0.001508 668.49567 668.49536
655.0 0.001527 668.27515 668.27484
668.0 0.001497 668.06622 668.06592
724.0 0.001381 667.86884 667.86853
681.0 0.001468 667.68298 667.68262
713.0 0.001403 667.50848 667.50818
660.0 0.001515 667.34534 667.34503
658.0 0.001520 667.19348 667.19312
691.0 0.001447 667.05273 667.05237
711.0 0.001406 666.92310 666.92273
675.0 0.001481 666.80438 666.80402
683.0 0.001464 666.69666 666.69629
635.0 0.001575 666.59961 666.59924
702.0 0.001425 666.51331 666.51294
683.0 0.001464 666.43762 666.43726
689.0 0.001451 666.37238 666.37201
627.0 0.001595 666.31744 666.31708
656.0 0.001524 666.27283 666.27246
716.0 0.001397 666.23834 666.23798
628.0 0.001592 666.21387 666.21350
655.0 0.001527 666.19928 666.19891
665.0 0.001504 666.19452 666.19409
648.0 0.001543 666.19940 666.19897
696.0 0.001437 666.21375 666.21338
693.0 0.001443 666.23761 666.23724
668.0 0.001497 666.27069 666.27032
685.0 0.001460 666.31299 666.31256
680.0 0.001471 666.36432 666.36389
696.0 0.001437 666.42450 666.42407
680.0 0.001471 666.49347 666.49310
661.0 0.001513 666.57117 666.57074
664.0 0.001506 666.65729 666.65686
621.0 0.001610 666.75183 666.75140
656.0 0.001524 666.85468 666.85425
630.0 0.001587 666.96564 666.96521
702.0 0.001425 667.08459 667.08417
639.0 0.001565 667.21143 667.21100
653.0 0.001531 667.34607 667.34564
646.0 0.001548 667.48828 667.48785
649.0 0.001541 667.63800 667.63757
655.0 0.001527 667.79517 667.79474
597.0 0.001675 667.95953 667.95911
692.0 0.001445 668.13110 668.13068
639.0 0.001565 668.30969 668.30927
685.0 0.001460 668.49518 668.49475
683.0 0.001464 668.68744 668.68701
719.0 0.001391 668.88641 668.88593
649.0 0.001541 669.09192 669.09149
721.0 0.001387 669.30396 669.30353
658.0 0.001520 669.52234 669.52185
665.0 0.001504 669.74695 669.74646
662.0 0.001511 669.97772 669.97723
649.0 0.001541 670.21454 670.21405
653.0 0.001531 670.45728 670.45685
672.0 0.001488 670.70593 670.70551
661.0 0.001513 670.96033 670.95990
683.0 0.001464 671.22046 671.21997
708.0 0.001412 671.48615 671.48566
663.0 0.001508 671.75732 671.75690
665.0 0.001504 672.03400 672.03351
671.0 0.001490 672.31598 672.31549
680.0 0.001471 672.60327 672.60278
659.0 0.001517 672.89575 672.89526
676.0 0.001479 673.19342 673.19293
634.0 0.001577 673.49609 673.49567
677.0 0.001477 673.80389 673.80341
687.0 0.001456 674.11664 674.11615
700.0 0.001429 674.43427 674.43378
656.0 0.001524 674.75671 674.75623
659.0 0.001517 675.08405 675.08356
650.0 0.001538 675.41608 675.41559
695.0 0.001439 675.75287 675.75244
674.0 0.001484 676.09436 676.09387
672.0 0.001488 676.44055 676.44006
688.0 0.001453 676.79132 676.79083
630.0 0.001587 677.14667 677.14624
680.0 0.001471 677.50665 677.50616
686.0 0.001458 677.87122 677.87073
672.0 0.001488 678.24023 678.23975
691.0 0.001447 678.61383 678.61334
635.0 0.001575 678.99194 678.99146
708.0 0.001412 679.37457 679.37408
623.0 0.001605 679.76166 679.76123
717.0 0.001395 680.15332 680.15283
653.0 0.001531 680.54950 680.54901
675.0 0.001481 680.95013 680.94971
670.0 0.001493 681.35535 681.35486
675.0 0.001481 681.76508 681.76465
687.0 0.001456 682.17944 682.17896
688.0 0.001453 682.59833 682.59784
701.0 0.001427 683.02179 683.02130
643.0 0.001555 683.44995 683.44946
725.0 0.001379 683.88269 683.88220
721.0 0.001387 684.32013 684.31970
691.0 0.001447 684.76233 684.76184
694.0 0.001441 685.20923 685.20880
656.0 0.001524 685.66101 685.66052
682.0 0.001466 686.11761 686.11713
698.0 0.001433 686.57910 686.57861
694.0 0.001441 687.04547 687.04504
669.0 0.001495 687.51685 687.51642
714.0 0.001401 687.99335 687.99286
675.0 0.001481 688.47479 688.47437
680.0 0.001471 688.96149 688.96106
666.0 0.001502 689.45337 689.45294
690.0 0.001449 689.95050 689.95007
642.0 0.001558 690.45300 690.45251
667.0 0.001499 690.96082 690.96039
660.0 0.001515 691.47424 691.47382
710.0 0.001408 691.99310 691.99261
719.0 0.001391 692.51758 692.51715
686.0 0.001458 693.04779 693.04736
668.0 0.001497 693.58368 693.58325
717.0 0.001395 694.12549 694.12506
732.0 0.001366 694.67316 694.67273
696.0 0.001437 695.22675 695.22632
677.0 0.001477 695.78650 695.78607
716.0 0.001397 696.35236 696.35193
671.0 0.001490 696.92444 696.92401
676.0 0.001479 697.50287 697.50250
679.0 0.001473 698.08771 698.08728
685.0 0.001460 698.67896 698.67853
665.0 0.001504 699.27679 699.27637
659.0 0.001517 699.88135 699.88092
700.0 0.001429 700.49261 700.49219
726.0 0.001377 701.11066 701.11029
700.0 0.001429 701.73572 701.73529
707.0 0.001414 702.36768 702.36731
756.0 0.001323 703.00684 703.00647
742.0 0.001348 703.65314 703.65271
699.0 0.001431 704.30664 704.30627
714.0 0.001401 704.96759 704.96722
728.0 0.001374 705.63599 705.63562
749.0 0.001335 706.31189 706.31152
667.0 0.001499 706.99542 706.99506
685.0 0.001460 707.68665 707.68622
758.0 0.001319 708.38562 708.38525
697.0 0.001435 709.09259 709.09216
745.0 0.001342 709.80750 709.80713
678.0 0.001475 710.53046 710.53009
756.0 0.001323 711.26154 711.26117
700.0 0.001429 712.00092 712.00055
751.0 0.001332 712.74854 712.74817
695.0 0.001439 713.50458 713.50421
677.0 0.001477 714.26910 714.26874
713.0 0.001403 715.04211 715.04175
738.0 0.001355 715.82385 715.82349
741.0 0.001350 716.61420 716.61383
708.0 0.001412 717.41345 717.41309
709.0 0.001410 718.22150 718.22113
712.0 0.001404 719.03845 719.03809
718.0 0.001393 719.86438 719.86401
712.0 0.001404 720.69946 720.69916
682.0 0.001466 721.54364 721.54327
706.0 0.001416 722.39703 722.39667
728.0 0.001374 723.25964 723.25934
700.0 0.001429 724.13171 724.13141
698.0 0.001433 725.01312 725.01282
647.0 0.001546 725.90399 725.90369
744.0 0.001344 726.80438 726.80402
727.0 0.001376 727.71429 727.71393
738.0 0.001355 728.63391 728.63361
689.0 0.001451 729.56311 729.56274
753.0 0.001328 730.50214 730.50177
746.0 0.001340 731.45074 731.45044
699.0 0.001431 732.40924 732.40894
755.0 0.001325 733.37762 733.37732
762.0 0.001312 734.35590 734.35559
748.0 0.001337 735.34406 738.40826
708.0 0.001412 736.34216 739.56189
720.0 0.001389 737.35022 742.25653
755.0 0.001325 738.36841 743.53284
759.0 0.001318 739.39655 744.83984
751.0 0.001332 740.43488 746.18036
718.0 0.001393 741.48309 747.55664
761.0 0.001314 742.54150 748.97205
713.0 0.001403 743.61011 750.43005
739.0 0.001353 744.68878 751.93469
760.0 0.001316 745.77759 753.49078
733.0 0.001364 746.87653 755.10358
780.0 0.001282 747.98560 756.77979
699.0 0.001431 749.10486 758.52704
787.0 0.001271 750.23425 760.35406
805.0 0.001242 751.37372 762.27203
764.0 0.001309 752.52338 764.29346
817.0 0.001224 753.68311 766.43414
757.0 0.001321 754.85303 768.71338
829.0 0.001206 756.03296 771.15405
823.0 0.001215 757.22308 773.78558
838.0 0.001193 758.42316 776.64398
782.0 0.001279 759.63324 779.77521
849.0 0.001178 760.85339 783.23834
821.0 0.001218 762.08344 787.10925
801.0 0.001248 763.32349 791.48883
821.0 0.001218 764.57330 796.51099
858.0 0.001166 765.83301 802.35944
854.0 0.001171 767.10260 809.29004
906.0 0.001104 768.38184 817.66650
903.0 0.001107 769.67078 828.02960
850.0 0.001176 770.96936 841.23700
912.0 0.001096 772.27765 858.90912
923.0 0.001083 773.59540 884.89240
1031.0 0.000970 774.92255 929.13745
1090.0 0.000917 776.25928 1014.94147
1271.0 0.000787 777.60522 1187.93335
1582.0 0.000632 778.96039 1521.15833
2292.0 0.000436 780.32495 2106.81689
3141.0 0.0003184 781.69843 3004.04688
4029.0 0.0002482 783.08118 4103.31738
4753.0 0.0002104 784.47266 4993.76514
5181.0 0.0001930 785.87305 5116.02393
4789.0 0.0002088 787.28235 4426.95020
3824.0 0.0002615 788.70020 3374.22095
2665.0 0.000375 790.12665 2333.87964
1715.0 0.000583 791.56165 1599.19470
1234.0 0.000810 793.00513 1200.88623
993.0 0.001007 794.45679 1021.96722
918.0 0.001089 795.91669 946.33966
888.0 0.001126 797.38477 909.67651
892.0 0.001121 798.86072 887.63068
859.0 0.001164 800.34460 872.58313
826.0 0.001211 801.83630 861.80182
743.0 0.001346 803.33551 853.91608
847.0 0.001181 804.84241 848.08319
778.0 0.001285 806.35657 843.74921
788.0 0.001269 807.87799 840.53510
785.0 0.001274 809.40668 838.17517
856.0 0.001168 810.94232 836.47858
804.0 0.001244 812.48480 835.30505
783.0 0.001277 814.03418 834.55042
802.0 0.001247 815.59009 834.13483
846.0 0.001182 817.15240 833.99707
807.0 0.001239 818.72113 834.08936
872.0 0.001147 820.29620 834.37415
830.0 0.001205 821.87720 834.82098
814.0 0.001229 823.46411 835.94019
828.0 0.001208 825.05688 836.66943
871.0 0.001148 826.65521 837.50232
765.0 0.001307 828.25916 838.70166
807.0 0.001239 829.86823 839.71826
754.0 0.001326 831.48248 840.80634
864.0 0.001157 833.10193 841.95813
812.0 0.001232 834.72607 843.16742
797.0 0.001255 836.35492 844.42889
833.0 0.001200 837.98846 845.73828
838.0 0.001193 839.62622 847.09192
779.0 0.001284 841.26819 848.48700
855.0 0.001170 842.91425 849.92120
839.0 0.001192 844.56433 851.39307
786.0 0.001272 846.21796 852.90106
823.0 0.001215 847.87518 854.44501
858.0 0.001166 849.53589 853.13239
841.0 0.001189 851.19971 854.88110
869.0 0.001151 852.86670 855.21338
844.0 0.001185 854.53644 857.08917
833.0 0.001200 856.20886 858.99622
864.0 0.001157 857.88397 860.93988
887.0 0.001127 859.56128 862.92645
855.0 0.001170 861.24091 864.96503
844.0 0.001185 862.92242 867.06628
821.0 0.001218 864.60577 869.24469
848.0 0.001179 866.29077 871.51935
841.0 0.001189 867.97723 873.91602
942.0 0.001062 869.66516 876.46991
858.0 0.001166 871.35406 879.22992
931.0 0.001074 873.04388 882.26672
885.0 0.001130 874.73468 885.68597
864.0 0.001157 876.42584 889.65784
858.0 0.001166 878.11761 894.51752
884.0 0.001131 879.80945 901.08118
902.0 0.001109 881.50140 911.47443
925.0 0.001081 883.19330 930.67804
1022.0 0.000978 884.88477 968.52545
1095.0 0.000913 886.57593 1040.50720
1282.0 0.000780 888.26624 1163.25549
1500.0 0.000667 889.95569 1338.97778
1819.0 0.000550 891.64417 1529.26111
2016.0 0.000496 893.33160 1647.92029
2096.0 0.000477 895.01752 1620.99072
1987.0 0.000503 896.70184 1485.02527
1545.0 0.000647 898.38452 1308.42236
1343.0 0.000745 900.06537 1143.58557
1123.0 0.000890 901.74402 1030.48962
958.0 0.001044 903.42059 969.82703
1030.0 0.000971 905.09454 942.98523
914.0 0.001094 906.76593 932.19318
904.0 0.001106 908.43469 927.57654
889.0 0.001125 910.10034 925.32422
909.0 0.001100 911.76306 924.21350
881.0 0.001135 913.42230 923.80066
830.0 0.001205 915.07813 923.86273
848.0 0.001179 916.73035 924.26245
868.0 0.001152 918.37891 924.90887
853.0 0.001172 920.02332 925.73889
887.0 0.001127 921.66370 926.70844
908.0 0.001101 923.29968 927.78534
844.0 0.001185 924.93146 928.94611
888.0 0.001126 926.55841 930.17267
873.0 0.001145 928.18079 931.45172
903.0 0.001107 929.79810 932.77240
911.0 0.001098 931.41028 934.12665
940.0 0.001064 933.01727 935.50787
871.0 0.001148 934.61920 936.91113
936.0 0.001068 936.21509 938.33118
944.0 0.001059 937.80554 939.76520
945.0 0.001058 939.38989 941.20996
885.0 0.001130 940.96832 942.66315
873.0 0.001145 942.54102 944.12317
862.0 0.001160 944.10675 945.58710
935.0 0.001070 945.66663 947.05463
918.0 0.001089 947.21930 948.52344
937.0 0.001067 948.76575 949.99329
957.0 0.001045 950.30542 951.46295
899.0 0.001112 951.83771 952.93109
860.0 0.001163 953.36310 954.39746
853.0 0.001172 954.88098 955.86102
953.0 0.001049 956.39160 957.32153
931.0 0.001074 957.89502 958.77856
967.0 0.001034 959.39032 959.69067
962.0 0.001040 960.87811 961.16370
999.0 0.001001 962.35773 962.62958
911.0 0.001098 963.82941 963.82904
927.0 0.001079 965.29333 965.29297
977.0 0.001024 966.74835 966.74799
944.0 0.001059 968.19556 968.19513
964.0 0.001037 969.63379 969.63342
1023.0 0.000978 971.06360 971.06323
968.0 0.001033 972.48492 972.48456
1000.0 0.001000 973.89709 973.89667
943.0 0.001060 975.30054 975.30011
1021.0 0.000979 976.69470 976.69427
941.0 0.001063 978.07983 978.07941
1040.0 0.000962 979.45605 979.45569
970.0 0.001031 980.82257 980.82214
1013.0 0.000987 982.17981 982.17938
1010.0 0.000990 983.52734 983.52692
1029.0 0.000972 984.86536 984.86493
1059.0 0.000944 986.19397 986.19360
956.0 0.001046 987.51227 987.51190
929.0 0.001076 988.82117 988.82074
926.0 0.001080 990.11975 990.11938
925.0 0.001081 991.40845 991.40802
919.0 0.001088 992.68726 992.68683
900.0 0.001111 993.95551 993.95508
913.0 0.001095 995.21375 995.21338
979.0 0.001021 996.46143 996.46106
988.0 0.001012 997.69885 997.69843
948.0 0.001055 998.92615 998.92572
964.0 0.001037 1000.14246 1000.14203
941.0 0.001063 1001.34839 1001.34796
981.0 0.001019 1002.54352 1002.54309
968.0 0.001033 1003.72803 1003.72754
954.0 0.001048 1004.90204 1004.90161
974.0 0.001027 1006.06476 1006.06433
965.0 0.001036 1007.21704 1007.21661
952.0 0.001050 1008.35815 1008.35773
979.0 0.001021 1009.48834 1009.48792
1010.0 0.000990 1010.60779 1010.60736
970.0 0.001031 1011.71588 1011.71545
1032.0 0.000969 1012.81311 1012.81268
964.0 0.001037 1013.89905 1013.89856
1014.0 0.000986 1014.97388 1014.97345
982.0 0.001018 1016.03784 1016.03741
981.0 0.001019 1017.09021 1017.08978
962.0 0.001040 1018.13159 1018.13110
1051.0 0.000951 1019.16150 1019.16101
981.0 0.001019 1020.18018 1020.17969
1034.0 0.000967 1021.18781 1021.18738
984.0 0.001016 1022.18372 1022.18329
1051.0 0.000951 1023.16864 1023.16815
1061.0 0.000943 1024.14197 1024.14148
1039.0 0.000962 1025.10388 1025.10339
1078.0 0.000928 1026.05469 1026.05420
1004.0 0.000996 1026.99377 1026.99341
1040.0 0.000962 1027.92188 1027.92139
1048.0 0.000954 1028.83813 1028.83765
1064.0 0.000940 1029.74304 1029.74255
1039.0 0.000962 1030.63696 1036.70642
1026.0 0.000975 1031.51904 1037.83154
989.0 0.001011 1032.38989 1041.90747
1076.0 0.000929 1033.24927 1043.15723
1013.0 0.000987 1034.09729 1044.42017
1011.0 0.000989 1034.93408 1045.69885
1074.0 0.000931 1035.75928 1046.99451
1042.0 0.000960 1036.57324 1048.31067
1080.0 0.000926 1037.37573 1049.64978
1005.0 0.000995 1038.16699 1051.01526
1123.0 0.000890 1038.94702 1052.41101
1086.0 0.000921 1039.71558 1053.84045
1117.0 0.000895 1040.47314 1055.30884
1109.0 0.000902 1041.21912 1056.82056
1126.0 0.000888 1041.95398 1058.38220
1132.0 0.000883 1042.67786 1060.00061
1128.0 0.000887 1043.39026 1061.68225
1089.0 0.000918 1044.09167 1063.43689
1078.0 0.000928 1044.78186 1065.27405
1156.0 0.000865 1045.46118 1067.20508
1122.0 0.000891 1046.12952 1069.24414
1121.0 0.000892 1046.78650 1071.40515
1176.0 0.000850 1047.43274 1073.70776
1173.0 0.000853 1048.06799 1076.17188
1136.0 0.000880 1048.69238 1078.82324
1191.0 0.000840 1049.30591 1081.69214
1156.0 0.000865 1049.90857 1084.81250
1176.0 0.000850 1050.50073 1088.22852
1184.0 0.000845 1051.08179 1092.73779
1165.0 0.000858 1051.65234 1096.93933
1212.0 0.000825 1052.21252 1101.63110
1229.0 0.000814 1052.76184 1107.28308
1132.0 0.000883 1053.30066 1113.28174
1228.0 0.000814 1053.82898 1120.13977
1243.0 0.000805 1054.34705 1128.05627
1222.0 0.000818 1054.85474 1137.28845
1285.0 0.000778 1055.35205 1148.16846
1232.0 0.000812 1055.83911 1161.15430
1245.0 0.000803 1056.31592 1176.85828
1286.0 0.000778 1056.78259 1196.14624
1239.0 0.000807 1057.23938 1220.25610
1210.0 0.000826 1057.68591 1251.01233
1260.0 0.000794 1058.12268 1291.44434
1411.0 0.000709 1058.54944 1347.54395
1483.0 0.000674 1058.96643 1434.28796
1643.0 0.000609 1059.37366 1591.60510
2098.0 0.000477 1059.77112 1916.09180
2663.0 0.000376 1060.15894 2601.91650
3802.0 0.0002630 1060.53723 3937.33887
5637.0 0.0001774 1060.90601 6146.31152
8362.0 0.0001196 1061.26538 9056.25684
11299.0 0.0000885 1061.61536 11789.21387
13062.0 0.0000766 1061.95605 13006.13184
12756.0 0.0000784 1062.28735 12161.64941
10765.0 0.0000929 1062.60962 10138.11621
7639.0 0.0001309 1062.92285 7656.79492
5215.0 0.0001918 1063.22705 5230.58691
3420.0 0.0002924 1063.52222 3409.03125
2188.0 0.000457 1063.80847 2317.03394
1622.0 0.000617 1064.08594 1769.71338
1442.0 0.000693 1064.35486 1521.54102
1348.0 0.000742 1064.61487 1402.74573
1274.0 0.000785 1064.86646 1334.24963
1252.0 0.000799 1065.10938 1287.86072
1209.0 0.000827 1065.34399 1253.95325
1223.0 0.000818 1065.57019 1228.43030
1191.0 0.000840 1065.78809 1209.00769
1238.0 0.000808 1065.99768 1194.22339
1129.0 0.000886 1066.19922 1183.15466
1118.0 0.000894 1066.39270 1175.23901
1197.0 0.000835 1066.57813 1170.23169
1173.0 0.000853 1066.75562 1168.27295
1167.0 0.000857 1066.92542 1170.29077
1198.0 0.000835 1067.08728 1179.32507
1200.0 0.000833 1067.24146 1203.62268
1353.0 0.000739 1067.38806 1261.62610
1439.0 0.000695 1067.52710 1385.06653
1737.0 0.000576 1067.65857 1608.75940
2289.0 0.000437 1067.78271 1935.71240
2837.0 0.000352 1067.89966 2294.91846
2837.0 0.000352 1068.00928 2535.57397
2740.0 0.000365 1068.11157 2529.71753
2436.0 0.000411 1068.20691 2330.17920
2171.0 0.000461 1068.29517 2049.87476
1756.0 0.000569 1068.37646 1743.42700
1496.0 0.000668 1068.45093 1479.72107
1248.0 0.000801 1068.51855 1301.98108
1204.0 0.000831 1068.57947 1203.43933
1203.0 0.000831 1068.63367 1156.08594
1130.0 0.000885 1068.68127 1133.85095
1050.0 0.000952 1068.72241 1121.84705
1107.0 0.000903 1068.75708 1113.98328
1052.0 0.000951 1068.78528 1108.16650
1114.0 0.000898 1068.80725 1103.62646
1091.0 0.000917 1068.82300 1099.97644
1104.0 0.000906 1068.83252 1096.97876
1106.0 0.000904 1068.83594 1094.47375
1084.0 0.000923 1068.83350 1092.34717
1057.0 0.000946 1068.82483 1090.51770
1022.0 0.000978 1068.81042 1088.92456
1099.0 0.000910 1068.79016 1087.52222
1108.0 0.000903 1068.76404 1086.27686
1041.0 0.000961 1068.73230 1085.16064
1087.0 0.000920 1068.69495 1078.12708
1095.0 0.000913 1068.65198 1077.43677
1033.0 0.000968 1068.60352 1076.81152
1032.0 0.000969 1068.54956 1073.28247
1098.0 0.000911 1068.49036 1072.86853
1077.0 0.000929 1068.42566 1072.48767
1044.0 0.000958 1068.35583 1072.13477
1017.0 0.000983 1068.28076 1071.80505
1039.0 0.000962 1068.20044 1071.49536
1054.0 0.000949 1068.11511 1071.20203
1047.0 0.000955 1068.02490 1070.92297
1039.0 0.000962 1067.92957 1070.65564
1060.0 0.000943 1067.82935 1070.39832
1067.0 0.000937 1067.72424 1070.14929
1018.0 0.000982 1067.61438 1069.90735
1042.0 0.000960 1067.49976 1069.67114
1000.0 0.001000 1067.38037 1069.43945
1030.0 0.000971 1067.25635 1069.21179
1077.0 0.000929 1067.12781 1068.98718
1047.0 0.000955 1066.99463 1068.76477
1083.0 0.000923 1066.85706 1068.54431
1050.0 0.000952 1066.71497 1068.32520
998.0 0.001002 1066.56848 1068.10657
1023.0 0.000978 1066.41760 1067.88843
1053.0 0.000950 1066.26257 1067.67041
1078.0 0.000928 1066.10315 1067.45203
1011.0 0.000989 1065.93958 1067.23303
1030.0 0.000971 1065.77173 1067.01306
1059.0 0.000944 1065.59973 1066.79236
1047.0 0.000955 1065.42371 1065.83215
1062.0 0.000942 1065.24365 1065.63599
1014.0 0.000986 1065.05957 1065.05920
1060.0 0.000943 1064.87146 1064.87109
1043.0 0.000959 1064.67944 1064.67908
1060.0 0.000943 1064.48340 1064.48315
1038.0 0.000963 1064.28369 1064.28345
1014.0 0.000986 1064.08008 1064.07971
1053.0 0.000950 1063.87256 1063.87231
999.0 0.001001 1063.66138 1063.66113
1067.0 0.000937 1063.44641 1063.44617
1032.0 0.000969 1063.22766 1063.22742
1054.0 0.000949 1063.00537 1063.00513
1048.0 0.000954 1062.77930 1062.77905
1026.0 0.000975 1062.54968 1062.54944
1008.0 0.000992 1062.31641 1062.31616
1012.0 0.000988 1062.07971 1062.07935
1075.0 0.000930 1061.83923 1061.83899
1036.0 0.000965 1061.59534 1061.59509
998.0 0.001002 1061.34790 1061.34766
1084.0 0.000923 1061.09705 1061.09680
1082.0 0.000924 1060.84265 1060.84241
1043.0 0.000959 1060.58484 1060.58459
1067.0 0.000937 1060.32361 1060.32336
1139.0 0.000878 1060.05896 1060.05872
1103.0 0.000907 1059.79089 1059.79065
1082.0 0.000924 1059.51953 1059.51929
1060.0 0.000943 1059.24463 1059.24438
1062.0 0.000942 1058.96643 1058.96619
1105.0 0.000905 1058.68494 1058.68469
1109.0 0.000902 1058.40015 1058.39990
1077.0 0.000929 1058.11206 1058.11182
1130.0 0.000885 1057.82056 1057.82031
1093.0 0.000915 1057.52576 1057.52551
1059.0 0.000944 1057.22766 1057.22742
1056.0 0.000947 1056.92627 1056.92603
1051.0 0.000951 1056.62170 1056.62146
1059.0 0.000944 1056.31372 1056.31360
1024.0 0.000977 1056.00244 1056.00232
1073.0 0.000932 1055.68799 1055.68787
1038.0 0.000963 1055.37036 1055.37012
1039.0 0.000962 1055.04932 1055.04907
1079.0 0.000927 1054.72498 1054.72485
989.0 0.001011 1054.39734 1054.39722
1020.0 0.000980 1054.06653 1054.06641
1062.0 0.000942 1053.73242 1053.73230
996.0 0.001004 1053.39514 1053.39490
984.0 0.001016 1053.05444 1053.05420
1060.0 0.000943 1052.71033 1052.71021
1055.0 0.000948 1052.36316 1052.36304
1019.0 0.000981 1052.01257 1052.01245
1043.0 0.000959 1051.65881 1051.65857
966.0 0.001035 1051.30164 1051.30139
1051.0 0.000951 1050.94104 1050.94092
1011.0 0.000989 1050.57727 1050.57703
1043.0 0.000959 1050.21008 1050.20984
1046.0 0.000956 1049.83948 1049.83936
1027.0 0.000974 1049.46570 1049.46545
1025.0 0.000976 1049.08826 1049.08813
1049.0 0.000953 1048.70764 1048.70740
1102.0 0.000907 1048.32349 1048.32336
954.0 0.001048 1047.93604 1047.93579
1069.0 0.000935 1047.54504 1047.54492
1029.0 0.000972 1047.15051 1047.15039
1028.0 0.000973 1046.75281 1046.75256
983.0 0.001017 1046.35132 1046.35120
1022.0 0.000978 1045.94641 1045.94629
1033.0 0.000968 1045.53809 1045.53796
979.0 0.001021 1045.12610 1045.12585
1027.0 0.000974 1044.71057 1044.71045
1076.0 0.000929 1044.29150 1044.29126
1022.0 0.000978 1043.86877 1043.86865
979.0 0.001021 1043.44250 1043.44238
1062.0 0.000942 1043.01245 1043.01221
970.0 0.001031 1042.57886 1042.57861
1040.0 0.000962 1042.14136 1042.37341
1068.0 0.000936 1041.70032 1041.94165
985.0 0.001015 1041.25562 1041.50647
998.0 0.001002 1040.80688 1041.18298
1019.0 0.000981 1040.35461 1040.74622
1024.0 0.000977 1039.89832 1040.30652
1025.0 0.000976 1039.43835 1039.86401
1006.0 0.000994 1038.97449 1039.41907
1025.0 0.000976 1038.50659 1038.97119
1031.0 0.000970 1038.03491 1038.52075
1071.0 0.000934 1037.55920 1038.06799
1058.0 0.000945 1037.07971 1037.61304
1033.0 0.000968 1036.59607 1037.15588
1038.0 0.000963 1036.10828 1036.69641
1031.0 0.000970 1035.61658 1036.23535
1034.0 0.000967 1035.12073 1035.77246
1062.0 0.000942 1034.62085 1035.30847
1037.0 0.000964 1034.11682 1034.84326
996.0 0.001004 1033.60840 1034.37708
1007.0 0.000993 1033.09607 1033.91064
1049.0 0.000953 1032.57922 1033.44421
1003.0 0.000997 1032.05835 1032.97839
1036.0 0.000965 1031.53308 1032.51355
991.0 0.001009 1031.00342 1035.67590
1035.0 0.000966 1030.46960 1035.35901
1055.0 0.000948 1029.93115 1035.05420
1111.0 0.000900 1029.38855 1034.76367
1065.0 0.000939 1028.84131 1036.34802
1046.0 0.000956 1028.28955 1036.16748
1091.0 0.000917 1027.73340 1036.01379
1097.0 0.000912 1027.17273 1035.89075
1040.0 0.000962 1026.60742 1035.80334
1064.0 0.000940 1026.03760 1035.75720
1081.0 0.000925 1025.46301 1035.75928
1015.0 0.000985 1024.88391 1035.81885
1003.0 0.000997 1024.29993 1035.94580
1051.0 0.000951 1023.71143 1036.15442
1115.0 0.000897 1023.11810 1036.46179
1035.0 0.000966 1022.51990 1036.89148
1088.0 0.000919 1021.91699 1037.47302
1142.0 0.000876 1021.30914 1038.24890
1067.0 0.000937 1020.69659 1039.27771
1045.0 0.000957 1020.07904 1040.64966
1127.0 0.000887 1019.45636 1042.52527
1152.0 0.000868 1018.82892 1045.26819
1061.0 0.000943 1018.19641 1049.84985
1029.0 0.000972 1017.55902 1058.76501
1134.0 0.000882 1016.91644 1077.41980
1125.0 0.000889 1016.26868 1114.65857
1277.0 0.000783 1015.61597 1179.26721
1291.0 0.000775 1014.95807 1270.39429
1442.0 0.000693 1014.29504 1367.72363
1546.0 0.000647 1013.62683 1433.06177
1529.0 0.000654 1012.95325 1436.92163
1515.0 0.000660 1012.27460 1394.59436
1372.0 0.000729 1011.59052 1335.04834
1257.0 0.000796 1010.90131 1266.29858
1264.0 0.000791 1010.20667 1197.07813
1205.0 0.000830 1009.50647 1142.42175
1128.0 0.000887 1008.80115 1108.61694
1146.0 0.000873 1008.09027 1093.08398
1151.0 0.000869 1007.37408 1089.80945
1168.0 0.000856 1006.65240 1093.67554
1161.0 0.000861 1005.92505 1102.11011
1154.0 0.000867 1005.19238 1114.58728
1146.0 0.000873 1004.45410 1131.87195
1197.0 0.000835 1003.71045 1155.99353
1323.0 0.000756 1002.96106 1191.93640
1338.0 0.000747 1002.20599 1253.24487
1451.0 0.000689 1001.44550 1375.30811
1685.0 0.000593 1000.67914 1636.45020
2254.0 0.000444 999.90741 2167.94727
3114.0 0.0003211 999.12982 3108.77148
4660.0 0.0002146 998.34637 4466.02197
6262.0 0.0001597 997.55743 5957.55078
6557.0 0.0001525 996.76270 7017.32178
6414.0 0.0001559 995.96228 7153.04297
6768.0 0.0001478 995.15601 6532.74707
5740.0 0.0001742 994.34375 5620.20410
4127.0 0.0002423 993.52594 4557.95459
3084.0 0.0003243 992.70221 3440.26147
2558.0 0.000391 991.87274 2494.53857
1888.0 0.000530 991.03741 1844.97229
1438.0 0.000695 990.19598 1471.39771
1187.0 0.000842 989.34894 1284.09070
1130.0 0.000885 988.49579 1193.87354
1154.0 0.000867 987.63702 1145.84399
1079.0 0.000927 986.77209 1115.32092
1071.0 0.000934 985.90125 1093.19250
1073.0 0.000932 985.02460 1076.09082
1034.0 0.000967 984.14191 1062.43713
979.0 0.001021 983.25336 1051.30469
972.0 0.001029 982.35876 1042.06238
1037.0 0.000964 981.45801 1034.26746
1047.0 0.000955 980.55157 1027.60364
974.0 0.001027 979.63904 1021.83026
1046.0 0.000956 978.72064 1016.77191
992.0 0.001008 977.79614 1012.29089
1012.0 0.000988 976.86542 1008.28192
986.0 0.001014 975.92914 1004.66455
1012.0 0.000988 974.98645 1001.37115
977.0 0.001024 974.03815 998.35095
948.0 0.001055 973.08356 995.56030
965.0 0.001036 972.12292 992.96460
1008.0 0.000992 971.15649 990.30554
991.0 0.001009 970.18390 988.02881
949.0 0.001054 969.20551 985.87561
932.0 0.001073 968.22095 983.71301
950.0 0.001053 967.23022 981.76270
931.0 0.001074 966.23383 979.89355
965.0 0.001036 965.23126 978.09448
972.0 0.001029 964.22290 976.35748
998.0 0.001002 963.20844 974.67450
913.0 0.001095 962.18781 973.03900
961.0 0.001041 961.16156 971.44635
1016.0 0.000984 960.12909 969.89063
934.0 0.001071 959.09094 968.36816
922.0 0.001085 958.04669 966.87482
991.0 0.001009 956.99646 965.40729
948.0 0.001055 955.94049 963.96307
959.0 0.001043 954.87854 962.53906
934.0 0.001071 953.81085 961.13324
938.0 0.001066 952.73712 959.74347
899.0 0.001112 951.65735 958.36749
915.0 0.001093 950.57208 957.00458
941.0 0.001063 949.48090 955.65247
924.0 0.001082 948.38397 954.31042
984.0 0.001016 947.28119 949.33972
970.0 0.001031 946.17242 948.14905
911.0 0.001098 945.05829 946.95789
974.0 0.001027 943.93811 943.93787
951.0 0.001052 942.81250 942.81226
971.0 0.001030 941.68115 941.68091
971.0 0.001030 940.54388 940.54358
894.0 0.001119 939.40131 939.40100
888.0 0.001126 938.25293 938.25262
992.0 0.001008 937.09912 937.09882
947.0 0.001056 935.93964 937.26532
962.0 0.001040 934.77441 936.15332
965.0 0.001036 933.60400 935.03943
964.0 0.001037 932.42792 934.56970
888.0 0.001126 931.24658 933.47797
923.0 0.001083 930.05975 932.38641
949.0 0.001054 928.86719 931.29535
949.0 0.001054 927.66980 930.20624
923.0 0.001083 926.46667 929.11890
902.0 0.001109 925.25854 928.03455
989.0 0.001011 924.04510 926.95386
897.0 0.001115 922.82617 925.87732
919.0 0.001088 921.60229 924.80670
942.0 0.001062 920.37311 923.74255
927.0 0.001079 919.13904 922.68658
956.0 0.001046 917.89978 921.63995
925.0 0.001081 916.65509 920.60400
909.0 0.001100 915.40582 919.58154
908.0 0.001101 914.15143 918.57404
952.0 0.001050 912.89227 917.58429
930.0 0.001075 911.62811 916.61499
977.0 0.001024 910.35883 915.66925
908.0 0.001101 909.08521 915.84033
935.0 0.001070 907.80640 914.99841
961.0 0.001041 906.52319 914.19714
897.0 0.001115 905.23523 913.97217
876.0 0.001142 903.94238 913.29352
887.0 0.001127 902.64520 912.68054
908.0 0.001101 901.34326 912.14435
912.0 0.001096 900.03717 911.69922
923.0 0.001083 898.72650 911.36182
907.0 0.001103 897.41095 911.15320
915.0 0.001093 896.09161 911.10004
881.0 0.001135 894.76764 911.23523
927.0 0.001079 893.43970 911.60107
898.0 0.001114 892.10742 912.25232
892.0 0.001121 890.77063 913.26117
912.0 0.001096 889.43018 914.72278
908.0 0.001101 888.08539 916.76801
884.0 0.001131 886.73688 919.57611
918.0 0.001089 885.38428 923.40607
944.0 0.001059 884.02753 928.65576
944.0 0.001059 882.66730 936.03503
987.0 0.001013 881.30292 947.17450
1004.0 0.000996 879.93524 966.39557
1078.0 0.000928 878.56366 1004.89063
1132.0 0.000883 877.18805 1087.12964
1286.0 0.000778 875.80939 1253.73376
1589.0 0.000629 874.42694 1548.05823
2142.0 0.000467 873.04126 1975.67957
2546.0 0.000393 871.65210 2456.53833
2966.0 0.0003372 870.25916 2820.60400
3024.0 0.0003307 868.86346 2905.84131
2834.0 0.000353 867.46429 2741.48267
2480.0 0.000403 866.06213 2481.04419
2046.0 0.000489 864.65680 2183.78931
1856.0 0.000539 863.24811 1847.05054
1525.0 0.000656 861.83685 1520.83679
1258.0 0.000795 860.42224 1265.54724
1087.0 0.000920 859.00525 1099.80945
950.0 0.001053 857.58521 1008.56390
905.0 0.001105 856.16205 964.29865
945.0 0.001058 854.73669 944.03662
986.0 0.001014 853.30847 934.94043
901.0 0.001110 851.87793 931.91248
957.0 0.001045 850.44476 934.14825
925.0 0.001081 849.00879 944.32678
1009.0 0.000991 847.57092 971.06769
1011.0 0.000989 846.13049 1033.79553
1177.0 0.000850 844.68805 1164.87610
1444.0 0.000693 843.24335 1398.76672
1893.0 0.000528 841.79620 1740.25024
2263.0 0.000442 840.34747 2125.70703
2547.0 0.000393 838.89630 2419.84888
2540.0 0.000394 837.44373 2491.83325
2526.0 0.000396 835.98889 2361.84351
2406.0 0.000416 834.53217 2153.75220
1988.0 0.000503 833.07410 1918.39746
1589.0 0.000629 831.61407 1650.10071
1451.0 0.000689 830.15271 1383.72253
1171.0 0.000854 828.68976 1169.46387
1058.0 0.000945 827.22491 1025.95691
953.0 0.001049 825.75916 943.78131
897.0 0.001115 824.29181 901.36884
902.0 0.001109 822.82349 879.46277
844.0 0.001185 821.35388 866.60376
795.0 0.001258 819.88269 857.66052
906.0 0.001104 818.41113 850.68506
837.0 0.001195 816.93799 844.91803
837.0 0.001195 815.46448 840.00098
825.0 0.001212 813.98969 835.71350
844.0 0.001185 812.51404 831.90680
860.0 0.001163 811.03802 828.47571
827.0 0.001209 809.56104 825.34033
835.0 0.001198 808.08380 822.44312
853.0 0.001172 806.60583 819.73853
768.0 0.001302 805.12708 817.19177
807.0 0.001239 803.64838 814.77716
731.0 0.001368 802.16919 812.47223
823.0 0.001215 800.68988 810.26074
830.0 0.001205 799.21033 808.12799
778.0 0.001285 797.73029 806.06244
768.0 0.001302 796.25085 804.05627
779.0 0.001284 794.77100 800.80267
802.0 0.001247 793.29132 798.93988
800.0 0.001250 791.81183 797.11316
777.0 0.001287 790.33234 795.31812
829.0 0.001206 788.85333 792.91693
775.0 0.001290 787.37463 791.19873
758.0 0.001319 785.89636 789.50165
796.0 0.001256 784.41864 787.82336
802.0 0.001247 782.94116 786.16162
778.0 0.001285 781.46478 784.51550
765.0 0.001307 779.98859 782.88269
749.0 0.001335 778.51361 781.26294
812.0 0.001232 777.03925 779.65424
771.0 0.001297 775.56519 778.05560
746.0 0.001340 774.09290 776.46735
766.0 0.001305 772.62103 774.88751
809.0 0.001236 771.15076 773.31647
812.0 0.001232 769.68140 771.75281
776.0 0.001289 768.21271 770.19592
784.0 0.001276 766.74603 768.64655
778.0 0.001285 765.28015 767.10315
789.0 0.001267 763.81622 765.56616
813.0 0.001230 762.35339 762.96686
805.0 0.001242 760.89191 761.48065
795.0 0.001258 759.43219 759.99774
758.0 0.001319 757.97388 758.51764
738.0 0.001355 756.51776 756.51752
763.0 0.001311 755.06317 755.06293
745.0 0.001342 753.61017 753.60986
741.0 0.001350 752.15924 752.15900
764.0 0.001309 750.71027 750.71002
681.0 0.001468 749.26331 749.26306
766.0 0.001305 747.81842 747.81818
711.0 0.001406 746.37543 746.37512
766.0 0.001305 744.93481 744.93457
772.0 0.001295 743.49646 743.49622
763.0 0.001311 742.06042 742.06018
749.0 0.001335 740.62671 740.62646
754.0 0.001326 739.19519 739.19495
744.0 0.001344 737.76660 737.76636
737.0 0.001357 736.34009 736.33978
728.0 0.001374 734.91663 734.91638
773.0 0.001294 733.49530 733.74866
669.0 0.001495 732.07666 732.34009
689.0 0.001451 730.66125 730.93536
724.0 0.001381 729.24823 729.53363
682.0 0.001466 727.83850 728.26257
714.0 0.001401 726.43146 726.87335
753.0 0.001328 725.02686 725.48779
769.0 0.001300 723.62604 724.10724
679.0 0.001473 722.22778 722.73059
699.0 0.001431 720.83319 721.35901
699.0 0.001431 719.44147 719.99207
704.0 0.001420 718.05255 718.62964
750.0 0.001333 716.66760 717.27313
705.0 0.001418 715.28546 715.92163
682.0 0.001466 713.90717 714.57642
656.0 0.001524 712.53210 713.23700
742.0 0.001348 711.16028 711.90375
767.0 0.001304 709.79218 710.57751
752.0 0.001330 708.42767 709.25848
688.0 0.001453 707.06677 707.94708
721.0 0.001387 705.70953 706.64398
682.0 0.001466 704.35577 705.34949
753.0 0.001328 703.00598 704.06482
647.0 0.001546 701.65997 702.79053
681.0 0.001468 700.31787 701.52765
741.0 0.001350 698.97955 700.27728
713.0 0.001403 697.64502 699.04059
684.0 0.001462 696.31488 697.81982
695.0 0.001439 694.98828 696.61597
706.0 0.001416 693.66595 695.43201
705.0 0.001418 692.34772 694.27063
694.0 0.001441 691.03345 693.13513
637.0 0.001570 689.72375 692.03033
637.0 0.001570 688.41785 690.96082
667.0 0.001499 687.11664 689.93427
704.0 0.001420 685.81946 688.95886
668.0 0.001497 684.52618 688.04578
659.0 0.001517 683.23792 687.21124
642.0 0.001558 681.95361 686.47430
680.0 0.001471 680.67426 685.86334
684.0 0.001462 679.39905 685.41681
705.0 0.001418 678.12799 685.19238
682.0 0.001466 676.86206 685.28870
677.0 0.001477 675.60034 685.91418
691.0 0.001447 674.34357 687.60468
699.0 0.001431 673.09125 691.75641
702.0 0.001425 671.84338 701.55365
728.0 0.001374 670.60046 722.72937
751.0 0.001332 669.36224 762.60248
844.0 0.001185 668.12878 825.49890
877.0 0.001140 666.90009 905.38721
945.0 0.001058 665.67603 980.83777
998.0 0.001002 664.45697 1022.01965
955.0 0.001047 663.24286 1014.35852
962.0 0.001040 662.03357 976.97736
876.0 0.001142 660.82928 932.87787
791.0 0.001264 659.62964 885.24042
792.0 0.001263 658.43549 830.42413
750.0 0.001333 657.24585 775.30249
717.0 0.001395 656.06140 729.94244
676.0 0.001479 654.88208 698.43439
661.0 0.001513 653.70758 679.43915
633.0 0.001580 652.53857 668.96295
598.0 0.001672 651.37433 663.10394
647.0 0.001546 650.21552 659.38074
576.0 0.001736 649.06171 656.59619
636.0 0.001572 647.91266 654.27039
620.0 0.001613 646.76935 652.21930
616.0 0.001623 645.63092 650.35706
623.0 0.001605 644.49805 648.63654
665.0 0.001504 643.37024 647.02460
642.0 0.001558 642.24731 645.49799
620.0 0.001613 641.13019 644.04095
619.0 0.001616 640.01801 642.63965
651.0 0.001536 638.91156 641.28522
601.0 0.001664 637.81012 639.96954
633.0 0.001580 636.71387 638.68677
664.0 0.001506 635.62317 637.43280
603.0 0.001658 634.53760 636.20355
573.0 0.001745 633.45776 634.99652
610.0 0.001639 632.38312 633.80872
622.0 0.001608 631.31366 632.63812
640.0 0.001563 630.24982 631.48358
658.0 0.001520 629.19135 630.34344
584.0 0.001712 628.13831 629.21655
665.0 0.001504 627.09064 628.10199
618.0 0.001618 626.04828 626.99872
608.0 0.001645 625.01147 625.90643
595.0 0.001681 623.98016 624.82434
631.0 0.001585 622.95422 623.75183
643.0 0.001555 621.93378 622.68854
640.0 0.001563 620.91864 621.63391
625.0 0.001600 619.90924 620.58807
598.0 0.001672 618.90503 619.55011
588.0 0.001701 617.90656 618.52039
623.0 0.001605 616.91339 617.49817
595.0 0.001681 615.92542 616.48309
609.0 0.001642 614.94336 615.47589
620.0 0.001613 613.96643 614.68799
597.0 0.001675 612.99530 613.70331
607.0 0.001647 612.02954 612.72583
604.0 0.001656 611.06885 611.75531
653.0 0.001531 610.11414 610.89764
625.0 0.001600 609.16455 609.94580
594.0 0.001684 608.22076 608.75165
607.0 0.001647 607.28229 607.82410
632.0 0.001582 606.34912 606.90344
619.0 0.001616 605.42157 605.86090
624.0 0.001603 604.49927 604.95923
647.0 0.001546 603.58270 604.06470
612.0 0.001634 602.67145 603.17725
629.0 0.001590 601.76550 602.29681
607.0 0.001647 600.86511 601.42395
581.0 0.001721 599.97015 600.55872
592.0 0.001689 599.08057 599.70123
597.0 0.001675 598.19635 598.85193
624.0 0.001603 597.31744 598.01093
557.0 0.001795 596.44409 597.17877
588.0 0.001701 595.57605 596.35583
607.0 0.001647 594.71344 595.54248
585.0 0.001709 593.85614 594.73938
601.0 0.001664 593.00403 593.94696
588.0 0.001701 592.15759 593.16644
586.0 0.001706 591.31616 592.39813
608.0 0.001645 590.48029 591.64368
593.0 0.001686 589.64948 590.90375
594.0 0.001684 588.82397 590.18024
582.0 0.001718 588.00397 589.47528
619.0 0.001616 587.18896 588.79047
576.0 0.001736 586.37946 588.12939
628.0 0.001592 585.57507 587.49500
577.0 0.001733 584.77563 586.89166
565.0 0.001770 583.98181 586.32544
587.0 0.001704 583.19287 585.80316
608.0 0.001645 582.40942 585.33441
593.0 0.001686 581.63092 584.93127
548.0 0.001825 580.85736 584.61023
590.0 0.001695 580.08929 584.39423
597.0 0.001675 579.32605 584.31482
568.0 0.001761 578.56812 584.42096
612.0 0.001634 577.81519 584.79883
618.0 0.001618 577.06714 585.64258
649.0 0.001541 576.32422 587.44965
587.0 0.001704 575.58636 591.47064
616.0 0.001623 574.85352 600.38940
608.0 0.001645 574.12555 618.74225
728.0 0.001374 573.40247 651.84491
858.0 0.001166 572.68445 702.17633
985.0 0.001015 571.97131 764.26447
1049.0 0.000953 571.26312 821.48639
1017.0 0.000983 570.55975 851.66473
972.0 0.001029 569.86108 845.07745
993.0 0.001007 569.16754 816.81189
910.0 0.001099 568.47852 785.65479
849.0 0.001178 567.79437 752.73676
740.0 0.001351 567.11499 714.29254
706.0 0.001416 566.44025 672.69092
644.0 0.001553 565.77051 635.73590
605.0 0.001653 565.10510 608.62970
673.0 0.001486 564.44470 590.98145
612.0 0.001634 563.78876 580.92474
535.0 0.001869 563.13721 575.46570
606.0 0.001650 562.49060 572.32550
634.0 0.001577 561.84833 570.23749
572.0 0.001748 561.21088 568.64142
561.0 0.001783 560.57776 567.31451
553.0 0.001808 559.94897 566.16522
559.0 0.001789 559.32495 565.14801
541.0 0.001848 558.70508 564.23395
590.0 0.001695 558.08997 563.40411
570.0 0.001754 557.47906 562.64435
577.0 0.001733 556.87244 561.94489
590.0 0.001695 556.27026 561.29883
618.0 0.001618 555.67236 560.70135
576.0 0.001736 555.07874 560.14929
542.0 0.001845 554.48944 559.64069
596.0 0.001678 553.90424 559.17499
576.0 0.001736 553.32330 558.75275
548.0 0.001825 552.74658 558.37524
585.0 0.001709 552.17401 558.04504
632.0 0.001582 551.60553 557.76593
568.0 0.001761 551.04108 557.54254
560.0 0.001786 550.48090 557.38159
567.0 0.001764 549.92450 557.29077
556.0 0.001799 549.37225 557.28058
577.0 0.001733 548.82397 557.36395
561.0 0.001783 548.27960 557.55756
568.0 0.001761 547.73932 557.88232
578.0 0.001730 547.20270 558.36554
550.0 0.001818 546.67017 559.04248
558.0 0.001792 546.14136 559.95947
578.0 0.001730 545.61621 561.17908
589.0 0.001698 545.09515 562.78497
559.0 0.001789 544.57758 564.89606
568.0 0.001761 544.06396 567.68805
535.0 0.001869 543.55396 571.46564
605.0 0.001653 543.04742 576.88257
568.0 0.001761 542.54480 585.57941
606.0 0.001650 542.04559 601.69922
598.0 0.001672 541.55017 634.36725
693.0 0.001443 541.05823 699.77594
839.0 0.001192 540.56970 818.73523
1084.0 0.000923 540.08478 1004.95502
1304.0 0.000767 539.60321 1247.27136
1442.0 0.000693 539.12518 1492.32605
1458.0 0.000686 538.65057 1654.37073
1553.0 0.000644 538.17920 1671.80078
1597.0 0.000626 537.71130 1578.37207
1477.0 0.000677 537.24670 1454.76160
1192.0 0.000839 536.78540 1333.81982
1056.0 0.000947 536.32733 1198.92029
949.0 0.001054 535.87244 1040.80298
891.0 0.001122 535.42084 884.56500
712.0 0.001404 534.97241 756.90167
644.0 0.001553 534.52710 668.32422
585.0 0.001709 534.08496 615.01990
535.0 0.001869 533.64575 586.13513
536.0 0.001866 533.20984 570.95581
565.0 0.001770 532.77673 562.36694
526.0 0.001901 532.34680 556.76831
536.0 0.001866 531.91974 552.62695
540.0 0.001852 531.49554 549.33118
531.0 0.001883 531.07440 546.61090
512.0 0.001953 530.65607 544.31439
531.0 0.001883 530.24072 542.34412
537.0 0.001862 529.82813 540.62885
506.0 0.001976 529.41815 539.13129
517.0 0.001934 529.01123 537.78412
521.0 0.001919 528.60687 536.57031
530.0 0.001887 528.20538 535.46747
528.0 0.001894 527.80646 534.45660
506.0 0.001976 527.41022 533.53064
498.0 0.002008 527.01660 532.66333
540.0 0.001852 526.62555 531.85229
553.0 0.001808 526.23724 531.08972
560.0 0.001786 525.85138 530.36914
502.0 0.001992 525.46796 529.68494
548.0 0.001825 525.08716 529.03314
509.0 0.001965 524.70874 528.40973
528.0 0.001894 524.33282 527.81165
477.0 0.002096 523.95935 527.23596
526.0 0.001901 523.58813 526.68042
508.0 0.001969 523.21936 526.14325
522.0 0.001916 522.85291 525.62244
505.0 0.001980 522.48883 525.11664
506.0 0.001976 522.12695 524.62457
490.0 0.002041 521.76733 524.14502
516.0 0.001938 521.41003 523.67712
492.0 0.002033 521.05481 523.21991
531.0 0.001883 520.70190 522.77283
550.0 0.001818 520.35101 522.33490
517.0 0.001934 520.00226 521.90576
538.0 0.001859 519.65570 521.48492
507.0 0.001972 519.31116 521.07202
530.0 0.001887 518.96875 520.66669
501.0 0.001996 518.62823 520.26849
538.0 0.001859 518.28973 519.87708
548.0 0.001825 517.95331 518.60266
508.0 0.001969 517.61871 518.25836
557.0 0.001795 517.28619 517.91913
544.0 0.001838 516.95551 517.58533
525.0 0.001905 516.62659 516.80774
532.0 0.001880 516.29974 516.50250
491.0 0.002037 515.97455 516.20306
499.0 0.002004 515.65131 515.91083
485.0 0.002062 515.32977 515.62720
547.0 0.001828 515.01001 515.35413
546.0 0.001832 514.69196 515.09521
485.0 0.002062 514.37567 514.85687
542.0 0.001845 514.06110 514.65405
505.0 0.001980 513.74817 514.52496
536.0 0.001866 513.43683 514.55988
516.0 0.001938 513.12720 514.94000
510.0 0.001961 512.81921 515.95026
502.0 0.001992 512.51276 517.89508
559.0 0.001789 512.20782 520.88428
546.0 0.001832 511.90448 524.54901
574.0 0.001742 511.60272 527.88098
533.0 0.001876 511.30234 529.77576
545.0 0.001835 511.00351 529.17456
599.0 0.001669 510.70615 527.18341
544.0 0.001838 510.41016 524.98529
497.0 0.002012 510.11572 522.89642
524.0 0.001908 509.82254 520.68201
536.0 0.001866 509.53088 517.97754
484.0 0.002066 509.24051 515.28589
531.0 0.001883 508.95139 513.01733
495.0 0.002020 508.66376 511.34390
504.0 0.001984 508.37729 510.21951
496.0 0.002016 508.09222 509.48657
503.0 0.001988 507.80841 508.98059
486.0 0.002058 507.52570 508.58865
514.0 0.001946 507.24442 508.25137
516.0 0.001938 506.96423 507.94235
554.0 0.001805 506.68530 507.65115
507.0 0.001972 506.40753 508.49969
551.0 0.001815 506.13089 508.27780
534.0 0.001873 505.85541 508.06876
463.0 0.002160 505.58109 507.87183
531.0 0.001883 505.30783 507.68716
498.0 0.002008 505.03568 508.08112
499.0 0.002004 504.76459 507.94421
463.0 0.002160 504.49457 507.82224
525.0 0.001905 504.22562 507.71649
521.0 0.001919 503.95770 507.62823
529.0 0.001890 503.69080 507.55933
500.0 0.002000 503.42484 507.51196
519.0 0.001927 503.15994 507.48871
501.0 0.001996 502.89594 507.49261
515.0 0.001942 502.63293 507.52768
518.0 0.001931 502.37088 507.59872
517.0 0.001934 502.10965 507.71143
497.0 0.002012 501.84949 507.87292
505.0 0.001980 501.59012 508.09247
509.0 0.001965 501.33167 508.38150
551.0 0.001815 501.07410 508.75507
539.0 0.001855 500.81726 509.23279
535.0 0.001869 500.56143 509.84076
502.0 0.001992 500.30634 510.61630
527.0 0.001898 500.05212 511.61722
511.0 0.001957 499.79868 512.95404
550.0 0.001818 499.54596 514.88141
510.0 0.001961 499.29413 518.02643
551.0 0.001815 499.04297 523.83270
539.0 0.001855 498.79269 535.08942
537.0 0.001862 498.54306 556.01917
608.0 0.001645 498.29416 590.94946
679.0 0.001473 498.04599 641.09705
781.0 0.001280 497.79852 700.73438
753.0 0.001328 497.55182 755.04126
811.0 0.001233 497.30576 784.67584
765.0 0.001307 497.06033 781.20898
795.0 0.001258 496.81561 757.63373
714.0 0.001401 496.57156 731.59534
651.0 0.001536 496.32816 708.50488
651.0 0.001536 496.08539 683.36676
609.0 0.001642 495.84317 653.25000
653.0 0.001531 495.60165 623.24231
632.0 0.001582 495.36072 601.33856
592.0 0.001689 495.12039 594.37616
566.0 0.001767 494.88065 610.39343
654.0 0.001529 494.64145 661.94385
667.0 0.001499 494.40289 767.37610
931.0 0.001074 494.16483 943.53241
1131.0 0.000884 493.92737 1189.53699
1371.0 0.000729 493.69046 1469.26758
1533.0 0.000652 493.45398 1705.21448
1585.0 0.000631 493.21814 1808.74158
1643.0 0.000609 492.98276 1759.08069
1688.0 0.000592 492.74799 1630.50085
1382.0 0.000724 492.51364 1498.83386
1101.0 0.000908 492.27972 1377.85901
1028.0 0.000973 492.04645 1239.50378
977.0 0.001024 491.81354 1072.84058
890.0 0.001124 491.58121 903.98315
654.0 0.001529 491.34930 761.63904
622.0 0.001608 491.11783 659.02881
593.0 0.001686 490.88684 594.62659
567.0 0.001764 490.65625 558.33124
531.0 0.001883 490.42621 538.89417
544.0 0.001838 490.19656 528.08905
524.0 0.001908 489.96729 521.34412
507.0 0.001972 489.73849 516.55774
537.0 0.001862 489.51013 512.85107
517.0 0.001934 489.28217 509.84949
515.0 0.001942 489.05460 507.35928
507.0 0.001972 488.82745 505.26233
517.0 0.001934 488.60065 503.47449
526.0 0.001901 488.37433 502.22702
519.0 0.001927 488.14832 500.89893
509.0 0.001965 487.92273 499.73837
518.0 0.001931 487.69754 498.71838
493.0 0.002028 487.47272 497.81747
534.0 0.001873 487.24823 497.16510
527.0 0.001898 487.02414 496.46240
482.0 0.002075 486.80035 495.84058
541.0 0.001848 486.57697 495.29272
493.0 0.002028 486.35394 494.81357
508.0 0.001969 486.13126 494.40012
522.0 0.001916 485.90894 494.05130
518.0 0.001931 485.68689 493.76773
515.0 0.001942 485.46527 493.55252
484.0 0.002066 485.24390 493.18073
528.0 0.001894 485.02295 493.12985
525.0 0.001905 484.80222 493.17325
510.0 0.001961 484.58185 493.32901
524.0 0.001908 484.36185 493.50543
494.0 0.002024 484.14209 493.98285
557.0 0.001795 483.92273 494.71082
493.0 0.002028 483.70358 495.84595
508.0 0.001969 483.48477 497.77161
487.0 0.002053 483.26633 501.40900
487.0 0.002053 483.04810 508.71594
461.0 0.002169 482.83026 523.08765
489.0 0.002045 482.61264 548.97498
541.0 0.001848 482.39532 589.85089
631.0 0.001585 482.17834 644.70514
660.0 0.001515 481.96158 704.72485
654.0 0.001529 481.74521 751.57196
662.0 0.001511 481.52902 769.71039
650.0 0.001538 481.31317 756.10590
630.0 0.001587 481.09760 727.67938
611.0 0.001637 480.88229 699.82617
632.0 0.001582 480.66727 674.25934
594.0 0.001684 480.45248 645.70978
549.0 0.001821 480.23801 610.76996
555.0 0.001802 480.02377 574.64636
517.0 0.001934 479.80984 543.57159
534.0 0.001873 479.59616 520.71716
496.0 0.002016 479.38275 506.08447
497.0 0.002012 479.16956 497.74414
483.0 0.002070 478.95673 493.32623
511.0 0.001957 478.74405 491.00522
498.0 0.002008 478.53171 489.72437
500.0 0.002000 478.31958 488.98459
524.0 0.001908 478.10770 488.58499
486.0 0.002058 477.89612 488.45477
474.0 0.002110 477.68475 488.57736
487.0 0.002053 477.47366 488.96530
501.0 0.001996 477.26279 489.65744
509.0 0.001965 477.05215 490.73346
508.0 0.001969 476.84186 492.36731
543.0 0.001842 476.63171 494.98398
479.0 0.002088 476.42188 499.63034
513.0 0.001949 476.21225 508.66934
524.0 0.001908 476.00281 526.59088
611.0 0.001637 475.79373 560.11438
698.0 0.001433 475.58481 616.24915
840.0 0.001190 475.37619 697.50616
929.0 0.001076 475.16776 796.06769
1112.0 0.000899 474.95959 889.96381
1111.0 0.000900 474.75165 947.60718
1184.0 0.000845 474.54395 949.43738
1155.0 0.000866 474.33649 910.33038
1056.0 0.000947 474.12921 861.38593
934.0 0.001071 473.92221 818.53931
833.0 0.001200 473.71548 776.94110
761.0 0.001314 473.50894 725.62085
745.0 0.001342 473.30264 665.69824
673.0 0.001486 473.09656 607.82080
619.0 0.001616 472.89069 560.67023
532.0 0.001880 472.68512 527.47461
502.0 0.001992 472.47971 506.87247
502.0 0.001992 472.27454 495.22443
484.0 0.002066 472.06961 488.83813
512.0 0.001953 471.86487 485.14160
467.0 0.002141 471.66040 482.72672
471.0 0.002123 471.45612 480.94327
474.0 0.002110 471.25211 479.51764
532.0 0.001880 471.04828 478.32806
554.0 0.001805 470.84464 477.31168
484.0 0.002066 470.64130 476.42877
451.0 0.002217 470.43808 475.65088
454.0 0.002203 470.23520 474.95755
506.0 0.001976 470.03241 474.33246
458.0 0.002183 469.82990 473.76361
484.0 0.002066 469.62762 473.24146
525.0 0.001905 469.42551 472.75809
460.0 0.002174 469.22369 472.30774
495.0 0.002020 469.02200 471.88516
447.0 0.002237 468.82059 471.48651
480.0 0.002083 468.61935 471.10846
456.0 0.002193 468.41827 470.57925
488.0 0.002049 468.21753 470.23969
470.0 0.002128 468.01688 469.91342
459.0 0.002179 467.81650 469.59885
477.0 0.002096 467.61630 469.29468
461.0 0.002169 467.41632 468.91589
469.0 0.002132 467.21652 468.63159
483.0 0.002070 467.01697 468.35446
467.0 0.002141 466.81757 468.08368
467.0 0.002141 466.61838 467.81879
458.0 0.002183 466.41940 467.55905
500.0 0.002000 466.22064 467.30402
479.0 0.002088 466.02206 467.05325
458.0 0.002183 465.82364 466.80634
469.0 0.002132 465.62549 466.56308
476.0 0.002101 465.42746 466.32294
457.0 0.002188 465.22971 466.08585
480.0 0.002083 465.03204 465.85141
396.0 0.002525 464.83459 465.61948
436.0 0.002294 464.63742 465.40305
473.0 0.002114 464.44034 465.17603
437.0 0.002288 464.24350 464.95111
480.0 0.002083 464.04681 464.72794
479.0 0.002088 463.85028 464.50656
447.0 0.002237 463.65402 464.29330
421.0 0.002375 463.45786 464.07526
456.0 0.002193 463.26196 463.85876
463.0 0.002160 463.06613 463.64352
475.0 0.002105 462.87054 463.42960
468.0 0.002137 462.67514 463.21692
474.0 0.002110 462.47986 463.00531
464.0 0.002155 462.28482 462.79486
434.0 0.002304 462.08987 462.29150
456.0 0.002193 461.89517 462.09216
439.0 0.002278 461.70059 461.89331
407.0 0.002457 461.50616 461.69495
444.0 0.002252 461.31195 461.49713
455.0 0.002198 461.11786 461.15363
457.0 0.002188 460.92392 460.96127
442.0 0.002262 460.73013 460.76920
452.0 0.002212 460.53656 460.57739
451.0 0.002217 460.34311 460.38589
434.0 0.002304 460.14981 460.19467
492.0 0.002033 459.95660 460.00375
453.0 0.002208 459.76364 459.81317
468.0 0.002137 459.57077 459.62289
489.0 0.002045 459.37808 459.43301
445.0 0.002247 459.18552 459.24347
423.0 0.002364 458.99304 459.05426
460.0 0.002174 458.80078 458.86563
440.0 0.002273 458.60861 458.67813
458.0 0.002183 458.41663 458.49045
466.0 0.002146 458.22473 458.30325
440.0 0.002273 458.03293 458.11664
444.0 0.002252 457.84137 457.93082
438.0 0.002283 457.64981 457.74557
451.0 0.002217 457.45850 457.56165
431.0 0.002320 457.26721 457.37823
432.0 0.002315 457.07605 457.19589
412.0 0.002427 456.88507 457.01474
459.0 0.002179 456.69412 456.83502
437.0 0.002288 456.50339 456.65686
445.0 0.002247 456.31268 456.48068
451.0 0.002217 456.12210 456.30673
417.0 0.002398 455.93164 456.13553
449.0 0.002227 455.74130 455.96756
445.0 0.002247 455.55103 455.80365
418.0 0.002392 455.36087 455.64471
498.0 0.002008 455.17081 455.49213
402.0 0.002488 454.98083 455.34750
461.0 0.002169 454.79095 455.21362
455.0 0.002198 454.60120 455.09497
441.0 0.002268 454.41150 455.00095
445.0 0.002247 454.22183 454.95407
464.0 0.002155 454.03235 455.00766
435.0 0.002299 453.84286 455.27551
436.0 0.002294 453.65347 455.95963
376.0 0.002660 453.46417 457.34015
422.0 0.002370 453.27493 459.67401
497.0 0.002012 453.08578 462.99890
476.0 0.002101 452.89667 466.92456
450.0 0.002222 452.70767 470.51230
458.0 0.002183 452.51868 472.46301
450.0 0.002222 452.32971 472.07855
471.0 0.002123 452.14090 470.13370
481.0 0.002079 451.95206 467.91797
491.0 0.002037 451.76337 466.08456
457.0 0.002188 451.57462 464.44019
441.0 0.002268 451.38593 462.42459
460.0 0.002174 451.19736 459.93045
441.0 0.002268 451.00876 457.35263
432.0 0.002315 450.82025 455.09338
464.0 0.002155 450.63171 453.35699
422.0 0.002370 450.44327 452.15442
459.0 0.002179 450.25482 451.36978
464.0 0.002155 450.06641 450.85303
460.0 0.002174 449.87802 450.48346
430.0 0.002326 449.68964 450.18677
456.0 0.002193 449.50128 450.14093
432.0 0.002315 449.31296 449.90594
489.0 0.002045 449.12466 449.68320
459.0 0.002179 448.93634 449.46939
431.0 0.002320 448.74805 449.26285
429.0 0.002331 448.55975 449.16788
452.0 0.002212 448.37149 448.97751
521.0 0.001919 448.18317 448.79529
466.0 0.002146 447.99490 448.62585
465.0 0.002151 447.80661 448.47836
458.0 0.002183 447.61829 448.36685
485.0 0.002062 447.43002 448.30637
503.0 0.001988 447.24167 448.30359
495.0 0.002020 447.05338 448.34583
497.0 0.002012 446.86499 448.39172
547.0 0.001828 446.67661 448.37421
486.0 0.002058 446.48825 448.23535
530.0 0.001887 446.29980 447.98944
578.0 0.001730 446.11142 447.70660
542.0 0.001845 445.92291 447.43951
449.0 0.002227 445.73438 447.19516
456.0 0.002193 445.54590 446.94583
492.0 0.002033 445.35727 446.66998
471.0 0.002123 445.16870 446.38007
459.0 0.002179 444.98001 446.10071
444.0 0.002252 444.79135 445.84891
439.0 0.002278 444.60260 445.63040
444.0 0.002252 444.41379 445.44208
469.0 0.002132 444.22498 445.27670
443.0 0.002257 444.03607 445.12683
417.0 0.002398 443.84711 445.29910
454.0 0.002203 443.65811 445.17862
435.0 0.002299 443.46906 445.06619
449.0 0.002227 443.27994 444.96210
434.0 0.002304 443.09076 444.86703
436.0 0.002294 442.90146 444.93396
444.0 0.002252 442.71216 444.86490
440.0 0.002273 442.52277 444.80887
450.0 0.002222 442.33331 444.76761
443.0 0.002257 442.14377 444.74335
433.0 0.002309 441.95413 444.73877
461.0 0.002169 441.76447 444.75720
465.0 0.002151 441.57468 444.80258
439.0 0.002278 441.38486 444.88004
409.0 0.002445 441.19492 444.99564
436.0 0.002294 441.00485 445.33200
422.0 0.002370 440.81479 445.55560
452.0 0.002212 440.62457 445.83554
442.0 0.002262 440.43433 446.21545
448.0 0.002232 440.24393 446.70480
450.0 0.002222 440.05344 447.33615
450.0 0.002222 439.86292 448.24872
485.0 0.002062 439.67221 449.36127
449.0 0.002227 439.48151 450.99139
459.0 0.002179 439.29062 453.65225
437.0 0.002288 439.09967 458.49899
449.0 0.002227 438.90863 467.76068
481.0 0.002079 438.71744 484.96625
529.0 0.001890 438.52621 514.28357
496.0 0.002016 438.33481 558.53870
623.0 0.001605 438.14334 616.18463
733.0 0.001364 437.95175 678.73633
820.0 0.001220 437.76007 730.16510
788.0 0.001269 437.56827 752.19482
730.0 0.001370 437.37637 740.55017
776.0 0.001289 437.18430 710.73694
754.0 0.001326 436.99219 680.57764
706.0 0.001416 436.79993 657.23358
618.0 0.001618 436.60757 636.31647
528.0 0.001894 436.41510 609.34100
605.0 0.001653 436.22247 575.01752
544.0 0.001838 436.02982 539.20850
494.0 0.002024 435.83694 507.83472
501.0 0.001996 435.64404 484.09106
461.0 0.002169 435.45096 468.33185
438.0 0.002283 435.25775 459.02805
515.0 0.001942 435.06448 454.03381
449.0 0.002227 434.87103 451.53723
447.0 0.002237 434.67755 450.39056
458.0 0.002183 434.48386 450.01022
438.0 0.002283 434.29004 450.16104
460.0 0.002174 434.09619 450.80322
462.0 0.002165 433.90213 452.05002
481.0 0.002079 433.70804 454.26218
474.0 0.002110 433.51376 458.33505
490.0 0.002041 433.31934 466.20718
450.0 0.002222 433.12488 481.42880
501.0 0.001996 432.93024 509.24454
502.0 0.001992 432.73557 555.23267
617.0 0.001621 432.54068 622.17480
724.0 0.001381 432.34570 705.89172
818.0 0.001222 432.15063 792.22388
808.0 0.001238 431.95541 857.29572
866.0 0.001155 431.76010 877.90662
849.0 0.001178 431.56464 854.40167
865.0 0.001156 431.36908 811.10138
772.0 0.001295 431.17343 770.74139
701.0 0.001427 430.97766 740.41669
680.0 0.001471 430.78177 712.34241
695.0 0.001439 430.58575 675.51056
590.0 0.001695 430.38962 630.39203
559.0 0.001789 430.19342 587.06952
512.0 0.001953 429.99704 556.01294
476.0 0.002101 429.80063 544.48474
509.0 0.001965 429.60406 555.20599
581.0 0.001721 429.40738 585.52692
603.0 0.001658 429.21066 627.08887
699.0 0.001431 429.01376 666.24573
729.0 0.001372 428.81683 686.99377
761.0 0.001314 428.61972 681.59204
748.0 0.001337 428.42255 658.66437
679.0 0.001473 428.22531 632.73450
645.0 0.001550 428.02792 611.95190
588.0 0.001701 427.83054 595.32391
574.0 0.001742 427.63297 576.16895
569.0 0.001757 427.43530 550.69910
525.0 0.001905 427.23761 521.92218
506.0 0.001976 427.03979 494.83603
482.0 0.002075 426.84195 472.85281
474.0 0.002110 426.64392 457.13071
489.0 0.002045 426.44589 447.03110
430.0 0.002326 426.24777 441.00519
418.0 0.002392 426.04959 437.47302
396.0 0.002525 425.85132 435.28986
449.0 0.002227 425.65295 433.78726
439.0 0.002278 425.45453 432.63422
449.0 0.002227 425.25607 431.46921
393.0 0.002545 425.05753 430.65433
445.0 0.002247 424.85895 429.93619
434.0 0.002304 424.66031 429.29349
443.0 0.002257 424.46155 428.71140
426.0 0.002347 424.26282 428.07181
416.0 0.002404 424.06400 427.58386
421.0 0.002375 423.86514 427.13022
409.0 0.002445 423.66623 426.70544
397.0 0.002519 423.46729 426.30524
415.0 0.002410 423.26834 425.92615
422.0 0.002370 423.06931 425.56519
422.0 0.002370 422.87030 425.22025
438.0 0.002283 422.67117 424.88904
454.0 0.002203 422.47208 424.57013
447.0 0.002237 422.27298 424.26208
415.0 0.002410 422.07382 423.96368
439.0 0.002278 421.87473 423.67410
392.0 0.002551 421.67554 423.39224
431.0 0.002320 421.47635 423.11765
408.0 0.002451 421.27722 422.84967
389.0 0.002571 421.07800 422.58783
395.0 0.002532 420.87891 422.33182
424.0 0.002358 420.67972 422.12756
426.0 0.002347 420.48056 421.88385
412.0 0.002427 420.28143 421.64551
430.0 0.002326 420.08231 421.41235
432.0 0.002315 419.88324 421.18500
414.0 0.002415 419.68414 420.96341
428.0 0.002336 419.48514 420.77151
459.0 0.002179 419.28613 420.26208
394.0 0.002538 419.08719 420.07449
410.0 0.002439 418.88828 419.90045
398.0 0.002513 418.68942 419.75018
396.0 0.002525 418.49057 419.64636
455.0 0.002198 418.29184 419.48227
381.0 0.002625 418.09314 419.65222
379.0 0.002639 417.89450 420.11356
429.0 0.002331 417.69595 420.98590
426.0 0.002347 417.49744 422.32483
436.0 0.002294 417.29907 424.03638
439.0 0.002278 417.10071 425.81628
462.0 0.002165 416.90250 427.15317
423.0 0.002364 416.70432 427.53958
446.0 0.002242 416.50626 426.91241
410.0 0.002439 416.30835 425.56833
435.0 0.002299 416.11047 424.39380
439.0 0.002278 415.91278 423.44495
409.0 0.002445 415.71512 422.61783
408.0 0.002451 415.51761 421.64999
425.0 0.002353 415.32028 420.43231
421.0 0.002375 415.12299 419.01035
424.0 0.002358 414.92593 417.75314
433.0 0.002309 414.72894 416.70145
441.0 0.002268 414.53210 415.89938
422.0 0.002370 414.33545 415.32166
384.0 0.002604 414.13892 414.90823
417.0 0.002398 413.94260 414.59781
444.0 0.002252 413.74637 414.34488
426.0 0.002347 413.55035 414.12256
403.0 0.002481 413.35452 413.91718
402.0 0.002488 413.15887 413.72284
448.0 0.002232 412.96338 413.53693
430.0 0.002326 412.76810 413.35864
429.0 0.002331 412.57300 413.18784
404.0 0.002475 412.37811 413.02472
397.0 0.002519 412.18344 412.86978
391.0 0.002558 411.98898 412.72412
402.0 0.002488 411.79474 412.58884
408.0 0.002451 411.60068 412.46591
417.0 0.002398 411.40692 412.35776
387.0 0.002584 411.21332 412.26749
388.0 0.002577 411.02005 412.19974
411.0 0.002433 410.82693 412.16116
433.0 0.002309 410.63406 412.16287
385.0 0.002597 410.44153 412.22733
393.0 0.002545 410.24918 412.40479
415.0 0.002410 410.05719 412.80920
383.0 0.002611 409.86539 413.67862
425.0 0.002353 409.67386 415.44308
422.0 0.002370 409.48270 418.74161
429.0 0.002331 409.29172 424.29437
422.0 0.002370 409.10114 432.56107
427.0 0.002342 408.91077 443.24313
466.0 0.002146 408.72073 454.91177
474.0 0.002110 408.53104 464.86655
461.0 0.002169 408.34161 469.85580
429.0 0.002331 408.15259 468.50763
480.0 0.002083 407.96381 462.99582
469.0 0.002132 407.77539 456.71069
432.0 0.002315 407.58731 451.67972
413.0 0.002421 407.39960 447.89111
424.0 0.002358 407.21222 443.85776
392.0 0.002551 407.02515 438.31805
434.0 0.002304 406.83850 431.58130
411.0 0.002433 406.65219 424.79996
383.0 0.002611 406.46625 418.93216
390.0 0.002564 406.28073 414.45517
393.0 0.002545 406.09555 411.38208
407.0 0.002457 405.91074 409.43176
390.0 0.002564 405.72638 408.23260
438.0 0.002283 405.54236 407.46951
381.0 0.002625 405.35876 406.93600
426.0 0.002347 405.17560 406.51886
431.0 0.002320 404.99283 406.16318
410.0 0.002439 404.81052 405.84119
428.0 0.002336 404.62857 405.54349
364.0 0.002747 404.44711 405.26929
418.0 0.002392 404.26605 405.00989
413.0 0.002421 404.08542 404.76263
429.0 0.002331 403.90530 404.52539
361.0 0.002770 403.72559 404.29480
375.0 0.002667 403.54639 404.07095
410.0 0.002439 403.36758 403.85522
376.0 0.002660 403.18924 403.64465
409.0 0.002445 403.01144 403.43875
386.0 0.002591 402.83405 403.23679
381.0 0.002625 402.65723 403.03857
380.0 0.002632 402.48080 402.84351
422.0 0.002370 402.30493 402.65158
431.0 0.002320 402.12955 402.46240
382.0 0.002618 401.95468 402.27594
396.0 0.002525 401.78030 402.09201
387.0 0.002584 401.60641 402.08423
361.0 0.002770 401.43311 401.91092
408.0 0.002451 401.26028 401.74033
418.0 0.002392 401.08801 401.57275
390.0 0.002564 400.91629 401.40823
385.0 0.002597 400.74509 401.24704
403.0 0.002481 400.57440 401.08957
402.0 0.002488 400.40433 401.02487
364.0 0.002747 400.23474 400.87949
388.0 0.002577 400.06577 400.74026
406.0 0.002463 399.89734 400.60931
366.0 0.002732 399.72946 400.49054
413.0 0.002421 399.56219 400.39322
400.0 0.002500 399.39548 400.33746
386.0 0.002591 399.22940 400.36349
401.0 0.002494 399.06381 400.54031
421.0 0.002375 398.89883 400.96500
394.0 0.002538 398.73453 401.73828
396.0 0.002525 398.57074 402.91235
415.0 0.002410 398.40762 404.42255
399.0 0.002506 398.24509 406.03763
417.0 0.002398 398.08313 407.34985
430.0 0.002326 397.92184 407.89743
421.0 0.002375 397.76117 407.52307
401.0 0.002494 397.60114 406.56775
395.0 0.002532 397.44168 405.52167
420.0 0.002381 397.28290 404.62869
394.0 0.002538 397.12473 403.98544
388.0 0.002577 396.96719 403.32999
416.0 0.002404 396.81036 402.46146
409.0 0.002445 396.65411 401.39905
457.0 0.002188 396.49857 400.30548
390.0 0.002564 396.34366 399.30713
406.0 0.002463 396.18942 398.53287
365.0 0.002740 396.03583 397.97400
402.0 0.002488 395.88293 397.59714
417.0 0.002398 395.73065 397.35068
433.0 0.002309 395.57910 397.18723
364.0 0.002747 395.42822 397.07440
425.0 0.002353 395.27802 396.99411
412.0 0.002427 395.12848 396.93848
392.0 0.002551 394.97961 396.90497
414.0 0.002415 394.83151 396.89432
394.0 0.002538 394.68402 396.90875
396.0 0.002525 394.53732 396.95166
374.0 0.002674 394.39124 397.02774
410.0 0.002439 394.24585 397.14334
404.0 0.002475 394.10126 397.30640
393.0 0.002545 393.95728 397.52765
402.0 0.002488 393.81409 397.82138
400.0 0.002500 393.67157 398.20868
437.0 0.002288 393.52975 398.72314
419.0 0.002387 393.38870 399.42941
396.0 0.002525 393.24832 400.46786
410.0 0.002439 393.10873 402.15033
393.0 0.002545 392.96982 405.13150
419.0 0.002387 392.83163 410.62402
418.0 0.002392 392.69421 420.52490
466.0 0.002146 392.55746 437.37570
454.0 0.002203 392.42154 462.81787
542.0 0.001845 392.28629 497.26797
589.0 0.001698 392.15176 537.76721
637.0 0.001570 392.01804 577.33228
648.0 0.001543 391.88501 605.56366
682.0 0.001466 391.75275 613.43066
667.0 0.001499 391.62125 601.48291
666.0 0.001502 391.49045 580.06903
555.0 0.001802 391.36041 559.49054
574.0 0.001742 391.23117 544.35583
515.0 0.001942 391.10266 532.95154
540.0 0.001852 390.97488 519.71240
518.0 0.001931 390.84784 500.95471
475.0 0.002105 390.72162 478.21527
492.0 0.002033 390.59610 455.36957
390.0 0.002564 390.47141 435.58749
421.0 0.002375 390.34741 420.45020
397.0 0.002519 390.22415 410.06445
416.0 0.002404 390.10172 403.54938
411.0 0.002433 389.98001 399.68777
418.0 0.002392 389.85910 397.41638
412.0 0.002427 389.73892 396.00629
402.0 0.002488 389.61951 395.04208
427.0 0.002342 389.50089 394.31522
412.0 0.002427 389.38300 393.72815
377.0 0.002653 389.26590 393.23776
433.0 0.002309 389.14954 392.80820
433.0 0.002309 389.03394 392.44208
426.0 0.002347 388.91916 392.12201
387.0 0.002584 388.80508 391.84061
441.0 0.002268 388.69183 391.59244
404.0 0.002475 388.57932 391.37314
385.0 0.002597 388.46756 391.17740
396.0 0.002525 388.35657 391.00784
430.0 0.002326 388.24634 390.86026
390.0 0.002564 388.13690 390.73373
357.0 0.002801 388.02820 390.62766
372.0 0.002688 387.92026 390.54218
395.0 0.002532 387.81311 390.47794
405.0 0.002469 387.70670 390.43594
405.0 0.002469 387.60107 390.41791
379.0 0.002639 387.49619 390.42630
391.0 0.002558 387.39206 390.46429
393.0 0.002545 387.28873 390.53632
412.0 0.002427 387.18610 390.64786
373.0 0.002681 387.08426 390.80637
396.0 0.002525 386.98318 391.02170
389.0 0.002571 386.88284 391.30713
406.0 0.002463 386.78326 391.68188
417.0 0.002398 386.68442 392.17773
410.0 0.002439 386.58636 392.85532
396.0 0.002525 386.48901 393.84598
404.0 0.002475 386.39243 395.43753
392.0 0.002551 386.29660 398.22382
407.0 0.002457 386.20151 403.29648
402.0 0.002488 386.10718 412.35202
432.0 0.002315 386.01355 427.51770
437.0 0.002288 385.92065 450.63657
504.0 0.001984 385.82855 482.07330
490.0 0.002041 385.73712 519.47522
582.0 0.001718 385.64648 556.93463
579.0 0.001727 385.55652 585.33618
552.0 0.001812 385.46732 595.78979
564.0 0.001773 385.37885 587.17816
534.0 0.001873 385.29108 567.83838
570.0 0.001754 385.20404 547.74725
519.0 0.001927 385.11771 532.42761
481.0 0.002079 385.03207 521.68884
487.0 0.002053 384.94717 510.80643
510.0 0.001961 384.86301 495.55093
451.0 0.002217 384.77951 475.55902
449.0 0.002227 384.69675 454.01672
424.0 0.002358 384.61469 434.23618
391.0 0.002558 384.53329 418.26892
433.0 0.002309 384.45261 406.65475
400.0 0.002500 384.37262 399.10571
394.0 0.002538 384.29333 394.50589
372.0 0.002688 384.21469 391.79904
364.0 0.002747 384.13678 390.17804
428.0 0.002336 384.05951 389.14133
391.0 0.002558 383.98297 388.42783
384.0 0.002604 383.90704 387.92361
453.0 0.002208 383.83179 387.59271
397.0 0.002519 383.75723 387.43121
392.0 0.002551 383.68329 387.43579
409.0 0.002445 383.61008 387.57956
389.0 0.002571 383.53745 387.79617
376.0 0.002660 383.46548 387.97522
379.0 0.002639 383.39420 387.98492
414.0 0.002415 383.32352 387.75354
409.0 0.002445 383.25351 387.34250
363.0 0.002755 383.18411 386.88416
367.0 0.002725 383.11536 386.47922
395.0 0.002532 383.04721 386.15720
379.0 0.002639 382.97968 385.94983
411.0 0.002433 382.91281 385.64777
375.0 0.002667 382.84650 385.28348
349.0 0.002865 382.78082 384.88107
414.0 0.002415 382.71576 384.48642
391.0 0.002558 382.65128 384.13492
380.0 0.002632 382.58740 383.84424
370.0 0.002703 382.52411 383.65027
381.0 0.002625 382.46140 383.47256
388.0 0.002577 382.39929 383.33115
427.0 0.002342 382.33774 383.21292
350.0 0.002857 382.27676 383.10889
414.0 0.002415 382.21637 383.01367
339.0 0.002950 382.15649 382.92441
349.0 0.002865 382.09723 382.83963
388.0 0.002577 382.03848 382.75861
387.0 0.002584 381.98032 382.68091
398.0 0.002513 381.92264 382.60623
342.0 0.002924 381.86554 382.53442
368.0 0.002717 381.80896 382.46521
385.0 0.002597 381.75290 382.39847
379.0 0.002639 381.69739 382.33429
378.0 0.002646 381.64236 382.27243
432.0 0.002315 381.58783 382.21286
410.0 0.002439 381.53384 382.15555
426.0 0.002347 381.48035 382.10056
417.0 0.002398 381.42734 382.04785
385.0 0.002597 381.37482 381.99744
371.0 0.002695 381.32278 381.94940
362.0 0.002762 381.27124 381.90384
385.0 0.002597 381.22015 381.86084
401.0 0.002494 381.16956 381.64902
431.0 0.002320 381.11942 381.61682
369.0 0.002710 381.06970 381.58734
363.0 0.002755 381.02048 381.56107
386.0 0.002591 380.97168 381.53806
363.0 0.002755 380.92331 381.51880
384.0 0.002604 380.87540 381.41718
383.0 0.002611 380.82788 381.40942
390.0 0.002564 380.78082 381.40680
397.0 0.002519 380.73416 381.41019
390.0 0.002564 380.68793 381.42044
367.0 0.002725 380.64206 381.43863
402.0 0.002488 380.59662 381.46625
404.0 0.002475 380.55157 381.50507
437.0 0.002288 380.50690 381.55713
398.0 0.002513 380.46265 381.62531
361.0 0.002770 380.41873 381.71317
363.0 0.002755 380.37518 381.82550
337.0 0.002967 380.33200 381.96915
389.0 0.002571 380.28918 382.15479
332.0 0.003012 380.24670 382.40274
371.0 0.002695 380.20459 382.75510
380.0 0.002632 380.16281 383.30264
364.0 0.002747 380.12137 384.23169
366.0 0.002732 380.08023 385.88794
373.0 0.002681 380.03946 388.82434
399.0 0.002506 379.99896 393.77234
392.0 0.002551 379.95877 401.46280
409.0 0.002445 379.91891 412.24884
416.0 0.002404 379.87930 425.68332
433.0 0.002309 379.84003 440.15735
456.0 0.002193 379.80103 452.83810
410.0 0.002439 379.76230 460.22687
443.0 0.002257 379.72385 460.27240
458.0 0.002183 379.68564 454.47134
408.0 0.002451 379.64771 446.50964
458.0 0.002183 379.61005 439.44983
451.0 0.002217 379.57263 434.49994
449.0 0.002227 379.53543 430.94958
402.0 0.002488 379.49847 426.90173
450.0 0.002222 379.46176 420.94281
393.0 0.002545 379.42526 413.32184
416.0 0.002404 379.38898 405.27213
421.0 0.002375 379.35291 397.94962
432.0 0.002315 379.31702 392.04489
376.0 0.002660 379.28137 387.76263
404.0 0.002475 379.24588 384.92493
412.0 0.002427 379.21057 383.16824
377.0 0.002653 379.17548 382.11487
394.0 0.002538 379.14053 381.47079
376.0 0.002660 379.10577 381.04883
377.0 0.002653 379.07114 380.74927
354.0 0.002825 379.03668 380.50986
355.0 0.002817 379.00238 380.31094
346.0 0.002890 378.96823 380.14005
375.0 0.002667 378.93420 379.99042
416.0 0.002404 378.90030 379.85757
376.0 0.002660 378.86652 379.73859
372.0 0.002688 378.83289 379.63348
381.0 0.002625 378.79935 379.53513
348.0 0.002874 378.76593 379.44470
380.0 0.002632 378.73257 379.36093
419.0 0.002387 378.69934 379.28290
396.0 0.002525 378.66620 379.20981
394.0 0.002538 378.63315 379.14093
390.0 0.002564 378.60016 379.07568
347.0 0.002882 378.56726 379.01376
390.0 0.002564 378.53439 378.95456
384.0 0.002604 378.50162 378.89792
353.0 0.002833 378.46890 378.84348
391.0 0.002558 378.43622 378.79099
351.0 0.002849 378.40356 378.74020
387.0 0.002584 378.37097 378.69101
379.0 0.002639 378.33841 378.64322
390.0 0.002564 378.30585 378.59671
385.0 0.002597 378.27332 378.55124
386.0 0.002591 378.24081 378.50690
385.0 0.002597 378.20831 378.46344
403.0 0.002481 378.17581 378.42090
392.0 0.002551 378.14331 378.37909
363.0 0.002755 378.11081 378.33795
362.0 0.002762 378.07828 378.29745
388.0 0.002577 378.04572 378.25763
355.0 0.002817 378.01318 378.21832
374.0 0.002674 377.98056 378.17950
382.0 0.002618 377.94794 378.14120
392.0 0.002551 377.91528 378.10327
388.0 0.002577 377.88257 378.06580
363.0 0.002755 377.84979 378.02881
402.0 0.002488 377.81699 378.02710
371.0 0.002695 377.78412 377.99173
380.0 0.002632 377.75116 377.95667
364.0 0.002747 377.71814 377.92200
356.0 0.002809 377.68506 377.88776
391.0 0.002558 377.65186 377.85382
358.0 0.002793 377.61862 377.74875
389.0 0.002571 377.58527 377.71777
380.0 0.002632 377.55182 377.70505
379.0 0.002639 377.51828 377.67526
380.0 0.002632 377.48462 377.64584
373.0 0.002681 377.45087 377.61685
374.0 0.002674 377.41699 377.58838
390.0 0.002564 377.38300 377.56564
381.0 0.002625 377.34888 377.54056
396.0 0.002525 377.31464 377.51617
341.0 0.002933 377.28024 377.49265
350.0 0.002857 377.24573 377.47025
364.0 0.002747 377.21106 377.44894
403.0 0.002481 377.17627 377.42917
390.0 0.002564 377.14130 377.43124
383.0 0.002611 377.10620 377.41595
380.0 0.002632 377.07092 377.40338
389.0 0.002571 377.03549 377.39438
347.0 0.002882 376.99991 377.39005
395.0 0.002532 376.96414 377.39267
387.0 0.002584 376.92819 377.40698
383.0 0.002611 376.89206 377.44287
382.0 0.002618 376.85574 377.51999
375.0 0.002667 376.81924 377.67395
357.0 0.002801 376.78256 377.96112
360.0 0.002778 376.74570 378.45544
379.0 0.002639 376.70862 379.23203
398.0 0.002513 376.67133 380.33221
362.0 0.002762 376.63385 381.72141
370.0 0.002703 376.59616 383.25516
395.0 0.002532 376.55826 384.66443
360.0 0.002778 376.52011 385.59662
384.0 0.002604 376.48178 385.78192
393.0 0.002545 376.44321 385.27356
368.0 0.002717 376.40442 384.41458
395.0 0.002532 376.36542 383.56479
387.0 0.002584 376.32614 382.92447
386.0 0.002591 376.28665 382.49869
386.0 0.002591 376.24692 382.13147
372.0 0.002688 376.20697 381.62396
352.0 0.002841 376.16675 380.90167
342.0 0.002924 376.12628 380.04684
383.0 0.002611 376.08557 379.19293
379.0 0.002639 376.04462 378.44498
355.0 0.002817 376.00339 377.85870
375.0 0.002667 375.96194 377.44327
402.0 0.002488 375.92020 377.17441
367.0 0.002725 375.87820 377.06238
359.0 0.002786 375.83594 376.98218
388.0 0.002577 375.79340 376.94144
396.0 0.002525 375.75061 376.92957
390.0 0.002564 375.70752 376.93829
352.0 0.002841 375.66415 376.96439
379.0 0.002639 375.62054 377.00763
406.0 0.002463 375.57663 377.09348
393.0 0.002545 375.53244 377.18152
376.0 0.002660 375.48795 377.29443
374.0 0.002674 375.44321 377.44534
393.0 0.002545 375.39816 377.65424
325.0 0.003077 375.35281 377.96365
368.0 0.002717 375.30722 378.45926
391.0 0.002558 375.26129 379.30353
383.0 0.002611 375.21509 380.76862
409.0 0.002445 375.16858 383.24414
355.0 0.002817 375.12177 387.18427
368.0 0.002717 375.07468 392.95392
370.0 0.002703 375.02728 400.60672
390.0 0.002564 374.97958 409.64594
385.0 0.002597 374.93158 418.88257
380.0 0.002632 374.88327 426.47134
394.0 0.002538 374.83466 430.40353
401.0 0.002494 374.78574 429.85794
392.0 0.002551 374.73651 426.13776
380.0 0.002632 374.68701 421.54858
418.0 0.002392 374.63715 418.10886
379.0 0.002639 374.58701 416.88052
373.0 0.002681 374.53656 417.95676
399.0 0.002506 374.48578 420.71860
387.0 0.002584 374.43472 424.48508
431.0 0.002320 374.38333 429.06976
420.0 0.002381 374.33163 434.38333
467.0 0.002141 374.27960 439.61026
451.0 0.002217 374.22726 443.06915
433.0 0.002309 374.17465 442.88461
465.0 0.002151 374.12167 438.63135
438.0 0.002283 374.06842 431.95776
444.0 0.002252 374.01483 425.16064
399.0 0.002506 373.96094 419.80084
420.0 0.002381 373.90674 416.25800
427.0 0.002342 373.85220 413.78357
437.0 0.002288 373.79736 410.98468
400.0 0.002500 373.74222 406.83588
425.0 0.002353 373.68674 401.42474
408.0 0.002451 373.63095 395.55634
342.0 0.002924 373.57486 390.04758
398.0 0.002513 373.51846 385.44312
350.0 0.002857 373.46173 381.96024
351.0 0.002849 373.40469 379.54761
384.0 0.002604 373.34738 377.99139
397.0 0.002519 373.28970 377.03244
384.0 0.002604 373.23175 376.44864
387.0 0.002584 373.17346 376.08356
386.0 0.002591 373.11490 375.84381
385.0 0.002597 373.05600 375.67953
369.0 0.002710 372.99680 375.56689
373.0 0.002681 372.93732 375.49570
377.0 0.002653 372.87750 375.46280
364.0 0.002747 372.81738 375.46286
405.0 0.002469 372.75699 375.51175
389.0 0.002571 372.69623 375.61295
392.0 0.002551 372.63522 375.78668
364.0 0.002747 372.57391 376.07660
353.0 0.002833 372.51227 376.57367
363.0 0.002755 372.45038 377.45535
399.0 0.002506 372.38815 379.03098
370.0 0.002703 372.32568 381.78290
393.0 0.002545 372.26288 386.32166
367.0 0.002725 372.19977 393.24960
392.0 0.002551 372.13641 402.88858
473.0 0.002114 372.07275 414.95850
481.0 0.002079 372.00882 428.29208
485.0 0.002062 371.94458 440.75134
470.0 0.002128 371.88007 449.46567
527.0 0.001898 371.81528 452.05536
508.0 0.001969 371.75018 448.54660
532.0 0.001880 371.68484 441.50446
465.0 0.002151 371.61920 434.01172
477.0 0.002096 371.55331 428.08524
475.0 0.002105 371.48715 424.20569
436.0 0.002294 371.42072 421.43085
392.0 0.002551 371.35400 418.06473
431.0 0.002320 371.28705 412.92621
387.0 0.002584 371.21979 406.18982
409.0 0.002445 371.15231 398.87482
401.0 0.002494 371.08456 392.00842
380.0 0.002632 371.01657 386.28784
412.0 0.002427 370.94830 382.01544
396.0 0.002525 370.87979 379.18277
394.0 0.002538 370.81104 377.61728
377.0 0.002653 370.74203 377.15012
348.0 0.002874 370.67282 377.73486
387.0 0.002584 370.60333 379.47510
373.0 0.002681 370.53360 382.55420
390.0 0.002564 370.46365 387.08298
412.0 0.002427 370.39346 392.91800
441.0 0.002268 370.32303 399.49933
458.0 0.002183 370.25238 405.75616
474.0 0.002110 370.18152 410.32944
500.0 0.002000 370.11044 411.89575
493.0 0.002028 370.03912 410.28574
477.0 0.002096 369.96762 406.68759
500.0 0.002000 369.89587 402.68857
470.0 0.002128 369.82394 399.40503
447.0 0.002237 369.75177 397.17938
404.0 0.002475 369.67941 395.67255
410.0 0.002439 369.60687 394.02817
402.0 0.002488 369.53412 391.53708
414.0 0.002415 369.46118 388.15091
372.0 0.002688 369.38803 384.29813
370.0 0.002703 369.31470 380.60141
364.0 0.002747 369.24121 377.40833
367.0 0.002725 369.16751 374.90601
411.0 0.002433 369.09363 373.10187
347.0 0.002882 369.01959 371.88373
369.0 0.002710 368.94537 371.09113
364.0 0.002747 368.87097 370.57446
393.0 0.002545 368.79645 370.20071
369.0 0.002710 368.72171 369.93881
360.0 0.002778 368.64685 369.72742
385.0 0.002597 368.57181 369.54538
354.0 0.002825 368.49664 369.38174
371.0 0.002695 368.42130 369.23129
364.0 0.002747 368.34579 369.09094
394.0 0.002538 368.27020 368.95874
367.0 0.002725 368.19443 368.83310
376.0 0.002660 368.11856 368.71310
342.0 0.002924 368.04254 368.60049
380.0 0.002632 367.96637 368.48914
372.0 0.002688 367.89011 368.38126
369.0 0.002710 367.81369 368.27621
356.0 0.002809 367.73718 368.17383
364.0 0.002747 367.66055 368.07358
342.0 0.002924 367.58380 367.97531
370.0 0.002703 367.50696 367.87872
361.0 0.002770 367.42999 367.78488
347.0 0.002882 367.35297 367.69122
347.0 0.002882 367.27582 367.59863
397.0 0.002519 367.19858 367.50864
383.0 0.002611 367.12125 367.41818
385.0 0.002597 367.04382 367.32852
353.0 0.002833 366.96634 367.23962
375.0 0.002667 366.88873 367.15140
329.0 0.003040 366.81110 367.06381
337.0 0.002967 366.73337 366.97687
330.0 0.003030 366.65558 366.89120
348.0 0.002874 366.57773 366.80524
413.0 0.002421 366.49982 366.71973
322.0 0.003106 366.42181 366.63467
386.0 0.002591 366.34378 366.50195
380.0 0.002632 366.26572 366.41284
382.0 0.002618 366.18759 366.33020
346.0 0.002890 366.10941 366.24786
363.0 0.002755 366.03119 366.16574
343.0 0.002915 365.95294 366.08386
351.0 0.002849 365.87466 366.00214
362.0 0.002762 365.79636 365.92081
347.0 0.002882 365.71799 365.81299
342.0 0.002924 365.63962 365.73267
391.0 0.002558 365.56128 365.65259
387.0 0.002584 365.48285 365.57260
366.0 0.002732 365.40445 365.49286
386.0 0.002591 365.32605 365.41321
352.0 0.002841 365.24759 365.33380
394.0 0.002538 365.16919 365.25461
333.0 0.003003 365.09076 365.17554
377.0 0.002653 365.01236 365.09677
334.0 0.002994 364.93393 365.01813
390.0 0.002564 364.85553 364.93982
360.0 0.002778 364.77713 364.86169
399.0 0.002506 364.69876 364.78397
367.0 0.002725 364.62042 364.70654
373.0 0.002681 364.54208 364.62955
364.0 0.002747 364.46381 364.55289
372.0 0.002688 364.38553 364.44855
358.0 0.002793 364.30731 364.37390
350.0 0.002857 364.22910 364.30020
340.0 0.002941 364.15094 364.22818
373.0 0.002681 364.07281 364.15881
366.0 0.002732 363.99478 364.09427
352.0 0.002841 363.91675 364.03735
368.0 0.002717 363.83878 363.99210
357.0 0.002801 363.76086 363.94861
408.0 0.002451 363.68301 363.93750
335.0 0.002985 363.60522 363.94394
350.0 0.002857 363.52747 363.96219
347.0 0.002882 363.44983 363.98056
365.0 0.002740 363.37222 363.98209
352.0 0.002841 363.29468 363.94965
345.0 0.002899 363.21725 363.87692
324.0 0.003086 363.13986 363.77615
369.0 0.002710 363.06259 363.67050
379.0 0.002639 362.98538 363.58258
377.0 0.002653 362.90823 363.53107
395.0 0.002532 362.83121 363.53146
340.0 0.002941 362.75427 363.59821
351.0 0.002849 362.67743 363.74701
345.0 0.002899 362.60068 363.99506
355.0 0.002817 362.52402 364.35233
353.0 0.002833 362.44745 364.80447
372.0 0.002688 362.37097 365.31335
356.0 0.002809 362.29465 365.75784
339.0 0.002950 362.21838 366.03198
339.0 0.002950 362.14224 366.04590
387.0 0.002584 362.06622 365.81705
366.0 0.002732 361.99033 365.46783
376.0 0.002660 361.91452 365.14258
371.0 0.002695 361.83884 364.94281
348.0 0.002874 361.76328 364.91141
380.0 0.002632 361.68784 365.00037
383.0 0.002611 361.61252 365.12558
371.0 0.002695 361.53732 365.18192
367.0 0.002725 361.46228 365.09659
376.0 0.002660 361.38733 364.86667
377.0 0.002653 361.31253 364.45786
394.0 0.002538 361.23785 363.95850
370.0 0.002703 361.16333 363.46271
405.0 0.002469 361.08890 363.04010
372.0 0.002688 361.01462 362.71985
353.0 0.002833 360.94049 362.49170
363.0 0.002755 360.86652 362.31540
374.0 0.002674 360.79266 362.15268
393.0 0.002545 360.71893 361.94455
361.0 0.002770 360.64536 361.70044
338.0 0.002959 360.57196 361.44254
348.0 0.002874 360.49866 361.19360
361.0 0.002770 360.42554 360.97034
367.0 0.002725 360.35254 360.78033
338.0 0.002959 360.27972 360.62378
395.0 0.002532 360.20703 360.49557
345.0 0.002899 360.13449 360.38861
343.0 0.002915 360.06213 360.29581
401.0 0.002494 359.98987 360.21198
357.0 0.002801 359.91779 360.13339
357.0 0.002801 359.84586 360.05829
326.0 0.003067 359.77411 359.98529
323.0 0.003096 359.70248 359.91400
362.0 0.002762 359.63101 359.84406
385.0 0.002597 359.55969 359.77536
350.0 0.002857 359.48853 359.70779
335.0 0.002985 359.41754 359.64139
352.0 0.002841 359.34668 359.57599
361.0 0.002770 359.27600 359.51175
380.0 0.002632 359.20544 359.44867
370.0 0.002703 359.13510 359.38669
340.0 0.002941 359.06485 359.32587
326.0 0.003067 358.99481 359.26648
324.0 0.003086 358.92487 359.20834
333.0 0.003003 358.85510 359.15179
370.0 0.002703 358.78552 359.09686
383.0 0.002611 358.71606 359.04370
375.0 0.002667 358.64679 358.99255
380.0 0.002632 358.57764 358.94363
362.0 0.002762 358.50864 358.89725
353.0 0.002833 358.43982 358.85376
327.0 0.003058 358.37112 358.81345
369.0 0.002710 358.30261 358.77695
377.0 0.002653 358.23422 358.74496
333.0 0.003003 358.16599 358.71811
345.0 0.002899 358.09793 358.69745
348.0 0.002874 358.03000 358.68454
346.0 0.002890 357.96222 358.68158
334.0 0.002994 357.89456 358.69241
392.0 0.002551 357.82709 358.72650
366.0 0.002732 357.75974 358.79388
369.0 0.002710 357.69254 358.92523
326.0 0.003067 357.62546 359.16855
339.0 0.002950 357.55853 359.60123
351.0 0.002849 357.49176 360.33057
384.0 0.002604 357.42508 361.48035
361.0 0.002770 357.35858 363.15778
377.0 0.002653 357.29221 365.40106
352.0 0.002841 357.22595 368.12143
402.0 0.002488 357.15982 371.06509
422.0 0.002370 357.09384 373.79990
381.0 0.002625 357.02795 375.77335
375.0 0.002667 356.96225 376.52866
398.0 0.002513 356.89661 376.06281
406.0 0.002463 356.83112 374.90323
396.0 0.002525 356.76575 373.79675
372.0 0.002688 356.70050 373.38831
405.0 0.002469 356.63535 374.11194
360.0 0.002778 356.57028 376.14291
384.0 0.002604 356.50537 379.37607
383.0 0.002611 356.44055 383.47583
390.0 0.002564 356.37585 388.00339
407.0 0.002457 356.31122 392.42529
378.0 0.002646 356.24670 395.99585
398.0 0.002513 356.18228 397.78073
382.0 0.002618 356.11798 397.15125
383.0 0.002611 356.05374 394.36606
431.0 0.002320 355.98956 390.44400
378.0 0.002646 355.92554 386.51978
388.0 0.002577 355.86154 383.37482
387.0 0.002584 355.79767 381.25946
353.0 0.002833 355.73383 379.89679
374.0 0.002674 355.67010 378.64218
380.0 0.002632 355.60641 376.84494
365.0 0.002740 355.54279 374.26468
377.0 0.002653 355.47925 371.13538
368.0 0.002717 355.41577 367.82959
359.0 0.002786 355.35233 364.76257
333.0 0.003003 355.28897 362.14890
334.0 0.002994 355.22562 360.11139
358.0 0.002793 355.16235 358.63171
352.0 0.002841 355.09912 357.61404
385.0 0.002597 355.03592 356.93610
314.0 0.003185 354.97275 356.49307
346.0 0.002890 354.90961 356.18048
355.0 0.002817 354.84653 355.95831
361.0 0.002770 354.78345 355.77454
366.0 0.002732 354.72040 355.65543
341.0 0.002933 354.65735 355.51819
334.0 0.002994 354.59430 355.39377
391.0 0.002558 354.53131 355.27887
358.0 0.002793 354.46826 355.17157
320.0 0.003125 354.40527 355.07089
371.0 0.002695 354.34222 354.97577
337.0 0.002967 354.27921 354.88535
350.0 0.002857 354.21619 354.81726
366.0 0.002732 354.15311 354.73550
337.0 0.002967 354.09003 354.65723
360.0 0.002778 354.02692 354.58228
321.0 0.003115 353.96378 354.51065
349.0 0.002865 353.90060 354.44217
339.0 0.002950 353.83740 354.37766
367.0 0.002725 353.77417 354.31799
319.0 0.003135 353.71085 354.26553
329.0 0.003040 353.64749 354.22455
371.0 0.002695 353.58408 354.20279
364.0 0.002747 353.52060 354.21173
336.0 0.002976 353.45706 354.26666
353.0 0.002833 353.39346 354.38422
353.0 0.002833 353.32974 354.57727
355.0 0.002817 353.26599 354.84741
354.0 0.002825 353.20212 355.17822
360.0 0.002778 353.13818 355.53036
383.0 0.002611 353.07413 355.84091
356.0 0.002809 353.00998 356.03275
368.0 0.002717 352.94571 356.04617
388.0 0.002577 352.88135 355.88400
385.0 0.002597 352.81686 355.61374
346.0 0.002890 352.75226 355.32022
338.0 0.002959 352.68753 355.06711
345.0 0.002899 352.62268 354.88184
375.0 0.002667 352.55768 354.75562
347.0 0.002882 352.49252 354.64969
356.0 0.002809 352.42725 354.51648
351.0 0.002849 352.36179 354.33057
348.0 0.002874 352.29620 354.09671
361.0 0.002770 352.23044 353.84537
348.0 0.002874 352.16449 353.59134
342.0 0.002924 352.09839 353.38419
328.0 0.003049 352.03210 353.22040
337.0 0.002967 351.96564 353.10223
342.0 0.002924 351.89896 353.02551
367.0 0.002725 351.83212 352.98361
348.0 0.002874 351.76505 352.97098
319.0 0.003135 351.69778 352.98151
352.0 0.002841 351.63031 353.00763
352.0 0.002841 351.56259 353.06604
321.0 0.003115 351.49469 353.15720
341.0 0.002933 351.42654 353.29800
345.0 0.002899 351.35815 353.52130
351.0 0.002849 351.28955 353.86139
360.0 0.002778 351.22067 354.47525
364.0 0.002747 351.15158 355.49203
349.0 0.002865 351.08221 357.13443
332.0 0.003012 351.01257 359.64908
355.0 0.002817 350.94269 363.25894
328.0 0.003049 350.87250 368.07013
318.0 0.003145 350.80206 373.99252
363.0 0.002755 350.73132 380.51495
362.0 0.002762 350.66031 386.91013
383.0 0.002611 350.58899 392.11945
376.0 0.002660 350.51740 395.19162
385.0 0.002597 350.44550 395.77206
387.0 0.002584 350.37323 394.40765
364.0 0.002747 350.30069 392.35864
398.0 0.002513 350.22781 391.04929
397.0 0.002519 350.15463 391.55396
377.0 0.002653 350.08112 394.24399
393.0 0.002545 350.00723 398.79254
395.0 0.002532 349.93301 404.19736
440.0 0.002273 349.85849 409.09833
437.0 0.002288 349.78357 412.07364
446.0 0.002242 349.70831 412.02557
419.0 0.002387 349.63266 408.61978
444.0 0.002252 349.55664 402.66855
452.0 0.002212 349.48029 395.74054
414.0 0.002415 349.40350 389.32166
384.0 0.002604 349.32635 384.33072
442.0 0.002262 349.24881 381.00372
398.0 0.002513 349.17087 378.94357
411.0 0.002433 349.09253 377.33517
435.0 0.002299 349.01379 375.30209
422.0 0.002370 348.93463 372.40106
357.0 0.002801 348.85504 368.77768
338.0 0.002959 348.77502 364.88309
364.0 0.002747 348.69464 361.16412
362.0 0.002762 348.61377 357.93381
353.0 0.002833 348.53247 355.34933
351.0 0.002849 348.45071 353.42154
388.0 0.002577 348.36856 352.06351
346.0 0.002890 348.28589 351.14127
318.0 0.003145 348.20282 350.51987
352.0 0.002841 348.11923 350.09042
364.0 0.002747 348.03519 349.77637
345.0 0.002899 347.95071 349.53030
360.0 0.002778 347.86572 349.32526
366.0 0.002732 347.78027 349.14706
372.0 0.002688 347.69431 348.98883
341.0 0.002933 347.60788 348.84839
340.0 0.002941 347.52094 348.72653
341.0 0.002933 347.43353 348.62564
370.0 0.002703 347.34558 348.55762
398.0 0.002513 347.25711 348.53137
343.0 0.002915 347.16818 348.55969
308.0 0.003247 347.07867 348.65295
364.0 0.002747 346.98871 348.81427
337.0 0.002967 346.89816 349.03378
352.0 0.002841 346.80713 349.28406
356.0 0.002809 346.71552 349.51953
345.0 0.002899 346.62338 349.67914
384.0 0.002604 346.53070 349.70920
380.0 0.002632 346.43747 349.59204
368.0 0.002717 346.34372 349.36688
384.0 0.002604 346.24939 349.10217
376.0 0.002660 346.15448 348.85953
356.0 0.002809 346.05905 348.67572
349.0 0.002865 345.96304 348.55933
369.0 0.002710 345.86649 348.49326
353.0 0.002833 345.76932 348.44528
361.0 0.002770 345.67157 348.44684
330.0 0.003030 345.57327 348.39197
339.0 0.002950 345.47437 348.38519
341.0 0.002933 345.37491 348.51425
356.0 0.002809 345.27481 348.90637
361.0 0.002770 345.17413 349.73560
379.0 0.002639 345.07291 351.21817
378.0 0.002646 344.97104 353.58698
363.0 0.002755 344.86859 357.05466
362.0 0.002762 344.76550 361.61884
380.0 0.002632 344.66180 367.12796
384.0 0.002604 344.55756 373.10483
432.0 0.002315 344.45264 378.75787
407.0 0.002457 344.34717 383.04340
418.0 0.002392 344.24100 384.98969
409.0 0.002445 344.13425 384.28937
466.0 0.002146 344.02689 381.61887
431.0 0.002320 343.91885 378.18088
413.0 0.002421 343.81027 375.14749
401.0 0.002494 343.70099 373.20419
421.0 0.002375 343.59106 372.60339
395.0 0.002532 343.48056 373.04202
353.0 0.002833 343.36938 373.84772
412.0 0.002427 343.25763 374.25226
419.0 0.002387 343.14517 373.76190
404.0 0.002475 343.03207 372.24246
394.0 0.002538 342.91837 369.77896
379.0 0.002639 342.80399 366.55380
376.0 0.002660 342.68900 362.98569
351.0 0.002849 342.57333 359.52432
383.0 0.002611 342.45703 356.63605
377.0 0.002653 342.34006 354.47089
348.0 0.002874 342.22244 353.01367
366.0 0.002732 342.10422 352.08884
359.0 0.002786 341.98529 351.41495
346.0 0.002890 341.86575 350.69925
341.0 0.002933 341.74551 349.77060
360.0 0.002778 341.62466 348.59882
385.0 0.002597 341.50314 347.33948
349.0 0.002865 341.38098 346.10318
324.0 0.003086 341.25812 344.98987
345.0 0.002899 341.13461 344.05692
357.0 0.002801 341.01047 343.31934
326.0 0.003067 340.88565 342.76035
333.0 0.003003 340.76022 342.34518
317.0 0.003155 340.63409 342.03799
357.0 0.002801 340.50732 341.79861
340.0 0.002941 340.37988 341.60477
318.0 0.003145 340.25183 341.43982
345.0 0.002899 340.12308 341.29395
362.0 0.002762 339.99365 341.16177
320.0 0.003125 339.86365 341.04123
339.0 0.002950 339.73291 340.93109
307.0 0.003257 339.60159 340.83130
323.0 0.003096 339.46957 340.74246
352.0 0.002841 339.33691 340.66547
345.0 0.002899 339.20364 340.60196
328.0 0.003049 339.06967 340.55383
308.0 0.003247 338.93509 340.52441
303.0 0.003300 338.79984 340.51846
333.0 0.003003 338.66394 340.54462
350.0 0.002857 338.52744 340.61847
311.0 0.003215 338.39026 340.77039
334.0 0.002994 338.25247 341.05740
329.0 0.003040 338.11401 341.58112
338.0 0.002959 337.97491 342.50882
340.0 0.002941 337.83524 344.08853
328.0 0.003049 337.69489 346.64362
330.0 0.003030 337.55396 350.53235
338.0 0.002959 337.41235 356.04712
362.0 0.002762 337.27011 363.28104
343.0 0.002915 337.12732 371.98355
381.0 0.002625 336.98383 381.46210
378.0 0.002646 336.83981 390.53088
387.0 0.002584 336.69510 397.61343
425.0 0.002353 336.54980 401.14285
357.0 0.002801 336.40396 400.43799
402.0 0.002488 336.25745 396.28436
392.0 0.002551 336.11038 390.42993
378.0 0.002646 335.96268 384.60422
372.0 0.002688 335.81436 379.96280
355.0 0.002817 335.66553 376.91840
336.0 0.002976 335.51605 375.16998
318.0 0.003145 335.36606 373.81204
351.0 0.002849 335.21542 371.79709
372.0 0.002688 335.06421 368.46957
356.0 0.002809 334.91248 363.91089
347.0 0.002882 334.76013 358.68890
353.0 0.002833 334.60727 353.44955
363.0 0.002755 334.45380 348.69205
339.0 0.002950 334.29980 344.68420
347.0 0.002882 334.14529 341.60208
302.0 0.003311 333.99017 339.34085
361.0 0.002770 333.83459 337.75903
359.0 0.002786 333.67841 336.67725
367.0 0.002725 333.52173 335.93344
378.0 0.002646 333.36450 335.40289
345.0 0.002899 333.20682 335.00171
337.0 0.002967 333.04855 334.66357
355.0 0.002817 332.88977 334.39780
332.0 0.003012 332.73053 334.17978
332.0 0.003012 332.57077 334.01553
326.0 0.003067 332.41055 333.91132
349.0 0.002865 332.24979 333.91733
333.0 0.003003 332.08859 334.07257
311.0 0.003215 331.92688 334.37607
317.0 0.003155 331.76474 334.85873
345.0 0.002899 331.60208 335.50964
330.0 0.003030 331.43900 336.27536
336.0 0.002976 331.27548 337.05515
343.0 0.002915 331.11145 337.70261
351.0 0.002849 330.94708 338.04572
303.0 0.003300 330.78220 337.97888
304.0 0.003289 330.61694 337.52063
354.0 0.002825 330.45120 336.80093
322.0 0.003106 330.28506 336.01157
357.0 0.002801 330.11856 335.29980
357.0 0.002801 329.95160 334.74258
339.0 0.002950 329.78433 334.34302
317.0 0.003155 329.61661 334.03778
345.0 0.002899 329.44849 333.72281
314.0 0.003185 329.28006 333.30252
336.0 0.002976 329.11118 332.74338
350.0 0.002857 328.94205 332.08081
328.0 0.003049 328.77246 331.37921
350.0 0.002857 328.60257 330.69907
318.0 0.003145 328.43237 330.08322
279.0 0.00358 328.26181 329.55344
341.0 0.002933 328.09097 329.11362
325.0 0.003077 327.91974 328.75372
322.0 0.003106 327.74823 328.45715
275.0 0.00364 327.57648 328.20636
305.0 0.003279 327.40436 327.98605
335.0 0.002985 327.23203 327.78528
318.0 0.003145 327.05936 327.59656
319.0 0.003135 326.88641 327.41599
311.0 0.003215 326.71329 327.24118
320.0 0.003125 326.53983 327.07101
300.0 0.003333 326.36618 326.90530
307.0 0.003257 326.19226 326.74396
346.0 0.002890 326.01810 326.58752
319.0 0.003135 325.84378 326.43692
330.0 0.003030 325.66919 326.29340
326.0 0.003067 325.49448 326.16010
316.0 0.003165 325.31946 326.04221
321.0 0.003115 325.14429 325.95023
323.0 0.003096 324.96899 325.90262
332.0 0.003012 324.79349 325.93018
309.0 0.003236 324.61789 326.08029
332.0 0.003012 324.44205 326.41739
314.0 0.003185 324.26605 327.01746
312.0 0.003205 324.09003 327.89673
340.0 0.002941 323.91379 329.21240
309.0 0.003236 323.73752 330.89142
295.0 0.003390 323.56107 332.83450
349.0 0.002865 323.38455 334.84067
346.0 0.002890 323.20792 336.60953
339.0 0.002950 323.03119 337.78430
317.0 0.003155 322.85443 338.07697
310.0 0.003226 322.67758 337.45633
354.0 0.002825 322.50073 336.16251
322.0 0.003106 322.32376 334.65073
361.0 0.002770 322.14682 333.23904
340.0 0.002941 321.96982 332.13760
338.0 0.002959 321.79282 331.39801
365.0 0.002740 321.61578 330.92429
340.0 0.002941 321.43872 330.51099
339.0 0.002950 321.26175 329.92975
308.0 0.003247 321.08472 329.04999
322.0 0.003106 320.90781 327.89835
317.0 0.003155 320.73087 326.60141
344.0 0.002907 320.55402 325.30026
265.0 0.00377 320.37717 324.10498
343.0 0.002915 320.20044 323.08435
326.0 0.003067 320.02374 322.26364
308.0 0.003247 319.84711 321.63522
323.0 0.003096 319.67065 321.17038
318.0 0.003145 319.49423 320.83368
315.0 0.003175 319.31796 320.59439
326.0 0.003067 319.14175 320.43405
328.0 0.003049 318.96570 320.35138
301.0 0.003322 318.78986 320.36707
333.0 0.003003 318.61407 320.52875
304.0 0.003289 318.43854 320.91516
357.0 0.002801 318.26306 321.63593
331.0 0.003021 318.08780 322.81998
314.0 0.003185 317.91278 324.58856
319.0 0.003135 317.73792 327.00879
362.0 0.002762 317.56329 330.06479
326.0 0.003067 317.38882 333.58102
375.0 0.002667 317.21460 337.21616
356.0 0.002809 317.04065 340.46133
341.0 0.002933 316.86688 342.70990
378.0 0.002646 316.69345 343.46429
379.0 0.002639 316.52020 342.64157
360.0 0.002778 316.34723 340.65375
346.0 0.002890 316.17459 338.15625
360.0 0.002778 316.00220 335.75903
320.0 0.003125 315.83014 333.85318
323.0 0.003096 315.65836 332.56830
311.0 0.003215 315.48685 331.77948
321.0 0.003115 315.31577 331.16263
330.0 0.003030 315.14493 330.32501
366.0 0.002732 314.97452 329.00327
336.0 0.002976 314.80438 327.18622
318.0 0.003145 314.63461 325.05658
330.0 0.003030 314.46530 322.85275
318.0 0.003145 314.29630 320.77802
311.0 0.003215 314.12772 318.96976
299.0 0.003344 313.95950 317.49078
337.0 0.002967 313.79169 316.34210
291.0 0.003436 313.62433 315.48138
292.0 0.003425 313.45734 314.84546
350.0 0.002857 313.29086 314.37054
303.0 0.003300 313.12476 314.00238
325.0 0.003077 312.95911 313.70123
318.0 0.003145 312.79395 313.44073
337.0 0.002967 312.62921 313.20477
330.0 0.003030 312.46503 312.98428
329.0 0.003040 312.30124 312.77383
317.0 0.003155 312.13803 312.57095
309.0 0.003236 311.97525 312.37381
301.0 0.003322 311.81302 312.18140
326.0 0.003067 311.65128 311.99307
326.0 0.003067 311.49002 311.80807
325.0 0.003077 311.32941 311.62634
284.0 0.00352 311.16925 311.44730
314.0 0.003185 311.00970 311.27075
349.0 0.002865 310.85062 311.09653
324.0 0.003086 310.69220 310.92465
319.0 0.003135 310.53430 310.75494
286.0 0.003497 310.37701 310.58755
315.0 0.003175 310.22028 310.42688
324.0 0.003086 310.06415 310.25238
300.0 0.003333 309.90863 310.09311
299.0 0.003344 309.75369 309.93637
325.0 0.003077 309.59943 309.78180
312.0 0.003205 309.44574 309.62866
317.0 0.003155 309.29272 309.47617
303.0 0.003300 309.14032 309.32294
294.0 0.003401 308.98853 309.16800
319.0 0.003135 308.83746 309.01108
304.0 0.003289 308.68701 308.85477
314.0 0.003185 308.53729 308.69028
304.0 0.003289 308.38818 308.53278
301.0 0.003322 308.23972 308.37714
297.0 0.003367 308.09204 308.22369
329.0 0.003040 307.94498 308.07227
325.0 0.003077 307.79868 307.92224
322.0 0.003106 307.65305 307.77295
326.0 0.003067 307.50809 307.62366
324.0 0.003086 307.36392 307.47433
343.0 0.002915 307.22046 307.32501
316.0 0.003165 307.07776 307.17636
308.0 0.003247 306.93573 307.02863
326.0 0.003067 306.79446 306.88220
316.0 0.003165 306.65399 306.73727
337.0 0.002967 306.51422 306.59387
328.0 0.003049 306.37524 306.45197
314.0 0.003185 306.23703 306.31137
311.0 0.003215 306.09955 306.17200
306.0 0.003268 305.96292 306.03384
291.0 0.003436 305.82700 305.89676
312.0 0.003205 305.69193 305.76053
342.0 0.002924 305.55759 305.62527
297.0 0.003367 305.42407 305.49091
312.0 0.003205 305.29138 305.35754
320.0 0.003125 305.15945 305.22504
325.0 0.003077 305.02841 305.09344
318.0 0.003145 304.89810 304.96286
315.0 0.003175 304.76865 304.83307
317.0 0.003155 304.64005 304.70438
288.0 0.003472 304.51224 304.57642
298.0 0.003356 304.38528 304.44949
294.0 0.003401 304.25916 304.32355
274.0 0.00365 304.13385 304.19846
310.0 0.003226 304.00943 304.07437
298.0 0.003356 303.88583 303.95123
273.0 0.00366 303.76312 303.82913
296.0 0.003378 303.64120 303.70795
308.0 0.003247 303.52023 303.58777
299.0 0.003344 303.40005 303.46863
313.0 0.003195 303.28076 303.33377
274.0 0.00365 303.16235 303.21701
306.0 0.003268 303.04480 303.10004
307.0 0.003257 302.92816 302.98544
281.0 0.00356 302.81235 302.87170
319.0 0.003135 302.69745 302.75934
307.0 0.003257 302.58344 302.64795
295.0 0.003390 302.47031 302.53775
290.0 0.003448 302.35803 302.42877
324.0 0.003086 302.24667 302.31256
277.0 0.00361 302.13623 302.20624
321.0 0.003115 302.02667 302.10049
336.0 0.002976 301.91803 301.99683
302.0 0.003311 301.81024 301.89456
300.0 0.003333 301.70340 301.79382
315.0 0.003175 301.59741 301.69464
301.0 0.003322 301.49237 301.59729
326.0 0.003067 301.38821 301.50162
330.0 0.003030 301.28497 301.40802
268.0 0.00373 301.18265 301.31662
308.0 0.003247 301.08121 301.22763
290.0 0.003448 300.98071 301.14154
285.0 0.00351 300.88110 301.05875
287.0 0.003484 300.78241 300.98004
328.0 0.003049 300.68466 300.90689
300.0 0.003333 300.58777 300.84183
283.0 0.00353 300.49185 300.78970
302.0 0.003311 300.39679 300.75861
279.0 0.00358 300.30267 300.76215
271.0 0.00369 300.20950 300.82098
304.0 0.003289 300.11719 300.96387
299.0 0.003344 300.02585 301.22589
301.0 0.003322 299.93539 301.64362
309.0 0.003236 299.84586 302.24551
311.0 0.003215 299.75723 303.03931
307.0 0.003257 299.66953 303.99982
333.0 0.003003 299.58273 305.05844
321.0 0.003115 299.49686 306.10019
325.0 0.003077 299.41187 306.96805
302.0 0.003311 299.32782 307.49149
302.0 0.003311 299.24466 307.55420
302.0 0.003311 299.16245 307.16904
279.0 0.00358 299.08112 306.47791
317.0 0.003155 299.00067 305.67303
284.0 0.00352 298.92117 304.92139
309.0 0.003236 298.84256 304.32730
291.0 0.003436 298.76486 303.92465
305.0 0.003279 298.68802 303.67789
306.0 0.003268 298.61209 303.49728
315.0 0.003175 298.53711 303.26880
306.0 0.003268 298.46298 302.90402
320.0 0.003125 298.38977 302.38245
284.0 0.00352 298.31741 301.74652
308.0 0.003247 298.24594 301.06491
290.0 0.003448 298.17538 300.40125
330.0 0.003030 298.10568 299.80206
288.0 0.003472 298.03690 299.29410
274.0 0.00365 297.96896 298.88480
289.0 0.003460 297.90189 298.56744
301.0 0.003322 297.83572 298.32645
317.0 0.003155 297.77042 298.14337
314.0 0.003185 297.70596 298.00101
340.0 0.002941 297.64236 297.88565
295.0 0.003390 297.57965 297.78745
287.0 0.003484 297.51776 297.70007
298.0 0.003356 297.45676 297.61954
272.0 0.00368 297.39658 297.54364
292.0 0.003425 297.33725 297.47321
292.0 0.003425 297.27875 297.40353
304.0 0.003289 297.22107 297.33612
295.0 0.003390 297.16428 297.27075
271.0 0.00369 297.10828 297.20715
273.0 0.00366 297.05310 297.14517
300.0 0.003333 296.99875 297.08481
286.0 0.003497 296.94522 297.02585
269.0 0.00372 296.89249 296.96817
293.0 0.003413 296.84055 296.91196
301.0 0.003322 296.78943 296.85782
294.0 0.003401 296.73911 296.80396
305.0 0.003279 296.68958 296.75116
296.0 0.003378 296.64081 296.69937
304.0 0.003289 296.59286 296.64862
284.0 0.00352 296.54565 296.59891
323.0 0.003096 296.49924 296.55014
302.0 0.003311 296.45358 296.50241
297.0 0.003367 296.40869 296.45557
287.0 0.003484 296.36456 296.40970
336.0 0.002976 296.32114 296.36465
319.0 0.003135 296.27850 296.32047
270.0 0.00370 296.23660 296.27716
281.0 0.00356 296.19540 296.23468
287.0 0.003484 296.15497 296.19308
297.0 0.003367 296.11520 296.15222
296.0 0.003378 296.07620 296.11224
306.0 0.003268 296.03790 296.07300
309.0 0.003236 296.00027 296.03448
320.0 0.003125 295.96338 295.99683
305.0 0.003279 295.92715 295.95990
263.0 0.00380 295.89160 295.92377
284.0 0.00352 295.85675 295.88831
306.0 0.003268 295.82254 295.85355
280.0 0.00357 295.78900 295.81955
299.0 0.003344 295.75613 295.78635
256.0 0.00391 295.72388 295.75369
287.0 0.003484 295.69232 295.72180
288.0 0.003472 295.66135 295.69067
299.0 0.003344 295.63104 295.66016
251.0 0.00398 295.60135 295.63034
325.0 0.003077 295.57227 295.60120
315.0 0.003175 295.54376 295.57266
286.0 0.003497 295.51590 295.54483
288.0 0.003472 295.48862 295.52606
333.0 0.003003 295.46191 295.49973
333.0 0.003003 295.43576 295.47400
290.0 0.003448 295.41022 295.44891
266.0 0.00376 295.38522 295.42453
283.0 0.00353 295.36078 295.40067
277.0 0.00361 295.33688 295.37756
318.0 0.003145 295.31354 295.35501
299.0 0.003344 295.29071 295.33319
276.0 0.00362 295.26840 295.31198
303.0 0.003300 295.24661 295.29132
308.0 0.003247 295.22534 295.27563
288.0 0.003472 295.20456 295.25653
287.0 0.003484 295.18430 295.23801
297.0 0.003367 295.16446 295.22025
286.0 0.003497 295.14514 295.20313
291.0 0.003436 295.12628 295.18686
302.0 0.003311 295.10788 295.17154
295.0 0.003390 295.08990 295.15137
293.0 0.003413 295.07239 295.13867
322.0 0.003106 295.05530 295.12802
313.0 0.003195 295.03864 295.12000
279.0 0.00358 295.02240 295.12009
316.0 0.003165 295.00656 295.12073
280.0 0.00357 294.99112 295.12726
288.0 0.003472 294.97607 295.14359
317.0 0.003155 294.96140 295.16406
305.0 0.003279 294.94708 295.18860
282.0 0.00355 294.93314 295.21878
307.0 0.003257 294.91956 295.25089
315.0 0.003175 294.90631 295.28027
291.0 0.003436 294.89340 295.30316
298.0 0.003356 294.88080 295.31888
308.0 0.003247 294.86856 295.33432
329.0 0.003040 294.85660 295.35571
281.0 0.00356 294.84494 295.40118
296.0 0.003378 294.83359 295.48291
281.0 0.00356 294.82248 295.61630
285.0 0.00351 294.81165 295.81091
293.0 0.003413 294.80112 296.06747
311.0 0.003215 294.79080 296.37625
306.0 0.003268 294.78076 296.71423
330.0 0.003030 294.77094 297.04581
265.0 0.00377 294.76132 297.32529
302.0 0.003311 294.75192 297.50455
287.0 0.003484 294.74277 297.54922
287.0 0.003484 294.73376 297.45901
301.0 0.003322 294.72498 297.27182
285.0 0.00351 294.71637 297.04382
281.0 0.00356 294.70789 296.82678
316.0 0.003165 294.69962 296.65610
330.0 0.003030 294.69147 296.54663
279.0 0.00358 294.68344 296.49280
305.0 0.003279 294.67557 296.47147
307.0 0.003257 294.66779 296.44775
338.0 0.002959 294.66013 296.38779
288.0 0.003472 294.65259 296.27338
312.0 0.003205 294.64511 296.10931
288.0 0.003472 294.63776 295.91544
312.0 0.003205 294.63043 295.71481
284.0 0.00352 294.62317 295.52676
297.0 0.003367 294.61597 295.36404
335.0 0.002985 294.60880 295.23267
284.0 0.00352 294.60168 295.13254
274.0 0.00365 294.59457 295.05936
295.0 0.003390 294.58746 295.00671
328.0 0.003049 294.58035 294.96863
320.0 0.003125 294.57324 294.94101
310.0 0.003226 294.56613 294.92148
317.0 0.003155 294.55896 294.90839
280.0 0.00357 294.55179 294.90152
299.0 0.003344 294.54453 294.90115
305.0 0.003279 294.53723 294.90771
251.0 0.00398 294.52988 294.92239
307.0 0.003257 294.52243 294.94781
298.0 0.003356 294.51489 294.98871
308.0 0.003247 294.50726 295.05328
300.0 0.003333 294.49954 295.15564
282.0 0.00355 294.49167 295.31705
268.0 0.00373 294.48370 295.56760
273.0 0.00366 294.47559 295.94492
281.0 0.00356 294.46732 296.48950
271.0 0.00369 294.45889 297.23743
302.0 0.003311 294.45032 298.20786
297.0 0.003367 294.44156 299.39008
276.0 0.00362 294.43262 300.73111
262.0 0.00382 294.42349 302.13065
318.0 0.003145 294.41412 303.43845
326.0 0.003067 294.40457 304.46771
288.0 0.003472 294.39478 305.03784
301.0 0.003322 294.38477 305.05432
300.0 0.003333 294.37451 304.57303
288.0 0.003472 294.36398 303.77472
271.0 0.00369 294.35321 302.87616
299.0 0.003344 294.34213 302.05795
299.0 0.003344 294.33081 301.43558
290.0 0.003448 294.31918 301.04932
323.0 0.003096 294.30728 300.86899
313.0 0.003195 294.29504 300.80576
312.0 0.003205 294.28247 300.73993
297.0 0.003367 294.26959 300.56863
311.0 0.003215 294.25635 300.25729
301.0 0.003322 294.24280 299.85486
291.0 0.003436 294.22885 299.46146
318.0 0.003145 294.21457 299.19305
309.0 0.003236 294.19989 299.12271
277.0 0.00361 294.18484 299.31302
277.0 0.00361 294.16937 299.77377
308.0 0.003247 294.15353 300.46460
358.0 0.002793 294.13727 301.29456
325.0 0.003077 294.12061 302.12909
313.0 0.003195 294.10345 302.81210
328.0 0.003049 294.08591 303.20743
306.0 0.003268 294.06793 303.25534
295.0 0.003390 294.04947 302.95432
320.0 0.003125 294.03055 302.41086
326.0 0.003067 294.01114 301.73080
346.0 0.002890 293.99127 301.06000
289.0 0.003460 293.97092 300.49933
303.0 0.003300 293.95004 300.09634
297.0 0.003367 293.92868 299.84174
297.0 0.003367 293.90680 299.67700
333.0 0.003003 293.88440 299.51801
313.0 0.003195 293.86148 299.28513
331.0 0.003021 293.83798 298.93436
317.0 0.003155 293.81396 298.44846
275.0 0.00364 293.78940 297.86270
305.0 0.003279 293.76425 297.22162
291.0 0.003436 293.73856 296.58600
277.0 0.00361 293.71225 296.00153
319.0 0.003135 293.68539 295.49780
280.0 0.00357 293.65793 295.08640
302.0 0.003311 293.62985 294.76550
289.0 0.003460 293.60120 294.52307
293.0 0.003413 293.57190 294.33969
284.0 0.00352 293.54199 294.20114
302.0 0.003311 293.51144 294.08997
288.0 0.003472 293.48029 293.99515
264.0 0.00379 293.44846 293.91046
294.0 0.003401 293.41599 293.83295
271.0 0.00369 293.38290 293.76108
276.0 0.00362 293.34912 293.69452
319.0 0.003135 293.31467 293.63260
288.0 0.003472 293.27954 293.57541
291.0 0.003436 293.24374 293.52090
291.0 0.003436 293.20724 293.47086
299.0 0.003344 293.17007 293.42340
323.0 0.003096 293.13220 293.37781
249.0 0.00402 293.09363 293.33353
323.0 0.003096 293.05432 293.29025
284.0 0.00352 293.01431 293.24744
260.0 0.00385 292.97360 293.20526
284.0 0.00352 292.93216 293.16336
313.0 0.003195 292.88998 293.12173
302.0 0.003311 292.84705 293.08038
302.0 0.003311 292.80341 293.03973
281.0 0.00356 292.75900 292.99988
327.0 0.003058 292.71387 292.96149
301.0 0.003322 292.66797 292.92529
324.0 0.003086 292.62131 292.89340
283.0 0.00353 292.57391 292.86536
292.0 0.003425 292.52573 292.84338
242.0 0.00413 292.47678 292.82892
290.0 0.003448 292.42706 292.82254
303.0 0.003300 292.37656 292.82385
310.0 0.003226 292.32532 292.83115
301.0 0.003322 292.27325 292.84076
284.0 0.00352 292.22040 292.84784
310.0 0.003226 292.16681 292.84595
312.0 0.003205 292.11237 292.82880
294.0 0.003401 292.05719 292.79330
289.0 0.003460 292.00119 292.74011
277.0 0.00361 291.94437 292.67596
269.0 0.00372 291.88678 292.60873
289.0 0.003460 291.82840 292.54562
299.0 0.003344 291.76923 292.49200
311.0 0.003215 291.70923 292.45102
252.0 0.00397 291.64841 292.42398
304.0 0.003289 291.58682 292.41156
278.0 0.00360 291.52438 292.40652
313.0 0.003195 291.46118 292.42999
309.0 0.003236 291.39716 292.48438
308.0 0.003247 291.33234 292.58957
277.0 0.00361 291.26669 292.77499
302.0 0.003311 291.20026 293.07690
300.0 0.003333 291.13300 293.53375
295.0 0.003390 291.06494 294.17993
292.0 0.003425 290.99606 295.03586
308.0 0.003247 290.92642 296.09897
304.0 0.003289 290.85593 297.33353
314.0 0.003185 290.78467 298.68274
302.0 0.003311 290.71259 300.04843
297.0 0.003367 290.63971 301.31897
310.0 0.003226 290.56604 302.38382
301.0 0.003322 290.49158 303.21155
316.0 0.003165 290.41632 303.88504
302.0 0.003311 290.34027 304.58615
286.0 0.003497 290.26343 305.50894
306.0 0.003268 290.18579 306.77762
297.0 0.003367 290.10739 308.40030
315.0 0.003175 290.02820 310.24854
301.0 0.003322 289.94824 312.06039
318.0 0.003145 289.86752 313.49448
269.0 0.00372 289.78601 314.19391
310.0 0.003226 289.70377 313.95078
305.0 0.003279 289.62076 312.77460
295.0 0.003390 289.53696 310.91025
316.0 0.003165 289.45245 308.72110
301.0 0.003322 289.36716 306.55969
284.0 0.00352 289.28116 304.68228
302.0 0.003311 289.19443 303.22018
317.0 0.003155 289.10696 302.17245
304.0 0.003289 289.01874 301.43237
292.0 0.003425 288.92984 300.81259
305.0 0.003279 288.84021 300.11621
297.0 0.003367 288.74988 299.21405
301.0 0.003322 288.65887 298.07291
306.0 0.003268 288.56714 296.75208
299.0 0.003344 288.47476 295.35510
282.0 0.00355 288.38168 293.98611
295.0 0.003390 288.28796 292.72839
291.0 0.003436 288.19354 291.63422
315.0 0.003175 288.09848 290.72623
288.0 0.003472 288.00278 290.00153
259.0 0.00386 287.90643 289.43878
273.0 0.00366 287.80948 289.00836
301.0 0.003322 287.71188 288.67804
281.0 0.00356 287.61368 288.41913
312.0 0.003205 287.51492 288.20877
298.0 0.003356 287.41550 288.02991
278.0 0.00360 287.31555 287.87137
306.0 0.003268 287.21500 287.72580
289.0 0.003460 287.11386 287.58914
297.0 0.003367 287.01224 287.45914
302.0 0.003311 286.91000 287.33481
291.0 0.003436 286.80728 287.21622
321.0 0.003115 286.70401 287.10440
291.0 0.003436 286.60025 287.00156
278.0 0.00360 286.49600 286.91623
274.0 0.00365 286.39120 286.84030
303.0 0.003300 286.28601 286.78354
295.0 0.003390 286.18030 286.74915
284.0 0.00352 286.07413 286.73856
282.0 0.00355 285.96756 286.75046
304.0 0.003289 285.86053 286.77960
301.0 0.003322 285.75311 286.81607
312.0 0.003205 285.64523 286.84555
288.0 0.003472 285.53699 286.84958
324.0 0.003086 285.42838 286.80969
271.0 0.00369 285.31937 286.71356
287.0 0.003484 285.21005 286.56525
287.0 0.003484 285.10034 286.37344
290.0 0.003448 284.99030 286.16229
292.0 0.003425 284.87997 285.95193
319.0 0.003135 284.76935 285.75732
302.0 0.003311 284.65845 285.58640
294.0 0.003401 284.54721 285.44016
284.0 0.00352 284.43573 285.31339
301.0 0.003322 284.32404 285.19547
248.0 0.00403 284.21210 285.07312
241.0 0.00415 284.09995 284.93594
294.0 0.003401 283.98758 284.77893
240.0 0.00417 283.87500 284.60507
290.0 0.003448 283.76227 284.42154
283.0 0.00353 283.64935 284.23654
273.0 0.00366 283.53638 284.05783
267.0 0.00375 283.42313 283.89117
287.0 0.003484 283.30988 283.74203
291.0 0.003436 283.19638 283.61465
298.0 0.003356 283.08289 283.51434
282.0 0.00355 282.96939 283.44818
292.0 0.003425 282.85568 283.42487
273.0 0.00366 282.74203 283.45541
283.0 0.00353 282.62823 283.55164
300.0 0.003333 282.51450 283.72263
271.0 0.00369 282.40085 283.97244
286.0 0.003497 282.28705 284.29559
277.0 0.00361 282.17337 284.67267
313.0 0.003195 282.05963 285.07047
271.0 0.00369 281.94601 285.43982
294.0 0.003401 281.83258 285.72000
317.0 0.003155 281.71906 285.85022
282.0 0.00355 281.60571 285.79068
297.0 0.003367 281.49240 285.53809
291.0 0.003436 281.37924 285.15836
278.0 0.00360 281.26639 284.71414
275.0 0.00364 281.15350 284.27075
275.0 0.00364 281.04086 283.87875
282.0 0.00355 280.92834 283.56491
290.0 0.003448 280.81604 283.33408
276.0 0.00362 280.70407 283.16943
288.0 0.003472 280.59216 283.03613
283.0 0.00353 280.48059 282.88297
282.0 0.00355 280.36917 282.68188
285.0 0.00351 280.25809 282.41629
303.0 0.003300 280.14737 282.09329
306.0 0.003268 280.03677 281.73016
271.0 0.00369 279.92657 281.35367
280.0 0.00357 279.81662 280.98611
281.0 0.00356 279.70703 280.64490
279.0 0.00358 279.59790 280.34018
275.0 0.00364 279.48895 280.07501
283.0 0.00353 279.38046 279.84866
266.0 0.00376 279.27228 279.65176
301.0 0.003322 279.16449 279.48322
275.0 0.00364 279.05722 279.33963
245.0 0.00408 278.95023 279.21124
271.0 0.00369 278.84375 279.09415
286.0 0.003497 278.73755 278.98499
264.0 0.00379 278.63193 278.88251
272.0 0.00368 278.52676 278.78607
276.0 0.00362 278.42197 278.69638
299.0 0.003344 278.31772 278.61557
279.0 0.00358 278.21384 278.54776
269.0 0.00372 278.11050 278.49969
256.0 0.00391 278.00775 278.48132
270.0 0.00370 277.90536 278.50696
282.0 0.00355 277.80362 278.59412
242.0 0.00413 277.70224 278.76340
289.0 0.003460 277.60144 279.03415
280.0 0.00357 277.50125 279.42059
273.0 0.00366 277.40149 279.92755
310.0 0.003226 277.30237 280.54123
304.0 0.003289 277.20374 281.22910
290.0 0.003448 277.10562 281.93390
288.0 0.003472 277.00821 282.57645
282.0 0.00355 276.91116 283.06564
282.0 0.00355 276.81485 283.30524
290.0 0.003448 276.71899 283.24673
274.0 0.00365 276.62372 282.90900
304.0 0.003289 276.52914 282.37512
261.0 0.00383 276.43497 281.75250
297.0 0.003367 276.34152 281.14224
276.0 0.00362 276.24857 280.61618
272.0 0.00368 276.15619 280.21481
276.0 0.00362 276.06451 279.94281
262.0 0.00382 275.97330 279.77258
254.0 0.00394 275.88272 279.65198
275.0 0.00364 275.79266 279.51514
284.0 0.00352 275.70322 279.30319
279.0 0.00358 275.61444 278.98663
280.0 0.00357 275.52612 278.57275
258.0 0.00388 275.43845 278.09534
307.0 0.003257 275.35126 277.59381
269.0 0.00372 275.26471 277.10474
263.0 0.00380 275.17877 276.65479
269.0 0.00372 275.09332 276.25903
296.0 0.003378 275.00842 275.92450
271.0 0.00369 274.92407 275.64801
252.0 0.00397 274.84027 275.42163
288.0 0.003472 274.75711 275.23557
264.0 0.00379 274.67435 275.07797
298.0 0.003356 274.59216 274.94040
300.0 0.003333 274.51047 274.81601
265.0 0.00377 274.42929 274.70105
249.0 0.00402 274.34869 274.59326
283.0 0.00353 274.26846 274.49121
280.0 0.00357 274.18878 274.39423
284.0 0.00352 274.10953 274.30142
276.0 0.00362 274.03076 274.21204
274.0 0.00365 273.95251 274.12491
279.0 0.00358 273.87460 274.03897
260.0 0.00385 273.79718 273.95340
277.0 0.00361 273.72012 273.86740
281.0 0.00356 273.64349 273.78088
285.0 0.00351 273.56732 273.69421
282.0 0.00355 273.49142 273.60770
289.0 0.003460 273.41595 273.52188
274.0 0.00365 273.34079 273.43713
266.0 0.00376 273.26599 273.35388
262.0 0.00382 273.19156 273.27209
277.0 0.00361 273.11734 273.18823
280.0 0.00357 273.04349 273.10947
258.0 0.00388 272.96982 273.03183
315.0 0.003175 272.89648 272.95532
290.0 0.003448 272.82343 272.87964
252.0 0.00397 272.75049 272.80450
279.0 0.00358 272.67786 272.73013
277.0 0.00361 272.60535 272.65610
286.0 0.003497 272.53302 272.58255
283.0 0.00353 272.46091 272.50946
310.0 0.003226 272.38885 272.43646
245.0 0.00408 272.31699 272.36200
238.0 0.00420 272.24518 272.28946
282.0 0.00355 272.17346 272.21725
306.0 0.003268 272.10184 272.14526
277.0 0.00361 272.03021 272.07324
245.0 0.00408 271.95868 272.00159
269.0 0.00372 271.88708 271.92990
263.0 0.00380 271.81552 271.85831
270.0 0.00370 271.74396 271.78683
267.0 0.00375 271.67224 271.71542
253.0 0.00395 271.60059 271.64420
283.0 0.00353 271.52875 271.57281
258.0 0.00388 271.45682 271.50150
286.0 0.003497 271.38486 271.43027
275.0 0.00364 271.31265 271.35895
280.0 0.00357 271.24033 271.28760
272.0 0.00368 271.16779 271.21628
313.0 0.003195 271.09503 271.14490
265.0 0.00377 271.02219 271.07361
292.0 0.003425 270.94897 271.00220
255.0 0.00392 270.87555 270.93082
284.0 0.00352 270.80182 270.85931
271.0 0.00369 270.72781 270.78802
285.0 0.00351 270.65359 270.71667
265.0 0.00377 270.57895 270.64545
267.0 0.00375 270.50400 270.57431
294.0 0.003401 270.42865 270.50327
275.0 0.00364 270.35297 270.43268
299.0 0.003344 270.27695 270.36264
288.0 0.003472 270.20047 270.29312
278.0 0.00360 270.12360 270.22488
250.0 0.00400 270.04623 270.16101
254.0 0.00394 269.96848 270.09799
281.0 0.00356 269.89035 270.04041
272.0 0.00368 269.81161 269.99136
258.0 0.00388 269.73248 269.94983
258.0 0.00388 269.65283 269.93427
278.0 0.00360 269.57266 269.94656
271.0 0.00369 269.49213 269.99603
255.0 0.00392 269.41092 270.09161
284.0 0.00352 269.32925 270.23975
263.0 0.00380 269.24701 270.44315
260.0 0.00385 269.16428 270.69809
279.0 0.00358 269.08109 270.98953
257.0 0.00389 268.99722 271.29333
294.0 0.003401 268.91287 271.57645
256.0 0.00391 268.82791 271.79504
260.0 0.00385 268.74243 271.91214
261.0 0.00383 268.65652 271.89468
266.0 0.00376 268.56992 271.74008
287.0 0.003484 268.48285 271.47733
269.0 0.00372 268.39514 271.15262
250.0 0.00400 268.30701 270.81482
313.0 0.003195 268.21832 270.50302
270.0 0.00370 268.12906 270.24243
252.0 0.00397 268.03934 270.04233
272.0 0.00368 267.94901 269.89792
252.0 0.00397 267.85828 269.79111
274.0 0.00365 267.76709 269.69434
264.0 0.00379 267.67532 269.57672
284.0 0.00352 267.58322 269.41455
249.0 0.00402 267.49054 269.19867
276.0 0.00362 267.39749 268.93677
270.0 0.00370 267.30411 268.64597
302.0 0.003311 267.21024 268.34488
266.0 0.00376 267.11609 268.05048
266.0 0.00376 267.02148 267.77435
233.0 0.00429 266.92664 267.52393
291.0 0.003436 266.83157 267.30225
285.0 0.00351 266.73608 267.10745
270.0 0.00370 266.64047 266.93649
257.0 0.00389 266.54456 266.78439
275.0 0.00364 266.44852 266.64682
278.0 0.00360 266.35242 266.51990
267.0 0.00375 266.25604 266.40012
256.0 0.00391 266.15973 266.28592
247.0 0.00405 266.06326 266.17773
263.0 0.00380 265.96686 266.07025
250.0 0.00400 265.87061 265.96515
275.0 0.00364 265.77426 265.86169
283.0 0.00353 265.67813 265.75995
245.0 0.00408 265.58212 265.65955
237.0 0.00422 265.48633 265.56039
290.0 0.003448 265.39090 265.46240
265.0 0.00377 265.29565 265.36520
263.0 0.00380 265.20081 265.26913
274.0 0.00365 265.10635 265.17416
269.0 0.00372 265.01233 265.08035
276.0 0.00362 264.91898 264.98813
256.0 0.00391 264.82602 264.89877
263.0 0.00380 264.73376 264.81070
262.0 0.00382 264.64212 264.72565
265.0 0.00377 264.55124 264.64441
267.0 0.00375 264.46124 264.56784
261.0 0.00383 264.37198 264.49655
277.0 0.00361 264.28369 264.43103
287.0 0.003484 264.19632 264.37097
254.0 0.00394 264.10999 264.31573
279.0 0.00358 264.02484 264.26639
277.0 0.00361 263.94073 264.21536
253.0 0.00395 263.85791 264.16214
255.0 0.00392 263.77631 264.10336
264.0 0.00379 263.69611 264.03564
234.0 0.00427 263.61737 263.95798
301.0 0.003322 263.53998 263.87134
282.0 0.00355 263.46420 263.77930
278.0 0.00360 263.38995 263.68573
256.0 0.00391 263.31741 263.59454
267.0 0.00375 263.24667 263.50867
265.0 0.00377 263.17764 263.42978
233.0 0.00429 263.11047 263.35947
258.0 0.00388 263.04520 263.29483
273.0 0.00366 262.98190 263.23532
257.0 0.00389 262.92068 263.17899
264.0 0.00379 262.86151 263.12320
258.0 0.00388 262.80453 263.06693
264.0 0.00379 262.74969 263.00983
257.0 0.00389 262.69717 262.95331
278.0 0.00360 262.64700 262.89969
259.0 0.00386 262.59912 262.85181
261.0 0.00383 262.55371 262.81329
291.0 0.003436 262.51074 262.78839
262.0 0.00382 262.47028 262.78241
233.0 0.00429 262.43240 262.80194
261.0 0.00383 262.39709 262.85471
225.0 0.00444 262.36444 262.94901
258.0 0.00388 262.33444 263.09326
285.0 0.00351 262.30713 263.29318
288.0 0.003472 262.28259 263.55075
273.0 0.00366 262.26077 263.86246
272.0 0.00368 262.24176 264.21606
246.0 0.00407 262.22556 264.59149
264.0 0.00379 262.21213 264.95963
270.0 0.00370 262.20154 265.28470
272.0 0.00368 262.19379 265.52975
271.0 0.00369 262.18884 265.66620
282.0 0.00355 262.18674 265.68988
252.0 0.00397 262.18747 265.62479
263.0 0.00380 262.19098 265.51474
308.0 0.003247 262.19730 265.40646
239.0 0.00418 262.20639 265.33786
281.0 0.00356 262.21820 265.33090
257.0 0.00389 262.23273 265.39026
263.0 0.00380 262.24988 265.50201
256.0 0.00391 262.26968 265.63678
281.0 0.00356 262.29199 265.75320
254.0 0.00394 262.31686 265.80923
273.0 0.00366 262.34415 265.77466
261.0 0.00383 262.37372 265.64273
251.0 0.00398 262.40564 265.43036
282.0 0.00355 262.43973 265.17014
269.0 0.00372 262.47592 264.89713
260.0 0.00385 262.51410 264.63995
238.0 0.00420 262.55411 264.42416
275.0 0.00364 262.59595 264.25760
241.0 0.00415 262.63940 264.14105
274.0 0.00365 262.68436 264.06592
269.0 0.00372 262.73068 264.01773
247.0 0.00405 262.77817 263.98047
280.0 0.00357 262.82675 263.94125
265.0 0.00377 262.87622 263.89478
260.0 0.00385 262.92639 263.84232
260.0 0.00385 262.97711 263.78885
263.0 0.00380 263.02811 263.74103
268.0 0.00373 263.07932 263.70364
265.0 0.00377 263.13040 263.68484
275.0 0.00364 263.18124 263.68863
295.0 0.003390 263.23157 263.71960
244.0 0.00410 263.28113 263.78262
276.0 0.00362 263.32977 263.88309
263.0 0.00380 263.37714 264.02585
278.0 0.00360 263.42307 264.21606
281.0 0.00356 263.46725 264.45651
282.0 0.00355 263.50943 264.74649
259.0 0.00386 263.54935 265.08087
268.0 0.00373 263.58667 265.44653
282.0 0.00355 263.62122 265.82385
271.0 0.00369 263.65259 266.18466
253.0 0.00395 263.68054 266.49451
293.0 0.003413 263.70477 266.71765
254.0 0.00394 263.72498 266.82526
279.0 0.00358 263.74088 266.80893
277.0 0.00361 263.75211 266.68582
266.0 0.00376 263.75839 266.49164
266.0 0.00376 263.75940 266.26730
270.0 0.00370 263.75482 266.04999
262.0 0.00382 263.74438 265.86703
265.0 0.00377 263.72775 265.73621
254.0 0.00394 263.70465 265.66388
246.0 0.00407 263.67468 265.64713
260.0 0.00385 263.63770 265.67358
283.0 0.00353 263.59326 265.72739
265.0 0.00377 263.54120 265.79126
262.0 0.00382 263.48126 265.85373
244.0 0.00410 263.41302 265.91263
264.0 0.00379 263.33646 265.97412
261.0 0.00383 263.25110 266.04507
251.0 0.00398 263.15692 266.12653
275.0 0.00364 263.05377 266.20941
276.0 0.00362 262.94119 266.27307
274.0 0.00365 262.81934 266.28787
253.0 0.00395 262.68784 266.22028
293.0 0.003413 262.54672 266.04514
286.0 0.003497 262.39609 265.75766
257.0 0.00389 262.23550 265.37759
268.0 0.00373 262.06531 264.94089
255.0 0.00392 261.88528 264.48547
246.0 0.00407 261.69574 264.04510
276.0 0.00362 261.49689 263.64273
220.0 0.00455 261.28848 263.28931
228.0 0.00439 261.07117 262.98544
265.0 0.00377 260.84491 262.72025
248.0 0.00403 260.61032 262.47412
287.0 0.003484 260.36795 262.22220
261.0 0.00383 260.11777 261.93881
271.0 0.00369 259.86081 261.60706
259.0 0.00386 259.59735 261.22235
282.0 0.00355 259.32840 260.79373
268.0 0.00373 259.05502 260.33664
260.0 0.00385 258.77744 259.86682
294.0 0.003401 258.49722 259.39993
272.0 0.00368 258.21515 258.94641
258.0 0.00388 257.93277 258.51477
249.0 0.00402 257.65161 258.10962
255.0 0.00392 257.37253 257.73141
261.0 0.00383 257.09772 257.38049
257.0 0.00389 256.82861 257.05457
245.0 0.00408 256.56741 256.75198
253.0 0.00395 256.31641 256.47137
247.0 0.00405 256.07721 256.21082
269.0 0.00372 255.85284 255.97099
275.0 0.00364 255.64561 255.75223
243.0 0.00412 255.45859 255.55626
254.0 0.00394 255.29491 255.38541
247.0 0.00405 255.15744 255.24193
259.0 0.00386 255.05003 255.12938
258.0 0.00388 254.97627 255.05115
277.0 0.00361 254.94028 255.01117
271.0 0.00369 254.94624 255.01357
244.0 0.00410 254.99878 255.06044
243.0 0.00412 255.10265 255.16139
268.0 0.00373 255.26324 255.31944
252.0 0.00397 255.48575 255.53954
252.0 0.00397 255.77602 255.82765
249.0 0.00402 256.14069 256.19037
261.0 0.00383 256.58554 256.63342
254.0 0.00394 257.11850 257.16476
255.0 0.00392 257.74628 257.79105
248.0 . . .
loop_
_refln_index_h
_refln_index_k
_refln_index_l
_pd_refln_wavelength_id
_refln_observed_status
_refln_F_squared_meas
_refln_F_squared_calc
_refln_phase_calc
_refln_d_spacing
_gsas_i100_meas
0 0 1 1 o 425.468 440.504 0.00 7.43727 35.35
0 0 1 2 o 422.979 440.504 0.00 7.43727 17.49
1 0 1 1 o 180.871 173.146 180.00 4.80249 35.01
1 0 1 2 o 185.258 173.146 180.00 4.80249 17.84
1 1 0 1 o 92.523 78.199 180.00 4.44740 7.14
1 1 0 2 o 97.825 78.199 180.00 4.44740 3.77
1 1 1 1 o 892.211 881.104 0.00 3.81700 100.00
1 1 1 2 o 903.205 881.104 0.00 3.81700 50.33
0 0 2 1 o 729.072 631.701 0.00 3.71864 14.07
0 0 2 2 o 639.117 631.701 0.00 3.71864 6.17
1 0 2 1 o 68.739 55.098 180.00 3.20101 4.54
1 0 2 2 o 67.777 55.098 180.00 3.20101 2.23
2 0 0 1 o 2164.445 2167.280 180.00 3.14479 56.80
2 0 0 2 o 2076.852 2167.280 180.00 3.14479 27.14
2 0 1 1 o 281.722 261.509 180.00 2.89649 20.97
2 0 1 2 o 261.144 261.509 180.00 2.89649 9.72
1 1 2 1 o 344.822 317.631 0.00 2.85280 17.27
1 1 2 2 o 348.758 317.631 0.00 2.85280 8.68
2 1 1 1 o 23.394 36.159 0.00 2.63091 2.40
2 1 1 2 o 17.884 36.159 0.00 2.63091 0.92
0 0 3 1 o 703.433 375.739 0.00 2.47909 5.50
0 0 3 2 o 617.858 375.739 0.00 2.47909 2.41
2 0 2 1 o 257.536 272.803 180.00 2.40124 11.80
2 0 2 2 o 236.018 272.803 180.00 2.40124 5.41
1 0 3 1 o 17.442 6.701 180.00 2.30639 0.53
1 0 3 2 o 8.970 6.701 180.00 2.30639 0.14
2 1 2 1 o 53.139 47.568 0.00 2.24331 3.51
2 1 2 2 o 46.334 47.568 0.00 2.24331 1.53
2 2 0 1 o 720.071 789.227 0.00 2.22370 13.84
2 2 0 2 o 686.260 789.227 0.00 2.22370 6.57
1 1 3 1 o 84.148 119.555 0.00 2.16540 2.44
1 1 3 2 o 88.494 119.555 0.00 2.16540 1.27
2 2 1 1 o 237.416 158.961 0.00 2.13051 8.32
2 2 1 2 o 210.228 158.961 0.00 2.13051 3.69
3 0 1 1 o -0.150 9.236 0.00 2.01788 0.00
3 0 1 2 o -0.150 9.236 0.00 2.01788 0.00
3 1 0 1 o 29.094 0.025 180.00 1.98894 0.56
3 1 0 2 o 19.090 0.025 180.00 1.98894 0.19
2 0 3 1 o 201.264 166.545 180.00 1.94689 4.74
2 0 3 2 o 188.176 166.545 180.00 1.94689 2.21
3 1 1 1 o 115.840 119.012 180.00 1.92142 5.51
3 1 1 2 o 106.681 119.012 180.00 1.92142 2.54
2 2 2 1 o 140.302 131.596 0.00 1.90850 3.40
2 2 2 2 o 144.025 131.596 0.00 1.90850 1.73
2 1 3 1 o 2.018 1.568 0.00 1.85983 0.08
0 0 4 1 o 25.068 16.895 0.00 1.85932 0.11
2 1 3 2 o 2.621 1.568 0.00 1.85983 0.05
0 0 4 2 o 34.166 16.895 0.00 1.85932 0.07
3 0 2 1 o 18.120 32.580 0.00 1.82627 0.47
3 0 2 2 o 1.267 32.580 0.00 1.82627 0.02
1 0 4 1 o 8.719 7.977 180.00 1.78304 0.14
1 0 4 2 o 14.680 7.977 180.00 1.78304 0.12
3 1 2 1 o 93.063 68.764 180.00 1.75383 4.07
3 1 2 2 o 85.812 68.764 180.00 1.75383 1.88
1 1 4 1 o 194.893 190.271 0.00 1.71544 3.04
1 1 4 2 o 188.302 190.271 0.00 1.71544 1.46
3 2 1 1 o 2.087 1.076 180.00 1.69832 0.08
3 2 1 2 o 0.900 1.076 180.00 1.69832 0.02
2 2 3 1 o 66.425 80.087 0.00 1.65534 1.00
2 2 3 2 o 100.259 80.087 0.00 1.65534 0.73
3 0 3 1 o 0.058 0.503 0.00 1.60083 0.00
2 0 4 1 o 0.760 8.015 180.00 1.60051 0.03
3 0 3 2 o -0.019 0.503 0.00 1.60083 0.00
2 0 4 2 o -1.721 8.015 180.00 1.60051 0.00
3 2 2 1 o 8.826 26.696 180.00 1.57928 0.28
3 2 2 2 o 15.977 26.696 180.00 1.57928 0.25
4 0 0 1 o 180.799 177.073 0.00 1.57239 0.96
4 0 0 2 o 183.564 177.073 0.00 1.57239 0.49
3 1 3 1 o 57.475 35.634 180.00 1.55137 1.71
2 1 4 1 o 9.356 5.845 0.00 1.55107 0.22
3 1 3 2 o 48.331 35.634 180.00 1.55137 0.72
2 1 4 2 o 7.678 5.845 0.00 1.55107 0.09
4 0 1 1 o 118.419 48.218 0.00 1.53839 1.50
4 0 1 2 o 80.989 48.218 0.00 1.53839 0.52
4 1 1 1 o -0.012 0.396 180.00 1.49434 0.00
4 1 1 2 o -0.012 0.396 180.00 1.49434 0.00
0 0 5 1 o -2.543 24.614 0.00 1.48745 0.00
0 0 5 2 o 78.260 24.614 0.00 1.48745 0.09
3 3 0 1 o 20.437 3.748 0.00 1.48247 0.15
3 3 0 2 o 11.307 3.748 0.00 1.48247 0.04
3 3 1 1 o 29.386 20.723 0.00 1.45387 0.42
3 3 1 2 o 19.678 20.723 0.00 1.45387 0.14
4 0 2 1 o 29.080 39.068 0.00 1.44825 0.44
1 0 5 1 o 4.836 6.570 180.00 1.44753 0.05
4 0 2 2 o 11.319 39.068 0.00 1.44825 0.10
1 0 5 2 o 0.490 6.570 180.00 1.44753 0.00
3 2 3 1 o 0.092 0.033 180.00 1.42663 0.00
2 2 4 1 o 12.181 3.822 0.00 1.42640 0.12
3 2 3 2 o -0.003 0.033 180.00 1.42663 0.00
2 2 4 2 o -0.944 3.822 0.00 1.42640 0.00
4 1 2 1 o 3.381 15.568 180.00 1.41131 0.09
1 1 5 1 o 15.122 38.570 0.00 1.41065 0.16
4 1 2 2 o 16.297 15.568 180.00 1.41131 0.20
1 1 5 2 o 46.830 38.570 0.00 1.41065 0.22
4 2 0 1 o 109.431 78.093 180.00 1.40639 1.06
4 2 0 2 o 142.087 78.093 180.00 1.40639 0.68
3 0 4 1 o 19.426 3.765 0.00 1.39107 0.20
3 0 4 2 o 12.179 3.765 0.00 1.39107 0.06
4 2 1 1 o 70.914 33.287 180.00 1.38190 1.44
4 2 1 2 o 63.872 33.287 180.00 1.38190 0.65
3 3 2 1 o 34.247 18.948 0.00 1.37707 0.41
3 3 2 2 o 27.382 18.948 0.00 1.37707 0.16
3 1 4 1 o 31.098 59.029 180.00 1.35825 0.64
3 1 4 2 o 38.459 59.029 180.00 1.35825 0.39
2 0 5 1 o 0.873 13.005 180.00 1.34463 0.02
2 0 5 2 o -1.448 13.005 180.00 1.34463 0.00
4 0 3 1 o 6.341 22.320 0.00 1.32783 0.09
4 0 3 2 o 18.093 22.320 0.00 1.32783 0.11
4 2 2 1 o 46.988 21.947 180.00 1.31546 0.95
2 1 5 1 o 4.341 2.178 0.00 1.31492 0.07
4 2 2 2 o 40.557 21.947 180.00 1.31546 0.41
2 1 5 2 o 3.966 2.178 0.00 1.31492 0.03
4 1 3 1 o 0.371 0.045 180.00 1.29919 0.01
4 1 3 2 o 5.119 0.045 180.00 1.29919 0.05
3 3 3 1 o 9.910 12.334 0.00 1.27233 0.10
3 2 4 1 o 2.223 2.916 180.00 1.27217 0.03
3 3 3 2 o 8.998 12.334 0.00 1.27233 0.04
3 2 4 2 o 2.307 2.916 180.00 1.27217 0.02
4 3 1 1 o 4.408 0.289 180.00 1.24030 0.08
5 0 1 1 o 0.687 0.043 180.00 1.24030 0.00
0 0 6 1 o 1.297 0.013 0.00 1.23955 0.00
4 3 1 2 o 0.629 0.289 180.00 1.24030 0.01
5 0 1 2 o 0.096 0.043 180.00 1.24030 0.00
0 0 6 2 o 0.112 0.013 0.00 1.23955 0.00
2 2 5 1 o 12.963 6.983 0.00 1.23636 0.09
5 1 0 1 o 3.376 0.366 0.00 1.23349 0.02
2 2 5 2 o 47.981 6.983 0.00 1.23636 0.16
5 1 0 2 o 9.110 0.366 0.00 1.23349 0.03
4 2 3 1 o -1.104 11.841 180.00 1.22326 0.00
4 2 3 2 o 18.511 11.841 180.00 1.22326 0.16
5 1 1 1 o 20.062 7.879 0.00 1.21686 0.27
1 0 6 1 o 30.278 12.077 0.00 1.21615 0.19
5 1 1 2 o 18.449 7.879 0.00 1.21686 0.12
1 0 6 2 o 20.553 12.077 0.00 1.21615 0.06
3 0 5 1 o 1.376 0.824 0.00 1.21314 0.01
3 0 5 2 o -0.015 0.824 0.00 1.21314 0.00
4 0 4 1 o 1.587 0.718 0.00 1.20062 0.02
4 0 4 2 o 1.522 0.718 0.00 1.20062 0.01
1 1 6 1 o 45.790 31.789 0.00 1.19404 0.29
5 0 2 1 o 5.075 5.978 180.00 1.19159 0.04
4 3 2 1 o 8.529 10.046 0.00 1.19159 0.14
3 1 5 1 o 10.681 12.621 180.00 1.19118 0.16
1 1 6 2 o 27.182 31.789 0.00 1.19404 0.09
5 0 2 2 o 7.767 5.978 180.00 1.19159 0.03
4 3 2 2 o 13.050 10.046 0.00 1.19159 0.11
3 1 5 2 o 17.273 12.621 180.00 1.19118 0.12
4 1 4 1 o 13.043 1.612 180.00 1.17933 0.20
4 1 4 2 o -0.039 1.612 180.00 1.17933 0.00
5 1 2 1 o 9.436 5.175 0.00 1.17076 0.15
5 1 2 2 o 9.169 5.175 0.00 1.17076 0.07
3 3 4 1 o 28.309 20.841 0.00 1.15913 0.19
3 3 4 2 o 14.958 20.841 0.00 1.15913 0.05
5 2 1 1 o 0.374 0.073 180.00 1.15380 0.00
2 0 6 1 o 1.808 0.137 180.00 1.15320 0.01
5 2 1 2 o 1.330 0.073 180.00 1.15380 0.01
2 0 6 2 o 6.232 0.137 180.00 1.15320 0.02
2 1 6 1 o 11.218 6.037 180.00 1.13429 0.13
3 2 5 1 o 0.322 0.159 180.00 1.13184 0.00
2 1 6 2 o 14.432 6.037 180.00 1.13429 0.09
3 2 5 2 o -0.003 0.159 180.00 1.13184 0.00
4 3 3 1 o 0.221 0.021 180.00 1.12177 0.00
5 0 3 1 o 0.490 0.041 180.00 1.12177 0.00
4 2 4 1 o 4.386 0.290 180.00 1.12166 0.06
4 3 3 2 o 0.001 0.021 180.00 1.12177 0.00
5 0 3 2 o -0.003 0.041 180.00 1.12177 0.00
4 2 4 2 o -0.138 0.290 180.00 1.12166 0.00
5 2 2 1 o 9.613 5.415 0.00 1.11428 0.13
4 4 0 1 o 7.384 9.085 0.00 1.11185 0.03
5 2 2 2 o 3.526 5.415 0.00 1.11428 0.02
4 4 0 2 o 17.763 9.085 0.00 1.11185 0.04
5 1 3 1 o 13.059 4.058 0.00 1.10434 0.21
5 1 3 2 o -0.459 4.058 0.00 1.10434 0.00
4 4 1 1 o 5.400 9.205 0.00 1.09963 0.05
4 4 1 2 o 27.308 9.205 0.00 1.09963 0.11
