#------------------------------------------------------------------------------
#$Date: 2016-02-18 17:37:37 +0200 (Thu, 18 Feb 2016) $
#$Revision: 176729 $
#$URL: svn://www.crystallography.net/cod/cif/1/51/63/1516384.cif $
#------------------------------------------------------------------------------
#
# This file is available in the Crystallography Open Database (COD),
# http://www.crystallography.net/
#
# All data on this site have been placed in the public domain by the
# contributors.
#
data_1516384
loop_
_publ_author_name
'Guidoni, Leonardo'
'Gontrani, Lorenzo'
'Bencivenni, Luigi'
'Sadun, Claudia'
'Ballirano, Paolo'
_publ_section_title
;
 Overcoming the inadequacy of X-ray powder diffraction in reliable
 hydrogen location with the aid of first principles calculations: crystal
 structure determination of orotaldehyde monohydrate.
;
_journal_issue                   1
_journal_name_full               'The journal of physical chemistry. A'
_journal_page_first              353
_journal_page_last               359
_journal_paper_doi               10.1021/jp809076t
_journal_volume                  113
_journal_year                    2009
_chemical_formula_sum            'C5 H6 N2 O4'
_chemical_formula_weight         158.11
_chemical_name_systematic        ?
_space_group_IT_number           14
_symmetry_cell_setting           monoclinic
_symmetry_space_group_name_Hall  '-P 2yab'
_symmetry_space_group_name_H-M   'P 1 21/a 1'
_atom_sites_solution_hydrogens   geom
_atom_sites_solution_primary     direct
_atom_sites_solution_secondary   direct
_audit_creation_date             2008-10-22T10:11
_audit_creation_method           'from EXP file using GSAS2CIF'
_audit_update_record
;
2008-10-22T10:11  Initial CIF as created by GSAS2CIF

2008-10-22 # Formatted by publCIF
;
_cell_angle_alpha                90.0
_cell_angle_beta                 111.0090(12)
_cell_angle_gamma                90.0
_cell_formula_units_Z            4
_cell_length_a                   15.77423(27)
_cell_length_b                   8.07596(8)
_cell_length_c                   5.00886(8)
_cell_measurement_pressure       101.325
_cell_measurement_temperature    296(1)
_cell_volume                     595.671(16)
_computing_cell_refinement       GSAS
_computing_data_collection       DiffracPlus
_computing_structure_refinement  GSAS
_computing_structure_solution    'EXPO 2004'
_diffrn_ambient_pressure         101.325
_diffrn_ambient_temperature      296(1)
_diffrn_detector                 Vantec-1
_diffrn_detector_type            PSD
_diffrn_measurement_device_type  'AXS Bruker D8 Advance'
_diffrn_radiation_monochromator  'Goebel mirror'
_diffrn_radiation_probe          x-ray
_diffrn_radiation_source         'Sealed tube'
_exptl_absorpt_correction_T_max  1.00000
_exptl_absorpt_correction_T_min  1.00000
_exptl_absorpt_process_details
;   GSAS Absorption/surface roughness correction: function number 0
 No correction is applied.
;
_exptl_crystal_density_diffrn    1.763
_exptl_crystal_density_meas      1.7(1)
_exptl_crystal_density_method    flotation
_pd_block_id
2008-10-22T10:11|4FURA_BIS_DIOLO_ADVA|p|Siemens_D5005
_pd_calc_method                  'Rietveld Refinement'
_pd_instr_location               ' ?'
_pd_meas_2theta_range_inc        0.02151
_pd_meas_2theta_range_max        140.69606
_pd_meas_2theta_range_min        4.0
_pd_meas_number_of_points        6356
_pd_meas_scan_method             step
_pd_phase_name                   'Orotaldehyde Monohydrate'
_pd_proc_2theta_range_inc        0.02151
_pd_proc_2theta_range_max        140.69606
_pd_proc_2theta_range_min        4.0
_pd_proc_info_datetime           2008-10-22T10:11:41
_pd_proc_info_excluded_regions   none
_pd_proc_ls_background_function
;   GSAS Background function number 1 with 32 terms.
 Shifted Chebyshev function of 1st kind
      1:    4214.26     2:   -2426.57     3:    1355.78     4:    105.371    
      5:   -309.214     6:    423.378     7:   -257.972     8:   -104.017    
      9:    444.303    10:   -553.109    11:    465.599    12:   -268.599    
     13:   -5.39316    14:    247.891    15:   -297.504    16:    215.760    
     17:   -84.8993    18:   -49.5779    19:    174.561    20:   -183.669    
     21:    104.167    22:   -14.1060    23:   -29.4390    24:    87.7132    
     25:   -94.9654    26:    71.2255    27:    5.82393    28:   -54.1032    
     29:    77.3530    30:   -47.9593    31:    22.5246    32:    6.96448    
;
_pd_proc_ls_peak_cutoff          0.00040
_pd_proc_ls_pref_orient_corr     'spherical harmonics'
_pd_proc_ls_profile_function
;
 CW Profile function number 3 with  19 terms
 Pseudovoigt profile coefficients as parameterized in
 P. Thompson, D.E. Cox & J.B. Hastings (1987). J. Appl. Cryst.,20,79-83.
 Asymmetry correction of L.W. Finger, D.E. Cox & A. P. Jephcoat (1994).
 J. Appl. Cryst.,27,892-900.
 Peak tails are ignored  where the intensity is below 0.0004 times the peak
   Aniso. broadening axis   0.0   0.0   1.0
;
_pd_proc_ls_prof_R_factor        0.0234
_pd_proc_ls_prof_wR_expected     0.0133
_pd_proc_ls_prof_wR_factor       0.0308
_pd_proc_number_of_points        6356
_pd_proc_wavelength              1.540598
_pd_spec_mounting                Capillary
_pd_spec_mount_mode              transmission
_pd_spec_shape                   cylinder
_refine_ls_extinction_method     none
_refine_ls_goodness_of_fit_all   2.40
_refine_ls_hydrogen_treatment    refxyz
_refine_ls_matrix_type           full
_refine_ls_number_constraints    0
_refine_ls_number_parameters     110
_refine_ls_number_restraints     85
_refine_ls_R_Fsqd_factor         0.04826
_refine_ls_R_I_factor            0.0357
_refine_ls_shift/su_max          0.08
_refine_ls_shift/su_mean         0.00
_refine_ls_weighting_scheme      sigma
_reflns_d_resolution_high        0.820
_reflns_d_resolution_low         7.363
_reflns_limit_h_max              20
_reflns_limit_h_min              0
_reflns_limit_k_max              10
_reflns_limit_k_min              0
_reflns_limit_l_max              6
_reflns_limit_l_min              -6
_reflns_number_total             2253
_cod_data_source_file            jp809076t_si_001.cif
_cod_data_source_block           4FURA_BIS_DIOLO_ADVA_publ
_cod_original_cell_volume        595.671(15)
_cod_database_code               1516384
#BEGIN Tags that were not found in dictionaries:
_gsas_exptl_extinct_corr_t_min   1.00000
_gsas_exptl_extinct_corr_t_max   1.00000
#END Tags that were not found in dictionaries
loop_
_symmetry_equiv_pos_site_id
_symmetry_equiv_pos_as_xyz
1 +x,+y,+z
2 -x+1/2,+y+1/2,-z
-1 -x,-y,-z
-2 +x+1/2,-y+1/2,+z
loop_
_atom_site_type_symbol
_atom_site_label
_atom_site_fract_x
_atom_site_fract_y
_atom_site_fract_z
_atom_site_occupancy
_atom_site_thermal_displace_type
_atom_site_U_iso_or_equiv
_atom_site_symmetry_multiplicity
O O1 0.38658(10) 0.07428(23) 0.7016(4) 1.0 Uiso 0.03159(14) 4
C C2 0.43669(16) 0.15834(33) 0.6038(5) 1.0 Uiso 0.03159(14) 4
N N3 0.39441(12) 0.24462(27) 0.3519(5) 1.0 Uiso 0.03159(14) 4
H H4 0.3361(5) 0.1876(12) 0.1965(20) 1.0 Uiso 0.05 4
C C5 0.43816(16) 0.34616(32) 0.2205(5) 1.0 Uiso 0.03159(14) 4
O O6 0.39931(11) 0.41857(26) -0.0051(4) 1.0 Uiso 0.03159(14) 4
N N7 0.53437(14) 0.34445(28) 0.3482(4) 1.0 Uiso 0.03159(14) 4
H H8 0.5649(4) 0.4253(11) 0.2521(15) 1.0 Uiso 0.05 4
C C9 0.57808(15) 0.26454(33) 0.6031(6) 1.0 Uiso 0.03159(14) 4
C C10 0.53356(17) 0.16972(31) 0.7319(5) 1.0 Uiso 0.03159(14) 4
H H11 0.5626(5) 0.1505(13) 0.9646(11) 1.0 Uiso 0.05 4
C C12 0.68079(16) 0.27062(32) 0.7149(5) 1.0 Uiso 0.03159(14) 4
O O13 0.29725(11) 0.58833(24) 0.41008(33) 1.0 Uiso 0.03159(14) 4
H H14 0.2303(4) 0.5956(14) 0.3851(24) 1.0 Uiso 0.05 4
O O15 0.29001(12) 0.70770(21) 0.9826(4) 1.0 Uiso 0.03159(14) 4
H H16 0.3097(7) 0.5984(9) 0.9455(18) 1.0 Uiso 0.05 4
H H17 0.2110(5) 0.3429(8) 0.6692(18) 1.0 Uiso 0.05 4
loop_
_atom_type_symbol
_atom_type_number_in_cell
_atom_type_scat_dispersion_real
_atom_type_scat_dispersion_imag
_atom_type_scat_Cromer_Mann_a1
_atom_type_scat_Cromer_Mann_a2
_atom_type_scat_Cromer_Mann_a3
_atom_type_scat_Cromer_Mann_a4
_atom_type_scat_Cromer_Mann_b1
_atom_type_scat_Cromer_Mann_b2
_atom_type_scat_Cromer_Mann_b3
_atom_type_scat_Cromer_Mann_b4
_atom_type_scat_Cromer_Mann_c
_atom_type_scat_source
O 16.0 0.047 0.032 3.04850 13.2771 2.28680 5.70110 1.54630 0.32390 0.86700
32.9089 0.25080 International_Tables_Vol_C
C 20.0 0.000 0.000 2.31000 20.8439 1.02000 10.2075 1.58860 0.56870 0.86500
51.6512 0.21560 International_Tables_Vol_C
N 8.0 0.000 0.000 12.2126 0.00570 3.13220 9.89330 2.01250 28.9975 1.16630
0.58260 -11.529 International_Tables_Vol_C
H 24.0 0.000 0.000 0.49300 10.5109 0.32291 26.1257 0.14019 3.14236 0.04081
57.7997 0.00304 International_Tables_Vol_C
I 0.0 0.000 0.000 20.1472 4.34700 18.9949 0.38140 7.51380 27.7660 2.27350
66.8776 4.07120 International_Tables_Vol_C
loop_
_diffrn_radiation_wavelength
_diffrn_radiation_wavelength_wt
_diffrn_radiation_type
_diffrn_radiation_wavelength_id
1.540598 1.000 K\a~1~ 1
1.544390 0.500 K\a~2~ 2
loop_
_geom_angle_atom_site_label_1
_geom_angle_atom_site_label_2
_geom_angle_atom_site_label_3
_geom_angle
_geom_angle_site_symmetry_1
_geom_angle_site_symmetry_3
_geom_angle_publ_flag
O1 C2 N3 117.30(20) 1_555 1_555 n
O1 C2 C10 125.08(22) 1_555 1_555 n
N3 C2 C10 117.62(24) 1_555 1_555 n
C2 N3 H4 116.9(6) 1_555 1_555 n
C2 N3 C5 124.96(19) 1_555 1_555 n
H4 N3 C5 110.7(6) 1_555 1_555 n
N3 C5 O6 123.60(21) 1_555 1_555 n
N3 C5 N7 114.55(20) 1_555 1_555 n
O6 C5 N7 121.40(25) 1_555 1_555 n
C5 N7 H8 112.8(4) 1_555 1_555 n
C5 N7 C9 121.46(23) 1_555 1_555 n
H8 N7 C9 124.7(4) 1_555 1_555 n
N7 C9 C10 122.46(20) 1_555 1_555 n
N7 C9 C12 116.25(24) 1_555 1_555 n
C10 C9 C12 120.86(22) 1_555 1_555 n
C2 C10 C9 118.47(21) 1_555 1_555 n
C2 C10 H11 115.9(5) 1_555 1_555 n
C9 C10 H11 119.8(5) 1_555 1_555 n
C9 C12 O13 105.32(19) 1_555 -1_666 n
C9 C12 O15 106.99(23) 1_555 -1_667 n
C9 C12 H17 112.6(4) 1_555 -2_665 n
O13 C12 O15 109.69(19) -1_666 -1_667 n
O13 C12 H17 113.0(5) -1_666 -2_665 n
O15 C12 H17 109.0(5) -1_667 -2_665 n
C12 O13 H14 108.0(7) -1_666 1_555 n
C12 O15 H16 108.0(5) -1_667 1_555 n
loop_
_geom_bond_atom_site_label_1
_geom_bond_atom_site_label_2
_geom_bond_distance
_geom_bond_site_symmetry_2
_geom_bond_publ_flag
O1 C2 1.2663(35) 1_555 n
O1 H14 1.744(6) 2_546 n
C2 O1 1.2663(35) 1_555 n
C2 N3 1.3852(33) 1_555 n
C2 C10 1.4326(33) 1_555 n
N3 C2 1.3852(33) 1_555 n
N3 H4 1.072(8) 1_555 n
N3 C5 1.381(4) 1_555 n
H4 N3 1.072(8) 1_555 n
H4 C5 2.026(10) 1_555 n
H4 O15 1.873(8) 2_546 n
C5 N3 1.381(4) 1_555 n
C5 H4 2.026(10) 1_555 n
C5 O6 1.2239(28) 1_555 n
C5 N7 1.4201(30) 1_555 n
C5 H8 2.050(8) 1_555 n
O6 C5 1.2239(28) 1_555 n
O6 H8 1.985(9) -1_665 n
O6 H16 1.979(9) 1_554 n
N7 C5 1.4201(30) 1_555 n
N7 H8 1.028(9) 1_555 n
N7 C9 1.3751(32) 1_555 n
H8 C5 2.050(8) 1_555 n
H8 O6 1.985(9) -1_665 n
H8 N7 1.028(9) 1_555 n
C9 N7 1.3751(32) 1_555 n
C9 C10 1.349(4) 1_555 n
C9 C12 1.5134(32) 1_555 n
C10 C2 1.4326(33) 1_555 n
C10 C9 1.349(4) 1_555 n
C10 H11 1.100(6) 1_555 n
H11 C10 1.100(6) 1_555 n
C12 C9 1.5134(32) 1_555 n
C12 O13 1.4019(33) -1_666 n
C12 H14 1.972(10) -1_666 n
C12 O15 1.4275(30) -1_667 n
C12 H16 1.962(9) -1_667 n
C12 H17 1.095(8) -2_555 n
O13 C12 1.4019(33) -1_666 n
O13 H14 1.020(7) 1_555 n
H14 O1 1.744(6) 2_556 n
H14 C12 1.972(10) -1_666 n
H14 O13 1.020(7) 1_555 n
O15 H4 1.873(8) 2_556 n
O15 C12 1.4275(30) -1_667 n
O15 H16 0.975(8) 1_555 n
O15 H17 2.063(9) 2_557 n
H16 O6 1.979(9) 1_556 n
H16 C12 1.962(9) -1_667 n
H16 O15 0.975(8) 1_555 n
H17 C12 1.095(8) -2_455 n
H17 O15 2.063(9) 2_547 n
loop_
_pd_meas_counts_total
_pd_proc_ls_weight
_pd_proc_intensity_bkg_calc
_pd_calc_intensity_total
8159.0 0.0 1323691.87500 .
8087.0 0.0 1288801.50000 .
8061.0 0.0 1254743.50000 .
8005.0 0.0 1221500.87500 .
7996.0 0.0 1189054.12500 .
7963.0 0.0 1157386.37500 .
7917.0 0.0 1126483.62500 .
7890.0 0.0 1096327.87500 .
7917.0 0.0 1066901.50000 .
7943.0 0.0 1038189.62500 .
8049.0 0.0 1010176.68750 .
7928.0 0.0 982849.62500 .
7769.0 0.0 956189.50000 .
7718.0 0.0 930184.18750 .
7900.0 0.0 904818.37500 .
7801.0 0.0 880079.75000 .
7790.0 0.0 855952.43750 .
7733.0 0.0 832423.68750 .
7617.0 0.0 809479.81250 .
7566.0 0.0 787108.62500 .
7602.0 0.0 765296.62500 .
7570.0 0.0 744031.93750 .
7653.0 0.0 723301.56250 .
7678.0 0.0 703094.12500 .
7423.0 0.0 683397.87500 .
7572.0 0.0 664200.93750 .
7465.0 0.0 645492.06250 .
7468.0 0.0 627260.43750 .
7481.0 0.0 609494.81250 .
7595.0 0.0 592185.43750 .
7493.0 0.0 575320.81250 .
7454.0 0.0 558891.12500 .
7729.0 0.0 542886.56250 .
7495.0 0.0 527297.75000 .
7487.0 0.0 512113.81250 .
7501.0 0.0 497326.59375 .
7560.0 0.0 482926.21875 .
7446.0 0.0 468904.31250 .
7455.0 0.0 455251.59375 .
7623.0 0.0 441959.21875 .
7526.0 0.0 429019.12500 .
7524.0 0.0 416422.71875 .
7741.0 0.0 404162.65625 .
7587.0 0.0 392230.09375 .
7309.0 0.0 380617.15625 .
7633.0 0.0 369317.09375 .
7544.0 0.0 358321.96875 .
7630.0 0.0 347625.09375 .
7491.0 0.0 337217.96875 .
7553.0 0.0 327094.53125 .
7537.0 0.0 317247.84375 .
7581.0 0.0 307671.68750 .
7514.0 0.0 298358.37500 .
7549.0 0.0 289302.28125 .
7383.0 0.0 280496.93750 .
7613.0 0.0 271936.34375 .
7640.0 0.0 263614.46875 .
7681.0 0.0 255525.31250 .
7606.0 0.0 247663.10938 .
7600.0 0.0 240022.20313 .
7434.0 0.0 232597.43750 .
7486.0 0.0 225383.25000 .
7476.0 0.0 218373.92188 .
7633.0 0.0 211565.00000 .
7572.0 0.0 204951.26563 .
7383.0 0.0 198527.39063 .
7511.0 0.0 192288.92188 .
7606.0 0.0 186231.10938 .
7506.0 0.0 180349.59375 .
7664.0 0.0 174639.07813 .
7559.0 0.0 169096.15625 .
7438.0 0.0 163715.82813 .
7489.0 0.0 158494.23438 .
7657.0 0.0 153427.10938 .
7461.0 0.0 148510.53125 .
7622.0 0.0 143740.43750 .
7598.0 0.0 139113.34375 .
7529.0 0.0 134625.04688 .
7546.0 0.0 130272.13281 .
7685.0 0.0 126050.96094 .
7538.0 0.0 121958.07813 .
7634.0 0.0 117990.21875 .
7692.0 0.0 114143.75781 .
7576.0 0.0 110415.53906 .
7635.0 0.0 106802.50781 .
7665.0 0.0 103301.42188 .
7529.0 0.0 99909.33594 .
7657.0 0.0 96623.22656 .
7536.0 0.0 93440.20313 .
7617.0 0.0 90357.51563 .
7635.0 0.0 87372.27344 .
7560.0 0.0 84481.82031 .
7538.0 0.0 81683.72656 .
7674.0 0.0 78975.42188 .
7706.0 0.0 76353.96094 .
7667.0 0.0 73817.35156 .
7533.0 0.0 71363.08594 .
7612.0 0.0 68988.78906 .
7778.0 0.0 66692.23438 .
7746.0 0.0 64471.15625 .
7804.0 0.0 62323.55469 .
7719.0 0.0 60247.13281 .
7542.0 0.0 58239.96875 .
7695.0 0.0 56299.99609 .
7701.0 0.0 54425.30859 .
7729.0 0.0 52613.95313 .
7765.0 0.0 50864.16016 .
7807.0 0.0 49174.01563 .
7804.0 0.0 47541.80078 .
7792.0 0.0 45965.83594 .
7857.0 0.0 44444.41797 .
7685.0 0.0 42975.87500 .
7584.0 0.0 41558.68750 .
7631.0 0.0 40191.29688 .
7606.0 0.0 38872.12500 .
7573.0 0.0 37599.76953 .
7619.0 0.0 36372.80078 .
7612.0 0.0 35189.83203 .
7698.0 0.0 34049.40234 .
7589.0 0.0 32950.32031 .
7769.0 0.0 31891.22656 .
7742.0 0.0 30870.90625 .
7608.0 0.0 29888.08594 .
7738.0 0.0 28941.63672 .
7869.0 0.0 28030.36914 .
7881.0 0.0 27153.20898 .
7833.0 0.0 26308.97852 .
7954.0 0.0 25496.69336 .
7845.0 0.0 24715.25977 .
7816.0 0.0 23963.71680 .
7855.0 0.0 23241.06250 .
7735.0 0.0 22546.34961 .
7861.0 0.0 21878.64258 .
7841.0 0.0 21237.05859 .
7802.0 0.0 20620.72852 .
7738.0 0.0 20028.77930 .
7720.0 0.0 19460.42188 .
7817.0 0.0 18914.79297 .
7769.0 0.0 18391.18555 .
7931.0 0.0 17888.78320 .
7886.0 0.0 17406.87109 .
7908.0 0.0 16944.74609 .
7685.0 0.0 16501.71875 .
7876.0 0.0 16077.10059 .
7838.0 0.0 15670.23145 .
7911.0 0.0 15280.48535 .
7971.0 0.0 14907.26270 .
7799.0 0.0 14549.95215 .
7821.0 0.0 14207.97363 .
7820.0 0.0 13880.75684 .
7864.0 0.0 13567.78711 .
7855.0 0.0 13268.49902 .
7744.0 0.0 12982.41211 .
7811.0 0.0 12709.01270 .
7829.0 0.0 12447.82813 .
7895.0 0.0 12198.37793 .
7899.0 0.0 11960.21387 .
8002.0 0.0 11732.93262 .
7771.0 0.0 11516.06445 .
7853.0 0.0 11309.21582 .
7837.0 0.0 11111.99707 .
7803.0 0.0 10924.02148 .
7873.0 0.0 10744.91504 .
7907.0 0.0 10574.30859 .
7895.0 0.0 10411.86914 .
7834.0 0.0 10257.25293 .
8020.0 0.0 10110.13867 .
8006.0 0.0 9970.20801 .
7909.0 0.0 9837.15430 .
7793.0 0.0 9710.68555 .
7888.0 0.0 9590.53027 .
7958.0 0.0 9476.39258 .
7864.0 0.0 9368.02930 .
8020.0 0.0 9265.17090 .
7909.0 0.0 9167.57324 .
7896.0 0.0 9075.00977 .
7966.0 0.0 8987.23633 .
7981.0 0.0 8904.03320 .
7874.0 0.0 8825.20215 .
7892.0 0.0 8750.52051 .
7933.0 0.0 8679.79883 .
7930.0 0.0 8612.83789 .
7900.0 0.0 8549.47070 .
8091.0 0.0 8489.50684 .
8080.0 0.0 8432.78027 .
7931.0 0.0 8379.12891 .
8051.0 0.0001242 8328.39063 8345.13965
8044.0 0.0001243 8280.42188 8297.34766
8100.0 0.0001235 8235.07031 8252.17969
7989.0 0.0001252 8192.20117 8209.49707
8065.0 0.0001240 8151.67969 8169.16162
7987.0 0.0001252 8113.37207 8131.04639
7978.0 0.0001253 8077.16113 8095.03076
8035.0 0.0001245 8042.92725 8060.99365
8018.0 0.0001247 8010.55469 8028.82373
8082.0 0.0001237 7979.93701 7998.40918
7918.0 0.0001263 7950.96973 7969.64941
7968.0 0.0001255 7923.55664 7945.78809
8155.0 0.0001226 7897.59277 7921.72949
7958.0 0.0001257 7872.99561 7897.40381
7840.0 0.0001276 7849.67725 7874.35840
8014.0 0.0001248 7827.54980 7852.51123
7883.0 0.0001269 7806.53809 7831.78174
8007.0 0.0001249 7786.56494 7812.09717
7883.0 0.0001269 7767.55664 7793.38281
8049.0 0.0001242 7749.44580 7775.57129
8019.0 0.0001247 7732.16895 7758.59863
7830.0 0.0001277 7715.65967 7742.39746
7816.0 0.0001279 7699.86279 7726.91504
7921.0 0.0001262 7684.71582 7712.08936
7697.0 0.0001299 7670.17236 7697.87109
7723.0 0.0001295 7656.17725 7684.20654
7857.0 0.0001273 7642.68213 7671.05176
7680.0 0.0001302 7629.64307 7658.35693
7654.0 0.0001307 7617.01855 7646.08057
7728.0 0.0001294 7604.76367 7634.18311
7768.0 0.0001287 7592.84082 7622.62500
7774.0 0.0001286 7581.21729 7611.37207
7619.0 0.0001313 7569.85742 7600.38867
7585.0 0.0001318 7558.72607 7589.64258
7715.0 0.0001296 7547.79883 7579.10498
7571.0 0.0001321 7537.03906 7568.74658
7601.0 0.0001316 7526.42822 7558.54150
7568.0 0.0001321 7515.93896 7548.46875
7596.0 0.0001316 7505.54785 7538.49707
7697.0 0.0001299 7495.23340 7528.61621
7437.0 0.0001345 7484.97607 7518.79932
7608.0 0.0001314 7474.75586 7509.02686
7521.0 0.0001330 7464.55859 7499.28711
7524.0 0.0001329 7454.36621 7489.56250
7508.0 0.0001332 7444.16553 7479.83740
7564.0 0.0001322 7433.94189 7470.10107
7384.0 0.0001354 7423.68506 7460.33984
7568.0 0.0001321 7413.38428 7450.54541
7427.0 0.0001346 7403.02930 7440.70703
7485.0 0.0001336 7392.60889 7430.81445
7454.0 0.0001342 7382.11768 7420.86133
7478.0 0.0001337 7371.54883 7410.84424
7410.0 0.0001350 7360.89453 7400.75293
7387.0 0.0001354 7350.15332 7390.58789
7295.0 0.0001371 7339.31689 7380.33789
7233.0 0.0001383 7328.38428 7370.00488
7313.0 0.0001367 7317.34912 7359.58350
7334.0 0.0001364 7306.21484 7349.07617
7356.0 0.0001359 7294.97314 7338.47559
7478.0 0.0001337 7283.62891 7327.78711
7256.0 0.0001378 7272.17822 7317.00781
7357.0 0.0001359 7260.62158 7306.13818
7268.0 0.0001376 7248.96094 7295.17969
7314.0 0.0001367 7237.19580 7284.13330
7073.0 0.0001414 7225.32861 7273.00195
7275.0 0.0001375 7213.36182 7261.78857
7108.0 0.0001407 7201.29639 7250.49512
7041.0 0.0001420 7189.13525 7239.12354
7091.0 0.0001410 7176.88281 7227.68066
7093.0 0.0001410 7164.54150 7216.16504
7085.0 0.0001411 7152.11377 7204.59082
7172.0 0.0001394 7139.60449 7192.95117
7153.0 0.0001398 7127.02002 7181.25732
7148.0 0.0001399 7114.36084 7169.51416
6986.0 0.0001431 7101.63330 7157.72559
7152.0 0.0001398 7088.84229 7145.89648
7067.0 0.0001415 7075.99072 7134.03467
7101.0 0.0001408 7063.08643 7122.14502
7020.0 0.0001425 7050.13330 7110.23291
7055.0 0.0001417 7037.13623 7098.30566
6862.0 0.0001457 7024.10205 7086.36572
6950.0 0.0001439 7011.03418 7074.42773
6869.0 0.0001456 6997.93848 7062.49121
6962.0 0.0001436 6984.82227 7050.56445
6855.0 0.0001459 6971.68896 7038.65430
6979.0 0.0001433 6958.54346 7026.76953
6869.0 0.0001456 6945.39502 7014.91699
6899.0 0.0001449 6932.24609 7003.09912
6952.0 0.0001438 6919.10254 6991.32861
6970.0 0.0001435 6905.97217 6979.61133
6832.0 0.0001464 6892.85645 6967.94922
6794.0 0.0001472 6879.76660 6956.35400
6833.0 0.0001463 6866.70410 6944.83740
6909.0 0.0001447 6853.67480 6933.39648
6873.0 0.0001455 6840.68311 6922.04443
6724.0 0.0001487 6827.73584 6910.78906
6784.0 0.0001474 6814.83984 6899.63623
6763.0 0.0001479 6801.99805 6888.59619
6786.0 0.0001474 6789.21436 6877.66992
6827.0 0.0001465 6776.49561 6866.87012
6889.0 0.0001452 6763.84717 6856.20508
6731.0 0.0001486 6751.27100 6845.67822
6794.0 0.0001472 6738.77588 6835.29932
6847.0 0.0001460 6726.36328 6825.07959
6853.0 0.0001459 6714.03662 6815.01709
6649.0 0.0001504 6701.80420 6805.13135
6784.0 0.0001474 6689.66650 6795.42480
6789.0 0.0001473 6677.62939 6785.90186
6747.0 0.0001482 6665.69336 6776.57861
6690.0 0.0001495 6653.87158 6767.45752
6679.0 0.0001497 6642.15674 6758.54541
6695.0 0.0001494 6630.55908 6749.86084
6665.0 0.0001500 6619.07666 6741.40039
6628.0 0.0001509 6607.71875 6733.18115
6713.0 0.0001490 6596.48389 6725.20703
6635.0 0.0001507 6585.37842 6717.49463
6742.0 0.0001483 6574.40186 6710.04688
6715.0 0.0001489 6563.56006 6702.87842
6601.0 0.0001515 6552.85498 6695.99658
6704.0 0.0001492 6542.28857 6689.41309
6601.0 0.0001515 6531.85840 6683.14307
6639.0 0.0001506 6521.57520 6677.19482
6734.0 0.0001485 6511.43555 6671.58154
6540.0 0.0001529 6501.44287 6666.31494
6694.0 0.0001494 6491.59717 6661.41504
6625.0 0.0001509 6481.90381 6656.88867
6856.0 0.0001459 6472.36084 6652.75635
6770.0 0.0001477 6462.97119 6649.03516
6787.0 0.0001473 6453.73730 6645.74219
6727.0 0.0001487 6444.65723 6642.89258
6575.0 0.0001521 6435.73193 6640.51172
6553.0 0.0001526 6426.96533 6638.62109
6567.0 0.0001523 6418.35400 6637.23975
6591.0 0.0001517 6409.90381 6636.40186
6775.0 0.0001476 6401.61230 6636.12598
6608.0 0.0001513 6393.47852 6636.45020
6707.0 0.0001491 6385.50684 6637.40283
6660.0 0.0001502 6377.69141 6639.01855
6914.0 0.0001446 6370.03662 6641.33789
6784.0 0.0001474 6362.54102 6644.40332
6649.0 0.0001504 6355.20654 6648.26563
6775.0 0.0001476 6348.02979 6652.97363
6703.0 0.0001492 6341.01025 6658.58203
6843.0 0.0001461 6334.15039 6665.15918
6854.0 0.0001459 6327.44727 6672.77148
6755.0 0.0001480 6320.89990 6681.50000
6890.0 0.0001451 6314.51123 6691.42920
6592.0 0.0001517 6308.27441 6702.66064
6702.0 0.0001492 6302.19580 6715.29834
6669.0 0.0001499 6296.26563 6729.46631
6797.0 0.0001471 6290.48877 6745.30029
6787.0 0.0001473 6284.86230 6762.96631
6817.0 0.0001467 6279.38770 6782.62549
6795.0 0.0001472 6274.05811 6804.49365
6723.0 0.0001487 6268.87549 6828.79150
6876.0 0.0001454 6263.83887 6855.78711
7056.0 0.0001417 6258.94482 6885.77637
6958.0 0.0001437 6254.19336 6919.11084
6893.0 0.0001451 6249.58203 6956.19336
6961.0 0.0001437 6245.10840 6997.49365
6949.0 0.0001439 6240.77100 7043.55322
7135.0 0.0001402 6236.56787 7095.02344
7202.0 0.0001389 6232.49854 7152.65186
7245.0 0.0001380 6228.56104 7217.35156
7348.0 0.0001361 6224.75000 7290.18115
7399.0 0.0001352 6221.06396 7372.46582
7564.0 0.0001322 6217.50635 7465.77930
7692.0 0.0001300 6214.06787 7572.15820
8117.0 0.0001232 6210.75391 7694.19531
8190.0 0.0001221 6207.55518 7835.47656
8582.0 0.0001165 6204.47363 8001.03467
8888.0 0.0001125 6201.50391 8198.44824
9263.0 0.0001080 6198.64746 8439.19043
9706.0 0.0001030 6195.89893 8741.03711
10385.0 0.0000963 6193.25781 9130.78809
10823.0 0.0000924 6190.72119 9647.97559
11672.0 0.0000857 6188.28516 10347.65430
12832.0 0.0000779 6185.95020 11302.55859
14153.0 0.0000707 6183.71191 12600.80469
15462.0 0.0000647 6181.56982 14340.18164
17492.0 0.0000572 6179.51904 16614.06055
19834.0 0.0000504 6177.55957 19493.89844
22387.0 0.0000447 6175.68701 23002.54102
25664.0 0.0000390 6173.90039 27087.09570
29463.0 0.00003394 6172.19434 31578.65430
33771.0 0.00002961 6170.57275 36149.80859
38004.0 0.00002631 6169.02832 40273.57422
41926.0 0.00002385 6167.55762 43266.77344
44629.0 0.00002241 6166.16162 44488.62109
44911.0 0.00002227 6164.83984 43651.75781
43520.0 0.00002298 6163.58203 40982.38281
40308.0 0.00002481 6162.39258 37080.03516
34263.0 0.00002919 6161.26855 32628.81055
28628.0 0.00003493 6160.20557 28182.16406
23011.0 0.0000435 6159.20166 24104.95508
18733.0 0.0000534 6158.25635 20595.34375
15901.0 0.0000629 6157.36572 17733.66602
13970.0 0.0000716 6156.52734 15518.99512
12905.0 0.0000775 6155.73828 13904.03320
12237.0 0.0000817 6155.00000 12819.58301
12036.0 0.0000831 6154.30859 12196.26074
12185.0 0.0000821 6153.65967 11976.00879
12474.0 0.0000802 6153.05615 12116.87500
12691.0 0.0000788 6152.49170 12589.53027
13657.0 0.0000732 6151.96484 13368.26367
14400.0 0.0000694 6151.47510 14418.92480
15341.0 0.0000652 6151.01904 15683.07910
16568.0 0.0000604 6150.59570 17060.85352
17646.0 0.0000567 6150.20508 18391.51563
18857.0 0.0000530 6149.83984 19452.09570
19455.0 0.0000514 6149.50342 20001.54688
19688.0 0.0000508 6149.19385 19881.06641
19591.0 0.0000510 6148.90674 19098.78125
18551.0 0.0000539 6148.64160 17819.55273
16960.0 0.0000590 6148.39697 16275.49707
15259.0 0.0000655 6148.17090 14675.48340
13387.0 0.0000747 6147.96484 13166.33887
11838.0 0.0000845 6147.77246 11832.00879
10716.0 0.0000933 6147.59326 10709.57520
9771.0 0.0001023 6147.43066 9802.59180
9110.0 0.0001098 6147.27832 9093.74414
8704.0 0.0001149 6147.13477 8553.54492
8185.0 0.0001222 6147.00146 8148.58936
7954.0 0.0001257 6146.87988 7846.53613
7613.0 0.0001314 6146.75928 7619.75684
7396.0 0.0001352 6146.64795 7446.38623
7502.0 0.0001333 6146.53906 7310.38965
7254.0 0.0001379 6146.43799 7200.52197
7163.0 0.0001396 6146.33789 7109.28076
6908.0 0.0001448 6146.23926 7031.69287
6931.0 0.0001443 6146.13916 6964.52539
6822.0 0.0001466 6146.04297 6905.58350
6755.0 0.0001480 6145.94727 6853.36426
6670.0 0.0001499 6145.84717 6806.74756
6631.0 0.0001508 6145.74756 6764.89990
6615.0 0.0001512 6145.64404 6727.13867
6631.0 0.0001508 6145.53760 6692.92822
6476.0 0.0001544 6145.42822 6661.80762
6681.0 0.0001497 6145.31543 6633.40820
6462.0 0.0001548 6145.19629 6607.39453
6467.0 0.0001546 6145.07471 6583.50342
6464.0 0.0001547 6144.94678 6561.49170
6338.0 0.0001578 6144.81396 6541.16406
6434.0 0.0001554 6144.67529 6522.33545
6449.0 0.0001551 6144.53223 6504.86377
6398.0 0.0001563 6144.38184 6488.60645
6409.0 0.0001560 6144.22705 6473.45508
6286.0 0.0001591 6144.06641 6459.29688
6475.0 0.0001544 6143.89795 6446.04932
6296.0 0.0001588 6143.72559 6433.62939
6234.0 0.0001604 6143.54785 6421.96094
6277.0 0.0001593 6143.36377 6410.98682
6248.0 0.0001601 6143.17529 6400.64502
6193.0 0.0001615 6142.98047 6390.89160
6239.0 0.0001603 6142.78271 6381.67285
6234.0 0.0001604 6142.57910 6372.94922
6306.0 0.0001586 6142.37109 6364.68701
6244.0 0.0001602 6142.16406 6356.85059
6200.0 0.0001613 6141.94824 6349.41016
6295.0 0.0001589 6141.73193 6342.33691
6261.0 0.0001597 6141.51611 6335.60742
6131.0 0.0001631 6141.29639 6329.19727
6241.0 0.0001602 6141.07617 6323.08691
6185.0 0.0001617 6140.85889 6317.25684
6128.0 0.0001632 6140.63916 6311.69189
6210.0 0.0001610 6140.42236 6306.37109
6149.0 0.0001626 6140.20703 6301.28613
6166.0 0.0001622 6139.99512 6296.42041
6223.0 0.0001607 6139.78613 6291.76025
6207.0 0.0001611 6139.58398 6287.30029
6194.0 0.0001614 6139.38574 6283.02441
6170.0 0.0001621 6139.19580 6278.92676
6158.0 0.0001624 6139.01367 6274.99658
6171.0 0.0001620 6138.83936 6271.22949
6253.0 0.0001599 6138.67578 6267.61621
6171.0 0.0001620 6138.52393 6264.14795
6193.0 0.0001615 6138.38135 6260.82080
6097.0 0.0001640 6138.25537 6257.63086
6034.0 0.0001657 6138.14209 6254.56982
6241.0 0.0001602 6138.04590 6251.63477
6130.0 0.0001631 6137.96680 6248.82275
6256.0 0.0001598 6137.90234 6246.12549
6133.0 0.0001631 6137.86084 6243.54395
6243.0 0.0001602 6137.84131 6241.07422
6139.0 0.0001629 6137.84180 6238.71191
6139.0 0.0001629 6137.86670 6236.45557
6205.0 0.0001612 6137.91650 6234.29980
6117.0 0.0001635 6137.99170 6232.24609
6237.0 0.0001603 6138.09717 6230.29443
6139.0 0.0001629 6138.22949 6239.03613
6276.0 0.0001593 6138.39404 6237.38232
6175.0 0.0001619 6138.59033 6241.08887
6170.0 0.0001621 6138.81982 6239.67822
6140.0 0.0001629 6139.08545 6238.36133
6197.0 0.0001614 6139.38818 6237.14404
6127.0 0.0001632 6139.72754 6236.01221
6260.0 0.0001597 6140.10889 6234.97900
6272.0 0.0001594 6140.53223 6234.03516
6277.0 0.0001593 6140.99561 6233.18408
6114.0 0.0001636 6141.50684 6232.42480
6140.0 0.0001629 6142.06250 6231.75928
6162.0 0.0001623 6142.66650 6231.18066
6191.0 0.0001615 6143.32129 6230.70068
6201.0 0.0001613 6144.02588 6230.30908
6172.0 0.0001620 6144.78271 6230.01123
6096.0 0.0001640 6145.59570 6229.80371
6193.0 0.0001615 6146.46631 6229.69336
6068.0 0.0001648 6147.39258 6229.67480
6233.0 0.0001604 6148.37939 6229.75049
6082.0 0.0001644 6149.42822 6229.92236
6098.0 0.0001640 6150.53711 6230.18896
6240.0 0.0001603 6151.71387 6230.55420
6145.0 0.0001627 6152.95654 6234.77344
6099.0 0.0001640 6154.26465 6235.36865
6306.0 0.0001586 6155.64258 6237.93066
6307.0 0.0001586 6157.09326 6238.74707
6116.0 0.0001635 6158.61719 6239.66309
6087.0 0.0001643 6160.21484 6240.68604
6227.0 0.0001606 6161.88965 6241.80908
6214.0 0.0001609 6163.64063 6243.03613
6263.0 0.0001597 6165.47314 6244.37305
6300.0 0.0001587 6167.38672 6245.81494
6166.0 0.0001622 6169.38232 6247.36523
6172.0 0.0001620 6171.46240 6249.02588
6263.0 0.0001597 6173.63037 6250.79492
6201.0 0.0001613 6175.88428 6252.67725
6245.0 0.0001601 6178.22803 6254.67285
6308.0 0.0001585 6180.66113 6256.78027
6344.0 0.0001576 6183.18945 6259.00488
6326.0 0.0001581 6185.81152 6261.34814
6139.0 0.0001629 6188.52832 6263.80908
6310.0 0.0001585 6191.34326 6266.38965
6178.0 0.0001619 6194.25488 6269.08936
6378.0 0.0001568 6197.26953 6271.91211
6137.0 0.0001629 6200.38525 6274.85840
6294.0 0.0001589 6203.60303 6277.93066
6380.0 0.0001567 6206.92627 6281.12842
6242.0 0.0001602 6210.35547 6284.45117
6422.0 0.0001557 6213.89307 6287.90723
6453.0 0.0001550 6217.54004 6291.49023
6308.0 0.0001585 6221.29688 6295.20557
6422.0 0.0001557 6225.16553 6299.05469
6257.0 0.0001598 6229.14648 6303.03906
6390.0 0.0001565 6233.24121 6307.15771
6332.0 0.0001579 6237.45605 6311.41504
6468.0 0.0001546 6241.78467 6315.81348
6277.0 0.0001593 6246.23145 6320.34619
6383.0 0.0001567 6250.79980 6325.02637
6356.0 0.0001573 6255.48779 6329.85010
6324.0 0.0001581 6260.29590 6334.81543
6402.0 0.0001562 6265.23096 6339.92627
6400.0 0.0001562 6270.29053 6345.18994
6559.0 0.0001525 6275.47412 6350.60059
6431.0 0.0001555 6280.78516 6356.16211
6394.0 0.0001564 6286.22168 6361.87598
6458.0 0.0001548 6291.78906 6367.74902
6550.0 0.0001527 6297.48779 6373.77441
6546.0 0.0001528 6303.31299 6379.95850
6509.0 0.0001536 6309.27539 6386.30469
6558.0 0.0001525 6315.36719 6392.81348
6492.0 0.0001540 6321.59326 6399.48877
6376.0 0.0001568 6327.95508 6406.32959
6505.0 0.0001537 6334.45264 6413.34277
6502.0 0.0001538 6341.08594 6420.53174
6573.0 0.0001521 6347.85547 6427.89551
6462.0 0.0001548 6354.76123 6435.43994
6657.0 0.0001502 6361.81055 6443.17285
6529.0 0.0001532 6368.99609 6451.09912
6608.0 0.0001513 6376.32275 6459.22070
6607.0 0.0001514 6383.78906 6467.55273
6638.0 0.0001506 6391.39844 6476.10645
6611.0 0.0001513 6399.14844 6484.90088
6519.0 0.0001534 6407.04395 6493.96143
6591.0 0.0001517 6415.07813 6503.33789
6594.0 0.0001517 6423.25781 6513.09473
6624.0 0.0001510 6431.58154 6523.32275
6754.0 0.0001481 6440.05176 6534.15967
6618.0 0.0001511 6448.66211 6545.76660
6722.0 0.0001488 6457.42090 6558.34863
6764.0 0.0001478 6466.32617 6572.10547
6679.0 0.0001497 6475.37549 6587.20947
6677.0 0.0001498 6484.57324 6603.75391
6806.0 0.0001469 6493.91504 6621.68115
6856.0 0.0001459 6503.40527 6640.69238
6856.0 0.0001459 6513.04395 6660.13574
6919.0 0.0001445 6522.82568 6678.90430
7081.0 0.0001412 6532.75830 6695.55029
6977.0 0.0001433 6542.83398 6698.84766
7074.0 0.0001414 6553.06006 6703.37305
7066.0 0.0001415 6563.43457 6709.63184
7082.0 0.0001412 6573.95313 6713.83643
6885.0 0.0001452 6584.62256 6717.34961
6923.0 0.0001444 6595.43506 6721.24805
6847.0 0.0001460 6606.39795 6726.20557
6893.0 0.0001451 6617.50391 6732.53711
6863.0 0.0001457 6628.75977 6740.31641
6900.0 0.0001449 6640.16016 6749.46533
6901.0 0.0001449 6651.70996 6759.81592
6852.0 0.0001459 6663.40186 6771.17285
6914.0 0.0001446 6675.24268 6783.34180
6820.0 0.0001466 6687.22656 6796.15918
6965.0 0.0001436 6699.35889 6809.63623
6907.0 0.0001448 6711.63184 6823.40430
7097.0 0.0001409 6724.05029 6837.60693
6843.0 0.0001461 6736.61182 6852.06348
7008.0 0.0001427 6749.31689 6866.82178
7042.0 0.0001420 6762.16455 6881.86182
6902.0 0.0001449 6775.15479 6897.17676
6918.0 0.0001446 6788.28418 6912.76465
6998.0 0.0001429 6801.55713 6925.27979
7228.0 0.0001384 6814.96680 6941.43555
7038.0 0.0001421 6828.51855 6956.21094
7124.0 0.0001404 6842.20947 6972.92578
7097.0 0.0001409 6856.03516 6989.91211
7154.0 0.0001398 6869.99902 7008.16455
7107.0 0.0001407 6884.10254 7025.71973
7165.0 0.0001396 6898.33594 7043.56055
7209.0 0.0001387 6912.70850 7062.19092
7149.0 0.0001399 6927.21240 7080.62451
7140.0 0.0001401 6941.84961 7099.37158
7268.0 0.0001376 6956.61865 7118.42578
7219.0 0.0001385 6971.51904 7137.80273
7162.0 0.0001396 6986.54590 7157.51172
7223.0 0.0001384 7001.70410 7177.56006
7226.0 0.0001384 7016.98584 7197.95996
7221.0 0.0001385 7032.39893 7218.72607
7250.0 0.0001379 7047.93457 7239.86572
7282.0 0.0001373 7063.59570 7261.40283
7488.0 0.0001335 7079.37744 7283.33984
7369.0 0.0001357 7095.28271 7305.70703
7287.0 0.0001372 7111.30713 7328.51123
7435.0 0.0001345 7127.45020 7353.43555
7315.0 0.0001367 7143.70996 7377.20410
7372.0 0.0001356 7160.08984 7402.30176
7330.0 0.0001364 7176.58057 7427.12109
7446.0 0.0001343 7193.18848 7452.51025
7325.0 0.0001365 7209.90479 7478.48828
7569.0 0.0001321 7226.73535 7505.10205
7626.0 0.0001311 7243.67383 7532.37891
7528.0 0.0001328 7260.71973 7560.36963
7462.0 0.0001340 7277.87109 7589.11230
7648.0 0.0001308 7295.12842 7618.67236
7506.0 0.0001332 7312.48682 7649.08643
7688.0 0.0001301 7329.95117 7680.43652
7719.0 0.0001296 7347.51025 7712.77832
7888.0 0.0001268 7365.17188 7746.20117
7608.0 0.0001314 7382.92822 7780.78369
7785.0 0.0001285 7400.77783 7816.63135
7852.0 0.0001274 7418.72168 7853.84229
7840.0 0.0001276 7436.75879 7892.54883
7833.0 0.0001277 7454.88281 7932.88574
7932.0 0.0001261 7473.09961 7977.08984
8111.0 0.0001233 7491.39844 8021.19971
8288.0 0.0001207 7509.78223 8080.13818
8263.0 0.0001210 7528.24951 8128.93701
8207.0 0.0001218 7546.79932 8180.40332
8258.0 0.0001211 7565.42725 8240.64063
8331.0 0.0001200 7584.13135 8298.44336
8400.0 0.0001190 7602.91016 8359.95410
8206.0 0.0001219 7621.76025 8425.65625
8352.0 0.0001197 7640.68604 8496.08105
8345.0 0.0001198 7659.67920 8571.88867
8328.0 0.0001201 7678.73828 8653.81543
8690.0 0.0001151 7697.86572 8742.77441
8675.0 0.0001153 7717.05469 8839.81738
8698.0 0.0001150 7736.30811 8946.24023
8728.0 0.0001146 7755.61621 9063.57227
8970.0 0.0001115 7774.98877 9193.72656
9083.0 0.0001101 7794.40967 9339.02734
9087.0 0.0001100 7813.88818 9502.49609
9414.0 0.0001062 7833.41553 9688.03711
9667.0 0.0001034 7852.99512 9901.10938
9845.0 0.0001016 7872.61816 10149.51758
10103.0 0.0000990 7892.28955 10445.20410
10766.0 0.0000929 7912.00244 10806.51855
11087.0 0.0000902 7931.75684 11262.13086
11883.0 0.0000842 7951.54688 11855.32617
12838.0 0.0000779 7971.37744 12649.32520
13894.0 0.0000720 7991.23926 13730.22168
15591.0 0.0000641 8011.13623 15207.52441
17248.0 0.0000580 8031.05957 17206.13086
20007.0 0.0000500 8051.01611 19851.97070
22950.0 0.0000436 8070.99658 23244.32617
27127.0 0.0000369 8090.99854 27422.44531
31952.0 0.00003130 8111.02051 32313.77930
37033.0 0.00002700 8131.06299 37669.88672
42841.0 0.00002334 8151.12598 42979.49609
47369.0 0.00002111 8171.20068 47443.29688
50387.0 0.00001985 8191.28760 50146.50000
51675.0 0.00001935 8211.38672 50473.42188
50000.0 0.00002000 8231.48828 48414.87891
46047.0 0.00002172 8251.60547 44512.91406
40595.0 0.00002463 8271.71582 39555.38281
34560.0 0.00002894 8291.83594 34338.27734
28980.0 0.00003451 8311.94922 29446.41016
24317.0 0.0000411 8332.06152 25197.72461
21003.0 0.0000476 8352.16895 21725.80859
18125.0 0.0000552 8372.27051 19028.60938
16423.0 0.0000609 8392.35742 17032.27930
15266.0 0.0000655 8412.43750 15630.69922
14535.0 0.0000688 8432.49707 14718.00586
14305.0 0.0000699 8452.55078 14207.28711
14109.0 0.0000709 8472.57031 14041.36133
14357.0 0.0000697 8492.57813 14193.24023
15050.0 0.0000664 8512.56250 14660.00391
15824.0 0.0000632 8532.52051 15450.74609
17046.0 0.0000587 8552.45117 16571.38281
18467.0 0.0000542 8572.34570 18005.08594
20684.0 0.0000483 8592.21875 19689.69141
22231.0 0.0000450 8612.04688 21486.00977
24210.0 0.0000413 8631.84473 23152.39453
25103.0 0.0000398 8651.59961 24362.66992
25763.0 0.0000388 8671.32031 24821.78125
25432.0 0.0000393 8690.98730 24413.48828
23668.0 0.0000423 8710.62012 23240.75781
21634.0 0.0000462 8730.19727 21552.20117
19331.0 0.0000517 8749.72559 19640.08008
16912.0 0.0000591 8769.20215 17753.33594
14845.0 0.0000674 8788.62891 16052.01953
13551.0 0.0000738 8807.99023 14613.41992
12487.0 0.0000801 8827.29980 13454.71582
11740.0 0.0000852 8846.54395 12557.24316
11237.0 0.0000890 8865.73145 11882.64551
10678.0 0.0000937 8884.84668 11386.10938
10272.0 0.0000974 8903.89941 11024.07910
10268.0 0.0000974 8922.88086 10759.54102
10111.0 0.0000989 8941.78906 10563.49414
9965.0 0.0001004 8960.62793 10414.97559
9757.0 0.0001025 8979.38770 10299.48242
9887.0 0.0001011 8998.06836 10207.46680
9613.0 0.0001040 9016.67578 10132.68262
9692.0 0.0001032 9035.19238 10071.05664
9697.0 0.0001031 9053.63281 10019.82129
9469.0 0.0001056 9071.98145 9977.06641
9749.0 0.0001026 9090.24707 9941.34375
9598.0 0.0001042 9108.41895 9912.68945
9620.0 0.0001040 9126.50195 9888.00000
9565.0 0.0001045 9144.48828 9868.21582
9574.0 0.0001044 9162.37988 9851.66699
9671.0 0.0001034 9180.17480 9838.40723
9399.0 0.0001064 9197.86523 9828.01465
9860.0 0.0001014 9215.45313 9820.14844
9724.0 0.0001028 9232.94141 9814.52344
9641.0 0.0001037 9250.32520 9810.87207
9699.0 0.0001031 9267.59863 9808.98145
9568.0 0.0001045 9284.76172 9808.66797
9605.0 0.0001041 9301.81641 9809.76172
9882.0 0.0001012 9318.75195 9812.12207
9657.0 0.0001036 9335.58203 9815.62988
9769.0 0.0001024 9352.28516 9820.16992
9777.0 0.0001023 9368.88086 9825.65625
9682.0 0.0001033 9385.34863 9831.99512
9772.0 0.0001023 9401.69629 9839.11914
9812.0 0.0001019 9417.91895 9846.95898
9794.0 0.0001021 9434.01563 9856.48340
9785.0 0.0001022 9449.98340 9865.60156
9840.0 0.0001016 9465.82813 9875.79492
9954.0 0.0001005 9481.53516 9886.00781
9904.0 0.0001010 9497.11426 9896.71387
9861.0 0.0001014 9512.55664 9907.87793
9985.0 0.0001002 9527.86523 9919.48047
10108.0 0.0000989 9543.03809 9931.49414
9969.0 0.0001003 9558.06934 9943.89160
9951.0 0.0001005 9572.95898 9956.66797
9872.0 0.0001013 9587.70898 9969.80371
9939.0 0.0001006 9602.31934 9983.29004
9883.0 0.0001012 9616.77832 9997.12207
9926.0 0.0001007 9631.09375 10011.29199
9936.0 0.0001006 9645.26074 10025.79688
9847.0 0.0001016 9659.27637 10040.63965
9953.0 0.0001005 9673.14258 10055.81934
10145.0 0.0000986 9686.86035 10079.21289
10139.0 0.0000986 9700.42188 10095.18359
10248.0 0.0000976 9713.82324 10111.52246
10253.0 0.0000975 9727.07520 10132.17383
10206.0 0.0000980 9740.16504 10149.36230
10281.0 0.0000973 9753.10254 10166.99316
10162.0 0.0000984 9765.87207 10185.09961
10173.0 0.0000983 9778.48633 10203.72168
10020.0 0.0000998 9790.93457 10222.90820
10346.0 0.0000967 9803.21875 10242.72168
10281.0 0.0000973 9815.33496 10263.22070
10375.0 0.0000964 9827.29199 10284.51074
10322.0 0.0000969 9839.08008 10306.69629
10326.0 0.0000968 9850.69727 10329.91699
10374.0 0.0000964 9862.13965 10354.65820
10571.0 0.0000946 9873.41992 10380.65723
10359.0 0.0000965 9884.52344 10408.64648
10600.0 0.0000943 9895.45898 10439.36621
10636.0 0.0000940 9906.21191 10473.44629
10688.0 0.0000936 9916.79883 10512.25293
10543.0 0.0000948 9927.20898 10557.34375
10632.0 0.0000941 9937.43848 10610.53906
10874.0 0.0000920 9947.48730 10673.77051
10871.0 0.0000920 9957.36230 10748.74121
11032.0 0.0000906 9967.06152 10836.46973
11014.0 0.0000908 9976.57324 10936.66016
11333.0 0.0000882 9985.90918 11046.87793
11356.0 0.0000881 9995.05957 11161.39453
11670.0 0.0000857 10004.02734 11271.20215
11463.0 0.0000872 10012.81348 11365.21777
11555.0 0.0000865 10021.41211 11438.37695
11865.0 0.0000843 10029.82910 11494.79297
11893.0 0.0000841 10038.05957 11546.53125
11896.0 0.0000841 10046.10352 11611.87402
12154.0 0.0000823 10053.95801 11711.64160
12204.0 0.0000819 10061.62500 11866.11035
12387.0 0.0000807 10069.10449 12092.37988
12608.0 0.0000793 10076.39941 12402.34668
12772.0 0.0000783 10083.49902 12800.23340
13161.0 0.0000760 10090.40918 13278.45215
13626.0 0.0000734 10097.13184 13810.97070
13799.0 0.0000725 10103.66113 14345.38574
14368.0 0.0000696 10110.00293 14801.89063
14581.0 0.0000686 10116.14941 15094.84863
14834.0 0.0000674 10122.10254 15174.66602
14922.0 0.0000670 10127.86621 15050.57227
14751.0 0.0000678 10133.43359 14776.81152
14286.0 0.0000700 10138.80859 14430.89746
14147.0 0.0000707 10143.99121 14094.17578
13892.0 0.0000720 10148.98047 13834.45313
13636.0 0.0000733 10153.77246 13699.71484
13876.0 0.0000721 10158.36816 13721.49316
14033.0 0.0000713 10162.76953 13919.32227
14267.0 0.0000701 10166.97949 14302.34863
14503.0 0.0000690 10170.98926 14867.76758
15314.0 0.0000653 10174.81445 15595.69043
16072.0 0.0000622 10178.42969 16439.08984
16806.0 0.0000595 10181.85547 17310.59766
17719.0 0.0000564 10185.08691 18077.87305
18053.0 0.0000554 10188.12207 18594.19727
18551.0 0.0000539 10190.96094 18766.33203
18598.0 0.0000538 10193.60156 18597.40039
18033.0 0.0000555 10196.04785 18166.54688
17390.0 0.0000575 10198.29883 17592.03125
16772.0 0.0000596 10200.34961 16999.90625
16081.0 0.0000622 10202.20508 16494.19727
15785.0 0.0000634 10203.87012 16144.83594
15855.0 0.0000631 10205.33789 15995.77734
16130.0 0.0000620 10206.60742 16080.48535
16934.0 0.0000591 10207.68359 16436.78320
17559.0 0.0000570 10208.56055 17119.79883
19137.0 0.0000523 10209.24316 18211.55469
20848.0 0.0000480 10209.73535 19824.50977
23510.0 0.0000425 10210.02637 22096.58984
26781.0 0.0000373 10210.12695 25175.35742
30728.0 0.00003254 10210.03027 29187.47656
35699.0 0.00002801 10209.74121 34191.26563
41014.0 0.00002438 10209.25781 40112.46094
47101.0 0.00002123 10208.58301 46665.54688
53454.0 0.00001871 10207.71191 53278.62891
58392.0 0.00001713 10206.65234 59077.36328
62189.0 0.00001608 10205.39453 63019.78516
63794.0 0.00001568 10203.94824 64264.49219
62954.0 0.00001588 10202.30762 62590.05469
58922.0 0.00001697 10200.47949 58433.91797
53834.0 0.00001858 10198.46094 52605.59766
47049.0 0.00002125 10196.25000 46031.20313
40306.0 0.00002481 10193.84961 39537.78906
33935.0 0.00002947 10191.26172 33688.36328
28458.0 0.0000351 10188.48145 28756.96484
23835.0 0.0000420 10185.51758 24801.59766
21015.0 0.0000476 10182.36523 21751.13086
18862.0 0.0000530 10179.02344 19470.15039
17269.0 0.0000579 10175.49707 17802.02344
16144.0 0.0000619 10171.78223 16597.06445
15329.0 0.0000652 10167.88672 15728.71094
14951.0 0.0000669 10163.80469 15107.94434
14301.0 0.0000699 10159.54004 14646.38184
13942.0 0.0000717 10155.08789 14304.63379
13705.0 0.0000730 10150.45703 14055.91016
13971.0 0.0000716 10145.64551 13872.08496
13709.0 0.0000729 10140.64844 13746.03809
13709.0 0.0000729 10135.48145 13671.64258
13697.0 0.0000730 10130.12500 13646.78613
13968.0 0.0000716 10124.58984 13673.10449
13990.0 0.0000715 10118.88184 13756.64063
14536.0 0.0000688 10112.99609 13909.52051
15395.0 0.0000650 10106.93066 14152.84473
15902.0 0.0000629 10100.69434 14520.27734
16810.0 0.0000595 10094.28320 15062.06738
17617.0 0.0000568 10087.69727 15848.09570
19091.0 0.0000524 10080.93457 16967.66211
20497.0 0.0000488 10074.00879 18523.39453
22812.0 0.0000438 10066.90527 20618.04492
25485.0 0.0000392 10059.63867 23333.40039
28015.0 0.0000357 10052.19727 26699.21289
31163.0 0.00003209 10044.58789 30637.55469
34426.0 0.00002905 10036.81250 34941.95703
36855.0 0.00002713 10028.87598 39136.13281
39635.0 0.00002523 10020.76953 42534.23828
41682.0 0.00002399 10012.50391 44409.00781
41987.0 0.00002382 10004.07031 44375.65625
40897.0 0.00002445 9995.48145 42533.07813
38188.0 0.00002619 9986.72559 39301.70313
35095.0 0.00002849 9977.81250 35255.36328
31474.0 0.00003177 9968.73926 30987.83789
27325.0 0.0000366 9959.50977 26967.86523
23852.0 0.0000419 9950.12500 23465.91797
21164.0 0.0000473 9940.58203 20583.72852
18898.0 0.0000529 9930.88672 18311.88867
17070.0 0.0000586 9921.04102 16580.18750
15843.0 0.0000631 9911.03809 15291.11035
15028.0 0.0000665 9900.88867 14343.91113
13824.0 0.0000723 9890.58984 13648.66699
13259.0 0.0000754 9880.14063 13132.53516
12986.0 0.0000770 9869.54785 12740.91797
12679.0 0.0000789 9858.80566 12435.42188
12184.0 0.0000821 9847.91699 12190.33594
11923.0 0.0000839 9836.89063 11988.86426
11849.0 0.0000844 9825.72363 11820.09570
11611.0 0.0000861 9814.41016 11673.14844
11545.0 0.0000866 9802.95898 11550.77441
11245.0 0.0000889 9791.37012 11443.96191
11216.0 0.0000892 9779.64258 11354.04492
11193.0 0.0000893 9767.78125 11277.37500
11081.0 0.0000902 9755.78125 11212.72168
10971.0 0.0000911 9743.65332 11159.31348
10888.0 0.0000918 9731.38965 11116.83887
10801.0 0.0000926 9718.99707 11085.58301
10976.0 0.0000911 9706.47363 11066.61719
10934.0 0.0000915 9693.82715 11062.14844
11147.0 0.0000897 9681.05078 11075.97754
11082.0 0.0000902 9668.15039 11113.97559
10998.0 0.0000909 9655.12402 11184.53613
11100.0 0.0000901 9641.97754 11298.56934
11391.0 0.0000878 9628.70996 11468.92969
11561.0 0.0000865 9615.31934 11708.91016
11825.0 0.0000846 9601.80859 12029.58594
12135.0 0.0000824 9588.18750 12436.07324
12690.0 0.0000788 9574.44922 12922.35449
13256.0 0.0000754 9560.58984 13463.46289
13498.0 0.0000741 9546.62207 14005.76270
13773.0 0.0000726 9532.54492 14464.29492
13938.0 0.0000717 9518.35645 14745.25488
14163.0 0.0000706 9504.05957 14791.98730
14141.0 0.0000707 9489.65430 14609.51953
13751.0 0.0000727 9475.14355 14245.98730
13556.0 0.0000738 9460.53027 13770.29688
12923.0 0.0000774 9445.81152 13258.91602
12517.0 0.0000799 9430.99121 12778.43457
12050.0 0.0000830 9416.07129 12373.14844
11811.0 0.0000847 9401.05176 12066.16504
11833.0 0.0000845 9385.93652 11866.99023
11785.0 0.0000849 9370.72363 11778.91699
11613.0 0.0000861 9355.41699 11801.39648
11847.0 0.0000844 9340.01855 11934.91895
12051.0 0.0000830 9324.52734 12179.20508
12420.0 0.0000805 9308.94629 12530.42090
12747.0 0.0000784 9293.27637 12978.26172
13010.0 0.0000769 9277.52051 13521.45117
13701.0 0.0000730 9261.67676 14066.16113
14302.0 0.0000699 9245.75000 14560.34766
14687.0 0.0000681 9229.73926 14930.39258
15046.0 0.0000665 9213.64844 15099.62109
15102.0 0.0000662 9197.47363 15083.44824
15116.0 0.0000662 9181.22656 14929.91016
15052.0 0.0000664 9164.90332 14711.38672
15148.0 0.0000660 9148.50195 14516.12402
15184.0 0.0000659 9132.02344 14436.52344
15446.0 0.0000647 9115.47266 14560.34863
16101.0 0.0000621 9098.85254 14968.57715
16839.0 0.0000594 9082.16309 15746.30957
18190.0 0.0000550 9065.40625 16980.48633
19867.0 0.0000503 9048.58105 18753.57617
22183.0 0.0000451 9031.68945 21125.50977
24404.0 0.0000410 9014.73730 24111.23633
27461.0 0.0000364 8997.71680 27640.03906
30900.0 0.00003236 8980.63574 31497.46094
33962.0 0.00002944 8963.50098 35260.51172
36399.0 0.00002747 8946.30469 38301.60938
38108.0 0.00002624 8929.05078 39984.82422
38517.0 0.00002596 8911.74121 39990.12500
37827.0 0.00002644 8894.38281 38442.66016
35289.0 0.00002834 8876.96973 35651.32031
32312.0 0.00003095 8859.50195 32109.53320
28786.0 0.00003474 8841.98730 28341.24219
25731.0 0.0000389 8824.42480 24754.97656
22612.0 0.0000442 8806.81445 21626.96875
19927.0 0.0000502 8789.15723 19065.97266
18206.0 0.0000549 8771.45898 17073.56445
16537.0 0.0000605 8753.71875 15587.62793
15512.0 0.0000645 8735.93359 14512.71875
14541.0 0.0000688 8718.10742 13740.75781
13828.0 0.0000723 8700.25000 13167.82031
13253.0 0.0000755 8682.35156 12710.87598
12635.0 0.0000791 8664.41895 12317.71484
12233.0 0.0000817 8646.45020 11962.83887
12069.0 0.0000829 8628.44922 11639.01953
11569.0 0.0000864 8610.41895 11349.07129
11197.0 0.0000893 8592.35645 11103.17676
11096.0 0.0000901 8574.26563 10910.27344
11033.0 0.0000906 8556.14648 10775.84473
10658.0 0.0000938 8538.00586 10700.20508
10834.0 0.0000923 8519.83398 10680.13672
10909.0 0.0000917 8501.64258 10706.85254
10926.0 0.0000915 8483.42773 10764.22266
10846.0 0.0000922 8465.19336 10826.72559
10931.0 0.0000915 8446.93945 10861.82031
11019.0 0.0000908 8428.66797 10841.22949
10869.0 0.0000920 8410.37891 10754.58691
10672.0 0.0000937 8392.07422 10608.63770
10710.0 0.0000934 8373.75684 10418.97559
10411.0 0.0000961 8355.42773 10205.75684
10092.0 0.0000991 8337.08105 9990.11426
9755.0 0.0001025 8318.72949 9788.86133
9836.0 0.0001017 8300.37012 9611.51660
9507.0 0.0001052 8282.00195 9461.25586
9223.0 0.0001084 8263.61914 9337.21484
9285.0 0.0001077 8245.24219 9236.29785
9189.0 0.0001088 8226.85938 9154.47266
9129.0 0.0001095 8208.47070 9087.69141
8887.0 0.0001125 8190.08154 9032.36523
8936.0 0.0001119 8171.69189 8984.59961
8952.0 0.0001117 8153.30176 8944.18262
8930.0 0.0001120 8134.91895 8908.56934
8733.0 0.0001145 8116.53369 8876.19238
8920.0 0.0001121 8098.15479 8847.33887
8668.0 0.0001154 8079.78320 8821.05469
9051.0 0.0001105 8061.41797 8797.02441
8864.0 0.0001128 8043.05957 8775.04395
8919.0 0.0001121 8024.70898 8754.97168
8774.0 0.0001140 8006.37256 8736.71582
8784.0 0.0001138 7988.04639 8720.21387
8719.0 0.0001147 7969.73047 8705.43262
8665.0 0.0001154 7951.42969 8692.36816
8660.0 0.0001155 7933.14453 8681.03418
8806.0 0.0001136 7914.87451 8671.46289
8620.0 0.0001160 7896.62207 8663.71582
8561.0 0.0001168 7878.38574 8656.21973
8639.0 0.0001158 7860.17139 8652.40137
8736.0 0.0001145 7841.97559 8650.71289
8636.0 0.0001158 7823.80029 8650.48535
8617.0 0.0001160 7805.64746 8653.53320
8721.0 0.0001147 7787.52051 8659.24121
8375.0 0.0001194 7769.41748 8667.83887
8636.0 0.0001158 7751.33887 8679.58398
8689.0 0.0001151 7733.28564 8694.80078
8821.0 0.0001134 7715.26367 8713.88086
8830.0 0.0001133 7697.26807 8737.30273
8942.0 0.0001118 7679.29834 8765.66406
8769.0 0.0001140 7661.36230 8799.66992
9179.0 0.0001089 7643.45752 8840.13965
8955.0 0.0001117 7625.58496 8888.08594
8998.0 0.0001111 7607.74414 8944.70898
9223.0 0.0001084 7589.93848 9011.45996
9261.0 0.0001080 7572.16748 9090.11816
9255.0 0.0001080 7554.43555 9182.94531
9185.0 0.0001089 7536.73584 9292.87305
9652.0 0.0001036 7519.07324 9423.86719
9499.0 0.0001053 7501.45459 9579.47461
9812.0 0.0001019 7483.87305 9772.24414
10392.0 0.0000962 7466.33105 10000.33496
10716.0 0.0000933 7448.83057 10321.87402
11302.0 0.0000885 7431.37598 10723.20801
12055.0 0.0000830 7413.96094 11273.41699
12763.0 0.0000784 7396.58691 12028.99609
13937.0 0.0000718 7379.25977 13076.99316
15656.0 0.0000639 7361.97900 14500.19922
17346.0 0.0000577 7344.74365 16405.77734
19573.0 0.0000511 7327.55566 18882.68945
22501.0 0.0000444 7310.41357 21981.99609
26065.0 0.0000384 7293.32227 25681.37891
29507.0 0.00003389 7276.27930 29834.05664
33604.0 0.00002976 7259.28516 34098.74609
36861.0 0.00002713 7242.34180 37895.88281
39660.0 0.00002521 7225.44971 40518.66406
41047.0 0.00002436 7208.61084 41454.12109
40583.0 0.00002464 7191.82520 40633.00000
39275.0 0.00002546 7175.08887 38326.67969
35943.0 0.00002782 7158.41162 34940.57422
32024.0 0.00003123 7141.78857 30958.14648
27553.0 0.0000363 7125.21826 26880.94727
23367.0 0.0000428 7108.70410 23102.58984
19847.0 0.0000504 7092.24951 19844.08398
16915.0 0.0000591 7075.85010 17178.31641
14847.0 0.0000674 7059.50830 15083.93457
13311.0 0.0000751 7043.22461 13489.78223
11937.0 0.0000838 7027.00195 12304.35254
11045.0 0.0000905 7010.83789 11435.24902
10634.0 0.0000940 6994.73340 10801.08594
10030.0 0.0000997 6978.68994 10336.85254
9931.0 0.0001007 6962.70850 9994.54980
9590.0 0.0001043 6946.79053 9743.10449
9241.0 0.0001082 6930.93164 9559.12988
9296.0 0.0001076 6915.13574 9433.53125
9195.0 0.0001088 6899.40527 9363.07617
9157.0 0.0001092 6883.73682 9346.36035
9130.0 0.0001095 6868.13428 9386.37109
9252.0 0.0001081 6852.59424 9485.00000
9612.0 0.0001040 6837.12354 9632.61328
9909.0 0.0001009 6821.71729 9839.32422
10062.0 0.0000994 6806.37305 10078.65625
10612.0 0.0000942 6791.09912 10313.01953
10637.0 0.0000940 6775.89063 10502.86230
10806.0 0.0000925 6760.75342 10596.33496
10732.0 0.0000932 6745.67871 10572.02734
10608.0 0.0000943 6730.67529 10434.48633
10399.0 0.0000962 6715.73926 10209.19922
10200.0 0.0000980 6700.87354 9925.96973
9808.0 0.0001020 6686.07715 9620.22949
9394.0 0.0001065 6671.34717 9323.29199
8918.0 0.0001121 6656.69043 9058.98340
8891.0 0.0001125 6642.10596 8838.37598
8609.0 0.0001162 6627.58984 8663.62891
8382.0 0.0001193 6613.14014 8531.62207
8369.0 0.0001195 6598.76855 8436.60938
8374.0 0.0001194 6584.46533 8372.00586
8132.0 0.0001230 6570.23389 8331.57520
8057.0 0.0001241 6556.07617 8310.04395
8153.0 0.0001227 6541.98975 8303.33203
8142.0 0.0001228 6527.97559 8308.51563
8068.0 0.0001239 6514.03271 8323.67676
8101.0 0.0001234 6500.16553 8347.67480
8263.0 0.0001210 6486.37109 8379.91895
8264.0 0.0001210 6472.64990 8420.23145
8219.0 0.0001217 6459.00146 8468.73242
8133.0 0.0001230 6445.42822 8525.73633
8264.0 0.0001210 6431.92920 8591.75684
8341.0 0.0001199 6418.50439 8667.48438
8172.0 0.0001224 6405.15137 8753.79492
8284.0 0.0001207 6391.87451 8851.74219
8468.0 0.0001181 6378.67334 8962.60254
8616.0 0.0001161 6365.54736 9087.93066
8576.0 0.0001166 6352.49512 9229.60254
8679.0 0.0001152 6339.51611 9389.84277
8715.0 0.0001147 6326.61621 9571.35645
8881.0 0.0001126 6313.79004 9777.49219
9167.0 0.0001091 6301.03662 10012.40332
9415.0 0.0001062 6288.36084 10281.32324
9402.0 0.0001064 6275.76172 10591.01465
9862.0 0.0001014 6263.23779 10950.42480
10277.0 0.0000973 6250.78760 11371.92969
10746.0 0.0000931 6238.41309 11871.68652
11427.0 0.0000875 6226.11621 12478.04688
12342.0 0.0000810 6213.89404 13223.91211
13029.0 0.0000768 6201.74854 14163.90527
14349.0 0.0000697 6189.67529 15377.43164
15816.0 0.0000632 6177.68164 16975.45313
18256.0 0.0000548 6165.76270 19105.84375
21077.0 0.0000474 6153.92090 21957.67969
24797.0 0.0000403 6142.15283 25747.62891
29539.0 0.00003385 6130.46143 30695.52344
35383.0 0.00002826 6118.84473 36989.73438
42998.0 0.00002326 6107.30371 44747.48047
51872.0 0.00001928 6095.84033 53947.06250
62869.0 0.00001591 6084.44775 64305.35156
74440.0 0.00001343 6073.13428 75108.68750
85377.0 0.00001171 6061.89600 85084.73438
93995.0 0.00001064 6050.73291 92563.57813
99262.0 0.00001007 6039.64355 96158.57031
99933.0 0.00001001 6028.63086 95493.00781
96056.0 0.00001041 6017.69434 91112.69531
87812.0 0.00001139 6006.82959 83908.50000
77485.0 0.00001291 5996.04053 74916.13281
66905.0 0.00001495 5985.32617 65321.10547
56562.0 0.00001768 5974.68799 56211.89844
47719.0 0.00002096 5964.12158 48313.41797
40478.0 0.00002470 5953.62891 41953.35547
35738.0 0.00002798 5943.21484 37172.54688
32565.0 0.00003071 5932.87109 33869.37891
31184.0 0.00003207 5922.60010 31928.10742
30781.0 0.00003249 5912.40527 31293.10156
31780.0 0.00003147 5902.28271 31981.58594
33548.0 0.00002981 5892.23389 34077.88281
37282.0 0.00002682 5882.25684 37711.53906
42104.0 0.00002375 5872.35156 43005.46484
48799.0 0.00002049 5862.52197 49994.35156
57564.0 0.00001737 5852.76367 58526.12891
66967.0 0.00001493 5843.07568 68127.28125
77194.0 0.00001295 5833.46045 77835.44531
86648.0 0.00001154 5823.91846 86190.32031
93249.0 0.00001072 5814.44727 91555.17188
95152.0 0.00001051 5805.04541 92916.88281
93809.0 0.00001066 5795.71582 90320.82031
86669.0 0.00001154 5786.45703 84451.47656
78171.0 0.00001279 5777.26807 76175.54688
66889.0 0.00001495 5768.15088 66511.51563
56350.0 0.00001775 5759.10059 56577.32031
46037.0 0.00002172 5750.12402 47305.51172
37404.0 0.00002674 5741.21289 39254.02734
31282.0 0.00003197 5732.37207 32635.70313
25737.0 0.0000389 5723.60107 27431.06445
22560.0 0.0000443 5714.89697 23488.04297
19927.0 0.0000502 5706.26270 20591.52539
18098.0 0.0000553 5697.69629 18506.59180
16974.0 0.0000589 5689.19531 17004.31836
16048.0 0.0000623 5680.76367 15879.28223
15211.0 0.0000657 5672.39844 14968.19238
14466.0 0.0000691 5664.10010 14166.61426
13456.0 0.0000743 5655.86523 13422.35840
12754.0 0.0000784 5647.69873 12713.38477
11827.0 0.0000846 5639.59668 12034.94531
11326.0 0.0000883 5631.56104 11395.95898
10573.0 0.0000946 5623.58887 10811.14941
9882.0 0.0001012 5615.68262 10291.33594
9651.0 0.0001036 5607.84131 9839.78320
9056.0 0.0001104 5600.06250 9453.64063
8710.0 0.0001148 5592.34619 9126.13184
8605.0 0.0001162 5584.69434 8849.89941
8272.0 0.0001209 5577.10645 8616.16895
8218.0 0.0001217 5569.57813 8416.97168
8139.0 0.0001229 5562.11182 8246.01953
8028.0 0.0001246 5554.71045 8097.60303
7733.0 0.0001293 5547.36816 7967.47998
7722.0 0.0001295 5540.08594 7852.41699
7735.0 0.0001293 5532.86475 7750.05322
7622.0 0.0001312 5525.70459 7658.58105
7439.0 0.0001344 5518.60303 7576.67822
7377.0 0.0001356 5511.56104 7503.31982
7367.0 0.0001357 5504.57764 7437.72217
7455.0 0.0001341 5497.65381 7379.26416
7312.0 0.0001368 5490.78711 7327.43066
7368.0 0.0001357 5483.97754 7281.82764
7155.0 0.0001398 5477.22510 7242.14063
7376.0 0.0001356 5470.52979 7208.13916
7262.0 0.0001377 5463.89209 7179.65137
7296.0 0.0001371 5457.30859 7156.57422
7325.0 0.0001365 5450.78271 7138.87549
7226.0 0.0001384 5444.31006 7127.11475
7265.0 0.0001376 5437.89355 7120.33057
7242.0 0.0001381 5431.52881 7119.20752
7248.0 0.0001380 5425.22070 7123.98975
7336.0 0.0001363 5418.96484 7135.25293
7374.0 0.0001356 5412.76221 7152.89355
7304.0 0.0001369 5406.61328 7177.69678
7257.0 0.0001378 5400.51318 7210.30615
7452.0 0.0001342 5394.46777 7251.51172
7638.0 0.0001309 5388.47217 7302.28564
7834.0 0.0001276 5382.52783 7363.82422
7632.0 0.0001310 5376.63330 7437.57617
7804.0 0.0001281 5370.79004 7525.32080
7993.0 0.0001251 5364.99609 7629.29639
8152.0 0.0001227 5359.24951 7752.37354
8424.0 0.0001187 5353.55225 7898.27100
8381.0 0.0001193 5347.90381 8072.09717
8840.0 0.0001131 5342.30273 8281.19824
9319.0 0.0001073 5336.74707 8536.54199
9615.0 0.0001040 5331.24219 8854.83398
10119.0 0.0000988 5325.77930 9261.61914
10896.0 0.0000918 5320.36523 9795.42480
11852.0 0.0000844 5314.99463 10512.10156
13007.0 0.0000769 5309.67090 11488.16016
14462.0 0.0000691 5304.38965 12821.65430
16502.0 0.0000606 5299.15332 14628.44434
18592.0 0.0000538 5293.96143 17031.24414
21494.0 0.0000465 5288.81201 20140.03125
25100.0 0.0000398 5283.70654 24024.96680
29538.0 0.00003385 5278.64111 28680.41992
34353.0 0.00002911 5273.61963 33972.28906
39519.0 0.00002530 5268.63721 39564.49219
44602.0 0.00002242 5263.69580 44854.87500
48344.0 0.00002069 5258.79688 49026.26953
50989.0 0.00001961 5253.93750 51333.96875
51254.0 0.00001951 5249.11719 51481.48047
49645.0 0.00002014 5244.33594 49664.50000
46296.0 0.00002160 5239.59229 46279.26953
41157.0 0.00002430 5234.88721 41757.66797
35962.0 0.00002781 5230.22070 36612.86328
31019.0 0.00003224 5225.58887 31394.50391
25866.0 0.0000387 5220.99658 26550.99609
21906.0 0.0000456 5216.44092 22342.63672
18538.0 0.0000539 5211.91943 18864.53906
16224.0 0.0000616 5207.43604 16098.10059
14097.0 0.0000709 5202.98291 13965.15820
12485.0 0.0000801 5198.56934 12351.62207
11623.0 0.0000860 5194.18701 11166.20410
10722.0 0.0000933 5189.83691 10301.16895
10055.0 0.0000995 5185.52393 9675.26758
9769.0 0.0001024 5181.24121 9222.86523
9217.0 0.0001085 5176.99072 8911.09277
9182.0 0.0001089 5172.77295 8710.73730
9077.0 0.0001102 5168.58740 8610.52051
9103.0 0.0001099 5164.42969 8609.09375
9272.0 0.0001079 5160.30713 8711.44238
9387.0 0.0001065 5156.21191 8924.96875
9647.0 0.0001037 5152.14746 9255.56836
9936.0 0.0001006 5148.11084 9701.62207
10502.0 0.0000952 5144.10303 10249.92188
10986.0 0.0000910 5140.12451 10866.07617
11481.0 0.0000871 5136.17334 11486.43164
11746.0 0.0000851 5132.25098 12018.10840
12019.0 0.0000832 5128.35352 12366.13086
12505.0 0.0000800 5124.48340 12480.07715
12350.0 0.0000810 5120.64209 12376.04785
12357.0 0.0000809 5116.82617 12108.06641
11919.0 0.0000839 5113.03320 11738.87891
11593.0 0.0000863 5109.26563 11339.42773
11191.0 0.0000894 5105.52344 10990.16113
11061.0 0.0000904 5101.80713 10763.18945
11104.0 0.0000901 5098.11279 10704.35449
10996.0 0.0000909 5094.43994 10825.86035
11249.0 0.0000889 5090.79248 11104.84375
11132.0 0.0000898 5087.16748 11480.94727
11498.0 0.0000870 5083.56396 11855.86035
11505.0 0.0000869 5079.98193 12114.56445
11687.0 0.0000856 5076.42090 12167.06348
11521.0 0.0000868 5072.88232 11988.48242
11264.0 0.0000888 5069.36377 11606.93457
10633.0 0.0000940 5065.86572 11064.90039
9964.0 0.0001004 5062.38770 10410.47754
9473.0 0.0001056 5058.92871 9703.75000
8826.0 0.0001133 5055.48828 9008.29785
8369.0 0.0001195 5052.06641 8372.82813
7874.0 0.0001270 5048.66211 7824.21582
7489.0 0.0001335 5045.27588 7370.30811
7127.0 0.0001403 5041.90918 7006.94141
6945.0 0.0001440 5038.55908 6723.28955
6706.0 0.0001491 5035.22559 6505.99365
6714.0 0.0001489 5031.90527 6341.38525
6333.0 0.0001579 5028.60596 6218.54053
6286.0 0.0001591 5025.31787 6124.57422
6281.0 0.0001592 5022.04834 6053.00684
6195.0 0.0001614 5018.79346 5998.16211
6316.0 0.0001583 5015.55371 5956.85938
6246.0 0.0001601 5012.32617 5925.32764
6188.0 0.0001616 5009.11426 5902.93506
6084.0 0.0001644 5005.91504 5889.29492
6084.0 0.0001644 5002.72949 5884.90918
6179.0 0.0001618 4999.55615 5891.26514
6103.0 0.0001639 4996.39795 5911.08594
6350.0 0.0001575 4993.25000 5948.64844
6311.0 0.0001585 4990.11328 6010.08057
6371.0 0.0001570 4986.98877 6103.47119
6496.0 0.0001539 4983.87695 6238.59229
6499.0 0.0001539 4980.77441 6426.16602
6697.0 0.0001493 4977.68506 6676.41211
6974.0 0.0001434 4974.60303 6996.87695
7141.0 0.0001400 4971.53223 7389.60889
7483.0 0.0001336 4968.47266 7847.45166
7837.0 0.0001276 4965.42090 8348.63281
8184.0 0.0001222 4962.37891 8850.39453
8517.0 0.0001174 4959.34521 9287.52246
8728.0 0.0001146 4956.32031 9587.07031
8723.0 0.0001146 4953.30371 9700.48438
8848.0 0.0001130 4950.29395 9625.18848
8871.0 0.0001127 4947.29492 9390.42969
8614.0 0.0001161 4944.30176 9031.60449
8421.0 0.0001188 4941.31543 8586.12012
8167.0 0.0001224 4938.33545 8099.33740
7592.0 0.0001317 4935.36475 7618.25635
7289.0 0.0001372 4932.39648 7178.91504
7026.0 0.0001423 4929.43799 6801.45654
6890.0 0.0001451 4926.48535 6492.30518
6573.0 0.0001521 4923.53613 6250.62891
6330.0 0.0001580 4920.59277 6069.38184
6153.0 0.0001625 4917.65527 5939.81055
6137.0 0.0001629 4914.72168 5853.65527
5996.0 0.0001668 4911.79395 5803.34277
5949.0 0.0001681 4908.86865 5757.64502
5907.0 0.0001693 4905.94971 5758.06055
5912.0 0.0001691 4903.03223 5776.36572
5874.0 0.0001702 4900.12109 5797.35889
5946.0 0.0001682 4897.21143 5842.83350
5895.0 0.0001696 4894.30811 5900.31104
6110.0 0.0001637 4891.40479 5969.66162
6115.0 0.0001635 4888.50586 6048.08594
6108.0 0.0001637 4885.60986 6129.61475
6227.0 0.0001606 4882.71484 6201.89014
6315.0 0.0001584 4879.82129 6250.27490
6206.0 0.0001611 4876.93262 6264.44092
6265.0 0.0001596 4874.04346 6239.97412
6357.0 0.0001573 4871.15771 6181.51172
6301.0 0.0001587 4868.27246 6096.79150
6189.0 0.0001616 4865.38770 5993.37500
5841.0 0.0001712 4862.50635 5879.36084
5813.0 0.0001720 4859.62354 5765.14502
5669.0 0.0001764 4856.74316 5659.80859
5710.0 0.0001751 4853.86230 5569.46338
5626.0 0.0001777 4850.98242 5498.33154
5435.0 0.0001840 4848.10205 5445.53662
5426.0 0.0001843 4845.22266 5389.78857
5361.0 0.0001865 4842.34082 5377.30225
5524.0 0.0001810 4839.46094 5386.35498
5386.0 0.0001857 4836.58008 5417.51318
5442.0 0.0001838 4833.69971 5461.92285
5434.0 0.0001840 4830.81836 5544.22363
5558.0 0.0001799 4827.93652 5654.30371
5632.0 0.0001776 4825.05127 5791.70264
5794.0 0.0001726 4822.16699 5952.78760
5952.0 0.0001680 4819.28174 6128.99561
5927.0 0.0001687 4816.39355 6304.43457
6112.0 0.0001636 4813.50537 6455.90723
6098.0 0.0001640 4810.61670 6558.42627
6232.0 0.0001605 4807.72461 6596.00000
6160.0 0.0001623 4804.83057 6568.26025
6115.0 0.0001635 4801.93311 6485.65137
6161.0 0.0001623 4799.03809 6359.63037
5898.0 0.0001695 4796.13867 6204.05615
5895.0 0.0001696 4793.23779 6041.94629
5706.0 0.0001753 4790.33350 5873.28076
5595.0 0.0001787 4787.42480 5720.59912
5520.0 0.0001812 4784.51514 5592.29980
5385.0 0.0001857 4781.60498 5494.92822
5419.0 0.0001845 4778.69141 5428.85645
5284.0 0.0001893 4775.77344 5387.39502
5330.0 0.0001876 4772.85449 5372.60986
5368.0 0.0001863 4769.93066 5381.65820
5355.0 0.0001867 4767.00537 5411.92188
5381.0 0.0001858 4764.07617 5456.07275
5381.0 0.0001858 4761.14404 5508.35791
5454.0 0.0001834 4758.21045 5559.93652
5414.0 0.0001847 4755.27100 5598.76807
5348.0 0.0001870 4752.32959 5616.31445
5544.0 0.0001804 4749.38525 5609.20801
5503.0 0.0001817 4746.43750 5579.71875
5485.0 0.0001823 4743.48535 5532.52783
5462.0 0.0001831 4740.53174 5471.48291
5265.0 0.0001899 4737.57080 5401.97754
5352.0 0.0001868 4734.61084 5330.19678
5288.0 0.0001891 4731.64600 5261.97412
5141.0 0.0001945 4728.67627 5201.45117
5131.0 0.0001949 4725.70215 5150.80859
4998.0 0.0002001 4722.72607 5110.73828
5027.0 0.0001989 4719.74756 5080.98779
5058.0 0.0001977 4716.76367 5060.85352
4971.0 0.0002012 4713.77539 5049.41699
4955.0 0.0002018 4710.78271 5045.70703
4912.0 0.0002036 4707.79053 5048.76514
4978.0 0.0002009 4704.79150 5057.58936
4885.0 0.0002047 4701.78809 5071.06396
5106.0 0.0001958 4698.78223 5087.72510
5006.0 0.0001998 4695.77246 5105.69434
4952.0 0.0002019 4692.75879 5122.81055
5022.0 0.0001991 4689.74072 5137.46143
4979.0 0.0002008 4686.72119 5149.54688
5043.0 0.0001983 4683.69629 5160.75000
5058.0 0.0001977 4680.66748 5174.14844
5201.0 0.0001923 4677.63525 5192.71729
5156.0 0.0001939 4674.60010 5221.19385
5166.0 0.0001936 4671.55957 5265.07520
5273.0 0.0001896 4668.51709 5330.57813
5297.0 0.0001888 4665.46973 5423.23193
5367.0 0.0001863 4662.41992 5547.87988
5676.0 0.0001762 4659.36670 5707.24951
5770.0 0.0001733 4656.31006 5900.94141
5902.0 0.0001694 4653.25000 6123.78223
6329.0 0.0001580 4650.18555 6363.64111
6570.0 0.0001522 4647.11963 6599.24902
6802.0 0.0001470 4644.04736 6800.57373
7028.0 0.0001423 4640.97314 6936.26514
7165.0 0.0001396 4637.89600 6987.29639
7257.0 0.0001378 4634.81592 6954.35352
7031.0 0.0001422 4631.73145 6850.67383
6820.0 0.0001466 4628.64551 6691.24268
6507.0 0.0001537 4625.55518 6491.00049
6426.0 0.0001556 4622.46240 6268.14258
6195.0 0.0001614 4619.36816 6042.92578
5844.0 0.0001711 4616.26953 5832.50049
5673.0 0.0001763 4613.16748 5647.63379
5575.0 0.0001794 4610.06299 5492.89844
5405.0 0.0001850 4606.95703 5368.53613
5349.0 0.0001870 4603.84814 5259.38623
5265.0 0.0001899 4600.73486 5187.64014
5268.0 0.0001898 4597.62354 5135.99561
5137.0 0.0001947 4594.50342 5100.61719
5133.0 0.0001948 4591.38623 5071.74902
5090.0 0.0001965 4588.26465 5059.38477
5059.0 0.0001977 4585.14258 5055.17676
5213.0 0.0001918 4582.01611 5057.67627
5155.0 0.0001940 4578.89063 5066.24805
5301.0 0.0001886 4575.76074 5080.76904
5290.0 0.0001890 4572.63037 5101.69873
5413.0 0.0001847 4569.49902 5130.19043
5336.0 0.0001874 4566.36182 5168.24756
5596.0 0.0001787 4563.22754 5219.10205
5646.0 0.0001771 4560.09131 5287.57617
5803.0 0.0001723 4556.95215 5380.54932
6148.0 0.0001627 4553.81299 5507.21875
6241.0 0.0001602 4550.67285 5679.15869
6454.0 0.0001549 4547.52930 5909.85938
6826.0 0.0001465 4544.38770 6213.60303
7114.0 0.0001406 4541.24268 6603.48730
7514.0 0.0001331 4538.09961 7088.80518
8009.0 0.0001249 4534.95654 7672.49854
8597.0 0.0001163 4531.81006 8344.07324
9147.0 0.0001093 4528.66406 9077.58008
9750.0 0.0001026 4525.51758 9822.11230
10325.0 0.0000969 4522.37256 10499.59082
10939.0 0.0000914 4519.22461 11016.91309
11170.0 0.0000895 4516.07715 11298.48926
11068.0 0.0000904 4512.93164 11320.74316
11108.0 0.0000900 4509.78564 11114.60352
10679.0 0.0000936 4506.64111 10723.42383
10263.0 0.0000974 4503.49609 10190.31445
9733.0 0.0001027 4500.35156 9562.49805
9294.0 0.0001076 4497.20898 8900.42871
8782.0 0.0001139 4494.06494 8262.48828
8180.0 0.0001222 4490.92285 7694.19434
7639.0 0.0001309 4487.78369 7222.12744
7453.0 0.0001342 4484.64404 6856.66504
7057.0 0.0001417 4481.50537 6596.95703
6954.0 0.0001438 4478.36914 6434.83838
6922.0 0.0001445 4475.23291 6357.12305
6754.0 0.0001481 4472.10059 6346.71387
6923.0 0.0001444 4468.96875 6381.13330
6807.0 0.0001469 4465.83984 6439.52490
6653.0 0.0001503 4462.71240 6495.55615
6793.0 0.0001472 4459.58691 6529.75000
6631.0 0.0001508 4456.46387 6536.54395
6586.0 0.0001518 4453.34229 6517.38281
6365.0 0.0001571 4450.22607 6477.10938
6410.0 0.0001560 4447.11133 6418.98145
6283.0 0.0001592 4443.99902 6345.35596
6122.0 0.0001633 4440.89014 6258.69678
6105.0 0.0001638 4437.78369 6161.21533
5861.0 0.0001706 4434.68018 6055.52441
5853.0 0.0001709 4431.58154 5945.83936
5856.0 0.0001708 4428.48486 5837.10693
5694.0 0.0001756 4425.39355 5733.09180
5522.0 0.0001811 4422.30518 5636.40088
5474.0 0.0001827 4419.22168 5550.07178
5355.0 0.0001867 4416.14063 5478.19531
5155.0 0.0001940 4413.06299 5425.04883
5157.0 0.0001939 4409.99316 5394.23389
5191.0 0.0001926 4406.92480 5388.66504
5165.0 0.0001936 4403.86182 5411.01172
5171.0 0.0001934 4400.80371 5464.20068
5308.0 0.0001884 4397.74902 5551.77051
5368.0 0.0001863 4394.70313 5677.99561
5577.0 0.0001793 4391.65918 5847.59375
5728.0 0.0001746 4388.62061 6064.97998
5974.0 0.0001674 4385.58838 6333.38281
6201.0 0.0001613 4382.56299 6654.73486
6638.0 0.0001506 4379.53955 7030.59570
6941.0 0.0001441 4376.52588 7462.40283
7541.0 0.0001326 4373.51465 7948.29980
8050.0 0.0001242 4370.51221 8476.80859
8727.0 0.0001146 4367.51465 9020.56348
9617.0 0.0001040 4364.52295 9531.25879
10039.0 0.0000996 4361.53857 9945.32617
10617.0 0.0000942 4358.56250 10200.20508
10842.0 0.0000922 4355.59082 10261.60840
11156.0 0.0000896 4352.62549 10136.25391
10627.0 0.0000941 4349.66846 9856.15820
9958.0 0.0001004 4346.71924 9452.36719
9493.0 0.0001053 4343.77490 8956.69727
8731.0 0.0001145 4340.84033 8406.20020
8025.0 0.0001246 4337.91211 7844.29932
7456.0 0.0001341 4334.99170 7311.19873
6761.0 0.0001479 4332.07813 6832.49609
6229.0 0.0001605 4329.17383 6422.44434
5847.0 0.0001710 4326.27734 6083.96631
5671.0 0.0001763 4323.38916 5813.11084
5367.0 0.0001863 4320.50781 5602.29004
5299.0 0.0001887 4317.63721 5441.99805
5224.0 0.0001914 4314.77344 5322.81641
5037.0 0.0001985 4311.91943 5235.95313
5039.0 0.0001985 4309.07324 5173.91455
5038.0 0.0001985 4306.23633 5130.72705
5068.0 0.0001973 4303.40918 5102.14746
4887.0 0.0002046 4300.58936 5084.48389
4986.0 0.0002006 4297.77930 5075.94385
4927.0 0.0002030 4294.97900 5075.43164
5000.0 0.0002000 4292.19043 5082.68164
5090.0 0.0001965 4289.40967 5098.33789
5142.0 0.0001945 4286.63721 5123.45654
5215.0 0.0001918 4283.87646 5160.34326
5396.0 0.0001853 4281.12500 5212.05615
5285.0 0.0001892 4278.38525 5282.55957
5376.0 0.0001860 4275.65332 5376.60010
5551.0 0.0001801 4272.93359 5499.13037
5716.0 0.0001749 4270.22314 5655.20264
5984.0 0.0001671 4267.52344 5849.01318
6131.0 0.0001631 4264.83496 6083.10107
6369.0 0.0001570 4262.15625 6357.18457
6789.0 0.0001473 4259.48877 6666.54736
6998.0 0.0001429 4256.83350 7001.46338
7377.0 0.0001356 4254.18945 7341.48975
7614.0 0.0001313 4251.55420 7663.32813
7858.0 0.0001273 4248.93115 7943.87207
8077.0 0.0001238 4246.32080 8173.67773
8031.0 0.0001245 4243.72119 8360.04590
8387.0 0.0001192 4241.13330 8515.90918
8248.0 0.0001212 4238.55615 8656.14258
8514.0 0.0001175 4235.99268 8786.19922
8568.0 0.0001167 4233.43945 8909.13379
8611.0 0.0001161 4230.90039 9023.28906
8513.0 0.0001175 4228.37158 9124.44434
8971.0 0.0001115 4225.85449 9209.38770
8837.0 0.0001132 4223.35107 9285.50684
9179.0 0.0001089 4220.86084 9369.09277
9303.0 0.0001075 4218.38232 9476.45898
9472.0 0.0001056 4215.91602 9615.60547
9670.0 0.0001034 4213.46191 9787.72266
9938.0 0.0001006 4211.02148 9989.48730
10232.0 0.0000977 4208.59229 10213.61328
10577.0 0.0000945 4206.17822 10446.57910
10750.0 0.0000930 4203.77588 10666.61426
10899.0 0.0000918 4201.38770 10842.75293
11096.0 0.0000901 4199.01270 10943.21582
10931.0 0.0000915 4196.65137 10952.65625
10792.0 0.0000927 4194.30078 10882.72949
10937.0 0.0000914 4191.96582 10762.83203
10737.0 0.0000931 4189.64307 10628.59473
10808.0 0.0000925 4187.33594 10512.25391
10918.0 0.0000916 4185.04150 10455.80273
10864.0 0.0000920 4182.75879 10509.67090
11489.0 0.0000870 4180.49121 10730.36133
11795.0 0.0000848 4178.23877 11175.84570
12567.0 0.0000796 4175.99902 11902.30566
13666.0 0.0000732 4173.77393 12966.91699
15153.0 0.0000660 4171.56250 14425.38672
16875.0 0.0000593 4169.36523 16329.84473
18973.0 0.0000527 4167.18213 18720.13477
21246.0 0.0000471 4165.01318 21610.60156
24666.0 0.0000405 4162.85986 24968.81836
28164.0 0.0000355 4160.72070 28694.32617
32153.0 0.00003110 4158.59424 32591.50586
36004.0 0.00002777 4156.48145 36354.85547
39651.0 0.00002522 4154.38574 39601.51953
42753.0 0.00002339 4152.30273 41978.72656
44784.0 0.00002233 4150.23584 43286.23828
44900.0 0.00002227 4148.18311 43500.41797
43823.0 0.00002282 4146.14453 42688.92578
41833.0 0.00002390 4144.12158 40944.82813
38690.0 0.00002585 4142.11328 38411.41016
35345.0 0.00002829 4140.12061 35316.78516
31883.0 0.00003136 4138.14063 31935.44531
28139.0 0.0000355 4136.17725 28514.45117
24640.0 0.0000406 4134.22998 25236.49023
21555.0 0.0000464 4132.29541 22221.84961
18728.0 0.0000534 4130.37598 19536.13477
16342.0 0.0000612 4128.47266 17199.37500
14684.0 0.0000681 4126.58447 15201.06152
13303.0 0.0000752 4124.71045 13516.15332
12047.0 0.0000830 4122.85352 12109.38477
11001.0 0.0000909 4121.01074 10938.70996
10045.0 0.0000996 4119.18359 9961.54688
9160.0 0.0001092 4117.37061 9142.25000
8671.0 0.0001153 4115.57373 8454.45313
8045.0 0.0001243 4113.79150 7878.70313
7553.0 0.0001324 4112.02588 7399.29883
7126.0 0.0001403 4110.27344 7002.62158
6900.0 0.0001449 4108.53906 6676.70020
6635.0 0.0001507 4106.81934 6411.18701
6250.0 0.0001600 4105.11426 6197.54297
6086.0 0.0001643 4103.42236 6028.92725
5897.0 0.0001696 4101.74902 5899.94775
5864.0 0.0001705 4100.08984 5806.39258
5875.0 0.0001702 4098.44824 5744.95850
5708.0 0.0001752 4096.81934 5712.82031
5621.0 0.0001779 4095.20679 5707.16650
5796.0 0.0001725 4093.60962 5724.59180
5610.0 0.0001783 4092.02808 5760.50293
5652.0 0.0001769 4090.46094 5807.91113
5650.0 0.0001770 4088.90967 5857.43408
5542.0 0.0001804 4087.37378 5897.04004
5633.0 0.0001775 4085.85547 5914.77832
5638.0 0.0001774 4084.35059 5902.86914
5628.0 0.0001777 4082.86206 5860.20703
5603.0 0.0001785 4081.38623 5790.84424
5418.0 0.0001846 4079.92920 5700.03613
5422.0 0.0001844 4078.48560 5593.03271
5251.0 0.0001904 4077.05713 5474.03662
5057.0 0.0001977 4075.64551 5350.18115
4985.0 0.0002006 4074.24805 5228.56250
4890.0 0.0002045 4072.86719 5115.13281
4821.0 0.0002074 4071.50000 5014.07227
4637.0 0.0002157 4070.14844 4926.83691
4594.0 0.0002177 4068.81177 4854.19043
4694.0 0.0002130 4067.49194 4795.79834
4515.0 0.0002215 4066.18579 4750.88135
4526.0 0.0002209 4064.89478 4718.53418
4550.0 0.0002198 4063.61987 4697.89551
4494.0 0.0002225 4062.35938 4688.24316
4538.0 0.0002204 4061.11426 4689.04834
4635.0 0.0002157 4059.88403 4699.60791
4522.0 0.0002211 4058.66943 4719.29736
4655.0 0.0002148 4057.46777 4747.09180
4518.0 0.0002213 4056.28271 4781.35742
4608.0 0.0002170 4055.11279 4819.62842
4616.0 0.0002166 4053.95605 4857.98926
4647.0 0.0002152 4052.81470 4891.65527
4644.0 0.0002153 4051.68750 4915.75537
4558.0 0.0002194 4050.57764 4927.07861
4553.0 0.0002196 4049.47852 4925.37354
4616.0 0.0002166 4048.39746 4912.62549
4542.0 0.0002202 4047.32861 4891.85059
4578.0 0.0002184 4046.27515 4865.90723
4673.0 0.0002140 4045.23560 4838.25732
4554.0 0.0002196 4044.21191 4813.35449
4666.0 0.0002143 4043.20117 4796.54785
4558.0 0.0002194 4042.20508 4793.40381
4691.0 0.0002132 4041.22339 4809.24756
4631.0 0.0002159 4040.25562 4848.87793
4748.0 0.0002106 4039.30151 4916.58643
4890.0 0.0002045 4038.36255 5015.81201
4946.0 0.0002022 4037.43628 5148.72803
5290.0 0.0001890 4036.52393 5315.62646
5312.0 0.0001883 4035.62549 5514.04004
5587.0 0.0001790 4034.74121 5737.69824
5878.0 0.0001701 4033.87109 5975.17188
5924.0 0.0001688 4033.01392 6208.72461
6184.0 0.0001617 4032.17017 6414.60254
6309.0 0.0001585 4031.33960 6567.49365
6427.0 0.0001556 4030.52393 6648.95264
6482.0 0.0001543 4029.71924 6654.03613
6405.0 0.0001561 4028.92896 6589.91309
6144.0 0.0001628 4028.15186 6468.36475
6032.0 0.0001658 4027.38770 6300.41064
5870.0 0.0001704 4026.63745 6095.36523
5476.0 0.0001826 4025.89868 5870.15234
5450.0 0.0001835 4025.17383 5638.80078
5309.0 0.0001884 4024.46143 5415.75146
5112.0 0.0001956 4023.76001 5210.68359
4880.0 0.0002049 4023.07300 5031.35938
4775.0 0.0002094 4022.39819 4878.94482
4608.0 0.0002170 4021.73560 4753.02979
4604.0 0.0002172 4021.08594 4651.45508
4501.0 0.0002222 4020.44873 4571.16650
4525.0 0.0002210 4019.82227 4508.76123
4372.0 0.0002287 4019.20898 4460.89893
4438.0 0.0002253 4018.60449 4424.40137
4362.0 0.0002293 4018.01685 4396.69824
4267.0 0.0002344 4017.43726 4375.64844
4191.0 0.0002386 4016.87061 4359.62793
4346.0 0.0002301 4016.31592 4347.35596
4275.0 0.0002339 4015.77319 4337.97314
4299.0 0.0002326 4015.24048 4330.56104
4232.0 0.0002363 4014.71899 4325.38428
4146.0 0.0002412 4014.20947 4321.79053
4238.0 0.0002360 4013.70996 4319.61719
4197.0 0.0002383 4013.22266 4318.62109
4256.0 0.0002350 4012.74414 4319.07178
4174.0 0.0002396 4012.27881 4320.87695
4254.0 0.0002351 4011.82178 4323.91504
4244.0 0.0002356 4011.37671 4328.13135
4236.0 0.0002361 4010.94116 4333.94971
4300.0 0.0002326 4010.51929 4341.37109
4232.0 0.0002363 4010.10278 4350.57324
4259.0 0.0002348 4009.69800 4361.83643
4387.0 0.0002279 4009.30444 4375.65479
4476.0 0.0002234 4008.91919 4392.60596
4436.0 0.0002254 4008.54541 4413.56689
4380.0 0.0002283 4008.18018 4439.72461
4520.0 0.0002212 4007.82446 4472.70166
4512.0 0.0002216 4007.47852 4514.75586
4722.0 0.0002118 4007.14111 4568.50732
4769.0 0.0002097 4006.81299 4637.42627
4860.0 0.0002058 4006.49390 4725.67627
4936.0 0.0002026 4006.18359 4837.90527
5141.0 0.0001945 4005.88257 4979.28125
5305.0 0.0001885 4005.58936 5154.97705
5521.0 0.0001811 4005.30664 5369.64600
5795.0 0.0001726 4005.03076 5626.82080
5976.0 0.0001673 4004.76489 5927.77930
6396.0 0.0001563 4004.50537 6269.59375
6618.0 0.0001511 4004.25342 6645.52148
7095.0 0.0001409 4004.01172 7044.44580
7470.0 0.0001339 4003.77588 7454.14551
7849.0 0.0001274 4003.54834 7861.73193
8275.0 0.0001208 4003.32910 8250.12305
8715.0 0.0001147 4003.11646 8599.30664
9018.0 0.0001109 4002.91040 8878.03809
9312.0 0.0001074 4002.71265 9057.48145
9291.0 0.0001076 4002.52271 9122.89844
9485.0 0.0001054 4002.34009 9078.18945
9489.0 0.0001054 4002.16162 8941.78516
9062.0 0.0001104 4001.99268 8729.87207
8874.0 0.0001127 4001.82910 8455.54004
8456.0 0.0001183 4001.67065 8131.68652
8127.0 0.0001230 4001.52100 7777.63965
7740.0 0.0001292 4001.37573 7417.80322
7452.0 0.0001342 4001.23730 7074.83203
7078.0 0.0001413 4001.10425 6765.57227
6842.0 0.0001462 4000.97754 6498.82227
6526.0 0.0001532 4000.85620 6278.02295
6493.0 0.0001540 4000.73999 6102.29297
6201.0 0.0001613 4000.63037 5966.60645
6050.0 0.0001653 4000.52515 5862.30078
6107.0 0.0001637 4000.42432 5777.74023
6108.0 0.0001637 4000.33032 5701.22803
6038.0 0.0001656 4000.24023 5624.32422
5939.0 0.0001684 4000.15479 5543.10205
5847.0 0.0001710 4000.07495 5457.01611
5665.0 0.0001765 3999.99805 5366.46533
5585.0 0.0001791 3999.92529 5271.76221
5486.0 0.0001823 3999.85840 5174.21777
5401.0 0.0001852 3999.79492 5075.99756
5163.0 0.0001937 3999.73535 4980.66992
5085.0 0.0001967 3999.67969 4891.66650
5048.0 0.0001981 3999.62866 4811.48291
4926.0 0.0002030 3999.57764 4741.68359
4717.0 0.0002120 3999.53369 4682.93262
4826.0 0.0002072 3999.49268 4634.85010
4833.0 0.0002069 3999.45459 4596.98242
4700.0 0.0002128 3999.41870 4568.62939
4663.0 0.0002145 3999.38525 4549.12598
4783.0 0.0002091 3999.35547 4537.94873
4806.0 0.0002081 3999.32837 4534.74170
4689.0 0.0002133 3999.30249 4538.80566
4796.0 0.0002085 3999.28076 4552.02148
4799.0 0.0002084 3999.26025 4573.90625
4855.0 0.0002060 3999.24219 4606.13770
5019.0 0.0001992 3999.22583 4650.77344
4907.0 0.0002038 3999.21167 4710.36963
5242.0 0.0001908 3999.19775 4789.21338
5372.0 0.0001862 3999.18848 4892.42139
5486.0 0.0001823 3999.17798 5023.78760
5675.0 0.0001762 3999.16968 5189.22656
5879.0 0.0001701 3999.16187 5395.92529
6157.0 0.0001624 3999.15674 5648.15088
6395.0 0.0001564 3999.15039 5949.43018
6706.0 0.0001491 3999.14697 6300.78857
7011.0 0.0001426 3999.14282 6700.70850
7386.0 0.0001354 3999.13965 7144.56250
7741.0 0.0001292 3999.13647 7621.71582
8241.0 0.0001213 3999.13403 8114.28906
8450.0 0.0001183 3999.13281 8593.89355
9046.0 0.0001105 3999.13037 9022.62402
9180.0 0.0001089 3999.12476 9360.16113
9247.0 0.0001081 3999.12329 9578.26660
9494.0 0.0001053 3999.11938 9664.28027
9465.0 0.0001057 3999.11621 9623.33105
9321.0 0.0001073 3999.11255 9469.63574
9003.0 0.0001111 3999.10767 9219.31055
8696.0 0.0001150 3999.10181 8890.17285
8442.0 0.0001185 3999.09521 8502.58594
7884.0 0.0001268 3999.08545 8081.34131
7675.0 0.0001303 3999.07617 7653.32080
7342.0 0.0001362 3999.06543 7244.05811
6916.0 0.0001446 3999.05420 6873.60107
6869.0 0.0001456 3999.04053 6556.85938
6600.0 0.0001515 3999.02515 6304.15088
6536.0 0.0001530 3999.00757 6122.42627
6222.0 0.0001607 3998.98706 6017.16504
6410.0 0.0001560 3998.96582 5992.71191
6351.0 0.0001575 3998.94092 6052.77588
6580.0 0.0001520 3998.91602 6199.55273
6541.0 0.0001529 3998.88647 6433.94482
6993.0 0.0001430 3998.85669 6753.81006
7179.0 0.0001393 3998.82202 7144.67773
7551.0 0.0001324 3998.78442 7611.91992
8006.0 0.0001249 3998.74512 8127.71240
8473.0 0.0001180 3998.70313 8663.39551
8835.0 0.0001132 3998.65601 9177.50879
9369.0 0.0001067 3998.60645 9623.27441
9588.0 0.0001043 3998.55469 9959.88867
9747.0 0.0001026 3998.49878 10148.34473
9952.0 0.0001005 3998.43799 10175.16992
9894.0 0.0001011 3998.37476 10052.63379
9655.0 0.0001036 3998.30762 9801.28223
9275.0 0.0001078 3998.23535 9444.52051
8722.0 0.0001147 3998.15894 9004.30371
8331.0 0.0001200 3998.08057 8506.62207
7993.0 0.0001251 3997.99609 7978.69434
7600.0 0.0001316 3997.90796 7451.19531
6982.0 0.0001432 3997.81494 6950.33496
6575.0 0.0001521 3997.71777 6493.75391
6206.0 0.0001611 3997.61548 6092.78809
5942.0 0.0001683 3997.50830 5750.72949
5695.0 0.0001756 3997.39697 5466.23584
5418.0 0.0001846 3997.27905 5236.07227
5316.0 0.0001881 3997.15723 5053.60156
5237.0 0.0001909 3997.02905 4912.97510
5039.0 0.0001985 3996.89673 4807.91455
5067.0 0.0001974 3996.75854 4732.51611
4858.0 0.0002058 3996.61475 4681.78320
4958.0 0.0002017 3996.46631 4652.37207
4903.0 0.0002040 3996.31030 4639.00098
4813.0 0.0002078 3996.14917 4639.64404
4752.0 0.0002104 3995.98315 4651.73047
4983.0 0.0002007 3995.81079 4672.63184
4962.0 0.0002015 3995.63208 4699.50293
4904.0 0.0002039 3995.44653 4729.32861
5120.0 0.0001953 3995.25439 4757.36475
5064.0 0.0001975 3995.05713 4779.72119
5163.0 0.0001937 3994.85327 4792.89355
5082.0 0.0001968 3994.64111 4795.10449
5060.0 0.0001976 3994.42456 4786.39844
4974.0 0.0002010 3994.19946 4768.99414
4922.0 0.0002032 3993.96924 4744.57227
4962.0 0.0002015 3993.73022 4714.96875
4896.0 0.0002042 3993.48535 4682.08545
4840.0 0.0002066 3993.23438 4648.72998
4674.0 0.0002139 3992.97388 4617.72949
4775.0 0.0002094 3992.70801 4592.04883
4688.0 0.0002133 3992.43408 4574.22656
4586.0 0.0002181 3992.15308 4566.30908
4713.0 0.0002122 3991.86450 4569.85596
4574.0 0.0002186 3991.56909 4586.10400
4694.0 0.0002130 3991.26440 4616.07324
4754.0 0.0002103 3990.95361 4660.65527
4725.0 0.0002116 3990.63354 4720.61768
4936.0 0.0002026 3990.30664 4796.48779
4939.0 0.0002025 3989.97168 4888.91699
4920.0 0.0002033 3989.62964 4997.13428
5164.0 0.0001936 3989.27808 5121.22021
5118.0 0.0001954 3988.91797 5261.51074
5270.0 0.0001898 3988.55200 5418.90479
5363.0 0.0001865 3988.17432 5595.06934
5455.0 0.0001833 3987.79053 5790.94336
5739.0 0.0001742 3987.39917 6005.20459
5938.0 0.0001684 3986.99878 6233.40723
5913.0 0.0001691 3986.58887 6468.01514
6269.0 0.0001595 3986.17065 6698.40576
6550.0 0.0001527 3985.74463 6913.42969
6532.0 0.0001531 3985.30908 7104.07129
6723.0 0.0001487 3984.86572 7267.27100
7060.0 0.0001416 3984.41235 7404.97705
7126.0 0.0001403 3983.95142 7518.86572
7250.0 0.0001379 3983.47974 7608.60205
7560.0 0.0001323 3982.99976 7667.26807
7655.0 0.0001306 3982.51221 7686.92334
7763.0 0.0001288 3982.01440 7660.52490
7642.0 0.0001309 3981.50781 7587.28809
7450.0 0.0001342 3980.99194 7470.13037
7368.0 0.0001357 3980.46606 7319.54053
7351.0 0.0001360 3979.93213 7145.65625
7089.0 0.0001411 3979.38794 6954.91016
6798.0 0.0001471 3978.83545 6752.95605
6551.0 0.0001526 3978.27319 6542.93359
6483.0 0.0001542 3977.70142 6331.64941
6238.0 0.0001603 3977.12012 6124.91162
6020.0 0.0001661 3976.52930 5928.15967
5801.0 0.0001724 3975.92749 5744.43750
5758.0 0.0001737 3975.31812 5575.12939
5461.0 0.0001831 3974.69922 5422.46240
5385.0 0.0001857 3974.06909 5286.13623
5303.0 0.0001886 3973.43018 5165.27441
5223.0 0.0001915 3972.78149 5057.90234
5196.0 0.0001925 3972.12354 4961.33594
5113.0 0.0001956 3971.45410 4874.01514
5016.0 0.0001994 3970.77661 4794.41602
4905.0 0.0002039 3970.08911 4721.82959
4815.0 0.0002077 3969.39038 4656.12988
4703.0 0.0002126 3968.68359 4597.16016
4624.0 0.0002163 3967.96582 4544.52441
4642.0 0.0002154 3967.23828 4498.06104
4631.0 0.0002159 3966.50146 4456.90771
4577.0 0.0002185 3965.75293 4421.22900
4416.0 0.0002264 3964.99512 4390.82275
4377.0 0.0002285 3964.22778 4365.50342
4325.0 0.0002312 3963.44995 4344.80127
4432.0 0.0002256 3962.66284 4328.28564
4316.0 0.0002317 3961.86426 4315.08008
4331.0 0.0002309 3961.05664 4304.95752
4424.0 0.0002260 3960.23926 4297.85498
4349.0 0.0002299 3959.41016 4293.97949
4399.0 0.0002273 3958.57373 4293.68896
4382.0 0.0002282 3957.72461 4297.32520
4290.0 0.0002331 3956.86646 4305.20166
4525.0 0.0002210 3955.99683 4317.57178
4488.0 0.0002228 3955.11841 4334.58594
4467.0 0.0002239 3954.23096 4356.17188
4360.0 0.0002294 3953.33105 4381.86133
4348.0 0.0002300 3952.42188 4410.70068
4516.0 0.0002214 3951.50220 4441.07959
4382.0 0.0002282 3950.57275 4470.77734
4520.0 0.0002212 3949.63330 4497.30615
4609.0 0.0002170 3948.68335 4518.41357
4591.0 0.0002178 3947.72339 4532.92773
4593.0 0.0002177 3946.75366 4541.03418
4475.0 0.0002235 3945.77246 4543.93701
4626.0 0.0002162 3944.78320 4543.17969
4668.0 0.0002142 3943.78247 4540.11816
4591.0 0.0002178 3942.77148 4535.94775
4577.0 0.0002185 3941.75049 4531.89063
4686.0 0.0002134 3940.71973 4529.31982
4722.0 0.0002118 3939.67798 4529.31152
4615.0 0.0002167 3938.62793 4532.85010
4577.0 0.0002185 3937.56543 4540.39111
4622.0 0.0002164 3936.49536 4551.89648
4575.0 0.0002186 3935.41235 4566.73535
4564.0 0.0002191 3934.32227 4583.79834
4615.0 0.0002167 3933.22070 4601.75391
4450.0 0.0002247 3932.10986 4619.24414
4644.0 0.0002153 3930.98877 4634.46533
4539.0 0.0002203 3929.85718 4645.99902
4514.0 0.0002215 3928.71680 4652.46094
4466.0 0.0002239 3927.56543 4652.85986
4511.0 0.0002217 3926.40430 4648.17773
4560.0 0.0002193 3925.23413 4639.25586
4444.0 0.0002250 3924.05371 4627.25098
4410.0 0.0002268 3922.86328 4613.40234
4396.0 0.0002275 3921.66333 4597.50586
4409.0 0.0002268 3920.45361 4582.58691
4415.0 0.0002265 3919.23389 4568.06104
4428.0 0.0002258 3918.00610 4554.11377
4330.0 0.0002309 3916.76685 4540.55469
4356.0 0.0002296 3915.51855 4527.28174
4337.0 0.0002306 3914.26074 4513.91699
4294.0 0.0002329 3912.99390 4501.74121
4334.0 0.0002307 3911.71704 4491.98291
4448.0 0.0002248 3910.43018 4486.23096
4323.0 0.0002313 3909.13525 4485.92334
4361.0 0.0002293 3907.82935 4492.52686
4211.0 0.0002375 3906.51392 4506.64355
4406.0 0.0002270 3905.19141 4529.44922
4436.0 0.0002254 3903.85938 4561.54443
4433.0 0.0002256 3902.51733 4602.78564
4458.0 0.0002243 3901.16602 4652.01855
4503.0 0.0002221 3899.80518 4706.56934
4524.0 0.0002210 3898.43628 4763.07275
4586.0 0.0002181 3897.05688 4816.17871
4524.0 0.0002210 3895.66846 4860.06592
4584.0 0.0002182 3894.27271 4889.54102
4659.0 0.0002146 3892.86841 4901.38477
4741.0 0.0002109 3891.45435 4895.46045
4732.0 0.0002113 3890.03149 4873.34668
4750.0 0.0002105 3888.59888 4837.49463
4667.0 0.0002143 3887.16016 4790.34570
4505.0 0.0002220 3885.71167 4734.13672
4524.0 0.0002210 3884.25391 4671.66309
4516.0 0.0002214 3882.78882 4606.32910
4384.0 0.0002281 3881.31445 4541.82520
4367.0 0.0002290 3879.83130 4481.65820
4385.0 0.0002281 3878.34058 4428.58789
4262.0 0.0002346 3876.84180 4384.59033
4352.0 0.0002298 3875.33350 4350.98730
4267.0 0.0002344 3873.81787 4328.55713
4302.0 0.0002325 3872.29443 4317.50830
4198.0 0.0002382 3870.76343 4317.91650
4405.0 0.0002270 3869.22266 4329.51514
4199.0 0.0002382 3867.67676 4351.76758
4396.0 0.0002275 3866.12061 4383.91211
4411.0 0.0002267 3864.55811 4424.86621
4371.0 0.0002288 3862.98755 4473.22461
4462.0 0.0002241 3861.40845 4527.14502
4556.0 0.0002195 3859.82251 4584.36133
4640.0 0.0002155 3858.22900 4642.32568
4706.0 0.0002125 3856.62842 4698.67090
4839.0 0.0002067 3855.02051 4751.95996
4861.0 0.0002057 3853.40552 4802.59863
4861.0 0.0002057 3851.78174 4852.83887
4921.0 0.0002032 3850.15234 4906.20947
4992.0 0.0002003 3848.51514 4966.74268
5033.0 0.0001987 3846.87134 5038.17822
4990.0 0.0002004 3845.22070 5124.00000
5095.0 0.0001963 3843.56274 5227.43652
5179.0 0.0001931 3841.89917 5350.97119
5397.0 0.0001853 3840.22778 5496.08398
5519.0 0.0001812 3838.54956 5661.95117
5494.0 0.0001820 3836.86597 5845.01465
5706.0 0.0001753 3835.17456 6039.33594
5914.0 0.0001691 3833.47827 6236.98096
6223.0 0.0001607 3831.77466 6430.04980
6235.0 0.0001604 3830.06372 6611.52002
6563.0 0.0001524 3828.34839 6774.76367
6610.0 0.0001513 3826.62622 6912.29102
6801.0 0.0001470 3824.89893 7014.24756
6777.0 0.0001476 3823.16528 7069.94629
6679.0 0.0001497 3821.42578 7071.54590
6724.0 0.0001487 3819.68042 7016.77930
6564.0 0.0001523 3817.92920 6910.93652
6563.0 0.0001524 3816.17188 6763.85840
6363.0 0.0001572 3814.41040 6585.53467
6143.0 0.0001628 3812.64307 6385.07764
5954.0 0.0001680 3810.87012 6170.24512
5807.0 0.0001722 3809.09155 5949.11914
5492.0 0.0001821 3807.30908 5729.51953
5414.0 0.0001847 3805.51953 5519.83105
5126.0 0.0001951 3803.72729 5326.97314
4989.0 0.0002004 3801.92896 5155.25879
5009.0 0.0001996 3800.12622 5007.27051
4970.0 0.0002012 3798.31812 4881.97998
4786.0 0.0002089 3796.50488 4779.87549
4793.0 0.0002086 3794.68872 4696.94580
4690.0 0.0002132 3792.86743 4630.05664
4701.0 0.0002127 3791.04175 4575.30469
4756.0 0.0002103 3789.21167 4528.90625
4616.0 0.0002166 3787.37793 4489.35840
4669.0 0.0002142 3785.53882 4454.35498
4603.0 0.0002172 3783.69629 4423.16895
4534.0 0.0002206 3781.85010 4394.85742
4471.0 0.0002237 3780.00024 4368.95996
4422.0 0.0002261 3778.14575 4345.34375
4449.0 0.0002248 3776.28833 4324.40381
4481.0 0.0002232 3774.42725 4306.96973
4394.0 0.0002276 3772.56201 4294.14307
4346.0 0.0002301 3770.69409 4287.22461
4357.0 0.0002295 3768.82324 4287.61914
4270.0 0.0002342 3766.94849 4296.88916
4394.0 0.0002276 3765.07080 4316.78369
4538.0 0.0002204 3763.19067 4349.73730
4558.0 0.0002194 3761.30640 4396.96484
4498.0 0.0002223 3759.42139 4461.26563
4564.0 0.0002191 3757.53149 4545.00098
4671.0 0.0002141 3755.64038 4650.34424
4781.0 0.0002092 3753.74634 4779.24805
4857.0 0.0002059 3751.84985 4932.94824
5011.0 0.0001996 3749.95068 5111.71045
5237.0 0.0001909 3748.04932 5313.88672
5400.0 0.0001852 3746.14502 5539.29541
5783.0 0.0001729 3744.23901 5782.51611
5945.0 0.0001682 3742.33228 6036.98584
6041.0 0.0001655 3740.42358 6293.49512
6351.0 0.0001575 3738.51147 6542.44873
6514.0 0.0001535 3736.59814 6773.87891
6767.0 0.0001478 3734.68457 6983.44189
7034.0 0.0001422 3732.76782 7170.49170
7036.0 0.0001421 3730.85083 7338.58545
7144.0 0.0001400 3728.93262 7492.35547
7226.0 0.0001384 3727.01245 7634.46729
7186.0 0.0001392 3725.09131 7764.59619
7325.0 0.0001365 3723.16919 7880.69482
7541.0 0.0001326 3721.24585 7980.31445
7452.0 0.0001342 3719.32275 8061.94727
7310.0 0.0001368 3717.39648 8125.14746
7748.0 0.0001291 3715.47339 8167.69629
7642.0 0.0001309 3713.54565 8185.42480
7522.0 0.0001329 3711.61914 8170.58838
7796.0 0.0001283 3709.69385 8114.22168
7418.0 0.0001348 3707.76611 8009.97705
7366.0 0.0001358 3705.83862 7857.68115
7445.0 0.0001343 3703.91138 7662.89795
7116.0 0.0001405 3701.98462 7434.72119
6819.0 0.0001466 3700.05859 7181.77686
6560.0 0.0001524 3698.13110 6911.91357
6413.0 0.0001559 3696.20410 6632.12598
6081.0 0.0001644 3694.27856 6350.16797
5912.0 0.0001691 3692.35278 6074.03223
5778.0 0.0001731 3690.42725 5812.40234
5494.0 0.0001820 3688.50269 5572.54688
5238.0 0.0001909 3686.57886 5359.38086
5146.0 0.0001943 3684.65503 5176.66992
5016.0 0.0001994 3682.73364 5026.21289
4825.0 0.0002073 3680.81274 4908.45313
4732.0 0.0002113 3678.89380 4823.11670
4874.0 0.0002052 3676.97485 4768.94873
4746.0 0.0002107 3675.05664 4743.99072
4808.0 0.0002080 3673.14185 4746.05713
4819.0 0.0002075 3671.22778 4772.40674
4840.0 0.0002066 3669.31470 4819.78809
5029.0 0.0001988 3667.40356 4884.41113
5126.0 0.0001951 3665.49390 4961.79541
5157.0 0.0001939 3663.58618 5046.63818
5314.0 0.0001882 3661.68262 5132.87695
5486.0 0.0001823 3659.77710 5214.18701
5577.0 0.0001793 3657.87744 5285.01904
5701.0 0.0001754 3655.97778 5342.05420
5776.0 0.0001731 3654.08105 5384.95605
5772.0 0.0001733 3652.18628 5416.24463
5820.0 0.0001718 3650.29370 5440.41016
5858.0 0.0001707 3648.40552 5462.07715
5821.0 0.0001718 3646.51855 5485.72510
5765.0 0.0001735 3644.63330 5515.70410
5676.0 0.0001762 3642.75342 5556.59766
5669.0 0.0001764 3640.87500 5613.06738
5694.0 0.0001756 3639.00024 5689.37158
5768.0 0.0001734 3637.12817 5788.59717
5654.0 0.0001769 3635.25854 5911.58545
6009.0 0.0001664 3633.39380 6058.60303
6274.0 0.0001594 3631.53076 6226.25732
6212.0 0.0001610 3629.67212 6409.21387
6464.0 0.0001547 3627.81592 6600.70605
6547.0 0.0001527 3625.96533 6793.93701
6650.0 0.0001504 3624.11743 6983.34473
6851.0 0.0001460 3622.27246 7166.95459
7121.0 0.0001404 3620.43188 7343.00146
7174.0 0.0001394 3618.59521 7511.55713
7278.0 0.0001374 3616.76245 7669.60107
7392.0 0.0001353 3614.93481 7812.12305
7675.0 0.0001303 3613.11084 7932.70361
7923.0 0.0001262 3611.29004 8024.79492
7834.0 0.0001276 3609.47534 8084.86133
8020.0 0.0001247 3607.66357 8113.00635
7969.0 0.0001255 3605.85669 8113.86182
8129.0 0.0001230 3604.05469 8095.22559
8089.0 0.0001236 3602.25732 8065.54297
7875.0 0.0001270 3600.46362 8032.73779
8214.0 0.0001217 3598.67603 8003.36914
8093.0 0.0001236 3596.89233 7983.21289
8176.0 0.0001223 3595.11499 7977.30908
8134.0 0.0001229 3593.34155 7989.10791
8269.0 0.0001209 3591.57373 8019.47754
8469.0 0.0001181 3589.81079 8066.45996
8483.0 0.0001179 3588.05225 8125.83008
8319.0 0.0001202 3586.30029 8192.68555
8502.0 0.0001176 3584.55371 8262.19141
8466.0 0.0001181 3582.81152 8329.16211
8372.0 0.0001194 3581.07593 8386.73633
8476.0 0.0001180 3579.34497 8425.11035
8397.0 0.0001191 3577.61987 8432.00098
8241.0 0.0001213 3575.90210 8395.42773
8009.0 0.0001249 3574.18848 8307.59668
7835.0 0.0001276 3572.48096 8167.90576
7727.0 0.0001294 3570.77954 7982.34277
7537.0 0.0001327 3569.08423 7760.92432
7211.0 0.0001387 3567.39502 7514.29785
6854.0 0.0001459 3565.71191 7251.49219
6738.0 0.0001484 3564.03418 6980.62207
6432.0 0.0001555 3562.36401 6710.22363
6313.0 0.0001584 3560.69897 6449.23291
6153.0 0.0001625 3559.04199 6207.20898
5878.0 0.0001701 3557.39038 5992.47656
5866.0 0.0001705 3555.74487 5811.24902
5652.0 0.0001769 3554.10693 5667.18799
5588.0 0.0001790 3552.47485 5560.84668
5529.0 0.0001809 3550.84937 5490.59570
5569.0 0.0001796 3549.23145 5452.47412
5704.0 0.0001753 3547.62036 5440.64893
5600.0 0.0001786 3546.01538 5447.95068
5640.0 0.0001773 3544.41699 5466.33789
5597.0 0.0001787 3542.82617 5487.46631
5663.0 0.0001766 3541.24268 5503.08643
5661.0 0.0001766 3539.66528 5506.18262
5791.0 0.0001727 3538.09692 5491.23584
5520.0 0.0001812 3536.53516 5455.48779
5481.0 0.0001824 3534.97925 5398.86719
5493.0 0.0001820 3533.43115 5323.38232
5321.0 0.0001879 3531.89160 5231.97217
5257.0 0.0001902 3530.35913 5127.74023
5139.0 0.0001946 3528.83276 5013.91895
4970.0 0.0002012 3527.31396 4893.85547
4855.0 0.0002060 3525.80469 4771.39355
4680.0 0.0002137 3524.30151 4650.60400
4518.0 0.0002213 3522.80615 4535.09473
4498.0 0.0002223 3521.31885 4427.86475
4322.0 0.0002314 3519.83813 4330.97168
4377.0 0.0002285 3518.36670 4245.70410
4281.0 0.0002336 3516.90283 4172.65088
4172.0 0.0002397 3515.44604 4111.76807
4239.0 0.0002359 3513.99731 4062.84863
4179.0 0.0002393 3512.55737 4025.16089
4028.0 0.0002483 3511.12549 3998.31958
4092.0 0.0002444 3509.70068 3981.61060
4034.0 0.0002479 3508.28516 3974.41260
4136.0 0.0002418 3506.87549 3976.24414
4276.0 0.0002339 3505.47681 3986.60083
4126.0 0.0002424 3504.08447 4005.23730
4148.0 0.0002411 3502.70117 4031.72827
4221.0 0.0002369 3501.32520 4065.82397
4310.0 0.0002320 3499.95850 4106.95703
4337.0 0.0002306 3498.59985 4154.64063
4301.0 0.0002325 3497.24902 4208.18555
4390.0 0.0002278 3495.90698 4266.68750
4471.0 0.0002237 3494.57446 4329.33057
4500.0 0.0002222 3493.24854 4395.61768
4601.0 0.0002173 3491.93091 4465.88721
4739.0 0.0002110 3490.62354 4539.03613
4798.0 0.0002084 3489.32446 4615.90137
4805.0 0.0002081 3488.03394 4696.35596
4950.0 0.0002020 3486.75146 4780.23096
5045.0 0.0001982 3485.47681 4867.30371
4932.0 0.0002028 3484.21216 4958.07178
5018.0 0.0001993 3482.95508 5054.43408
5100.0 0.0001961 3481.70728 5158.32373
5230.0 0.0001912 3480.46899 5272.83838
5292.0 0.0001890 3479.23804 5400.43213
5353.0 0.0001868 3478.01660 5542.05664
5639.0 0.0001773 3476.80396 5696.87988
5630.0 0.0001776 3475.60010 5863.06396
5873.0 0.0001703 3474.40454 6036.37402
6070.0 0.0001647 3473.21924 6211.58496
6476.0 0.0001544 3472.04126 6381.65527
6610.0 0.0001513 3470.87329 6537.69727
6728.0 0.0001486 3469.71338 6669.86475
6905.0 0.0001448 3468.56274 6767.20850
7001.0 0.0001428 3467.42114 6820.57178
6989.0 0.0001431 3466.28735 6824.61670
6857.0 0.0001458 3465.16455 6779.08740
6889.0 0.0001452 3464.04956 6688.05029
6696.0 0.0001493 3462.94336 6557.83691
6507.0 0.0001537 3461.84619 6395.14355
6308.0 0.0001585 3460.75830 6205.96436
6031.0 0.0001658 3459.67944 5996.62695
5742.0 0.0001742 3458.60962 5773.73389
5568.0 0.0001796 3457.54834 5545.04980
5343.0 0.0001872 3456.49634 5318.66553
5019.0 0.0001992 3455.45386 5101.53906
4918.0 0.0002033 3454.41968 4899.45850
4741.0 0.0002109 3453.39600 4716.42188
4591.0 0.0002178 3452.37939 4554.56396
4613.0 0.0002168 3451.37354 4415.10596
4479.0 0.0002233 3450.37500 4297.18262
4234.0 0.0002362 3449.38647 4200.17578
4339.0 0.0002305 3448.40771 4122.56299
4283.0 0.0002335 3447.43677 4062.34863
4203.0 0.0002379 3446.47485 4017.58228
4138.0 0.0002417 3445.52319 3985.63965
4092.0 0.0002444 3444.57910 3964.39282
4223.0 0.0002368 3443.64502 3952.01147
4261.0 0.0002347 3442.71948 3945.84326
4217.0 0.0002371 3441.80371 3944.30664
4224.0 0.0002367 3440.89648 3945.87988
3995.0 0.0002503 3439.99878 3949.09448
4073.0 0.0002455 3439.10962 3952.61621
4123.0 0.0002425 3438.22974 3954.93774
4192.0 0.0002385 3437.35767 3954.99829
4200.0 0.0002381 3436.49609 3951.85840
4200.0 0.0002381 3435.64331 3945.67798
4044.0 0.0002473 3434.79834 3936.54346
4050.0 0.0002469 3433.96362 3925.06885
4009.0 0.0002494 3433.13721 3911.94189
3983.0 0.0002511 3432.32007 3897.83521
4017.0 0.0002489 3431.51196 3883.06201
4053.0 0.0002467 3430.71167 3868.40137
3906.0 0.0002560 3429.92212 3855.72534
3978.0 0.0002514 3429.13989 3844.17749
3980.0 0.0002513 3428.36743 3835.19995
3887.0 0.0002573 3427.60327 3829.12646
3930.0 0.0002545 3426.84766 3826.34424
3992.0 0.0002505 3426.10132 3827.93213
3905.0 0.0002561 3425.36401 3834.01611
3997.0 0.0002502 3424.63477 3845.04810
4064.0 0.0002461 3423.91479 3861.79395
4044.0 0.0002473 3423.20313 3884.35767
3890.0 0.0002571 3422.50049 3913.53369
4079.0 0.0002452 3421.80713 3950.17603
4044.0 0.0002473 3421.12134 3995.22412
4071.0 0.0002456 3420.44507 4049.56152
4213.0 0.0002374 3419.77686 4113.96826
4094.0 0.0002443 3419.11719 4188.90137
4241.0 0.0002358 3418.46680 4274.18994
4333.0 0.0002308 3417.82446 4369.37695
4409.0 0.0002268 3417.18896 4472.90625
4499.0 0.0002223 3416.56445 4582.41211
4617.0 0.0002166 3415.94800 4694.69141
4757.0 0.0002102 3415.33911 4805.42285
4858.0 0.0002058 3414.73926 4909.60254
4884.0 0.0002048 3414.14746 5002.04785
4916.0 0.0002034 3413.56396 5077.73779
4925.0 0.0002030 3412.98804 5132.54346
5057.0 0.0001977 3412.42139 5163.72119
5038.0 0.0001985 3411.86279 5170.48877
5140.0 0.0001946 3411.31250 5152.73438
4922.0 0.0002032 3410.76978 5112.82324
4927.0 0.0002030 3410.23584 5053.74561
4843.0 0.0002065 3409.70923 4978.97314
4756.0 0.0002103 3409.19165 4892.29688
4718.0 0.0002120 3408.68164 4797.48828
4562.0 0.0002192 3408.17944 4698.87744
4480.0 0.0002232 3407.68579 4600.47021
4423.0 0.0002261 3407.19873 4506.64600
4285.0 0.0002334 3406.72095 4421.51221
4202.0 0.0002380 3406.25049 4348.55811
4409.0 0.0002268 3405.78687 4290.62402
4207.0 0.0002377 3405.33179 4249.95361
4237.0 0.0002360 3404.88550 4228.09766
4216.0 0.0002372 3404.44556 4226.09912
4251.0 0.0002352 3404.01318 4244.43652
4223.0 0.0002368 3403.58838 4283.06055
4296.0 0.0002328 3403.17236 4340.68066
4427.0 0.0002259 3402.76221 4417.32471
4506.0 0.0002219 3402.35962 4510.47461
4576.0 0.0002185 3401.96631 4617.51758
4772.0 0.0002096 3401.57837 4735.27637
4740.0 0.0002110 3401.19800 4859.58789
4940.0 0.0002024 3400.82568 4984.99512
4946.0 0.0002022 3400.45972 5106.12646
5195.0 0.0001925 3400.10181 5215.28906
5274.0 0.0001896 3399.75049 5306.23779
5327.0 0.0001877 3399.40625 5372.64990
5415.0 0.0001847 3399.06836 5410.78320
5476.0 0.0001826 3398.73901 5419.92871
5496.0 0.0001820 3398.41650 5401.91309
5383.0 0.0001858 3398.09985 5359.26172
5115.0 0.0001955 3397.79053 5297.62500
5108.0 0.0001958 3397.48828 5219.91699
5142.0 0.0001945 3397.19165 5129.96729
5004.0 0.0001998 3396.90112 5031.96924
4959.0 0.0002017 3396.61816 4931.01465
4673.0 0.0002140 3396.34302 4831.79004
4677.0 0.0002138 3396.07397 4740.37158
4637.0 0.0002157 3395.80933 4661.05420
4471.0 0.0002237 3395.55298 4597.40576
4407.0 0.0002269 3395.30249 4552.03076
4428.0 0.0002258 3395.05786 4526.37646
4473.0 0.0002236 3394.81885 4520.86719
4514.0 0.0002215 3394.58789 4535.00391
4498.0 0.0002223 3394.36206 4567.25342
4637.0 0.0002157 3394.14233 4615.27783
4677.0 0.0002138 3393.92896 4675.81738
4669.0 0.0002142 3393.72046 4744.85693
4763.0 0.0002100 3393.51880 4817.90576
4828.0 0.0002071 3393.32349 4890.49219
4958.0 0.0002017 3393.13232 4958.85498
5084.0 0.0001967 3392.94873 5020.09717
5051.0 0.0001980 3392.76978 5072.62988
5062.0 0.0001976 3392.59619 5115.39307
5206.0 0.0001921 3392.42896 5147.46777
5069.0 0.0001973 3392.26538 5167.41357
5171.0 0.0001934 3392.10889 5173.76416
5210.0 0.0001919 3391.95801 5164.85254
5205.0 0.0001921 3391.81104 5140.89893
5174.0 0.0001933 3391.67017 5102.39990
5108.0 0.0001958 3391.53394 5051.58594
5132.0 0.0001949 3391.40381 4991.43506
4986.0 0.0002006 3391.27686 4925.30127
4902.0 0.0002040 3391.15698 4855.71484
4790.0 0.0002088 3391.04150 4785.28564
4883.0 0.0002048 3390.93042 4715.43896
4732.0 0.0002113 3390.82544 4647.41357
4803.0 0.0002082 3390.72266 4582.28467
4593.0 0.0002177 3390.62671 4520.72803
4498.0 0.0002223 3390.53442 4463.18066
4571.0 0.0002188 3390.44678 4409.63574
4460.0 0.0002242 3390.36255 4359.68994
4347.0 0.0002300 3390.28491 4312.95508
4367.0 0.0002290 3390.21021 4269.25781
4327.0 0.0002311 3390.13940 4228.09424
4355.0 0.0002296 3390.07324 4189.69678
4179.0 0.0002393 3390.01196 4154.03467
4259.0 0.0002348 3389.95386 4121.01025
4189.0 0.0002387 3389.90015 4090.39233
4096.0 0.0002441 3389.85083 4061.92969
4185.0 0.0002389 3389.80469 4035.56128
4138.0 0.0002417 3389.76318 4010.94189
4095.0 0.0002442 3389.72485 3988.09497
4006.0 0.0002496 3389.68994 3966.83496
4060.0 0.0002463 3389.65942 3946.76465
4133.0 0.0002420 3389.63159 3927.35596
3917.0 0.0002553 3389.60767 3907.98730
4007.0 0.0002496 3389.58667 3888.11670
3923.0 0.0002549 3389.56958 3867.44849
4023.0 0.0002486 3389.55542 3845.95142
3829.0 0.0002612 3389.54468 3823.65674
3812.0 0.0002623 3389.53735 3800.84448
3909.0 0.0002558 3389.53223 3777.68994
3790.0 0.0002639 3389.53149 3754.37793
3900.0 0.0002564 3389.53296 3731.08496
3824.0 0.0002615 3389.53687 3708.03613
3750.0 0.0002667 3389.54321 3685.56226
3679.0 0.0002718 3389.55444 3664.14331
3559.0 0.0002810 3389.56616 3643.89209
3722.0 0.0002687 3389.58130 3625.27197
3587.0 0.0002788 3389.59985 3608.51563
3638.0 0.0002749 3389.61938 3593.80933
3580.0 0.0002793 3389.64160 3581.27124
3614.0 0.0002767 3389.66675 3570.96021
3507.0 0.0002851 3389.69360 3562.92847
3600.0 0.0002778 3389.72266 3557.23242
3536.0 0.0002828 3389.75488 3553.79102
3504.0 0.0002854 3389.78784 3552.66260
3512.0 0.0002847 3389.82275 3553.86694
3412.0 0.0002931 3389.86060 3557.43433
3458.0 0.0002892 3389.89917 3563.37573
3535.0 0.0002829 3389.94019 3571.74438
3600.0 0.0002778 3389.98364 3582.55200
3543.0 0.0002822 3390.02734 3595.52539
3573.0 0.0002799 3390.07275 3611.26880
3724.0 0.0002685 3390.12085 3629.41089
3609.0 0.0002771 3390.17017 3649.94141
3586.0 0.0002789 3390.21924 3672.41260
3592.0 0.0002784 3390.27148 3696.68823
3749.0 0.0002667 3390.32300 3722.45825
3666.0 0.0002728 3390.37720 3748.87598
3706.0 0.0002698 3390.43237 3775.96191
3719.0 0.0002689 3390.48804 3803.68848
3838.0 0.0002606 3390.54443 3831.39209
3785.0 0.0002642 3390.60278 3858.84595
3799.0 0.0002632 3390.66211 3885.46973
3739.0 0.0002675 3390.72144 3910.50220
3855.0 0.0002594 3390.78247 3932.23975
3917.0 0.0002553 3390.84277 3952.36841
3807.0 0.0002627 3390.90356 3968.64990
3709.0 0.0002696 3390.96533 3980.30981
3858.0 0.0002592 3391.02686 3986.77856
3780.0 0.0002646 3391.08984 3987.78149
3913.0 0.0002556 3391.15210 3982.81958
3777.0 0.0002648 3391.21606 3973.18628
3750.0 0.0002667 3391.27856 3959.18164
3768.0 0.0002654 3391.34180 3941.48315
3668.0 0.0002726 3391.40479 3921.00586
3752.0 0.0002665 3391.46899 3898.67700
3728.0 0.0002682 3391.53101 3875.35669
3693.0 0.0002708 3391.59448 3851.89111
3786.0 0.0002641 3391.65771 3829.08740
3750.0 0.0002667 3391.71973 3807.79590
3668.0 0.0002726 3391.78174 3788.81982
3730.0 0.0002681 3391.84375 3772.69238
3839.0 0.0002605 3391.90430 3759.73804
3804.0 0.0002629 3391.96484 3750.38452
3522.0 0.0002839 3392.02466 3744.52441
3831.0 0.0002610 3392.08325 3741.96143
3680.0 0.0002717 3392.14233 3742.03027
3794.0 0.0002636 3392.19946 3744.98120
3751.0 0.0002666 3392.25586 3749.68555
3838.0 0.0002606 3392.31177 3755.90845
3816.0 0.0002621 3392.36694 3763.27637
3862.0 0.0002589 3392.41992 3771.60840
3720.0 0.0002688 3392.47266 3780.71729
3908.0 0.0002559 3392.52368 3790.94336
3929.0 0.0002545 3392.57446 3802.12646
3852.0 0.0002596 3392.62305 3814.31616
3869.0 0.0002585 3392.67065 3827.58472
3836.0 0.0002607 3392.71704 3841.29395
3931.0 0.0002544 3392.76050 3855.60254
3970.0 0.0002519 3392.80396 3870.29858
3939.0 0.0002539 3392.84448 3885.16235
3948.0 0.0002533 3392.88403 3899.96851
3880.0 0.0002577 3392.92188 3914.47021
3973.0 0.0002517 3392.95825 3928.52661
3922.0 0.0002550 3392.99243 3942.17969
3887.0 0.0002573 3393.02490 3955.02466
3977.0 0.0002514 3393.05518 3967.01050
4028.0 0.0002483 3393.08301 3977.75024
3991.0 0.0002506 3393.10840 3986.68848
4135.0 0.0002418 3393.13306 3993.20142
4023.0 0.0002486 3393.15430 3996.68530
3999.0 0.0002501 3393.17383 3996.74487
3949.0 0.0002532 3393.19043 3993.29028
4083.0 0.0002449 3393.20581 3986.59375
3981.0 0.0002512 3393.21851 3977.16431
4005.0 0.0002497 3393.22754 3965.68799
4029.0 0.0002482 3393.23462 3952.90186
3938.0 0.0002539 3393.23950 3939.46851
3939.0 0.0002539 3393.24146 3926.27368
3949.0 0.0002532 3393.24048 3914.11548
3948.0 0.0002533 3393.23706 3904.06445
3930.0 0.0002545 3393.23096 3897.19434
3955.0 0.0002528 3393.22168 3894.89258
3875.0 0.0002581 3393.21021 3898.59351
4024.0 0.0002485 3393.19458 3909.71729
4027.0 0.0002483 3393.17676 3930.13770
4024.0 0.0002485 3393.15527 3961.28052
3999.0 0.0002501 3393.13110 4004.72290
4051.0 0.0002469 3393.10327 4062.01025
4294.0 0.0002329 3393.07300 4134.40723
4248.0 0.0002354 3393.03857 4222.89453
4338.0 0.0002305 3393.00171 4328.36914
4536.0 0.0002205 3392.96021 4450.93604
4445.0 0.0002250 3392.91577 4590.16699
4512.0 0.0002216 3392.86890 4745.04102
4724.0 0.0002117 3392.81763 4913.56152
4882.0 0.0002048 3392.76318 5092.71191
5052.0 0.0001979 3392.70483 5278.21582
5162.0 0.0001937 3392.64282 5464.37109
5409.0 0.0001849 3392.57544 5646.24365
5598.0 0.0001786 3392.50708 5816.37207
5658.0 0.0001767 3392.43408 5967.47461
5905.0 0.0001693 3392.35596 6092.52734
6119.0 0.0001634 3392.27661 6185.88477
6037.0 0.0001656 3392.19043 6243.71094
6071.0 0.0001647 3392.10229 6264.29736
6206.0 0.0001611 3392.00928 6249.53125
6051.0 0.0001653 3391.91187 6201.97998
5890.0 0.0001698 3391.81030 6125.56348
5893.0 0.0001697 3391.70532 6024.51270
5753.0 0.0001738 3391.59595 5903.20459
5769.0 0.0001733 3391.48193 5766.00781
5527.0 0.0001809 3391.36377 5617.86377
5378.0 0.0001859 3391.24170 5464.17725
5310.0 0.0001883 3391.11450 5310.37402
5166.0 0.0001936 3390.98389 5161.94336
5019.0 0.0001992 3390.84961 5023.72461
4925.0 0.0002030 3390.70898 4899.62842
4744.0 0.0002108 3390.56372 4792.87549
4588.0 0.0002180 3390.41528 4705.60156
4691.0 0.0002132 3390.26123 4639.33838
4682.0 0.0002136 3390.10376 4594.97510
4614.0 0.0002167 3389.94019 4572.79199
4657.0 0.0002147 3389.77295 4572.81885
4819.0 0.0002075 3389.60034 4594.66846
4876.0 0.0002051 3389.42285 4637.70654
4887.0 0.0002046 3389.24170 4701.07666
4980.0 0.0002008 3389.05493 4783.80957
5077.0 0.0001970 3388.86328 4884.66650
5176.0 0.0001932 3388.66626 5002.23047
5270.0 0.0001898 3388.46606 5135.43652
5456.0 0.0001833 3388.25928 5282.37695
5627.0 0.0001777 3388.04834 5441.66553
5812.0 0.0001721 3387.83154 5611.48584
5934.0 0.0001685 3387.61035 5789.35352
6136.0 0.0001630 3387.38428 5972.27197
6560.0 0.0001524 3387.15283 6156.21143
6617.0 0.0001511 3386.91675 6336.31299
6856.0 0.0001459 3386.67456 6507.72852
6980.0 0.0001433 3386.42700 6665.37158
7213.0 0.0001386 3386.17456 6805.31201
7195.0 0.0001390 3385.91699 6924.62744
7347.0 0.0001361 3385.65479 7021.31494
7467.0 0.0001339 3385.38647 7094.33398
7523.0 0.0001329 3385.11377 7143.01123
7679.0 0.0001302 3384.83521 7167.27295
7675.0 0.0001303 3384.55103 7167.87695
7441.0 0.0001344 3384.26196 7146.77686
7520.0 0.0001330 3383.96729 7107.40234
7359.0 0.0001359 3383.66675 7054.52344
7354.0 0.0001360 3383.36182 6993.89014
7020.0 0.0001425 3383.04932 6931.37939
6939.0 0.0001441 3382.73242 6872.41846
6746.0 0.0001482 3382.41089 6821.60791
6917.0 0.0001446 3382.08301 6782.34033
6833.0 0.0001463 3381.74927 6756.93848
6958.0 0.0001437 3381.41089 6746.41357
6827.0 0.0001465 3381.06592 6750.40283
6861.0 0.0001458 3380.71729 6767.03125
6900.0 0.0001449 3380.36133 6792.72266
6997.0 0.0001429 3379.99951 6822.09766
7001.0 0.0001428 3379.63281 6848.98389
7094.0 0.0001410 3379.25977 6866.25244
6948.0 0.0001439 3378.88135 6867.27100
6880.0 0.0001453 3378.49707 6847.75586
6943.0 0.0001440 3378.10767 6804.98242
6754.0 0.0001481 3377.71143 6738.84326
6690.0 0.0001495 3377.31006 6650.75391
6537.0 0.0001530 3376.90283 6543.47461
6387.0 0.0001566 3376.48999 6419.91406
6217.0 0.0001608 3376.07129 6282.92480
6086.0 0.0001643 3375.64771 6136.29688
5930.0 0.0001686 3375.21631 5983.82471
5589.0 0.0001789 3374.78125 5830.08984
5476.0 0.0001826 3374.33887 5680.23340
5522.0 0.0001811 3373.89111 5539.13672
5308.0 0.0001884 3373.43701 5411.58545
5219.0 0.0001916 3372.97900 5300.97314
5129.0 0.0001950 3372.51245 5209.98877
4962.0 0.0002015 3372.04126 5140.17285
4968.0 0.0002013 3371.56470 5091.81641
5004.0 0.0001998 3371.08105 5064.14746
4971.0 0.0002012 3370.59277 5055.35986
4936.0 0.0002026 3370.09839 5062.68018
5002.0 0.0001999 3369.59668 5082.55371
4939.0 0.0002025 3369.09106 5110.38281
5132.0 0.0001949 3368.57764 5141.51270
5299.0 0.0001887 3368.05981 5170.66309
5241.0 0.0001908 3367.53540 5193.15625
5331.0 0.0001876 3367.00464 5205.04199
5299.0 0.0001887 3366.46875 5203.58984
5224.0 0.0001914 3365.92676 5187.49805
5356.0 0.0001867 3365.37915 5156.18066
5157.0 0.0001939 3364.82446 5111.43311
5060.0 0.0001976 3364.26563 5053.97900
4887.0 0.0002046 3363.69922 4985.18506
4881.0 0.0002049 3363.12842 4906.59180
4787.0 0.0002089 3362.54980 4819.92432
4627.0 0.0002161 3361.96655 4727.28467
4553.0 0.0002196 3361.37671 4630.69629
4454.0 0.0002245 3360.78052 4533.20215
4426.0 0.0002259 3360.18018 4437.05273
4212.0 0.0002374 3359.57275 4344.32959
4108.0 0.0002434 3358.95972 4256.87842
4094.0 0.0002443 3358.34106 4176.01611
3957.0 0.0002527 3357.71680 4102.59326
3942.0 0.0002537 3357.08545 4037.16699
3988.0 0.0002508 3356.44897 3979.87207
3829.0 0.0002612 3355.80615 3930.68213
3812.0 0.0002623 3355.15796 3889.38306
3743.0 0.0002672 3354.50293 3855.58838
3795.0 0.0002635 3353.84302 3828.88696
3777.0 0.0002648 3353.17847 3808.80737
3845.0 0.0002601 3352.50439 3794.85962
3815.0 0.0002621 3351.82837 3786.56128
3762.0 0.0002658 3351.14453 3783.41479
3794.0 0.0002636 3350.45508 3784.67627
3834.0 0.0002608 3349.76074 3790.38647
3753.0 0.0002665 3349.05908 3799.81396
3642.0 0.0002746 3348.35327 3812.50293
3771.0 0.0002652 3347.64063 3827.98145
3797.0 0.0002634 3346.92163 3845.80225
3732.0 0.0002680 3346.19824 3865.29712
3779.0 0.0002646 3345.46973 3886.18652
3843.0 0.0002602 3344.73340 3907.45264
3715.0 0.0002692 3343.99365 3928.96680
3740.0 0.0002674 3343.24683 3949.96387
3751.0 0.0002666 3342.49463 3970.06519
3807.0 0.0002627 3341.73633 3989.15210
3941.0 0.0002537 3340.97241 4007.27979
3809.0 0.0002625 3340.20386 4024.67236
3735.0 0.0002677 3339.42896 4041.52271
3961.0 0.0002525 3338.64868 4058.33057
3871.0 0.0002583 3337.86279 4075.16772
3922.0 0.0002550 3337.07129 4092.17603
3998.0 0.0002501 3336.27466 4109.39893
3950.0 0.0002532 3335.47217 4126.84766
3895.0 0.0002567 3334.66382 4144.46729
4009.0 0.0002494 3333.85107 4162.03418
4020.0 0.0002488 3333.03174 4179.59424
4121.0 0.0002427 3332.20752 4196.75684
3945.0 0.0002535 3331.37817 4213.22510
4129.0 0.0002422 3330.54346 4228.62891
4053.0 0.0002467 3329.70264 4242.59082
4042.0 0.0002474 3328.85718 4254.72461
4007.0 0.0002496 3328.00488 4264.88574
4061.0 0.0002462 3327.14990 4272.94775
4155.0 0.0002407 3326.28760 4279.00391
4175.0 0.0002395 3325.42041 4283.35742
4051.0 0.0002469 3324.54834 4286.44238
4065.0 0.0002460 3323.67114 4288.84619
4144.0 0.0002413 3322.78857 4291.08301
4178.0 0.0002393 3321.90161 4293.76025
4312.0 0.0002319 3321.00830 4297.51416
4216.0 0.0002372 3320.11060 4302.88184
4210.0 0.0002375 3319.20728 4310.27393
4182.0 0.0002391 3318.29956 4319.93896
4177.0 0.0002394 3317.38647 4331.87744
4205.0 0.0002378 3316.46802 4345.79492
4248.0 0.0002354 3315.54517 4361.02686
4491.0 0.0002227 3314.61743 4376.57373
4328.0 0.0002311 3313.68408 4391.16846
4347.0 0.0002300 3312.74658 4403.35498
4518.0 0.0002213 3311.80371 4411.69043
4482.0 0.0002231 3310.85645 4414.98682
4426.0 0.0002259 3309.90430 4412.53369
4476.0 0.0002234 3308.94653 4404.17822
4434.0 0.0002255 3307.98535 4390.32129
4382.0 0.0002282 3307.01953 4371.58838
4342.0 0.0002303 3306.04785 4348.88672
4274.0 0.0002340 3305.07275 4323.07422
4229.0 0.0002365 3304.09155 4294.95020
4169.0 0.0002399 3303.10620 4265.32471
4264.0 0.0002345 3302.11719 4235.06689
4000.0 0.0002500 3301.12280 4205.08936
4103.0 0.0002437 3300.12451 4176.37598
3928.0 0.0002546 3299.12109 4149.81494
3958.0 0.0002527 3298.11328 4126.09668
3881.0 0.0002577 3297.10205 4105.68652
3878.0 0.0002579 3296.08594 4088.74634
3897.0 0.0002566 3295.06567 4075.22656
3806.0 0.0002627 3294.04126 4064.86548
3834.0 0.0002608 3293.01221 4057.28760
3834.0 0.0002608 3291.97925 4052.02979
3778.0 0.0002647 3290.94043 4048.53125
3842.0 0.0002603 3289.89893 4046.14136
3842.0 0.0002603 3288.85425 4044.10718
3896.0 0.0002567 3287.80347 4041.57178
3874.0 0.0002581 3286.74976 4037.87695
3846.0 0.0002600 3285.69189 4032.40381
3852.0 0.0002596 3284.63037 4024.88086
3838.0 0.0002606 3283.56494 4015.37061
3873.0 0.0002582 3282.49414 4004.21436
3917.0 0.0002553 3281.42041 3991.94897
3811.0 0.0002624 3280.34375 3979.11597
3949.0 0.0002532 3279.26147 3966.41870
3893.0 0.0002569 3278.17700 3954.23853
3847.0 0.0002599 3277.08813 3943.05859
3753.0 0.0002665 3275.99561 3933.20703
3797.0 0.0002634 3274.90015 3925.26782
3772.0 0.0002651 3273.80054 3919.50439
3871.0 0.0002583 3272.69751 3916.18579
3954.0 0.0002529 3271.58984 3915.50024
4058.0 0.0002464 3270.48047 3917.41748
3918.0 0.0002552 3269.36548 3921.77759
3918.0 0.0002552 3268.25024 3928.13794
3992.0 0.0002505 3267.12866 3936.16577
4077.0 0.0002453 3266.00586 3945.35400
4067.0 0.0002459 3264.87769 3955.30298
4147.0 0.0002411 3263.74780 3965.72754
4021.0 0.0002487 3262.61401 3976.47241
4057.0 0.0002465 3261.47681 3987.49902
4063.0 0.0002461 3260.33740 3998.73071
4082.0 0.0002450 3259.19434 4010.13281
4016.0 0.0002490 3258.04907 4021.62866
4144.0 0.0002413 3256.89941 4033.16113
4100.0 0.0002439 3255.74805 4044.77173
4153.0 0.0002408 3254.59253 4056.59326
4096.0 0.0002441 3253.43530 4068.82080
4193.0 0.0002385 3252.27441 4081.83447
4177.0 0.0002394 3251.11157 4095.80615
4190.0 0.0002387 3249.94434 4110.81006
4160.0 0.0002404 3248.77539 4126.76074
4250.0 0.0002353 3247.60400 4143.39453
4312.0 0.0002319 3246.42969 4160.35547
4273.0 0.0002340 3245.25269 4177.29102
4240.0 0.0002358 3244.07349 4193.79980
4290.0 0.0002331 3242.89209 4209.83203
4364.0 0.0002291 3241.70679 4225.41797
4418.0 0.0002263 3240.52075 4240.97900
4311.0 0.0002320 3239.33105 4257.03857
4436.0 0.0002254 3238.14038 4274.20459
4425.0 0.0002260 3236.94531 4293.09424
4296.0 0.0002328 3235.75000 4314.22949
4336.0 0.0002306 3234.55103 4338.10156
4458.0 0.0002243 3233.35132 4364.93896
4579.0 0.0002184 3232.14819 4395.00488
4627.0 0.0002161 3230.94312 4428.32617
4667.0 0.0002143 3229.73633 4464.79443
4511.0 0.0002217 3228.52808 4503.96875
4784.0 0.0002090 3227.31689 4545.27832
4731.0 0.0002114 3226.10327 4587.83447
4724.0 0.0002117 3224.88965 4630.69238
4959.0 0.0002017 3223.67334 4672.91553
4959.0 0.0002017 3222.45508 4713.35840
4985.0 0.0002006 3221.23486 4750.91846
4975.0 0.0002010 3220.01367 4784.18896
4985.0 0.0002006 3218.79053 4811.56104
5050.0 0.0001980 3217.56567 4831.26758
4998.0 0.0002001 3216.33887 4841.57178
5030.0 0.0001988 3215.11133 4840.86035
4938.0 0.0002025 3213.88159 4828.23584
4956.0 0.0002018 3212.65112 4803.49023
4763.0 0.0002100 3211.41797 4767.11426
4825.0 0.0002073 3210.18481 4720.20508
4834.0 0.0002069 3208.94995 4664.19434
4700.0 0.0002128 3207.71338 4600.51221
4467.0 0.0002239 3206.47656 4530.64258
4514.0 0.0002215 3205.23730 4455.93994
4338.0 0.0002305 3203.99805 4377.70459
4241.0 0.0002358 3202.75757 4297.40234
4307.0 0.0002322 3201.51489 4216.40723
4147.0 0.0002411 3200.27271 4136.30957
3968.0 0.0002520 3199.02881 4058.50073
3919.0 0.0002552 3197.78394 3984.25415
3900.0 0.0002564 3196.53833 3914.69507
3786.0 0.0002641 3195.29126 3850.64844
3743.0 0.0002672 3194.04468 3792.66602
3752.0 0.0002665 3192.79688 3741.20532
3609.0 0.0002771 3191.54785 3696.21899
3644.0 0.0002744 3190.29761 3657.78638
3602.0 0.0002776 3189.04907 3625.78809
3575.0 0.0002797 3187.79736 3599.87183
3583.0 0.0002791 3186.54761 3579.67334
3649.0 0.0002740 3185.29541 3564.86206
3602.0 0.0002776 3184.04297 3554.88550
3689.0 0.0002711 3182.79199 3549.20605
3633.0 0.0002753 3181.53809 3547.30591
3605.0 0.0002774 3180.28516 3548.42456
3661.0 0.0002731 3179.03296 3552.06299
3616.0 0.0002765 3177.77783 3557.41138
3682.0 0.0002716 3176.52466 3563.96680
3684.0 0.0002714 3175.27051 3571.10645
3650.0 0.0002740 3174.01709 3578.30591
3661.0 0.0002731 3172.76270 3585.16602
3728.0 0.0002682 3171.50830 3591.35840
3654.0 0.0002737 3170.25464 3596.93970
3697.0 0.0002705 3169.00073 3601.79541
3712.0 0.0002694 3167.74683 3606.04785
3724.0 0.0002685 3166.49316 3609.76343
3730.0 0.0002681 3165.23999 3613.09644
3726.0 0.0002684 3163.98706 3616.19849
3693.0 0.0002708 3162.73438 3619.09229
3705.0 0.0002699 3161.48145 3621.89575
3811.0 0.0002624 3160.22925 3624.66895
3710.0 0.0002695 3158.97607 3627.32251
3717.0 0.0002690 3157.72607 3630.08105
3769.0 0.0002653 3156.47485 3632.77368
3834.0 0.0002608 3155.22412 3634.71948
3752.0 0.0002665 3153.97388 3636.90625
3710.0 0.0002695 3152.72534 3638.61255
3715.0 0.0002692 3151.47583 3639.66528
3860.0 0.0002591 3150.22778 3639.94287
3826.0 0.0002614 3148.98218 3639.56616
3818.0 0.0002619 3147.73511 3638.56714
3673.0 0.0002723 3146.48901 3636.79468
3741.0 0.0002673 3145.24341 3634.96436
3728.0 0.0002682 3143.99976 3632.93408
3768.0 0.0002654 3142.75781 3630.71606
3678.0 0.0002719 3141.51440 3628.37402
3615.0 0.0002766 3140.27393 3625.92261
3727.0 0.0002683 3139.03467 3623.35474
3645.0 0.0002743 3137.79541 3620.65308
3588.0 0.0002787 3136.55737 3617.77222
3692.0 0.0002709 3135.32104 3614.63354
3635.0 0.0002751 3134.08667 3611.11792
3768.0 0.0002654 3132.85205 3607.10498
3723.0 0.0002686 3131.61792 3602.47412
3704.0 0.0002700 3130.38721 3597.14478
3593.0 0.0002783 3129.15747 3591.17285
3623.0 0.0002760 3127.92896 3584.67798
3653.0 0.0002737 3126.70044 3577.82349
3568.0 0.0002803 3125.47485 3570.80615
3496.0 0.0002860 3124.25049 3563.78369
3553.0 0.0002815 3123.02734 3556.90991
3577.0 0.0002796 3121.80640 3550.19556
3602.0 0.0002776 3120.58667 3543.98486
3474.0 0.0002879 3119.36792 3538.36450
3464.0 0.0002887 3118.15210 3533.52271
3636.0 0.0002750 3116.93774 3529.72314
3555.0 0.0002813 3115.72461 3527.26660
3549.0 0.0002818 3114.51294 3526.42261
3502.0 0.0002856 3113.30371 3527.37451
3547.0 0.0002819 3112.09741 3530.15552
3622.0 0.0002761 3110.89136 3535.32300
3594.0 0.0002782 3109.68774 3542.51514
3598.0 0.0002779 3108.48560 3552.02100
3565.0 0.0002805 3107.28638 3563.65601
3497.0 0.0002860 3106.08911 3577.37402
3582.0 0.0002792 3104.89355 3592.99463
3619.0 0.0002763 3103.69971 3610.69287
3617.0 0.0002765 3102.50806 3630.08594
3654.0 0.0002737 3101.31958 3650.99976
3654.0 0.0002737 3100.13257 3673.38208
3569.0 0.0002802 3098.94800 3696.68970
3614.0 0.0002767 3097.76587 3720.24243
3651.0 0.0002739 3096.58447 3743.23901
3746.0 0.0002670 3095.40723 3765.03076
3678.0 0.0002719 3094.23193 3784.64063
3604.0 0.0002775 3093.05933 3801.09741
3688.0 0.0002711 3091.88843 3813.87866
3741.0 0.0002673 3090.71997 3822.27246
3732.0 0.0002680 3089.55420 3825.99951
3838.0 0.0002606 3088.39160 3825.04468
3730.0 0.0002681 3087.23071 3819.73120
3688.0 0.0002711 3086.07251 3810.37158
3728.0 0.0002682 3084.91724 3797.56152
3740.0 0.0002674 3083.76416 3781.78735
3708.0 0.0002697 3082.61401 3763.02466
3624.0 0.0002759 3081.46631 3742.72510
3702.0 0.0002701 3080.32178 3721.13940
3617.0 0.0002765 3079.17944 3698.64746
3634.0 0.0002752 3078.04102 3675.80615
3657.0 0.0002734 3076.90405 3653.16919
3654.0 0.0002737 3075.77148 3631.28735
3541.0 0.0002824 3074.64160 3610.22729
3637.0 0.0002750 3073.51318 3590.89502
3604.0 0.0002775 3072.38892 3573.10986
3592.0 0.0002784 3071.26660 3557.08569
3595.0 0.0002782 3070.14868 3542.76440
3604.0 0.0002775 3069.03198 3530.08374
3525.0 0.0002837 3067.91870 3518.99219
3548.0 0.0002818 3066.80908 3509.45459
3510.0 0.0002849 3065.70166 3501.47095
3532.0 0.0002831 3064.59888 3495.09302
3480.0 0.0002874 3063.49902 3490.41821
3541.0 0.0002824 3062.40088 3487.58179
3483.0 0.0002871 3061.30688 3486.74292
3491.0 0.0002865 3060.21655 3488.08203
3592.0 0.0002784 3059.12891 3491.77417
3455.0 0.0002894 3058.04419 3497.98828
3514.0 0.0002846 3056.96289 3506.86426
3520.0 0.0002841 3055.88550 3518.70386
3448.0 0.0002900 3054.81177 3533.52271
3454.0 0.0002895 3053.73975 3551.15356
3542.0 0.0002823 3052.67261 3572.47900
3584.0 0.0002790 3051.60791 3596.99634
3614.0 0.0002767 3050.54712 3624.75879
3604.0 0.0002775 3049.49072 3655.59009
3650.0 0.0002740 3048.43555 3689.20068
3759.0 0.0002660 3047.38501 3725.16455
3735.0 0.0002677 3046.33887 3762.67212
3696.0 0.0002706 3045.29492 3801.24805
3782.0 0.0002644 3044.25537 3839.73706
3870.0 0.0002584 3043.21924 3877.09814
3916.0 0.0002554 3042.18604 3912.23413
3908.0 0.0002559 3041.15723 3943.95508
3916.0 0.0002554 3040.13135 3971.40649
3997.0 0.0002502 3039.10962 3993.85986
3990.0 0.0002506 3038.09229 4010.88867
4011.0 0.0002493 3037.07788 4022.29956
4067.0 0.0002459 3036.06641 4027.98486
3929.0 0.0002545 3035.06006 4027.98486
4032.0 0.0002480 3034.05615 4022.26978
4053.0 0.0002467 3033.05615 4010.81616
4024.0 0.0002485 3032.06030 3993.62695
3996.0 0.0002503 3031.06860 3970.78296
3936.0 0.0002541 3030.08057 3942.58423
3926.0 0.0002547 3029.09595 3909.44507
3906.0 0.0002560 3028.11621 3872.05688
3932.0 0.0002543 3027.13867 3831.23511
3819.0 0.0002618 3026.16650 3787.85645
3771.0 0.0002652 3025.19702 3742.81519
3721.0 0.0002687 3024.23364 3696.84863
3633.0 0.0002753 3023.27173 3650.63721
3603.0 0.0002775 3022.31445 3604.74658
3545.0 0.0002821 3021.36157 3559.65503
3524.0 0.0002838 3020.41309 3515.82861
3515.0 0.0002845 3019.46777 3473.59985
3452.0 0.0002897 3018.52637 3433.35913
3444.0 0.0002904 3017.58984 3395.39014
3350.0 0.0002985 3016.65625 3359.85083
3305.0 0.0003026 3015.72729 3327.12329
3403.0 0.0002939 3014.80200 3297.22534
3354.0 0.0002982 3013.88135 3270.19238
3316.0 0.0003016 3012.96387 3246.02881
3355.0 0.0002981 3012.05103 3224.64551
3252.0 0.0003075 3011.14258 3205.97607
3189.0 0.0003136 3010.23828 3189.89282
3277.0 0.0003052 3009.33838 3176.21875
3239.0 0.0003087 3008.44116 3164.80200
3168.0 0.0003157 3007.54956 3155.46387
3220.0 0.0003106 3006.66162 3147.98511
3247.0 0.0003080 3005.77808 3142.24121
3146.0 0.0003179 3004.89771 3137.99097
3209.0 0.0003116 3004.02148 3135.05591
3210.0 0.0003115 3003.15063 3133.17993
3131.0 0.0003194 3002.28271 3132.26685
3141.0 0.0003184 3001.42236 3132.05664
3146.0 0.0003179 3000.56299 3132.36938
3192.0 0.0003133 2999.70850 3132.90747
3206.0 0.0003119 2998.85742 3133.69141
3109.0 0.0003216 2998.01196 3134.47021
3135.0 0.0003190 2997.17041 3135.14771
3196.0 0.0003129 2996.33325 3135.59692
3148.0 0.0003177 2995.49976 3135.81104
3182.0 0.0003143 2994.66992 3135.71069
3227.0 0.0003099 2993.84595 3135.40698
3062.0 0.0003266 2993.02515 3134.86230
3224.0 0.0003102 2992.20874 3134.23877
3120.0 0.0003205 2991.39722 3133.66309
3158.0 0.0003167 2990.59009 3133.06909
3094.0 0.0003232 2989.78735 3132.64478
3125.0 0.0003200 2988.98779 3132.49927
3112.0 0.0003213 2988.19336 3132.72461
3207.0 0.0003118 2987.40332 3133.51001
3136.0 0.0003189 2986.61719 3134.89136
3056.0 0.0003272 2985.83569 3137.00220
3255.0 0.0003072 2985.05884 3139.94116
3165.0 0.0003160 2984.28589 3143.58838
3274.0 0.0003054 2983.51733 3148.41211
3250.0 0.0003077 2982.75317 3154.25195
3218.0 0.0003108 2981.99243 3161.01636
3242.0 0.0003085 2981.23755 3168.68311
3200.0 0.0003125 2980.48682 3177.16797
3107.0 0.0003219 2979.73999 3186.32837
3185.0 0.0003140 2978.99658 3195.95996
3260.0 0.0003067 2978.25903 3205.76685
3300.0 0.0003030 2977.52588 3215.70630
3272.0 0.0003056 2976.79590 3225.42993
3313.0 0.0003018 2976.07104 3234.65771
3328.0 0.0003005 2975.35083 3243.17065
3334.0 0.0002999 2974.63403 3250.77100
3338.0 0.0002996 2973.92261 3257.31470
3518.0 0.0002843 2973.21460 3262.73828
3347.0 0.0002988 2972.51123 3267.00806
3331.0 0.0003002 2971.81226 3270.10425
3359.0 0.0002977 2971.11792 3272.19092
3321.0 0.0003011 2970.42773 3273.28833
3354.0 0.0002982 2969.74219 3273.48071
3369.0 0.0002968 2969.06079 3272.84351
3427.0 0.0002918 2968.38428 3271.45117
3330.0 0.0003003 2967.71021 3269.37085
3334.0 0.0002999 2967.04175 3266.62939
3272.0 0.0003056 2966.37866 3263.22437
3228.0 0.0003098 2965.71973 3259.37378
3242.0 0.0003085 2965.06372 3255.00171
3236.0 0.0003090 2964.41211 3250.15405
3294.0 0.0003036 2963.76538 3244.81445
3264.0 0.0003064 2963.12427 3239.06104
3277.0 0.0003052 2962.48560 3232.96460
3332.0 0.0003001 2961.85181 3226.61450
3235.0 0.0003091 2961.22314 3220.06445
3311.0 0.0003020 2960.59766 3213.52393
3227.0 0.0003099 2959.97705 3207.03564
3186.0 0.0003139 2959.36060 3200.66528
3173.0 0.0003152 2958.74829 3194.50439
3192.0 0.0003133 2958.14087 3188.62061
3225.0 0.0003101 2957.53760 3183.05566
3256.0 0.0003071 2956.93823 3177.90503
3299.0 0.0003031 2956.34375 3173.27051
3112.0 0.0003213 2955.75146 3169.25220
3215.0 0.0003110 2955.16602 3165.87988
3167.0 0.0003158 2954.58374 3163.40747
3154.0 0.0003171 2954.00610 3161.82764
3179.0 0.0003146 2953.43311 3161.18311
3239.0 0.0003087 2952.86328 3161.47632
3175.0 0.0003150 2952.29883 3162.67603
3215.0 0.0003110 2951.73779 3164.72559
3224.0 0.0003102 2951.18115 3167.53052
3358.0 0.0002978 2950.62769 3170.86475
3263.0 0.0003065 2950.07959 3174.77686
3220.0 0.0003106 2949.53613 3179.00952
3240.0 0.0003086 2948.99658 3183.33203
3152.0 0.0003173 2948.46045 3187.57690
3243.0 0.0003084 2947.92871 3191.57666
3299.0 0.0003031 2947.40186 3195.18848
3246.0 0.0003081 2946.87891 3198.42114
3345.0 0.0002990 2946.36035 3201.06055
3241.0 0.0003085 2945.84497 3203.28125
3117.0 0.0003208 2945.33447 3205.13647
3275.0 0.0003053 2944.82715 3206.63672
3268.0 0.0003060 2944.32471 3208.08911
3333.0 0.0003000 2943.82666 3209.60596
3393.0 0.0002947 2943.33228 3211.27954
3285.0 0.0003044 2942.84277 3213.30469
3314.0 0.0003018 2942.35718 3215.83936
3328.0 0.0003005 2941.87451 3219.11572
3365.0 0.0002972 2941.39575 3223.31812
3317.0 0.0003015 2940.92114 3228.63940
3232.0 0.0003094 2940.45093 3235.34033
3280.0 0.0003049 2939.98560 3243.60474
3232.0 0.0003094 2939.52344 3253.58911
3299.0 0.0003031 2939.06641 3265.57031
3352.0 0.0002983 2938.61206 3279.34863
3338.0 0.0002996 2938.16235 3295.13184
3245.0 0.0003082 2937.71582 3312.81958
3372.0 0.0002966 2937.27417 3332.58862
3238.0 0.0003088 2936.83618 3354.22656
3387.0 0.0002952 2936.40210 3377.52124
3286.0 0.0003043 2935.97168 3402.16187
3286.0 0.0003043 2935.54590 3427.79688
3418.0 0.0002926 2935.12329 3453.93726
3405.0 0.0002937 2934.70337 3480.16577
3395.0 0.0002946 2934.28931 3505.84106
3478.0 0.0002875 2933.87817 3529.94629
3415.0 0.0002928 2933.47168 3552.74316
3472.0 0.0002880 2933.06836 3573.30273
3445.0 0.0002903 2932.66870 3591.24878
3578.0 0.0002795 2932.27295 3606.29565
3452.0 0.0002897 2931.88110 3618.24341
3425.0 0.0002920 2931.49292 3627.05103
3565.0 0.0002805 2931.10938 3632.69189
3526.0 0.0002836 2930.72900 3635.16821
3493.0 0.0002863 2930.35083 3634.59717
3542.0 0.0002823 2929.97852 3631.21729
3431.0 0.0002915 2929.60889 3625.12012
3529.0 0.0002834 2929.24292 3616.55835
3418.0 0.0002926 2928.88062 3605.77441
3454.0 0.0002895 2928.52295 3593.12109
3534.0 0.0002830 2928.16748 3578.96655
3374.0 0.0002964 2927.81641 3563.69287
3471.0 0.0002881 2927.46826 3547.65991
3460.0 0.0002890 2927.12427 3531.23657
3450.0 0.0002899 2926.78442 3514.74146
3368.0 0.0002969 2926.44727 3498.42480
3409.0 0.0002933 2926.11401 3482.54468
3378.0 0.0002960 2925.78442 3467.24609
3380.0 0.0002959 2925.45825 3452.64160
3331.0 0.0003002 2925.13599 3438.81641
3344.0 0.0002990 2924.81641 3425.79175
3299.0 0.0003031 2924.50024 3413.62256
3299.0 0.0003031 2924.18872 3402.28296
3346.0 0.0002989 2923.87891 3391.81421
3241.0 0.0003085 2923.57373 3382.23804
3209.0 0.0003116 2923.27197 3373.53516
3425.0 0.0002920 2922.97241 3365.68848
3206.0 0.0003119 2922.67822 3358.62915
3224.0 0.0003102 2922.38477 3352.22949
3266.0 0.0003062 2922.09644 3346.35107
3358.0 0.0002978 2921.81177 3340.82056
3267.0 0.0003061 2921.52979 3335.47363
3386.0 0.0002953 2921.25122 3330.13330
3370.0 0.0002967 2920.97559 3324.67798
3361.0 0.0002975 2920.70361 3319.02661
3247.0 0.0003080 2920.43433 3313.14819
3322.0 0.0003010 2920.16870 3307.04102
3330.0 0.0003003 2919.90576 3300.74561
3293.0 0.0003037 2919.64624 3294.31641
3283.0 0.0003046 2919.39038 3287.82080
3314.0 0.0003018 2919.13721 3281.33496
3272.0 0.0003056 2918.88721 3274.92871
3263.0 0.0003065 2918.64038 3268.68726
3349.0 0.0002986 2918.39673 3262.69727
3193.0 0.0003132 2918.15625 3257.05737
3192.0 0.0003133 2917.91895 3251.87817
3280.0 0.0003049 2917.68433 3247.27417
3215.0 0.0003110 2917.45264 3243.35083
3275.0 0.0003053 2917.22437 3240.22290
3302.0 0.0003028 2916.99902 3237.99536
3206.0 0.0003119 2916.77612 3236.77759
3293.0 0.0003037 2916.55688 3236.69897
3264.0 0.0003064 2916.34009 3237.84399
3311.0 0.0003020 2916.12622 3240.33521
3338.0 0.0002996 2915.91528 3244.27197
3261.0 0.0003067 2915.70801 3249.74048
3179.0 0.0003146 2915.50195 3256.79980
3152.0 0.0003173 2915.29907 3265.46973
3173.0 0.0003152 2915.10107 3275.72852
3263.0 0.0003065 2914.90503 3287.51636
3355.0 0.0002981 2914.71069 3300.73438
3239.0 0.0003087 2914.51904 3315.22583
3287.0 0.0003042 2914.33081 3330.80566
3285.0 0.0003044 2914.14648 3347.23779
3354.0 0.0002982 2913.96362 3364.24927
3287.0 0.0003042 2913.78296 3381.57349
3294.0 0.0003036 2913.60547 3398.92871
3415.0 0.0002928 2913.43066 3416.03979
3330.0 0.0003003 2913.25781 3432.69067
3347.0 0.0002988 2913.08838 3448.66064
3379.0 0.0002959 2912.92188 3463.78613
3392.0 0.0002948 2912.75684 3477.87988
3330.0 0.0003003 2912.59619 3490.75073
3422.0 0.0002922 2912.43652 3502.13501
3342.0 0.0002992 2912.27979 3511.93140
3405.0 0.0002937 2912.12402 3519.85156
3383.0 0.0002956 2911.97363 3525.69775
3361.0 0.0002975 2911.82471 3529.34375
3507.0 0.0002851 2911.67676 3530.73071
3382.0 0.0002957 2911.53296 3529.88794
3341.0 0.0002993 2911.39087 3526.92798
3395.0 0.0002946 2911.25195 3521.95532
3450.0 0.0002899 2911.11426 3515.33301
3414.0 0.0002929 2910.97949 3507.18872
3422.0 0.0002922 2910.84644 3497.69653
3379.0 0.0002959 2910.71631 3487.03003
3393.0 0.0002947 2910.58862 3475.30835
3367.0 0.0002970 2910.46265 3462.65405
3360.0 0.0002976 2910.33984 3449.19287
3347.0 0.0002988 2910.21826 3434.96948
3343.0 0.0002991 2910.09985 3420.30420
3334.0 0.0002999 2909.98242 3405.30420
3316.0 0.0003016 2909.86816 3390.17773
3378.0 0.0002960 2909.75610 3375.14258
3273.0 0.0003055 2909.64575 3360.41113
3233.0 0.0003093 2909.53760 3346.17603
3228.0 0.0003098 2909.43140 3332.60742
3227.0 0.0003099 2909.32764 3319.78223
3329.0 0.0003004 2909.22583 3307.84351
3253.0 0.0003074 2909.12622 3296.77856
3301.0 0.0003029 2909.02832 3286.63574
3209.0 0.0003116 2908.93262 3277.36523
3253.0 0.0003074 2908.83838 3268.93677
3231.0 0.0003095 2908.74683 3261.31152
3254.0 0.0003073 2908.65649 3254.43701
3200.0 0.0003125 2908.56982 3248.26758
3298.0 0.0003032 2908.48340 3242.76465
3220.0 0.0003106 2908.39893 3237.90723
3331.0 0.0003002 2908.31665 3233.68384
3277.0 0.0003052 2908.23706 3230.06616
3247.0 0.0003080 2908.15796 3227.12280
3241.0 0.0003085 2908.08105 3224.83643
3219.0 0.0003107 2908.00635 3223.24756
3245.0 0.0003082 2907.93286 3222.28931
3312.0 0.0003019 2907.86108 3221.95410
3299.0 0.0003031 2907.79175 3222.21387
3240.0 0.0003086 2907.72339 3223.10327
3248.0 0.0003079 2907.65747 3224.60254
3289.0 0.0003040 2907.59326 3226.79297
3387.0 0.0002952 2907.52930 3229.69800
3299.0 0.0003031 2907.46948 3233.37207
3279.0 0.0003050 2907.40967 3237.86938
3225.0 0.0003101 2907.35132 3243.07422
3308.0 0.0003023 2907.29565 3249.30640
3272.0 0.0003056 2907.24048 3256.36768
3229.0 0.0003097 2907.18677 3264.18604
3277.0 0.0003052 2907.13477 3272.66846
3263.0 0.0003065 2907.08447 3281.70361
3274.0 0.0003054 2907.03638 3291.13062
3259.0 0.0003068 2906.98877 3300.79614
3285.0 0.0003044 2906.94336 3310.53149
3359.0 0.0002977 2906.89893 3320.12915
3291.0 0.0003039 2906.85547 3329.56250
3334.0 0.0002999 2906.81372 3338.65845
3323.0 0.0003009 2906.77490 3347.37329
3314.0 0.0003018 2906.73535 3355.58325
3321.0 0.0003011 2906.69751 3363.28589
3316.0 0.0003016 2906.66162 3370.47070
3303.0 0.0003028 2906.62622 3377.11377
3299.0 0.0003031 2906.59351 3383.21948
3282.0 0.0003047 2906.56104 3388.78296
3432.0 0.0002914 2906.52979 3393.90088
3324.0 0.0003008 2906.49976 3398.51416
3347.0 0.0002988 2906.47119 3402.68628
3329.0 0.0003004 2906.44385 3406.40210
3369.0 0.0002968 2906.41772 3409.73291
3210.0 0.0003115 2906.39282 3412.60132
3307.0 0.0003024 2906.36816 3414.96582
3341.0 0.0002993 2906.34570 3416.75049
3471.0 0.0002881 2906.32397 3417.91138
3341.0 0.0002993 2906.30322 3418.21045
3285.0 0.0003044 2906.28394 3417.61401
3409.0 0.0002933 2906.26538 3416.04028
3336.0 0.0002998 2906.24756 3413.44409
3388.0 0.0002952 2906.23169 3409.86255
3345.0 0.0002990 2906.21582 3405.33374
3333.0 0.0003000 2906.20239 3400.04028
3347.0 0.0002988 2906.18774 3394.13208
3308.0 0.0003023 2906.17554 3387.83032
3318.0 0.0003014 2906.16357 3381.38281
3352.0 0.0002983 2906.15332 3375.08276
3369.0 0.0002968 2906.14331 3369.10620
3316.0 0.0003016 2906.13379 3363.75244
3282.0 0.0003047 2906.12598 3359.29175
3375.0 0.0002963 2906.11890 3355.98071
3369.0 0.0002968 2906.11157 3354.09814
3261.0 0.0003067 2906.10645 3353.89600
3359.0 0.0002977 2906.10156 3355.62036
3357.0 0.0002979 2906.09790 3359.29492
3219.0 0.0003107 2906.09448 3365.44165
3292.0 0.0003038 2906.09106 3373.97388
3299.0 0.0003031 2906.08911 3384.93384
3324.0 0.0003008 2906.08789 3398.27686
3412.0 0.0002931 2906.08765 3413.87109
3294.0 0.0003036 2906.08789 3431.52075
3369.0 0.0002968 2906.08838 3450.93433
3494.0 0.0002862 2906.08960 3471.73096
3380.0 0.0002959 2906.09131 3493.40942
3437.0 0.0002910 2906.09497 3515.55786
3456.0 0.0002894 2906.09814 3537.68921
3625.0 0.0002759 2906.10010 3559.20190
3605.0 0.0002774 2906.10449 3579.52832
3790.0 0.0002639 2906.11035 3598.18286
3606.0 0.0002773 2906.11572 3614.73828
3685.0 0.0002714 2906.12134 3628.86401
3757.0 0.0002662 2906.12744 3640.42700
3666.0 0.0002728 2906.13354 3649.20996
3808.0 0.0002626 2906.14063 3655.24170
3674.0 0.0002722 2906.14844 3658.68823
3729.0 0.0002682 2906.15601 3659.67236
3666.0 0.0002728 2906.16455 3658.36743
3691.0 0.0002709 2906.17236 3654.98755
3710.0 0.0002695 2906.18213 3649.75342
3533.0 0.0002830 2906.19141 3642.92505
3570.0 0.0002801 2906.20117 3634.70386
3536.0 0.0002828 2906.21167 3625.37744
3616.0 0.0002765 2906.22168 3615.24194
3518.0 0.0002843 2906.23218 3604.50391
3604.0 0.0002775 2906.24292 3593.43506
3569.0 0.0002802 2906.25439 3582.26831
3546.0 0.0002820 2906.26611 3571.18408
3521.0 0.0002840 2906.27686 3560.31030
3462.0 0.0002889 2906.28735 3549.80029
3502.0 0.0002856 2906.30029 3539.59863
3582.0 0.0002792 2906.31128 3529.77637
3493.0 0.0002863 2906.32373 3520.29321
3563.0 0.0002807 2906.33521 3511.10620
3454.0 0.0002895 2906.34863 3502.15967
3483.0 0.0002871 2906.36157 3493.40405
3511.0 0.0002848 2906.37305 3484.78125
3571.0 0.0002800 2906.38599 3476.26099
3491.0 0.0002865 2906.39893 3467.80933
3340.0 0.0002994 2906.41113 3459.39844
3456.0 0.0002894 2906.42383 3451.02026
3440.0 0.0002907 2906.43701 3442.67285
3448.0 0.0002900 2906.44897 3434.29614
3376.0 0.0002962 2906.46118 3425.89038
3356.0 0.0002980 2906.47461 3417.49707
3404.0 0.0002938 2906.48682 3409.12109
3493.0 0.0002863 2906.49902 3400.81348
3443.0 0.0002904 2906.51147 3392.63159
3368.0 0.0002969 2906.52393 3384.66992
3501.0 0.0002856 2906.53564 3377.08325
3480.0 0.0002874 2906.54736 3369.80176
3482.0 0.0002872 2906.55908 3362.97021
3370.0 0.0002967 2906.57056 3356.63672
3302.0 0.0003028 2906.58276 3350.88477
3362.0 0.0002974 2906.59302 3345.76318
3441.0 0.0002906 2906.60449 3341.33789
3387.0 0.0002952 2906.61572 3337.67993
3429.0 0.0002916 2906.62573 3334.89185
3306.0 0.0003025 2906.63574 3333.03296
3427.0 0.0002918 2906.64575 3332.21362
3223.0 0.0003103 2906.65479 3332.52295
3500.0 0.0002857 2906.66528 3334.07593
3361.0 0.0002975 2906.67480 3336.84424
3485.0 0.0002869 2906.68140 3340.85693
3334.0 0.0002999 2906.69067 3346.11328
3333.0 0.0003000 2906.69775 3352.62085
3389.0 0.0002951 2906.70630 3360.23145
3427.0 0.0002918 2906.71313 3368.84131
3364.0 0.0002973 2906.71973 3378.33301
3476.0 0.0002877 2906.72656 3388.47900
3430.0 0.0002915 2906.73193 3399.14429
3443.0 0.0002904 2906.73730 3410.03491
3501.0 0.0002856 2906.74243 3420.80151
3508.0 0.0002851 2906.74756 3431.10938
3378.0 0.0002960 2906.75073 3440.63696
3539.0 0.0002826 2906.75513 3449.04834
3587.0 0.0002788 2906.75830 3455.93311
3563.0 0.0002807 2906.76001 3461.09814
3400.0 0.0002941 2906.76099 3464.20142
3471.0 0.0002881 2906.76221 3465.16846
3617.0 0.0002765 2906.76343 3463.90698
3511.0 0.0002848 2906.76318 3460.41211
3542.0 0.0002823 2906.76245 3454.69800
3573.0 0.0002799 2906.76123 3446.88354
3569.0 0.0002802 2906.75903 3437.05078
3563.0 0.0002807 2906.75708 3425.34741
3497.0 0.0002860 2906.75439 3411.91821
3482.0 0.0002872 2906.74927 3396.93823
3429.0 0.0002916 2906.74438 3380.65576
3419.0 0.0002925 2906.73926 3363.28711
3359.0 0.0002977 2906.73291 3345.04565
3259.0 0.0003068 2906.72705 3326.22314
3360.0 0.0002976 2906.71948 3307.08398
3396.0 0.0002945 2906.71045 3287.91382
3360.0 0.0002976 2906.70166 3268.96704
3228.0 0.0003098 2906.69141 3250.52246
3274.0 0.0003054 2906.68115 3232.74561
3262.0 0.0003066 2906.66968 3215.86060
3218.0 0.0003108 2906.65674 3200.10669
3197.0 0.0003128 2906.64404 3185.47729
3234.0 0.0003092 2906.62915 3172.10132
3240.0 0.0003086 2906.61499 3160.05420
3175.0 0.0003150 2906.59839 3149.34253
3061.0 0.0003267 2906.58105 3139.97070
3191.0 0.0003134 2906.56372 3131.90942
3170.0 0.0003155 2906.54468 3125.09961
3228.0 0.0003098 2906.52417 3119.49316
3052.0 0.0003277 2906.50464 3114.96680
3060.0 0.0003268 2906.48291 3111.43579
3085.0 0.0003241 2906.45996 3108.81958
3144.0 0.0003181 2906.43652 3106.94287
3079.0 0.0003248 2906.41162 3105.72266
3150.0 0.0003175 2906.38550 3105.06665
3118.0 0.0003207 2906.35889 3104.89233
3126.0 0.0003199 2906.33105 3105.10547
3047.0 0.0003282 2906.30249 3105.74683
3129.0 0.0003196 2906.27222 3106.80298
3055.0 0.0003273 2906.24121 3108.26270
3154.0 0.0003171 2906.20947 3110.18311
3126.0 0.0003199 2906.17554 3112.62769
3215.0 0.0003110 2906.14111 3115.65967
3145.0 0.0003180 2906.10547 3119.35522
3137.0 0.0003188 2906.06860 3123.78052
3131.0 0.0003194 2906.03052 3128.99268
3082.0 0.0003245 2905.99097 3135.10962
3133.0 0.0003192 2905.95068 3142.17505
3058.0 0.0003270 2905.90845 3150.25879
3096.0 0.0003230 2905.86572 3159.40039
3139.0 0.0003186 2905.82129 3169.65015
3169.0 0.0003156 2905.77612 3181.01123
3162.0 0.0003163 2905.72949 3193.47852
3166.0 0.0003159 2905.68213 3206.99561
3187.0 0.0003138 2905.63257 3221.53198
3185.0 0.0003140 2905.58179 3236.94946
3086.0 0.0003240 2905.52979 3253.12720
3244.0 0.0003083 2905.47705 3269.87622
3265.0 0.0003063 2905.42285 3286.96973
3279.0 0.0003050 2905.36670 3304.19312
3386.0 0.0002953 2905.30859 3321.26807
3522.0 0.0002839 2905.24976 3337.92188
3393.0 0.0002947 2905.18970 3353.87793
3526.0 0.0002836 2905.12793 3368.87939
3458.0 0.0002892 2905.06445 3382.69678
3477.0 0.0002876 2905.00195 3395.13086
3514.0 0.0002846 2904.93457 3406.01611
3567.0 0.0002803 2904.86694 3415.22412
3606.0 0.0002773 2904.79810 3422.78027
3631.0 0.0002754 2904.72705 3428.63696
3693.0 0.0002708 2904.65649 3432.89478
3583.0 0.0002791 2904.58325 3435.54614
3564.0 0.0002806 2904.50684 3436.67700
3524.0 0.0002838 2904.43066 3436.36865
3482.0 0.0002872 2904.35303 3434.68652
3553.0 0.0002815 2904.27271 3431.68433
3514.0 0.0002846 2904.19214 3427.51465
3731.0 0.0002680 2904.10840 3422.31885
3562.0 0.0002807 2904.02417 3416.21143
3667.0 0.0002727 2903.93823 3409.41870
3525.0 0.0002837 2903.84937 3402.10132
3445.0 0.0002903 2903.75977 3394.49097
3497.0 0.0002860 2903.66846 3386.79004
3443.0 0.0002904 2903.57690 3379.27319
3409.0 0.0002933 2903.48218 3372.15796
3403.0 0.0002939 2903.38501 3365.59058
3454.0 0.0002895 2903.28760 3359.82324
3368.0 0.0002969 2903.18848 3355.10571
3421.0 0.0002923 2903.08716 3351.39502
3366.0 0.0002971 2902.98291 3348.91162
3404.0 0.0002938 2902.87842 3347.77856
3359.0 0.0002977 2902.77173 3348.03955
3347.0 0.0002988 2902.66333 3349.90039
3367.0 0.0002970 2902.55322 3353.39502
3375.0 0.0002963 2902.44165 3358.60693
3295.0 0.0003035 2902.32690 3365.55103
3230.0 0.0003096 2902.21167 3374.28638
3307.0 0.0003024 2902.09375 3384.78833
3384.0 0.0002955 2901.97437 3397.01880
3398.0 0.0002943 2901.85303 3410.93823
3436.0 0.0002910 2901.73022 3426.28271
3368.0 0.0002969 2901.60474 3442.96509
3397.0 0.0002944 2901.47607 3460.72705
3508.0 0.0002851 2901.34814 3479.27832
3551.0 0.0002816 2901.21729 3498.30811
3605.0 0.0002774 2901.08496 3517.43140
3580.0 0.0002793 2900.94897 3536.26465
3736.0 0.0002677 2900.81152 3554.38867
3807.0 0.0002627 2900.67407 3571.40088
3698.0 0.0002704 2900.53247 3586.93408
3848.0 0.0002599 2900.38940 3600.64819
3832.0 0.0002610 2900.24390 3612.26611
3918.0 0.0002552 2900.09814 3621.60571
3888.0 0.0002572 2899.94873 3628.54004
3872.0 0.0002583 2899.79712 3633.00879
3971.0 0.0002518 2899.64404 3635.00415
3897.0 0.0002566 2899.48926 3634.54395
3835.0 0.0002608 2899.33130 3631.64478
3806.0 0.0002627 2899.17139 3626.34473
3742.0 0.0002672 2899.00977 3618.69629
3749.0 0.0002667 2898.84692 3608.75342
3762.0 0.0002658 2898.68066 3596.62158
3793.0 0.0002636 2898.51221 3582.42505
3654.0 0.0002737 2898.34277 3566.35815
3701.0 0.0002702 2898.16919 3548.64697
3701.0 0.0002702 2897.99536 3529.54443
3573.0 0.0002799 2897.81812 3509.37329
3569.0 0.0002802 2897.63867 3488.43628
3508.0 0.0002851 2897.45728 3467.02808
3457.0 0.0002893 2897.27441 3445.44116
3439.0 0.0002908 2897.08789 3423.93237
3408.0 0.0002934 2896.89966 3402.71509
3374.0 0.0002964 2896.70874 3381.99219
3314.0 0.0003018 2896.51660 3361.88574
3302.0 0.0003028 2896.32129 3342.53198
3283.0 0.0003046 2896.12427 3324.00830
3211.0 0.0003114 2895.92480 3306.37012
3349.0 0.0002986 2895.72217 3289.67407
3200.0 0.0003125 2895.51807 3273.93457
3172.0 0.0003153 2895.31152 3259.13110
3270.0 0.0003058 2895.10278 3245.24756
3242.0 0.0003085 2894.88989 3232.22070
3167.0 0.0003158 2894.67700 3219.99561
3169.0 0.0003156 2894.45947 3208.49683
3149.0 0.0003176 2894.24146 3197.63013
3254.0 0.0003073 2894.02100 3187.31641
3124.0 0.0003201 2893.79688 3177.47095
3140.0 0.0003185 2893.57129 3168.00317
3083.0 0.0003244 2893.34155 3158.85791
3184.0 0.0003141 2893.11108 3149.98853
3164.0 0.0003161 2892.87744 3141.34741
3174.0 0.0003151 2892.64087 3132.91895
3122.0 0.0003203 2892.40210 3124.68579
3108.0 0.0003218 2892.16040 3116.65039
3096.0 0.0003230 2891.91699 3108.82031
3071.0 0.0003256 2891.67114 3101.21167
3100.0 0.0003226 2891.42188 3093.84839
3063.0 0.0003265 2891.17065 3086.74878
3028.0 0.0003303 2890.91626 3079.90479
3102.0 0.0003224 2890.66016 3073.44043
3022.0 0.0003309 2890.40063 3067.33374
2978.0 0.0003358 2890.13892 3061.62671
3044.0 0.0003285 2889.87500 3056.35229
3075.0 0.0003252 2889.60718 3051.53003
3059.0 0.0003269 2889.33716 3047.19482
2984.0 0.0003351 2889.06421 3043.28076
3044.0 0.0003285 2888.78979 3039.92773
3018.0 0.0003313 2888.51147 3037.05444
2971.0 0.0003366 2888.23193 3034.66357
3020.0 0.0003311 2887.94824 3032.70703
2966.0 0.0003372 2887.66138 3031.15454
3009.0 0.0003323 2887.37183 3029.94897
3011.0 0.0003321 2887.08154 3029.05298
3051.0 0.0003278 2886.78760 3028.36719
3051.0 0.0003278 2886.49023 3027.81494
3024.0 0.0003307 2886.18970 3027.34399
2958.0 0.0003381 2885.88745 3026.91357
2976.0 0.0003360 2885.58203 3026.41626
3044.0 0.0003285 2885.27295 3025.84180
2987.0 0.0003348 2884.96265 3025.12842
2976.0 0.0003360 2884.64893 3024.22266
3032.0 0.0003298 2884.33154 3023.10498
2998.0 0.0003336 2884.01221 3021.81421
2993.0 0.0003341 2883.68970 3020.25854
3050.0 0.0003279 2883.36499 3018.48755
2983.0 0.0003352 2883.03662 3016.55469
2942.0 0.0003399 2882.70410 3014.43848
3032.0 0.0003298 2882.37134 3012.22559
2979.0 0.0003357 2882.03394 3009.90356
2938.0 0.0003404 2881.69434 3007.48828
2896.0 0.0003453 2881.35132 3005.08862
2927.0 0.0003416 2881.00537 3002.72607
2932.0 0.0003411 2880.65698 3000.42871
2911.0 0.0003435 2880.30542 2998.26270
2898.0 0.0003451 2879.95044 2996.28003
2962.0 0.0003376 2879.59204 2994.54907
2952.0 0.0003388 2879.23193 2993.08228
2931.0 0.0003412 2878.86768 2991.94873
2900.0 0.0003448 2878.50195 2991.16040
2813.0 0.000355 2878.13062 2990.81396
2975.0 0.0003361 2877.75830 2990.90869
2859.0 0.0003498 2877.38281 2991.48560
2985.0 0.0003350 2877.00415 2992.56323
2867.0 0.0003488 2876.62158 2994.16553
2947.0 0.0003393 2876.23730 2996.28076
2971.0 0.0003366 2875.84839 2998.99365
3100.0 0.0003226 2875.45703 3002.26367
2958.0 0.0003381 2875.06323 3006.10669
2988.0 0.0003347 2874.66528 3010.53296
3028.0 0.0003303 2874.26465 3015.56079
2918.0 0.0003427 2873.86084 3021.15918
2978.0 0.0003358 2873.45337 3027.35229
3002.0 0.0003331 2873.04443 3034.13428
3067.0 0.0003261 2872.63037 3041.54736
2954.0 0.0003385 2872.21387 3049.52856
3020.0 0.0003311 2871.79468 3058.14282
2998.0 0.0003336 2871.37158 3067.42090
2997.0 0.0003337 2870.94604 3077.38159
3086.0 0.0003240 2870.51587 3088.11084
3025.0 0.0003306 2870.08423 3099.56323
3083.0 0.0003244 2869.64868 3111.82471
3029.0 0.0003301 2869.20996 3124.93823
2971.0 0.0003366 2868.76782 3138.94531
3108.0 0.0003218 2868.32153 3153.85571
3141.0 0.0003184 2867.87402 3169.68457
3132.0 0.0003193 2867.42163 3186.39429
3146.0 0.0003179 2866.96680 3204.01807
3125.0 0.0003200 2866.50781 3222.44922
3263.0 0.0003065 2866.04614 3241.62598
3070.0 0.0003257 2865.58032 3261.47949
3326.0 0.0003007 2865.11328 3281.82520
3124.0 0.0003201 2864.64111 3302.64868
3192.0 0.0003133 2864.16602 3323.71118
3222.0 0.0003104 2863.68726 3344.83594
3325.0 0.0003008 2863.20557 3365.83936
3308.0 0.0003023 2862.72095 3386.51050
3285.0 0.0003044 2862.23291 3406.62622
3331.0 0.0003002 2861.73950 3425.96436
3268.0 0.0003060 2861.24536 3444.37427
3406.0 0.0002936 2860.74683 3461.67554
3463.0 0.0002888 2860.24512 3477.73584
3374.0 0.0002964 2859.73950 3492.48755
3330.0 0.0003003 2859.23096 3505.92261
3389.0 0.0002951 2858.71826 3518.06226
3461.0 0.0002889 2858.20264 3528.97900
3401.0 0.0002940 2857.68481 3538.78125
3482.0 0.0002872 2857.16162 3547.58594
3440.0 0.0002907 2856.63599 3555.54980
3471.0 0.0002881 2856.10596 3562.79785
3482.0 0.0002872 2855.57349 3569.46948
3403.0 0.0002939 2855.03735 3575.69141
3513.0 0.0002847 2854.49805 3581.56494
3533.0 0.0002830 2853.95459 3587.12915
3477.0 0.0002876 2853.40845 3592.60034
3574.0 0.0002798 2852.85864 3597.96973
3626.0 0.0002758 2852.30469 3603.32642
3496.0 0.0002860 2851.74731 3608.70215
3519.0 0.0002842 2851.18774 3614.11938
3564.0 0.0002806 2850.62305 3619.60718
3569.0 0.0002802 2850.05566 3625.09619
3619.0 0.0002763 2849.48462 3630.55786
3573.0 0.0002799 2848.91064 3635.92188
3652.0 0.0002738 2848.33203 3641.16284
3672.0 0.0002723 2847.75024 3646.17285
3631.0 0.0002754 2847.16528 3650.78931
3643.0 0.0002745 2846.57666 3654.90649
3687.0 0.0002712 2845.98462 3658.37964
3595.0 0.0002782 2845.38843 3661.02466
3615.0 0.0002766 2844.78931 3662.68188
3663.0 0.0002730 2844.18628 3663.17529
3608.0 0.0002772 2843.57983 3662.34692
3778.0 0.0002647 2842.96973 3660.07080
3649.0 0.0002740 2842.35596 3656.19751
3697.0 0.0002705 2841.73853 3650.63257
3637.0 0.0002750 2841.11816 3643.31836
3652.0 0.0002738 2840.49341 3634.21802
3467.0 0.0002884 2839.86572 3623.34741
3633.0 0.0002753 2839.23462 3610.71094
3562.0 0.0002807 2838.59961 3596.40576
3604.0 0.0002775 2837.95972 3580.49707
3534.0 0.0002830 2837.31812 3563.21582
3539.0 0.0002826 2836.67212 3544.70825
3409.0 0.0002933 2836.02271 3525.05347
3507.0 0.0002851 2835.36938 3504.71094
3412.0 0.0002931 2834.71265 3483.77808
3342.0 0.0002992 2834.05273 3462.48315
3431.0 0.0002915 2833.38892 3441.06934
3519.0 0.0002842 2832.72070 3419.77271
3347.0 0.0002988 2832.04956 3398.80200
3302.0 0.0003028 2831.37427 3378.38306
3423.0 0.0002921 2830.69702 3358.73657
3349.0 0.0002986 2830.01465 3340.07886
3341.0 0.0002993 2829.32788 3322.53491
3340.0 0.0002994 2828.63892 3306.38062
3274.0 0.0003054 2827.94580 3291.68921
3290.0 0.0003040 2827.24976 3278.61670
3226.0 0.0003100 2826.54883 3267.24316
3177.0 0.0003148 2825.84521 3257.60620
3228.0 0.0003098 2825.13672 3249.76416
3294.0 0.0003036 2824.42603 3243.76196
3130.0 0.0003195 2823.71167 3239.56860
3264.0 0.0003064 2822.99316 3237.16138
3189.0 0.0003136 2822.27026 3236.46704
3321.0 0.0003011 2821.54565 3237.39551
3274.0 0.0003054 2820.81519 3239.80127
3242.0 0.0003085 2820.08228 3243.60303
3177.0 0.0003148 2819.34546 3248.58105
3299.0 0.0003031 2818.60547 3254.61475
3214.0 0.0003111 2817.86108 3261.45557
3437.0 0.0002910 2817.11401 3268.95776
3356.0 0.0002980 2816.36230 3276.86523
3222.0 0.0003104 2815.60718 3285.00439
3400.0 0.0002941 2814.84790 3293.23706
3281.0 0.0003048 2814.08643 3301.38159
3304.0 0.0003027 2813.32056 3309.31958
3367.0 0.0002970 2812.55054 3316.96875
3347.0 0.0002988 2811.77759 3324.20728
3278.0 0.0003051 2811.00073 3331.04810
3338.0 0.0002996 2810.21997 3337.41992
3439.0 0.0002908 2809.43555 3343.27686
3452.0 0.0002897 2808.64844 3348.59302
3440.0 0.0002907 2807.85767 3353.35571
3381.0 0.0002958 2807.06128 3357.57446
3459.0 0.0002891 2806.26318 3361.24121
3352.0 0.0002983 2805.46069 3364.36230
3389.0 0.0002951 2804.65430 3366.96631
3429.0 0.0002916 2803.84497 3369.08813
3448.0 0.0002900 2803.03198 3370.76855
3331.0 0.0003002 2802.21533 3372.12744
3367.0 0.0002970 2801.39526 3373.19751
3403.0 0.0002939 2800.57056 3374.06055
3323.0 0.0003009 2799.74292 3374.82983
3369.0 0.0002968 2798.91187 3375.58179
3265.0 0.0003063 2798.07764 3376.41431
3343.0 0.0002991 2797.23877 3377.41211
3322.0 0.0003010 2796.39697 3378.63013
3347.0 0.0002988 2795.55176 3380.13916
3254.0 0.0003073 2794.70239 3381.93384
3364.0 0.0002973 2793.84888 3384.03784
3321.0 0.0003011 2792.99316 3386.39404
3352.0 0.0002983 2792.13379 3388.94482
3413.0 0.0002930 2791.26978 3391.59937
3441.0 0.0002906 2790.40381 3394.24023
3329.0 0.0003004 2789.53271 3396.73999
3385.0 0.0002954 2788.65796 3398.95605
3436.0 0.0002910 2787.78003 3400.71338
3378.0 0.0002960 2786.89917 3401.86719
3418.0 0.0002926 2786.01392 3402.25366
3441.0 0.0002906 2785.12573 3401.63721
3329.0 0.0003004 2784.23511 3400.08594
3387.0 0.0002952 2783.33911 3397.42383
3465.0 0.0002886 2782.44019 3393.61084
3449.0 0.0002899 2781.53784 3388.63892
3519.0 0.0002842 2780.63208 3382.51489
3570.0 0.0002801 2779.72217 3375.35449
3448.0 0.0002900 2778.81030 3367.23950
3317.0 0.0003015 2777.89478 3358.26343
3489.0 0.0002866 2776.97388 3348.54517
3297.0 0.0003033 2776.05103 3338.15625
3355.0 0.0002981 2775.12476 3327.31299
3421.0 0.0002923 2774.19458 3316.08789
3360.0 0.0002976 2773.26001 3304.61084
3396.0 0.0002945 2772.32349 3293.04077
3316.0 0.0003016 2771.38330 3281.47729
3399.0 0.0002942 2770.43970 3270.11597
3285.0 0.0003044 2769.49316 3259.08325
3258.0 0.0003069 2768.54175 3248.51782
3263.0 0.0003065 2767.58862 3238.56348
3146.0 0.0003179 2766.63086 3229.34082
3124.0 0.0003201 2765.67090 3220.95142
3302.0 0.0003028 2764.70581 3213.47485
3364.0 0.0002973 2763.73828 3206.99170
3277.0 0.0003052 2762.76807 3201.53296
3233.0 0.0003093 2761.79321 3197.12280
3244.0 0.0003083 2760.81616 3193.78809
3168.0 0.0003157 2759.83521 3191.52661
3261.0 0.0003067 2758.85083 3190.35352
3192.0 0.0003133 2757.86426 3190.22192
3183.0 0.0003142 2756.87476 3191.15283
3122.0 0.0003203 2755.88013 3193.11499
3223.0 0.0003103 2754.88306 3196.10278
3207.0 0.0003118 2753.88330 3200.08496
3163.0 0.0003162 2752.87915 3205.03369
3234.0 0.0003092 2751.87207 3210.91187
3303.0 0.0003028 2750.86206 3217.65039
3270.0 0.0003058 2749.84961 3225.14063
3191.0 0.0003134 2748.83276 3233.38013
3285.0 0.0003044 2747.81323 3242.23193
3243.0 0.0003084 2746.79126 3251.60620
3265.0 0.0003063 2745.76440 3261.39868
3259.0 0.0003068 2744.73535 3271.48804
3250.0 0.0003077 2743.70410 3281.73926
3317.0 0.0003015 2742.66772 3292.05737
3372.0 0.0002966 2741.62988 3302.31421
3321.0 0.0003011 2740.58936 3312.39111
3436.0 0.0002910 2739.54443 3322.18530
3370.0 0.0002967 2738.49658 3331.63257
3414.0 0.0002929 2737.44653 3340.65894
3350.0 0.0002985 2736.39209 3349.20386
3403.0 0.0002939 2735.33569 3357.23291
3490.0 0.0002865 2734.27686 3364.72461
3486.0 0.0002869 2733.21436 3371.67432
3467.0 0.0002884 2732.14795 3378.08008
3409.0 0.0002933 2731.07959 3383.93481
3473.0 0.0002879 2730.00854 3389.24023
3523.0 0.0002838 2728.93408 3394.00732
3477.0 0.0002876 2727.85620 3398.22949
3488.0 0.0002867 2726.77734 3401.92627
3472.0 0.0002880 2725.69409 3405.11157
3457.0 0.0002893 2724.60742 3407.80884
3545.0 0.0002821 2723.51904 3410.03223
3334.0 0.0002999 2722.42725 3411.85864
3374.0 0.0002964 2721.33301 3413.30713
3459.0 0.0002891 2720.23560 3414.44434
3378.0 0.0002960 2719.13477 3415.20239
3280.0 0.0003049 2718.03247 3415.55688
3349.0 0.0002986 2716.92749 3415.66602
3400.0 0.0002941 2715.81885 3415.42163
3371.0 0.0002966 2714.70728 3414.81006
3356.0 0.0002980 2713.59497 3413.72070
3383.0 0.0002956 2712.47852 3412.09277
3453.0 0.0002896 2711.35864 3409.87549
3214.0 0.0003111 2710.23682 3406.96509
3358.0 0.0002978 2709.11353 3403.27026
3317.0 0.0003015 2707.98657 3398.69092
3450.0 0.0002899 2706.85620 3393.15552
3425.0 0.0002920 2705.72485 3386.59277
3463.0 0.0002888 2704.58936 3378.96460
3310.0 0.0003021 2703.45215 3370.20361
3468.0 0.0002884 2702.31372 3360.33374
3343.0 0.0002991 2701.17114 3349.36890
3383.0 0.0002956 2700.02612 3337.36499
3371.0 0.0002966 2698.87964 3324.38965
3343.0 0.0002991 2697.73022 3310.49829
3293.0 0.0003037 2696.57813 3295.76758
3310.0 0.0003021 2695.42334 3280.31421
3266.0 0.0003062 2694.26660 3264.21289
3139.0 0.0003186 2693.10718 3247.54492
3225.0 0.0003101 2691.94629 3230.41138
3157.0 0.0003168 2690.78223 3212.88770
3098.0 0.0003228 2689.61572 3195.13452
3215.0 0.0003110 2688.44653 3177.09863
3146.0 0.0003179 2687.27783 3158.96069
3209.0 0.0003116 2686.10400 3140.79248
3121.0 0.0003204 2684.92896 3122.70215
3072.0 0.0003255 2683.75195 3104.80640
3034.0 0.0003296 2682.57324 3087.17798
2995.0 0.0003339 2681.39014 3069.90430
2978.0 0.0003358 2680.20703 3053.10547
2962.0 0.0003376 2679.02197 3036.85229
2981.0 0.0003355 2677.83276 3021.21704
2938.0 0.0003404 2676.64307 3006.30542
2998.0 0.0003336 2675.45190 2992.16772
2971.0 0.0003366 2674.25708 2978.86108
2899.0 0.0003449 2673.06128 2966.45459
2876.0 0.0003477 2671.86255 2955.01465
2852.0 0.0003506 2670.66333 2944.52686
3010.0 0.0003322 2669.46069 2935.06274
2869.0 0.0003486 2668.25732 2926.69336
2860.0 0.0003497 2667.05176 2919.37476
2848.0 0.000351 2665.84399 2913.18066
2856.0 0.0003501 2664.63452 2908.14868
2864.0 0.0003492 2663.42310 2904.30249
2847.0 0.000351 2662.20972 2901.70337
2919.0 0.0003426 2660.99634 2900.32764
2897.0 0.0003452 2659.77930 2900.23120
2761.0 0.000362 2658.56006 2901.43066
2798.0 0.000357 2657.34033 2903.94507
2899.0 0.0003449 2656.11914 2907.78101
2972.0 0.0003365 2654.89600 2912.94312
2803.0 0.000357 2653.67041 2919.43677
2931.0 0.0003412 2652.44531 2927.23730
2976.0 0.0003360 2651.21606 2936.35205
2874.0 0.0003479 2649.98682 2946.72510
2953.0 0.0003386 2648.75537 2958.30640
3029.0 0.0003301 2647.52295 2971.07422
2962.0 0.0003376 2646.28833 2984.95288
2958.0 0.0003381 2645.05322 2999.87769
3003.0 0.0003330 2643.81592 3015.74805
3012.0 0.0003320 2642.57715 3032.48901
3030.0 0.0003300 2641.33765 3049.91748
3049.0 0.0003280 2640.09692 3068.01367
3090.0 0.0003236 2638.85376 3086.61646
3198.0 0.0003127 2637.61084 3105.50293
3199.0 0.0003126 2636.36499 3124.61035
3174.0 0.0003151 2635.11938 3143.73608
3319.0 0.0003013 2633.87158 3162.69971
3287.0 0.0003042 2632.62280 3181.31104
3388.0 0.0002952 2631.37280 3199.38037
3371.0 0.0002966 2630.12183 3216.57642
3425.0 0.0002920 2628.86987 3232.93335
3493.0 0.0002863 2627.61719 3248.13867
3463.0 0.0002888 2626.36255 3261.98706
3695.0 0.0002706 2625.10742 3274.28906
3752.0 0.0002665 2623.85132 3284.88354
3625.0 0.0002759 2622.59302 3293.68506
3555.0 0.0002813 2621.33545 3300.57959
3707.0 0.0002698 2620.07617 3305.51514
3609.0 0.0002771 2618.81567 3308.48511
3634.0 0.0002752 2617.55591 3309.39771
3527.0 0.0002835 2616.29321 3308.49438
3636.0 0.0002750 2615.03076 3305.74243
3611.0 0.0002769 2613.76733 3301.17944
3541.0 0.0002824 2612.50439 3294.97754
3497.0 0.0002860 2611.23804 3287.18799
3445.0 0.0002903 2609.97314 3277.91943
3462.0 0.0002889 2608.70728 3267.29932
3476.0 0.0002877 2607.44043 3255.42700
3467.0 0.0002884 2606.17163 3242.44189
3385.0 0.0002954 2604.90454 3228.48730
3434.0 0.0002912 2603.63672 3213.71387
3258.0 0.0003069 2602.36597 3198.26025
3259.0 0.0003068 2601.09668 3182.30737
3330.0 0.0003003 2599.82715 3166.02612
3193.0 0.0003132 2598.55542 3149.55737
3205.0 0.0003120 2597.28516 3133.09155
3125.0 0.0003200 2596.01245 3116.76440
3091.0 0.0003235 2594.74121 3100.71655
3047.0 0.0003282 2593.46948 3085.09277
3081.0 0.0003246 2592.19629 3069.98853
2966.0 0.0003372 2590.92334 3055.50806
2994.0 0.0003340 2589.65137 3041.72852
2909.0 0.0003438 2588.37891 3028.69287
3035.0 0.0003295 2587.10474 3016.44531
3069.0 0.0003258 2585.83032 3005.00098
2999.0 0.0003334 2584.55786 2994.35571
2925.0 0.0003419 2583.28320 2984.46484
2972.0 0.0003365 2582.00854 2975.32446
2871.0 0.0003483 2580.73584 2966.89575
2943.0 0.0003398 2579.46143 2959.10254
2965.0 0.0003373 2578.18701 2951.87622
2931.0 0.0003412 2576.91333 2945.16211
2889.0 0.0003461 2575.63989 2938.88208
2985.0 0.0003350 2574.36621 2932.95337
2887.0 0.0003464 2573.09155 2927.30298
2879.0 0.0003473 2571.81836 2921.88599
2911.0 0.0003435 2570.54590 2916.55933
2799.0 0.000357 2569.27271 2911.27808
2854.0 0.0003504 2567.99951 2905.99951
2887.0 0.0003464 2566.72754 2900.64917
2847.0 0.000351 2565.45508 2895.18335
2976.0 0.0003360 2564.18335 2889.55542
2823.0 0.000354 2562.91113 2883.73779
2938.0 0.0003404 2561.63940 2877.71387
2917.0 0.0003428 2560.36938 2871.48633
2877.0 0.0003476 2559.09888 2865.05713
2882.0 0.0003470 2557.82910 2858.44287
2803.0 0.000357 2556.56006 2851.69312
2857.0 0.0003500 2555.29150 2844.82617
2885.0 0.0003466 2554.02271 2837.89087
2810.0 0.000356 2552.75488 2830.95190
2808.0 0.000356 2551.48804 2824.03857
2802.0 0.000357 2550.22192 2817.21558
2715.0 0.000368 2548.95630 2810.53247
2744.0 0.000364 2547.69165 2804.06030
2768.0 0.000361 2546.42773 2797.83984
2790.0 0.000358 2545.16406 2791.93921
2675.0 0.000374 2543.90161 2786.39233
2768.0 0.000361 2542.64063 2781.28442
2706.0 0.000370 2541.37866 2776.65283
2725.0 0.000367 2540.11987 2772.54956
2745.0 0.000364 2538.86035 2769.00342
2785.0 0.000359 2537.60083 2766.05786
2692.0 0.000371 2536.34521 2763.73535
2728.0 0.000367 2535.08960 2762.05518
2631.0 0.000380 2533.83398 2761.02710
2719.0 0.000368 2532.57959 2760.64917
2727.0 0.000367 2531.32715 2760.92041
2650.0 0.000377 2530.07471 2761.81030
2611.0 0.000383 2528.82446 2763.30933
2788.0 0.000359 2527.57471 2765.38721
2760.0 0.000362 2526.32715 2767.99438
2732.0 0.000366 2525.07959 2771.09375
2816.0 0.000355 2523.83472 2774.62988
2739.0 0.000365 2522.59082 2778.55054
2777.0 0.000360 2521.34741 2782.80493
2727.0 0.000367 2520.10498 2787.31714
2844.0 0.000352 2518.86572 2792.02954
2695.0 0.000371 2517.62646 2796.87500
2750.0 0.000364 2516.38940 2801.78613
2768.0 0.000361 2515.15405 2806.68115
2737.0 0.000365 2513.91943 2811.49731
2775.0 0.000360 2512.68677 2816.14917
2673.0 0.000374 2511.45532 2820.57690
2793.0 0.000358 2510.22583 2824.67383
2834.0 0.000353 2508.99854 2828.37451
2867.0 0.0003488 2507.77173 2831.60815
2781.0 0.000360 2506.54639 2834.30029
2843.0 0.000352 2505.32300 2836.39551
2894.0 0.0003455 2504.10278 2837.82837
2835.0 0.000353 2502.88330 2838.58057
2855.0 0.0003503 2501.66455 2838.57690
2946.0 0.0003394 2500.44971 2837.82837
2893.0 0.0003457 2499.23657 2836.32861
2883.0 0.0003469 2498.02466 2834.07593
2874.0 0.0003479 2496.81348 2831.12793
2899.0 0.0003449 2495.60620 2827.51074
2825.0 0.000354 2494.40015 2823.25464
2754.0 0.000363 2493.19556 2818.44287
2762.0 0.000362 2491.99341 2813.10986
2882.0 0.0003470 2490.79248 2807.31689
2792.0 0.000358 2489.59424 2801.13672
2752.0 0.000363 2488.39893 2794.63232
2723.0 0.000367 2487.20483 2787.87988
2710.0 0.000369 2486.01270 2780.91016
2772.0 0.000361 2484.82446 2773.82031
2705.0 0.000370 2483.63721 2766.66626
2770.0 0.000361 2482.45117 2759.50830
2726.0 0.000367 2481.26929 2752.43115
2657.0 0.000376 2480.08936 2745.47681
2659.0 0.000376 2478.91040 2738.71484
2640.0 0.000379 2477.73413 2732.18726
2731.0 0.000366 2476.56079 2725.95508
2644.0 0.000378 2475.39038 2720.07446
2599.0 0.000385 2474.22192 2714.55640
2687.0 0.000372 2473.05591 2709.45605
2594.0 0.000386 2471.89209 2704.79517
2657.0 0.000376 2470.73071 2700.60010
2584.0 0.000387 2469.57251 2696.82227
2591.0 0.000386 2468.41748 2693.63574
2579.0 0.000388 2467.26318 2690.94482
2606.0 0.000384 2466.11255 2688.83228
2633.0 0.000380 2464.96436 2687.29102
2689.0 0.000372 2463.81934 2686.32813
2644.0 0.000378 2462.67603 2685.96655
2696.0 0.000371 2461.53662 2686.22144
2615.0 0.000382 2460.39893 2687.09961
2628.0 0.000381 2459.26392 2688.61597
2604.0 0.000384 2458.13281 2690.78003
2699.0 0.000371 2457.00342 2693.58765
2545.0 0.000393 2455.87695 2697.07202
2681.0 0.000373 2454.75415 2701.17920
2550.0 0.000392 2453.63379 2705.93823
2615.0 0.000382 2452.51660 2711.33374
2607.0 0.000384 2451.40259 2717.32227
2645.0 0.000378 2450.29102 2723.89941
2657.0 0.000376 2449.18188 2731.03320
2720.0 0.000368 2448.07666 2738.65137
2652.0 0.000377 2446.97510 2746.74414
2678.0 0.000373 2445.87451 2755.22949
2577.0 0.000388 2444.77881 2764.08667
2755.0 0.000363 2443.68604 2773.23706
2682.0 0.000373 2442.59546 2782.58643
2697.0 0.000371 2441.50854 2792.05811
2744.0 0.000364 2440.42554 2801.56396
2719.0 0.000368 2439.34473 2811.01563
2772.0 0.000361 2438.26587 2820.30762
2744.0 0.000364 2437.19287 2829.30518
2795.0 0.000358 2436.12158 2837.96094
2763.0 0.000362 2435.05371 2846.17627
2803.0 0.000357 2433.98999 2853.80933
2857.0 0.0003500 2432.92920 2860.76929
2857.0 0.0003500 2431.87061 2866.98975
2767.0 0.000361 2430.81689 2872.36841
2873.0 0.0003481 2429.76660 2876.83813
2788.0 0.000359 2428.71875 2880.28345
2844.0 0.000352 2427.67456 2882.81055
2810.0 0.000356 2426.63428 2884.32373
2878.0 0.0003475 2425.59790 2884.81079
2803.0 0.000357 2424.56421 2884.32349
2857.0 0.0003500 2423.53369 2882.88110
2843.0 0.000352 2422.50757 2880.53613
2727.0 0.000367 2421.48340 2877.33569
2803.0 0.000357 2420.46411 2873.37329
2828.0 0.000354 2419.44995 2868.71484
2797.0 0.000358 2418.43750 2863.44458
2833.0 0.000353 2417.42920 2857.62891
2776.0 0.000360 2416.42432 2851.40869
2841.0 0.000352 2415.42236 2844.85449
2837.0 0.000352 2414.42505 2838.06055
2726.0 0.000367 2413.43188 2831.12622
2715.0 0.000368 2412.44116 2824.14063
2737.0 0.000365 2411.45557 2817.20776
2738.0 0.000365 2410.47363 2810.40967
2840.0 0.000352 2409.49463 2803.82446
2765.0 0.000362 2408.51880 2797.52417
2816.0 0.000355 2407.54810 2791.59619
2693.0 0.000371 2406.58105 2786.10620
2723.0 0.000367 2405.61743 2781.06396
2790.0 0.000358 2404.65845 2776.54028
2717.0 0.000368 2403.70190 2772.55615
2749.0 0.000364 2402.74976 2769.13428
2811.0 0.000356 2401.80249 2766.29834
2804.0 0.000357 2400.85864 2764.02490
2714.0 0.000368 2399.91821 2762.32837
2847.0 0.000351 2398.98340 2761.17480
2757.0 0.000363 2398.05127 2760.54785
2749.0 0.000364 2397.12207 2760.41089
2640.0 0.000379 2396.19824 2760.72021
2768.0 0.000361 2395.27954 2761.42871
2689.0 0.000372 2394.36304 2762.40796
2807.0 0.000356 2393.45044 2763.71997
2692.0 0.000371 2392.54321 2765.24414
2752.0 0.000363 2391.63916 2766.89526
2802.0 0.000357 2390.73950 2768.60522
2776.0 0.000360 2389.84375 2770.29663
2768.0 0.000361 2388.95337 2771.91479
2713.0 0.000369 2388.06494 2773.38916
2750.0 0.000364 2387.18262 2774.66699
2757.0 0.000363 2386.30396 2775.68896
2888.0 0.0003463 2385.42871 2776.45703
2852.0 0.0003506 2384.55786 2776.93335
2745.0 0.000364 2383.69238 2777.07471
2765.0 0.000362 2382.82983 2776.94141
2817.0 0.000355 2381.97119 2776.51978
2831.0 0.000353 2381.11865 2775.81641
2874.0 0.0003479 2380.26904 2774.87354
2779.0 0.000360 2379.42383 2773.70630
2761.0 0.000362 2378.58325 2772.31787
2830.0 0.000353 2377.74609 2770.83203
2798.0 0.000357 2376.91406 2769.23096
2723.0 0.000367 2376.08521 2767.57251
2678.0 0.000373 2375.26294 2765.89331
2757.0 0.000363 2374.44287 2764.22510
2764.0 0.000362 2373.62817 2762.60400
2812.0 0.000356 2372.81641 2761.06836
2833.0 0.000353 2372.01001 2759.62695
2847.0 0.000351 2371.20898 2758.31812
2775.0 0.000360 2370.41138 2757.15991
2684.0 0.000373 2369.61768 2756.13330
2719.0 0.000368 2368.82935 2755.29712
2692.0 0.000371 2368.04517 2754.62524
2794.0 0.000358 2367.26440 2754.10620
2814.0 0.000355 2366.48877 2753.72437
2758.0 0.000363 2365.71826 2753.45630
2770.0 0.000361 2364.95142 2753.26294
2722.0 0.000367 2364.18872 2753.11475
2729.0 0.000366 2363.43140 2752.94849
2793.0 0.000358 2362.67798 2752.75952
2859.0 0.0003498 2361.92871 2752.40259
2697.0 0.000371 2361.18481 2751.85815
2795.0 0.000358 2360.44458 2751.06445
2734.0 0.000366 2359.70850 2749.93774
2784.0 0.000359 2358.97852 2748.44043
2741.0 0.000365 2358.25146 2746.50879
2868.0 0.0003487 2357.52881 2744.10059
2731.0 0.000366 2356.81201 2741.18237
2814.0 0.000355 2356.09888 2737.74707
2845.0 0.000351 2355.39038 2733.77832
2847.0 0.000351 2354.68579 2729.28076
2830.0 0.000353 2353.98657 2724.27783
2763.0 0.000362 2353.29102 2718.78833
2864.0 0.0003492 2352.60059 2712.83838
2717.0 0.000368 2351.91504 2706.46826
2766.0 0.000362 2351.23389 2699.72632
2754.0 0.000363 2350.55591 2692.60986
2759.0 0.000362 2349.88403 2685.18433
2741.0 0.000365 2349.21655 2677.48169
2705.0 0.000370 2348.55371 2669.53638
2690.0 0.000372 2347.89429 2661.40552
2744.0 0.000364 2347.24048 2653.12842
2679.0 0.000373 2346.59082 2644.73560
2664.0 0.000375 2345.94507 2636.28613
2638.0 0.000379 2345.30493 2627.81836
2560.0 0.000391 2344.66895 2619.38379
2647.0 0.000378 2344.03784 2611.00659
2529.0 0.000395 2343.41064 2602.74951
2546.0 0.000393 2342.78882 2594.66113
2589.0 0.000386 2342.16968 2586.71680
2582.0 0.000387 2341.55713 2578.97681
2650.0 0.000377 2340.94849 2571.47144
2493.0 0.000401 2340.34521 2564.20410
2504.0 0.000399 2339.74414 2557.21191
2573.0 0.000389 2339.14966 2550.49512
2500.0 0.000400 2338.55884 2544.06787
2447.0 0.000409 2337.97314 2537.94214
2570.0 0.000389 2337.39233 2532.13306
2453.0 0.000408 2336.81494 2526.61987
2498.0 0.000400 2336.24268 2521.42700
2410.0 0.000415 2335.67505 2516.55176
2539.0 0.000394 2335.11255 2512.00122
2379.0 0.000420 2334.55322 2507.76880
2433.0 0.000411 2333.99902 2503.85278
2489.0 0.000402 2333.44946 2500.27783
2383.0 0.000420 2332.90479 2497.01758
2476.0 0.000404 2332.36475 2494.07764
2471.0 0.000405 2331.82788 2491.46533
2418.0 0.000414 2331.29688 2489.17383
2479.0 0.000403 2330.77002 2487.21509
2489.0 0.000402 2330.24756 2485.58203
2433.0 0.000411 2329.72949 2484.27759
2406.0 0.000416 2329.21606 2483.30249
2458.0 0.000407 2328.70752 2482.65942
2407.0 0.000415 2328.20264 2482.33765
2473.0 0.000404 2327.70215 2482.34229
2504.0 0.000399 2327.20703 2482.67163
2458.0 0.000407 2326.71606 2483.32520
2461.0 0.000406 2326.22974 2484.21924
2449.0 0.000408 2325.74829 2485.48560
2545.0 0.000393 2325.27002 2487.03442
2442.0 0.000410 2324.79663 2488.89014
2532.0 0.000395 2324.32813 2491.02295
2569.0 0.000389 2323.86426 2493.41455
2484.0 0.000403 2323.40454 2496.05469
2524.0 0.000396 2322.94873 2498.92480
2467.0 0.000405 2322.49780 2502.00415
2469.0 0.000405 2322.05103 2505.26538
2545.0 0.000393 2321.60840 2508.68408
2596.0 0.000385 2321.17139 2512.24829
2538.0 0.000394 2320.73828 2515.89355
2507.0 0.000399 2320.30884 2519.67261
2483.0 0.000403 2319.88477 2523.51465
2528.0 0.000396 2319.46411 2527.40991
2553.0 0.000392 2319.04785 2531.35132
2538.0 0.000394 2318.63745 2535.25024
2541.0 0.000394 2318.22998 2539.16333
2633.0 0.000380 2317.82617 2543.04565
2607.0 0.000384 2317.42798 2546.87280
2589.0 0.000386 2317.03418 2550.62280
2542.0 0.000393 2316.64380 2554.28076
2662.0 0.000376 2316.25806 2557.79761
2717.0 0.000368 2315.87695 2561.20557
2590.0 0.000386 2315.49951 2564.46313
2589.0 0.000386 2315.12671 2567.53247
2604.0 0.000384 2314.75854 2570.38281
2657.0 0.000376 2314.39307 2573.06226
2660.0 0.000376 2314.03345 2575.47583
2660.0 0.000376 2313.67725 2577.72510
2702.0 0.000370 2313.32520 2579.76685
2717.0 0.000368 2312.97754 2581.60278
2681.0 0.000373 2312.63428 2583.22827
2702.0 0.000370 2312.29517 2584.68677
2734.0 0.000366 2311.95996 2585.96387
2661.0 0.000376 2311.62988 2587.10571
2689.0 0.000372 2311.30371 2588.13550
2700.0 0.000370 2310.98022 2589.08472
2648.0 0.000378 2310.66113 2589.97217
2626.0 0.000381 2310.34668 2590.86353
2692.0 0.000371 2310.03564 2591.76685
2678.0 0.000373 2309.72974 2592.74512
2719.0 0.000368 2309.42749 2593.82031
2621.0 0.000382 2309.12866 2595.03027
2549.0 0.000392 2308.83496 2596.39331
2577.0 0.000388 2308.54443 2597.95068
2622.0 0.000381 2308.25806 2599.68359
2695.0 0.000371 2307.97559 2601.67798
2622.0 0.000381 2307.69775 2603.91284
2600.0 0.000385 2307.42358 2606.33252
2640.0 0.000379 2307.15259 2609.06763
2675.0 0.000374 2306.88623 2612.04785
2653.0 0.000377 2306.62378 2615.26416
2546.0 0.000393 2306.36426 2618.69531
2623.0 0.000381 2306.11060 2622.30542
2657.0 0.000376 2305.85938 2626.06128
2774.0 0.000360 2305.61108 2629.93066
2692.0 0.000371 2305.36841 2633.84546
2682.0 0.000373 2305.12891 2637.76392
2697.0 0.000371 2304.89307 2641.61865
2697.0 0.000371 2304.66138 2645.31323
2703.0 0.000370 2304.43286 2648.83057
2731.0 0.000366 2304.20850 2652.07129
2749.0 0.000364 2303.98853 2654.97070
2750.0 0.000364 2303.77124 2657.45020
2760.0 0.000362 2303.55884 2659.45703
2648.0 0.000378 2303.34863 2660.94214
2713.0 0.000369 2303.14233 2661.82959
2781.0 0.000360 2302.94043 2662.13281
2772.0 0.000361 2302.74121 2661.80298
2746.0 0.000364 2302.54663 2660.84082
2760.0 0.000362 2302.35547 2659.22192
2662.0 0.000376 2302.16724 2656.96338
2675.0 0.000374 2301.98315 2654.07739
2714.0 0.000368 2301.80176 2650.59546
2726.0 0.000367 2301.62451 2646.54785
2693.0 0.000371 2301.45068 2641.96240
2768.0 0.000361 2301.28027 2636.88843
2653.0 0.000377 2301.11450 2631.39185
2617.0 0.000382 2300.95117 2625.48901
2606.0 0.000384 2300.79077 2619.27588
2741.0 0.000365 2300.63477 2612.80225
2649.0 0.000378 2300.48120 2606.13306
2592.0 0.000386 2300.33276 2599.36035
2665.0 0.000375 2300.18481 2592.54443
2630.0 0.000380 2300.04248 2585.75830
2524.0 0.000396 2299.90259 2579.10132
2563.0 0.000390 2299.76660 2572.64355
2677.0 0.000374 2299.63379 2566.46069
2560.0 0.000391 2299.50366 2560.63501
2653.0 0.000377 2299.37769 2555.25122
2504.0 0.000399 2299.25415 2550.37231
2585.0 0.000387 2299.13379 2546.07031
2519.0 0.000397 2299.01685 2542.42334
2540.0 0.000394 2298.90381 2539.45435
2462.0 0.000406 2298.79297 2537.25293
2562.0 0.000390 2298.68555 2535.86646
2515.0 0.000398 2298.58130 2535.31592
2466.0 0.000406 2298.47974 2535.64160
2561.0 0.000390 2298.38232 2536.87573
2588.0 0.000386 2298.28589 2539.04175
2518.0 0.000397 2298.19507 2542.15356
2573.0 0.000389 2298.10474 2546.20776
2546.0 0.000393 2298.02002 2551.21045
2568.0 0.000389 2297.93701 2557.15723
2550.0 0.000392 2297.85620 2564.03784
2569.0 0.000389 2297.77930 2571.81763
2546.0 0.000393 2297.70459 2580.47656
2671.0 0.000374 2297.63403 2589.96802
2608.0 0.000383 2297.56519 2600.23364
2555.0 0.000391 2297.49951 2611.23950
2589.0 0.000386 2297.43604 2622.90820
2664.0 0.000375 2297.37646 2635.16602
2644.0 0.000378 2297.31812 2647.92554
2693.0 0.000371 2297.26489 2661.14990
2744.0 0.000364 2297.21338 2674.70264
2710.0 0.000369 2297.16406 2688.41504
2732.0 0.000366 2297.11792 2702.38989
2802.0 0.000357 2297.07446 2716.41113
2759.0 0.000362 2297.03320 2730.38013
2878.0 0.0003475 2296.99463 2744.20044
2800.0 0.000357 2296.95923 2757.76709
2903.0 0.0003445 2296.92651 2770.98145
2952.0 0.0003388 2296.89551 2783.73315
2914.0 0.0003432 2296.86816 2795.98950
2869.0 0.0003486 2296.84229 2807.62915
2924.0 0.0003420 2296.81934 2818.63281
2957.0 0.0003382 2296.79883 2828.91382
2820.0 0.000355 2296.78149 2838.39453
2901.0 0.0003447 2296.76611 2847.12305
2843.0 0.000352 2296.75269 2855.04419
2967.0 0.0003370 2296.74268 2862.11401
2924.0 0.0003420 2296.73438 2868.30371
2861.0 0.0003495 2296.72803 2873.60913
2909.0 0.0003438 2296.72583 2878.00586
2840.0 0.000352 2296.72363 2881.48462
2950.0 0.0003390 2296.72559 2884.02344
2855.0 0.0003503 2296.72827 2885.61108
2918.0 0.0003427 2296.73462 2886.22363
2834.0 0.000353 2296.74194 2885.86060
2912.0 0.0003434 2296.75317 2884.51343
2894.0 0.0003455 2296.76538 2882.19507
2985.0 0.0003350 2296.77979 2878.91406
2860.0 0.0003497 2296.79639 2874.69604
2809.0 0.000356 2296.81543 2869.57520
2836.0 0.000353 2296.83618 2863.57031
2799.0 0.000357 2296.85986 2856.74634
2859.0 0.0003498 2296.88501 2849.16162
2825.0 0.000354 2296.91260 2840.86035
2770.0 0.000361 2296.94189 2831.88989
2788.0 0.000359 2296.97266 2822.33130
2762.0 0.000362 2297.00537 2812.23218
2758.0 0.000363 2297.04150 2801.64233
2714.0 0.000368 2297.07837 2790.62451
2666.0 0.000375 2297.11743 2779.24731
2785.0 0.000359 2297.15894 2767.54004
2755.0 0.000363 2297.20166 2755.57275
2672.0 0.000374 2297.24683 2743.41016
2728.0 0.000367 2297.29346 2731.06421
2615.0 0.000382 2297.34204 2718.60278
2713.0 0.000369 2297.39136 2706.07446
2741.0 0.000365 2297.44409 2693.51465
2647.0 0.000378 2297.49829 2680.97363
2659.0 0.000376 2297.55371 2668.51050
2616.0 0.000382 2297.61084 2656.18872
2519.0 0.000397 2297.67090 2644.02124
2564.0 0.000390 2297.73096 2632.06421
2521.0 0.000397 2297.79346 2620.36011
2566.0 0.000390 2297.85791 2608.93896
2646.0 0.000378 2297.92261 2597.83350
2540.0 0.000394 2297.99023 2587.08496
2546.0 0.000393 2298.05957 2576.70459
2463.0 0.000406 2298.12939 2566.73682
2426.0 0.000412 2298.20117 2557.17529
2524.0 0.000396 2298.27466 2548.05347
2489.0 0.000402 2298.35010 2539.37280
2511.0 0.000398 2298.42627 2531.17310
2553.0 0.000392 2298.50464 2523.46216
2443.0 0.000409 2298.58447 2516.21899
2484.0 0.000403 2298.66479 2509.50537
2496.0 0.000401 2298.74609 2503.27954
2508.0 0.000399 2298.83008 2497.56226
2462.0 0.000406 2298.91577 2492.37158
2504.0 0.000399 2299.00220 2487.69238
2441.0 0.000410 2299.08984 2483.54468
2458.0 0.000407 2299.17944 2479.91406
2447.0 0.000409 2299.26880 2476.81348
2391.0 0.000418 2299.36084 2474.23633
2485.0 0.000402 2299.45313 2472.16406
2485.0 0.000402 2299.54761 2470.60156
2420.0 0.000413 2299.64258 2469.53516
2431.0 0.000411 2299.73926 2468.95264
2478.0 0.000404 2299.83594 2468.83667
2424.0 0.000413 2299.93555 2469.17261
2491.0 0.000401 2300.03491 2469.95850
2463.0 0.000406 2300.13525 2471.16626
2436.0 0.000411 2300.23853 2472.76001
2443.0 0.000409 2300.34204 2474.74243
2505.0 0.000399 2300.44604 2477.07178
2467.0 0.000405 2300.55078 2479.71753
2552.0 0.000392 2300.65698 2482.66382
2474.0 0.000404 2300.76563 2485.85034
2449.0 0.000408 2300.87354 2489.27319
2501.0 0.000400 2300.98364 2492.89282
2444.0 0.000409 2301.09326 2496.66504
2434.0 0.000411 2301.20483 2500.55396
2486.0 0.000402 2301.31689 2504.52319
2525.0 0.000396 2301.42993 2508.53345
2540.0 0.000394 2301.54346 2512.53516
2537.0 0.000394 2301.65869 2516.50366
2569.0 0.000389 2301.77417 2520.39014
2440.0 0.000410 2301.89111 2524.10522
2613.0 0.000383 2302.00806 2527.70166
2546.0 0.000393 2302.12598 2531.10083
2551.0 0.000392 2302.24585 2534.25293
2559.0 0.000391 2302.36523 2537.13525
2509.0 0.000399 2302.48608 2539.70361
2576.0 0.000388 2302.60767 2541.94824
2563.0 0.000390 2302.72949 2543.83203
2648.0 0.000378 2302.85229 2545.34351
2509.0 0.000399 2302.97534 2546.45776
2536.0 0.000394 2303.10010 2547.17944
2638.0 0.000379 2303.22437 2547.49023
2613.0 0.000383 2303.35034 2547.40259
2511.0 0.000398 2303.47559 2546.89429
2555.0 0.000391 2303.60181 2546.02295
2594.0 0.000386 2303.72876 2544.78369
2560.0 0.000391 2303.85791 2543.19434
2546.0 0.000393 2303.98608 2541.28369
2518.0 0.000397 2304.11499 2539.06641
2612.0 0.000383 2304.24414 2536.57813
2604.0 0.000384 2304.37500 2533.84717
2619.0 0.000382 2304.50488 2530.90674
2504.0 0.000399 2304.63599 2527.79272
2527.0 0.000396 2304.76733 2524.54443
2518.0 0.000397 2304.89917 2521.19580
2563.0 0.000390 2305.03198 2517.79419
2480.0 0.000403 2305.16528 2514.37231
2370.0 0.000422 2305.29810 2510.97827
2508.0 0.000399 2305.43140 2507.64258
2582.0 0.000387 2305.56567 2504.42285
2453.0 0.000408 2305.70142 2501.34180
2456.0 0.000407 2305.83569 2498.44458
2549.0 0.000392 2305.97119 2495.76489
2469.0 0.000405 2306.10669 2493.33105
2403.0 0.000416 2306.24219 2491.17188
2423.0 0.000413 2306.37866 2489.31567
2457.0 0.000407 2306.51587 2487.78467
2436.0 0.000411 2306.65308 2486.59058
2383.0 0.000420 2306.78979 2485.74707
2431.0 0.000411 2306.92749 2485.27051
2477.0 0.000404 2307.06519 2485.16284
2472.0 0.000405 2307.20264 2485.42603
2459.0 0.000407 2307.34106 2486.04761
2491.0 0.000401 2307.47998 2487.03345
2513.0 0.000398 2307.61865 2488.37036
2517.0 0.000397 2307.75781 2490.03467
2481.0 0.000403 2307.89722 2492.00366
2441.0 0.000410 2308.03613 2494.27026
2503.0 0.000400 2308.17480 2496.79028
2449.0 0.000408 2308.31445 2499.54590
2471.0 0.000405 2308.45410 2502.50195
2429.0 0.000412 2308.59473 2505.62354
2519.0 0.000397 2308.73486 2508.87769
2568.0 0.000389 2308.87500 2512.22485
2418.0 0.000414 2309.01514 2515.63110
2570.0 0.000389 2309.15552 2519.06079
2424.0 0.000413 2309.29663 2522.48267
2538.0 0.000394 2309.43701 2525.86621
2556.0 0.000391 2309.57739 2529.17334
2498.0 0.000400 2309.71802 2532.38135
2504.0 0.000399 2309.85913 2535.47437
2550.0 0.000392 2309.99976 2538.42505
2487.0 0.000402 2310.13989 2541.21558
2536.0 0.000394 2310.28125 2543.84619
2567.0 0.000390 2310.42188 2546.28955
2528.0 0.000396 2310.56274 2548.54492
2509.0 0.000399 2310.70386 2550.60547
2480.0 0.000403 2310.84546 2552.47705
2638.0 0.000379 2310.98584 2554.15991
2551.0 0.000392 2311.12622 2555.65186
2492.0 0.000401 2311.26807 2556.96191
2544.0 0.000393 2311.40820 2558.10132
2455.0 0.000407 2311.54883 2559.07227
2523.0 0.000396 2311.68970 2559.89551
2502.0 0.000400 2311.83057 2560.57642
2559.0 0.000391 2311.97070 2561.13696
2582.0 0.000387 2312.11133 2561.58472
2509.0 0.000399 2312.25122 2561.93896
2489.0 0.000402 2312.39185 2562.21582
2437.0 0.000410 2312.53271 2562.44434
2478.0 0.000404 2312.67212 2562.65259
2523.0 0.000396 2312.81226 2562.84546
2440.0 0.000410 2312.95215 2563.03247
2521.0 0.000397 2313.09204 2563.24561
2458.0 0.000407 2313.23169 2563.49780
2498.0 0.000400 2313.37085 2563.80029
2484.0 0.000403 2313.51001 2564.14771
2460.0 0.000407 2313.64966 2564.59033
2533.0 0.000395 2313.78833 2565.10547
2509.0 0.000399 2313.92773 2565.68848
2538.0 0.000394 2314.06616 2566.33936
2476.0 0.000404 2314.20557 2567.05518
2582.0 0.000387 2314.34399 2567.82471
2502.0 0.000400 2314.48193 2568.60986
2525.0 0.000396 2314.62061 2569.44946
2520.0 0.000397 2314.75806 2570.29272
2502.0 0.000400 2314.89648 2571.12158
2551.0 0.000392 2315.03296 2571.92188
2510.0 0.000398 2315.17041 2572.62817
2518.0 0.000397 2315.30713 2573.29639
2561.0 0.000390 2315.44434 2573.87427
2577.0 0.000388 2315.58081 2574.33032
2656.0 0.000377 2315.71777 2574.64087
2571.0 0.000389 2315.85474 2574.81470
2611.0 0.000383 2315.99097 2574.79810
2613.0 0.000383 2316.12671 2574.62207
2603.0 0.000384 2316.26221 2574.24243
2653.0 0.000377 2316.39746 2573.69189
2613.0 0.000383 2316.53198 2572.93896
2586.0 0.000387 2316.66821 2571.98828
2612.0 0.000383 2316.80249 2570.84985
2598.0 0.000385 2316.93652 2569.49634
2481.0 0.000403 2317.07227 2567.96802
2595.0 0.000385 2317.20532 2566.25439
2639.0 0.000379 2317.33862 2564.35986
2619.0 0.000382 2317.47290 2562.29150
2607.0 0.000384 2317.60596 2560.05225
2591.0 0.000386 2317.73926 2557.66138
2533.0 0.000395 2317.87183 2555.12622
2529.0 0.000395 2318.00439 2552.46411
2598.0 0.000385 2318.13647 2549.69434
2600.0 0.000385 2318.26929 2546.81445
2569.0 0.000389 2318.40063 2543.88989
2598.0 0.000385 2318.53247 2540.92578
2567.0 0.000390 2318.66382 2537.92651
2522.0 0.000397 2318.79443 2534.94116
2582.0 0.000387 2318.92529 2531.98999
2502.0 0.000400 2319.05566 2529.07813
2591.0 0.000386 2319.18579 2526.26099
2465.0 0.000406 2319.31592 2523.54858
2485.0 0.000402 2319.44629 2520.95947
2556.0 0.000391 2319.57544 2518.52051
2515.0 0.000398 2319.70410 2516.25293
2465.0 0.000406 2319.83398 2514.16211
2469.0 0.000405 2319.96191 2512.26855
2405.0 0.000416 2320.09058 2510.59839
2526.0 0.000396 2320.21851 2509.15820
2456.0 0.000407 2320.34668 2507.95361
2493.0 0.000401 2320.47461 2506.99634
2488.0 0.000402 2320.60156 2506.25488
2391.0 0.000418 2320.72949 2505.80249
2528.0 0.000396 2320.85645 2505.61426
2439.0 0.000410 2320.98242 2505.70117
2475.0 0.000404 2321.10938 2506.03955
2538.0 0.000394 2321.23486 2506.61743
2414.0 0.000414 2321.36108 2507.46680
2509.0 0.000399 2321.48608 2508.56665
2480.0 0.000403 2321.61255 2509.90820
2472.0 0.000405 2321.73730 2511.48438
2470.0 0.000405 2321.86279 2513.28613
2542.0 0.000393 2321.98706 2515.30371
2538.0 0.000394 2322.11060 2517.52148
2476.0 0.000404 2322.23608 2519.91162
2470.0 0.000405 2322.35938 2522.50269
2506.0 0.000399 2322.48340 2525.25928
2471.0 0.000405 2322.60693 2528.16895
2574.0 0.000389 2322.72998 2531.20972
2555.0 0.000391 2322.85303 2534.35986
2419.0 0.000413 2322.97632 2537.62646
2460.0 0.000407 2323.09814 2540.97192
2502.0 0.000400 2323.22046 2544.38501
2633.0 0.000380 2323.34277 2547.83105
2639.0 0.000379 2323.46460 2551.30835
2551.0 0.000392 2323.58618 2554.77100
2525.0 0.000396 2323.70801 2558.19263
2631.0 0.000380 2323.82935 2561.57227
2612.0 0.000383 2323.95020 2564.87549
2539.0 0.000394 2324.07178 2568.06763
2558.0 0.000391 2324.19287 2571.12964
2651.0 0.000377 2324.31201 2574.03540
2562.0 0.000390 2324.43286 2576.75049
2587.0 0.000387 2324.55273 2579.25757
2622.0 0.000381 2324.67236 2581.53101
2590.0 0.000386 2324.79224 2583.55005
2595.0 0.000385 2324.91211 2585.26831
2529.0 0.000395 2325.03125 2586.71484
2701.0 0.000370 2325.15039 2587.82056
2619.0 0.000382 2325.26953 2588.60327
2635.0 0.000380 2325.38867 2589.07666
2574.0 0.000389 2325.50757 2589.20532
2604.0 0.000384 2325.62500 2588.99243
2617.0 0.000382 2325.74390 2588.42944
2648.0 0.000378 2325.86279 2587.51709
2650.0 0.000377 2325.97998 2586.26904
2535.0 0.000394 2326.09863 2584.68945
2599.0 0.000385 2326.21558 2582.78296
2648.0 0.000378 2326.33398 2580.57422
2528.0 0.000396 2326.45117 2578.06934
2564.0 0.000390 2326.56909 2575.30664
2637.0 0.000379 2326.68604 2572.29395
2590.0 0.000386 2326.80396 2569.06421
2625.0 0.000381 2326.92017 2565.65991
2591.0 0.000386 2327.03784 2562.09229
2621.0 0.000382 2327.15405 2558.40381
2607.0 0.000384 2327.27075 2554.63086
2521.0 0.000397 2327.38721 2550.79004
2495.0 0.000401 2327.50439 2546.92065
2568.0 0.000389 2327.62061 2543.06934
2638.0 0.000379 2327.73633 2539.25488
2549.0 0.000392 2327.85352 2535.50928
2529.0 0.000395 2327.96948 2531.88477
2471.0 0.000405 2328.08594 2528.40112
2533.0 0.000395 2328.20142 2525.09033
2533.0 0.000395 2328.31763 2521.98633
2511.0 0.000398 2328.43359 2519.11450
2586.0 0.000387 2328.54980 2516.50757
2453.0 0.000408 2328.66479 2514.18921
2495.0 0.000401 2328.78101 2512.18433
2534.0 0.000395 2328.89722 2510.51147
2495.0 0.000401 2329.01245 2509.18066
2549.0 0.000392 2329.12866 2508.22534
2472.0 0.000405 2329.24487 2507.64697
2457.0 0.000407 2329.36011 2507.45264
2483.0 0.000403 2329.47510 2507.66235
2518.0 0.000397 2329.59082 2508.27051
2567.0 0.000390 2329.70679 2509.27710
2447.0 0.000409 2329.82227 2510.68066
2540.0 0.000394 2329.93799 2512.47681
2500.0 0.000400 2330.05469 2514.66333
2502.0 0.000400 2330.16943 2517.22290
2622.0 0.000381 2330.28540 2520.15356
2546.0 0.000393 2330.40015 2523.43921
2567.0 0.000390 2330.51660 2527.05371
2534.0 0.000395 2330.63257 2530.99414
2532.0 0.000395 2330.74805 2535.23291
2484.0 0.000403 2330.86426 2539.74829
2520.0 0.000397 2330.97998 2544.52197
2575.0 0.000388 2331.09595 2549.53003
2588.0 0.000386 2331.21143 2554.74634
2592.0 0.000386 2331.32739 2560.14697
2605.0 0.000384 2331.44336 2565.71265
2531.0 0.000395 2331.55957 2571.41577
2617.0 0.000382 2331.67578 2577.22144
2582.0 0.000387 2331.79248 2583.12134
2568.0 0.000389 2331.90894 2589.08838
2611.0 0.000383 2332.02539 2595.09497
2653.0 0.000377 2332.14160 2601.13525
2645.0 0.000378 2332.25806 2607.19580
2582.0 0.000387 2332.37500 2613.24023
2599.0 0.000385 2332.49243 2619.29639
2607.0 0.000384 2332.60840 2625.32715
2627.0 0.000381 2332.72583 2631.33813
2591.0 0.000386 2332.84351 2637.31836
2616.0 0.000382 2332.96021 2643.25220
2613.0 0.000383 2333.07715 2649.14478
2672.0 0.000374 2333.19458 2654.97583
2604.0 0.000384 2333.31299 2660.76440
2653.0 0.000377 2333.42993 2666.47241
2728.0 0.000367 2333.54810 2672.10596
2590.0 0.000386 2333.66577 2677.64575
2604.0 0.000384 2333.78418 2683.08569
2639.0 0.000379 2333.90283 2688.39771
2659.0 0.000376 2334.02124 2693.57373
2735.0 0.000366 2334.14038 2698.59717
2652.0 0.000377 2334.25928 2703.44580
2697.0 0.000371 2334.37842 2708.11401
2681.0 0.000373 2334.49731 2712.57031
2678.0 0.000373 2334.61694 2716.77539
2815.0 0.000355 2334.73560 2720.76563
2662.0 0.000376 2334.85498 2724.47852
2699.0 0.000371 2334.97559 2727.91528
2748.0 0.000364 2335.09595 2731.05908
2683.0 0.000373 2335.21655 2733.88184
2767.0 0.000361 2335.33691 2736.36865
2788.0 0.000359 2335.45728 2738.50586
2773.0 0.000361 2335.57788 2740.28857
2733.0 0.000366 2335.69897 2741.72290
2718.0 0.000368 2335.81982 2742.78760
2770.0 0.000361 2335.94165 2743.49268
2734.0 0.000366 2336.06421 2743.83130
2677.0 0.000374 2336.18579 2743.80518
2781.0 0.000360 2336.30762 2743.41162
2691.0 0.000372 2336.43018 2742.67383
2723.0 0.000367 2336.55298 2741.59595
2728.0 0.000367 2336.67529 2740.18652
2701.0 0.000370 2336.79761 2738.46069
2730.0 0.000366 2336.92114 2736.42871
2682.0 0.000373 2337.04517 2734.11304
2682.0 0.000373 2337.16870 2731.51392
2721.0 0.000368 2337.29248 2728.67725
2732.0 0.000366 2337.41699 2725.61621
2714.0 0.000368 2337.54175 2722.35010
2700.0 0.000370 2337.66602 2718.90649
2732.0 0.000366 2337.79102 2715.30298
2664.0 0.000375 2337.91626 2711.57104
2722.0 0.000367 2338.04199 2707.73608
2706.0 0.000370 2338.16797 2703.82666
2651.0 0.000377 2338.29395 2699.86768
2706.0 0.000370 2338.41968 2695.87695
2691.0 0.000372 2338.54614 2691.89380
2687.0 0.000372 2338.67358 2687.92480
2688.0 0.000372 2338.80005 2683.99854
2618.0 0.000382 2338.92822 2680.14551
2714.0 0.000368 2339.05493 2676.37256
2701.0 0.000370 2339.18311 2672.69409
2628.0 0.000381 2339.31128 2669.13770
2595.0 0.000385 2339.43970 2665.70972
2694.0 0.000371 2339.56787 2662.42212
2653.0 0.000377 2339.69727 2659.29102
2677.0 0.000374 2339.82642 2656.32227
2654.0 0.000377 2339.95532 2653.52222
2722.0 0.000367 2340.08521 2650.89697
2676.0 0.000374 2340.21582 2648.45239
2631.0 0.000380 2340.34595 2646.18872
2710.0 0.000369 2340.47607 2644.11157
2643.0 0.000378 2340.60767 2642.21997
2638.0 0.000379 2340.73901 2640.51001
2618.0 0.000382 2340.86987 2638.98511
2582.0 0.000387 2341.00195 2637.63428
2642.0 0.000379 2341.13403 2636.45752
2597.0 0.000385 2341.26563 2635.44263
2584.0 0.000387 2341.39868 2634.59253
2703.0 0.000370 2341.53198 2633.89258
2618.0 0.000382 2341.66504 2633.33984
2603.0 0.000384 2341.79785 2632.92163
2665.0 0.000375 2341.93140 2632.63086
2629.0 0.000380 2342.06592 2632.45532
2658.0 0.000376 2342.20020 2632.38428
2651.0 0.000377 2342.33472 2632.39941
2616.0 0.000382 2342.46924 2632.49194
2670.0 0.000375 2342.60400 2632.65381
2636.0 0.000379 2342.73999 2632.85913
2658.0 0.000376 2342.87524 2633.09961
2704.0 0.000370 2343.01123 2633.35840
2655.0 0.000377 2343.14795 2633.61938
2589.0 0.000386 2343.28369 2633.86938
2637.0 0.000379 2343.42114 2634.09253
2667.0 0.000375 2343.55737 2634.27100
2608.0 0.000383 2343.69434 2634.39771
2725.0 0.000367 2343.83276 2634.46021
2574.0 0.000389 2343.96973 2634.44116
2603.0 0.000384 2344.10864 2634.32910
2621.0 0.000382 2344.24707 2634.11499
2676.0 0.000374 2344.38525 2633.79639
2604.0 0.000384 2344.52490 2633.35767
2705.0 0.000370 2344.66431 2632.78662
2797.0 0.000358 2344.80273 2632.08691
2485.0 0.000402 2344.94312 2631.25293
2668.0 0.000375 2345.08203 2630.27515
2706.0 0.000370 2345.22363 2629.15283
2673.0 0.000374 2345.36328 2627.88525
2629.0 0.000380 2345.50342 2626.46826
2629.0 0.000380 2345.64526 2624.90063
2537.0 0.000394 2345.78613 2623.18945
2659.0 0.000376 2345.92773 2621.33057
2648.0 0.000378 2346.06909 2619.32593
2747.0 0.000364 2346.21143 2617.17969
2732.0 0.000366 2346.35303 2614.90210
2619.0 0.000382 2346.49512 2612.49438
2705.0 0.000370 2346.63818 2609.97314
2613.0 0.000383 2346.78076 2607.35107
2653.0 0.000377 2346.92383 2604.62744
2643.0 0.000378 2347.06738 2601.82666
2697.0 0.000371 2347.21021 2598.96021
2684.0 0.000373 2347.35449 2596.04932
2593.0 0.000386 2347.49707 2593.09424
2635.0 0.000380 2347.64209 2590.12744
2622.0 0.000381 2347.78589 2587.13477
2629.0 0.000380 2347.93091 2584.17700
2620.0 0.000382 2348.07520 2581.22803
2599.0 0.000385 2348.21973 2578.35669
2591.0 0.000386 2348.36548 2575.54639
2658.0 0.000376 2348.51074 2572.81958
2633.0 0.000380 2348.65649 2570.15063
2635.0 0.000380 2348.80127 2567.62793
2564.0 0.000390 2348.94800 2565.22241
2638.0 0.000379 2349.09326 2562.95117
2600.0 0.000385 2349.23950 2560.82373
2614.0 0.000383 2349.38525 2558.85425
2603.0 0.000384 2349.53223 2557.05469
2538.0 0.000394 2349.67773 2555.43433
2622.0 0.000381 2349.82471 2553.98193
2577.0 0.000388 2349.97217 2552.73877
2559.0 0.000391 2350.11768 2551.67310
2609.0 0.000383 2350.26489 2550.81494
2557.0 0.000391 2350.41309 2550.15869
2489.0 0.000402 2350.55981 2549.70337
2589.0 0.000386 2350.70752 2549.42700
2504.0 0.000399 2350.85449 2549.36865
2513.0 0.000398 2351.00244 2549.50024
2668.0 0.000375 2351.15039 2549.82397
2498.0 0.000400 2351.29834 2550.32422
2507.0 0.000399 2351.44556 2551.00122
2533.0 0.000395 2351.59351 2551.83521
2584.0 0.000387 2351.74194 2552.83667
2522.0 0.000397 2351.89063 2553.98730
2547.0 0.000393 2352.03857 2555.19824
2520.0 0.000397 2352.18604 2556.60962
2555.0 0.000391 2352.33423 2558.13184
2569.0 0.000389 2352.48315 2559.75586
2459.0 0.000407 2352.63208 2561.47192
2573.0 0.000389 2352.78027 2563.25537
2599.0 0.000385 2352.92822 2565.10303
2650.0 0.000377 2353.07715 2566.99390
2555.0 0.000391 2353.22534 2568.90918
2512.0 0.000398 2353.37402 2570.83838
2655.0 0.000377 2353.52295 2572.76978
2600.0 0.000385 2353.67065 2574.67212
2644.0 0.000378 2353.81958 2576.53735
2505.0 0.000399 2353.96802 2578.35083
2556.0 0.000391 2354.11694 2580.08667
2600.0 0.000385 2354.26563 2581.71533
2653.0 0.000377 2354.41431 2583.27173
2503.0 0.000400 2354.56250 2584.71582
2648.0 0.000378 2354.71094 2586.00000
2573.0 0.000389 2354.85840 2587.18945
2498.0 0.000400 2355.00757 2588.23853
2584.0 0.000387 2355.15601 2589.13721
2648.0 0.000378 2355.30322 2589.87280
2560.0 0.000391 2355.45264 2590.42896
2654.0 0.000377 2355.60059 2590.84253
2612.0 0.000383 2355.74756 2591.08936
2522.0 0.000397 2355.89502 2591.16602
2468.0 0.000405 2356.04443 2591.07056
2593.0 0.000386 2356.19092 2590.80884
2627.0 0.000381 2356.33887 2590.38696
2637.0 0.000379 2356.48608 2589.80078
2662.0 0.000376 2356.63354 2589.05542
2604.0 0.000384 2356.78076 2588.14160
2542.0 0.000393 2356.92773 2587.09351
2562.0 0.000390 2357.07520 2585.91235
2667.0 0.000375 2357.22168 2584.59912
2557.0 0.000391 2357.36865 2583.16162
2577.0 0.000388 2357.51489 2581.59180
2607.0 0.000384 2357.66089 2579.92383
2598.0 0.000385 2357.80713 2578.15723
2628.0 0.000381 2357.95313 2576.30029
2604.0 0.000384 2358.09985 2574.36426
2601.0 0.000384 2358.24414 2572.35425
2600.0 0.000385 2358.38940 2570.28882
2621.0 0.000382 2358.53516 2568.17505
2635.0 0.000380 2358.67944 2566.02002
2593.0 0.000386 2358.82446 2563.84033
2572.0 0.000389 2358.96875 2561.64185
2546.0 0.000393 2359.11377 2559.43481
2556.0 0.000391 2359.25757 2557.22729
2564.0 0.000390 2359.40088 2555.02686
2577.0 0.000388 2359.54443 2552.84058
2606.0 0.000384 2359.68799 2550.68652
2593.0 0.000386 2359.83032 2548.56348
2589.0 0.000386 2359.97363 2546.48438
2608.0 0.000383 2360.11621 2544.45728
2667.0 0.000375 2360.25928 2542.47314
2531.0 0.000395 2360.39990 2540.54932
2604.0 0.000384 2360.54126 2538.69946
2595.0 0.000385 2360.68286 2536.92212
2616.0 0.000382 2360.82373 2535.22266
2556.0 0.000391 2360.96460 2533.60962
2623.0 0.000381 2361.10498 2532.09131
2561.0 0.000390 2361.24463 2530.67041
2601.0 0.000384 2361.38452 2529.35083
2564.0 0.000390 2361.52368 2528.13550
2515.0 0.000398 2361.66235 2527.02563
2610.0 0.000383 2361.80176 2526.04053
2555.0 0.000391 2361.94019 2525.16943
2527.0 0.000396 2362.07788 2524.41382
2459.0 0.000407 2362.21533 2523.78369
2467.0 0.000405 2362.35229 2523.26636
2591.0 0.000386 2362.48853 2522.87378
2505.0 0.000399 2362.62524 2522.60083
2516.0 0.000397 2362.76074 2522.45239
2586.0 0.000387 2362.89624 2522.41699
2627.0 0.000381 2363.03149 2522.49561
2525.0 0.000396 2363.16626 2522.69189
2505.0 0.000399 2363.30078 2523.00732
2472.0 0.000405 2363.43481 2523.42749
2560.0 0.000391 2363.56763 2523.95825
2590.0 0.000386 2363.70044 2524.60254
2513.0 0.000398 2363.83252 2525.35059
2595.0 0.000385 2363.96484 2526.20313
2502.0 0.000400 2364.09619 2527.15698
2600.0 0.000385 2364.22827 2528.21143
2462.0 0.000406 2364.35864 2529.35913
2568.0 0.000389 2364.48828 2530.60303
2452.0 0.000408 2364.61792 2531.93408
2496.0 0.000401 2364.74756 2533.35645
2524.0 0.000396 2364.87671 2534.86108
2581.0 0.000387 2365.00464 2536.43604
2468.0 0.000405 2365.13281 2538.07690
2525.0 0.000396 2365.25879 2539.77686
2577.0 0.000388 2365.38647 2541.53369
2569.0 0.000389 2365.51318 2543.30884
2498.0 0.000400 2365.63794 2545.14746
2568.0 0.000389 2365.76367 2547.01392
2502.0 0.000400 2365.88892 2548.89575
2582.0 0.000387 2366.01245 2550.78296
2515.0 0.000398 2366.13574 2552.67407
2461.0 0.000406 2366.25952 2554.56177
2533.0 0.000395 2366.38184 2556.42725
2595.0 0.000385 2366.50391 2558.27295
2549.0 0.000392 2366.62524 2560.09351
2509.0 0.000399 2366.74609 2561.87842
2537.0 0.000394 2366.86548 2563.62476
2582.0 0.000387 2366.98608 2565.31934
2642.0 0.000379 2367.10522 2566.96899
2600.0 0.000385 2367.22388 2568.55322
2603.0 0.000384 2367.34155 2570.09399
2502.0 0.000400 2367.45947 2571.57544
2546.0 0.000393 2367.57593 2572.99390
2549.0 0.000392 2367.69189 2574.34985
2627.0 0.000381 2367.80762 2575.63574
2631.0 0.000380 2367.92358 2576.85522
2708.0 0.000369 2368.03760 2578.01196
2602.0 0.000384 2368.15210 2579.09619
2566.0 0.000390 2368.26514 2580.11694
2565.0 0.000390 2368.37793 2581.06885
2582.0 0.000387 2368.48975 2581.95825
2532.0 0.000395 2368.60156 2582.78394
2639.0 0.000379 2368.71167 2583.54102
2578.0 0.000388 2368.82227 2584.24487
2604.0 0.000384 2368.93213 2584.89380
2533.0 0.000395 2369.04077 2585.49219
2604.0 0.000384 2369.14966 2586.03979
2569.0 0.000389 2369.25708 2586.53320
2594.0 0.000386 2369.36499 2586.98682
2558.0 0.000391 2369.47144 2587.40405
2586.0 0.000387 2369.57764 2587.77686
2540.0 0.000394 2369.68286 2588.11548
2533.0 0.000395 2369.78687 2588.42578
2582.0 0.000387 2369.89136 2588.71045
2689.0 0.000372 2369.99463 2588.96997
2527.0 0.000396 2370.09814 2589.21631
2595.0 0.000385 2370.19995 2589.44507
2492.0 0.000401 2370.30054 2589.66797
2585.0 0.000387 2370.40210 2589.88770
2518.0 0.000397 2370.50293 2590.10083
2577.0 0.000388 2370.60205 2590.31592
2567.0 0.000390 2370.70093 2590.53809
2522.0 0.000397 2370.80005 2590.77271
2577.0 0.000388 2370.89771 2590.99097
2540.0 0.000394 2370.99414 2591.24487
2537.0 0.000394 2371.09106 2591.51367
2569.0 0.000389 2371.18604 2591.79639
2513.0 0.000398 2371.28125 2592.08936
2544.0 0.000393 2371.37720 2592.39868
2674.0 0.000374 2371.47046 2592.71533
2551.0 0.000392 2371.56348 2593.02173
2673.0 0.000374 2371.65649 2593.34961
2606.0 0.000384 2371.74829 2593.67188
2560.0 0.000391 2371.83936 2593.99023
2556.0 0.000391 2371.93066 2594.30371
2657.0 0.000376 2372.02124 2594.59180
2605.0 0.000384 2372.11133 2594.85303
2662.0 0.000376 2372.20020 2595.08618
2571.0 0.000389 2372.28809 2595.26660
2665.0 0.000375 2372.37671 2595.41797
2628.0 0.000381 2372.46338 2595.50830
2630.0 0.000380 2372.54932 2595.53687
2695.0 0.000371 2372.63574 2595.50098
2528.0 0.000396 2372.72095 2595.37964
2656.0 0.000377 2372.80566 2595.19165
2622.0 0.000381 2372.88965 2594.91235
2609.0 0.000383 2372.97314 2594.54956
2668.0 0.000375 2373.05566 2594.08643
2604.0 0.000384 2373.13940 2593.52026
2586.0 0.000387 2373.22021 2592.85303
2684.0 0.000373 2373.30200 2592.07642
2556.0 0.000391 2373.38281 2591.18359
2605.0 0.000384 2373.46216 2590.18799
2584.0 0.000387 2373.54150 2589.06421
2592.0 0.000386 2373.62061 2587.82617
2634.0 0.000380 2373.69946 2586.47021
2542.0 0.000393 2373.77710 2584.99438
2570.0 0.000389 2373.85449 2583.39844
2515.0 0.000398 2373.93115 2581.68188
2635.0 0.000380 2374.00659 2579.85645
2536.0 0.000394 2374.08301 2577.91577
2592.0 0.000386 2374.15747 2575.86792
2581.0 0.000387 2374.23315 2573.71631
2562.0 0.000390 2374.30640 2571.46826
2608.0 0.000383 2374.38086 2569.12354
2485.0 0.000402 2374.45386 2566.69092
2555.0 0.000391 2374.52612 2564.17236
2458.0 0.000407 2374.59790 2561.57544
2568.0 0.000389 2374.66968 2558.90601
2515.0 0.000398 2374.74097 2556.17993
2582.0 0.000387 2374.81128 2553.38770
2613.0 0.000383 2374.88208 2550.54004
2533.0 0.000395 2374.95117 2547.64404
2436.0 0.000411 2375.02100 2544.71069
2538.0 0.000394 2375.09009 2541.74390
2458.0 0.000407 2375.15796 2538.75244
2502.0 0.000400 2375.22607 2535.73608
2492.0 0.000401 2375.29321 2532.72021
2580.0 0.000388 2375.36108 2529.69116
2606.0 0.000384 2375.42700 2526.66284
2584.0 0.000387 2375.49390 2523.64575
2551.0 0.000392 2375.56006 2520.64307
2505.0 0.000399 2375.62476 2517.66528
2489.0 0.000402 2375.69092 2514.71973
2424.0 0.000413 2375.75537 2511.81201
2476.0 0.000404 2375.81909 2508.94873
2476.0 0.000404 2375.88403 2506.13428
2526.0 0.000396 2375.94824 2503.37939
2500.0 0.000400 2376.01099 2500.69019
2435.0 0.000411 2376.07446 2498.07422
2511.0 0.000398 2376.13721 2495.53076
2405.0 0.000416 2376.19946 2493.06860
2467.0 0.000405 2376.26147 2490.69336
2386.0 0.000419 2376.32373 2488.40723
2485.0 0.000402 2376.38574 2486.21851
2502.0 0.000400 2376.44653 2484.13086
2447.0 0.000409 2376.50732 2482.15356
2550.0 0.000392 2376.56860 2480.27319
2569.0 0.000389 2376.62939 2478.50342
2497.0 0.000400 2376.69019 2476.84644
2509.0 0.000399 2376.75049 2475.30737
2531.0 0.000395 2376.81055 2473.88452
2508.0 0.000399 2376.86987 2472.57739
2392.0 0.000418 2376.92896 2471.39600
2463.0 0.000406 2376.98926 2470.33716
2458.0 0.000407 2377.04810 2469.40234
2476.0 0.000404 2377.10767 2468.59424
2480.0 0.000403 2377.16626 2467.91675
2493.0 0.000401 2377.22534 2467.36523
2450.0 0.000408 2377.28491 2466.94165
2446.0 0.000409 2377.34326 2466.65332
2396.0 0.000417 2377.40161 2466.48535
2422.0 0.000413 2377.46045 2466.45728
2420.0 0.000413 2377.51953 2466.56445
2411.0 0.000415 2377.57837 2466.80151
2391.0 0.000418 2377.63599 2467.17236
2467.0 0.000405 2377.69531 2467.67236
2474.0 0.000404 2377.75342 2468.29907
2422.0 0.000413 2377.81177 2469.06982
2387.0 0.000419 2377.86987 2469.96265
2493.0 0.000401 2377.92822 2470.98804
2470.0 0.000405 2377.98706 2472.14355
2389.0 0.000419 2378.04590 2473.43970
2516.0 0.000397 2378.10425 2474.86328
2431.0 0.000411 2378.16357 2476.41553
2471.0 0.000405 2378.22192 2478.09229
2485.0 0.000402 2378.28003 2479.88745
2521.0 0.000397 2378.33911 2481.80151
2383.0 0.000420 2378.39893 2483.83081
2455.0 0.000407 2378.45874 2485.97314
2445.0 0.000409 2378.51782 2488.21484
2470.0 0.000405 2378.57764 2490.56226
2445.0 0.000409 2378.63794 2492.99976
2414.0 0.000414 2378.69800 2495.52612
2463.0 0.000406 2378.75830 2498.13721
2463.0 0.000406 2378.81860 2500.81787
2452.0 0.000408 2378.88013 2503.53101
2404.0 0.000416 2378.94043 2506.33252
2543.0 0.000393 2379.00195 2509.18896
2476.0 0.000404 2379.06396 2512.08057
2441.0 0.000410 2379.12622 2514.99829
2465.0 0.000406 2379.18750 2517.93848
2485.0 0.000402 2379.25024 2520.87988
2432.0 0.000411 2379.31372 2523.81812
2501.0 0.000400 2379.37695 2526.74194
2524.0 0.000396 2379.44116 2529.63379
2530.0 0.000395 2379.50464 2532.48438
2506.0 0.000399 2379.56934 2535.28760
2459.0 0.000407 2379.63452 2538.01440
2545.0 0.000393 2379.69897 2540.67920
2472.0 0.000405 2379.76514 2543.25708
2450.0 0.000408 2379.83179 2545.73657
2520.0 0.000397 2379.89941 2548.11987
2428.0 0.000412 2379.96606 2550.38013
2462.0 0.000406 2380.03418 2552.51660
2515.0 0.000398 2380.10278 2554.52905
2519.0 0.000397 2380.17114 2556.39990
2408.0 0.000415 2380.24072 2558.13354
2490.0 0.000402 2380.31104 2559.72144
2495.0 0.000401 2380.38208 2561.16162
2581.0 0.000387 2380.45313 2562.44946
2498.0 0.000400 2380.52466 2563.58960
2538.0 0.000394 2380.59717 2564.56812
2607.0 0.000384 2380.67090 2565.40576
2536.0 0.000394 2380.74561 2566.08569
2507.0 0.000399 2380.82007 2566.62256
2507.0 0.000399 2380.89551 2567.01392
2543.0 0.000393 2380.97168 2567.25757
2530.0 0.000395 2381.04834 2567.36499
2619.0 0.000382 2381.12622 2567.33594
2485.0 0.000402 2381.20532 2567.17554
2499.0 0.000400 2381.28271 2566.88989
2607.0 0.000384 2381.36279 2566.48022
2542.0 0.000393 2381.44458 2565.94287
2611.0 0.000383 2381.52515 2565.31030
2520.0 0.000397 2381.60815 2564.57251
2523.0 0.000396 2381.69165 2563.74707
2548.0 0.000392 2381.77637 2562.83789
2566.0 0.000390 2381.86084 2561.84521
2486.0 0.000402 2381.94702 2560.78540
2538.0 0.000394 2382.03442 2559.65454
2528.0 0.000396 2382.12256 2558.47607
2472.0 0.000405 2382.21118 2557.25391
2542.0 0.000393 2382.30225 2555.99048
2613.0 0.000383 2382.39160 2554.67358
2567.0 0.000390 2382.48462 2553.35669
2586.0 0.000387 2382.57739 2552.01953
2575.0 0.000388 2382.67188 2550.67651
2531.0 0.000395 2382.76685 2549.32764
2559.0 0.000391 2382.86328 2547.96338
2538.0 0.000394 2382.96045 2546.61987
2487.0 0.000402 2383.05786 2545.28101
2538.0 0.000394 2383.15771 2543.95288
2586.0 0.000387 2383.25903 2542.64844
2567.0 0.000390 2383.36035 2541.35889
2574.0 0.000389 2383.46289 2540.09253
2591.0 0.000386 2383.56787 2538.84644
2477.0 0.000404 2383.67383 2537.63354
2548.0 0.000392 2383.77979 2536.43872
2615.0 0.000382 2383.88818 2535.27319
2645.0 0.000378 2383.99658 2534.13062
2526.0 0.000396 2384.10693 2533.02222
2561.0 0.000390 2384.21948 2531.94336
2534.0 0.000395 2384.33130 2530.88745
2561.0 0.000390 2384.44556 2529.86597
2544.0 0.000393 2384.56226 2528.86914
2558.0 0.000391 2384.67896 2527.89307
2565.0 0.000390 2384.79639 2526.94629
2562.0 0.000390 2384.91675 2526.02295
2621.0 0.000382 2385.03735 2525.12280
2581.0 0.000387 2385.15991 2524.24731
2530.0 0.000395 2385.28418 2523.38672
2529.0 0.000395 2385.40967 2522.54321
2510.0 0.000398 2385.53638 2521.71655
2585.0 0.000387 2385.66479 2520.90625
2531.0 0.000395 2385.79468 2520.11548
2599.0 0.000385 2385.92529 2519.33472
2553.0 0.000392 2386.05884 2518.57080
2506.0 0.000399 2386.19238 2517.81812
2560.0 0.000391 2386.32813 2517.07373
2422.0 0.000413 2386.46509 2516.34253
2510.0 0.000398 2386.60376 2515.62256
2533.0 0.000395 2386.74365 2514.90454
2529.0 0.000395 2386.88599 2514.20044
2539.0 0.000394 2387.03027 2513.50952
2509.0 0.000399 2387.17529 2512.82300
2507.0 0.000399 2387.32202 2512.15186
2533.0 0.000395 2387.47021 2511.48291
2493.0 0.000401 2387.62061 2510.82251
2415.0 0.000414 2387.77148 2510.17310
2555.0 0.000391 2387.92480 2509.53174
2551.0 0.000392 2388.08008 2508.89893
2520.0 0.000397 2388.23657 2508.27637
2502.0 0.000400 2388.39600 2507.66553
2595.0 0.000385 2388.55615 2507.06055
2530.0 0.000395 2388.71680 2506.46387
2541.0 0.000394 2388.88110 2505.85059
2511.0 0.000398 2389.04614 2505.27612
2511.0 0.000398 2389.21362 2504.71265
2471.0 0.000405 2389.38257 2504.16040
2535.0 0.000394 2389.55298 2503.61694
2485.0 0.000402 2389.72534 2503.08765
2459.0 0.000407 2389.89917 2502.56445
2485.0 0.000402 2390.07593 2502.04736
2433.0 0.000411 2390.25415 2501.53711
2464.0 0.000406 2390.43335 2501.03638
2507.0 0.000399 2390.61523 2500.54883
2434.0 0.000411 2390.79932 2500.05859
2494.0 0.000401 2390.98413 2499.58179
2445.0 0.000409 2391.17163 2499.10986
2480.0 0.000403 2391.36035 2498.63647
2428.0 0.000412 2391.55151 2498.16284
2497.0 0.000400 2391.74365 2497.68237
2456.0 0.000407 2391.93945 2497.22534
2460.0 0.000407 2392.13550 2496.77075
2463.0 0.000406 2392.33398 2496.32373
2440.0 0.000410 2392.53516 2495.87842
2507.0 0.000399 2392.73779 2495.43262
2540.0 0.000394 2392.94189 2494.99487
2512.0 0.000398 2393.14844 2494.55884
2469.0 0.000405 2393.35669 2494.12793
2506.0 0.000399 2393.56738 2493.70435
2539.0 0.000394 2393.78027 2493.27417
2520.0 0.000397 2393.99390 2492.85376
2445.0 0.000409 2394.21069 2492.41309
2516.0 0.000397 2394.42822 2491.98877
2492.0 0.000401 2394.64917 2491.58008
2425.0 0.000412 2394.87085 2491.18262
2383.0 0.000420 2395.09595 2490.78784
2460.0 0.000407 2395.32202 2490.39819
2555.0 0.000391 2395.55029 2490.02246
2485.0 0.000402 2395.78149 2489.64673
2518.0 0.000397 2396.01294 2489.28052
2476.0 0.000404 2396.24902 2488.92432
2400.0 0.000417 2396.48364 2488.58618
2469.0 0.000405 2396.72363 2488.26392
2459.0 0.000407 2396.96338 2487.95239
2422.0 0.000413 2397.20581 2487.65405
2415.0 0.000414 2397.45117 2487.38818
2533.0 0.000395 2397.69824 2487.14795
2458.0 0.000407 2397.94629 2486.92773
2454.0 0.000407 2398.19824 2486.71484
2351.0 0.000425 2398.45117 2486.54565
2487.0 0.000402 2398.70605 2486.41211
2511.0 0.000398 2398.96265 2486.30591
2533.0 0.000395 2399.22290 2486.23853
2548.0 0.000392 2399.48389 2486.19727
2436.0 0.000411 2399.74683 2486.19434
2549.0 0.000392 2400.01294 2486.22144
2450.0 0.000408 2400.28003 2486.28296
2443.0 0.000409 2400.54980 2486.38477
2447.0 0.000409 2400.82227 2486.52539
2495.0 0.000401 2401.09595 2486.70068
2405.0 0.000416 2401.37109 2486.91309
2444.0 0.000409 2401.64893 2487.15869
2505.0 0.000399 2401.92920 2487.43921
2558.0 0.000391 2402.21167 2487.76050
2489.0 0.000402 2402.49536 2488.11279
2507.0 0.000399 2402.78271 2488.50122
2503.0 0.000400 2403.07104 2488.92114
2549.0 0.000392 2403.36108 2489.37305
2524.0 0.000396 2403.65356 2489.85620
2496.0 0.000401 2403.94824 2490.36646
2496.0 0.000401 2404.24512 2490.91064
2540.0 0.000394 2404.54346 2491.47974
2450.0 0.000408 2404.84399 2492.06738
2509.0 0.000399 2405.14746 2492.68604
2535.0 0.000394 2405.45264 2493.32544
2513.0 0.000398 2405.76001 2493.97974
2527.0 0.000396 2406.06763 2494.65332
2578.0 0.000388 2406.37915 2495.34375
2504.0 0.000399 2406.69263 2496.05542
2513.0 0.000398 2407.00830 2496.77710
2455.0 0.000407 2407.32446 2497.50317
2516.0 0.000397 2407.64380 2498.23853
2493.0 0.000401 2407.96582 2498.97437
2529.0 0.000395 2408.28833 2499.71338
2462.0 0.000406 2408.61450 2500.45093
2517.0 0.000397 2408.94165 2501.19214
2546.0 0.000393 2409.27051 2501.92261
2493.0 0.000401 2409.60156 2502.64502
2578.0 0.000388 2409.93481 2503.36304
2454.0 0.000407 2410.27002 2504.06763
2559.0 0.000391 2410.60718 2504.75195
2568.0 0.000389 2410.94653 2505.41699
2519.0 0.000397 2411.28784 2506.07031
2586.0 0.000387 2411.63062 2506.70166
2599.0 0.000385 2411.97534 2507.31055
2610.0 0.000383 2412.32202 2507.89258
2515.0 0.000398 2412.67139 2508.45386
2553.0 0.000392 2413.02173 2508.98608
2586.0 0.000387 2413.37451 2509.49438
2548.0 0.000392 2413.72876 2509.97168
2593.0 0.000386 2414.08472 2510.42505
2665.0 0.000375 2414.44287 2510.84766
2570.0 0.000389 2414.80249 2511.24438
2643.0 0.000378 2415.16431 2511.61499
2633.0 0.000380 2415.52734 2511.95044
2503.0 0.000400 2415.89380 2512.26123
2643.0 0.000378 2416.26147 2512.54565
2567.0 0.000390 2416.63013 2512.81519
2574.0 0.000389 2417.00073 2513.05151
2552.0 0.000392 2417.37402 2513.27271
2586.0 0.000387 2417.74854 2513.46948
2635.0 0.000380 2418.12378 2513.65234
2621.0 0.000382 2418.50220 2513.82275
2679.0 0.000373 2418.88184 2513.97827
2542.0 0.000393 2419.26392 2514.12964
2499.0 0.000400 2419.64600 2514.27612
2548.0 0.000392 2420.03125 2514.41675
2544.0 0.000393 2420.41748 2514.55664
2571.0 0.000389 2420.80493 2514.70117
2600.0 0.000385 2421.19458 2514.85059
2522.0 0.000397 2421.58569 2515.01245
2593.0 0.000386 2421.97876 2515.18188
2535.0 0.000394 2422.37402 2515.36987
2541.0 0.000394 2422.76904 2515.57495
2595.0 0.000385 2423.16699 2515.79663
2546.0 0.000393 2423.56665 2516.04663
2655.0 0.000377 2423.96655 2516.31665
2620.0 0.000382 2424.36938 2516.61865
2613.0 0.000383 2424.77222 2516.94653
2662.0 0.000376 2425.17749 2517.29712
2546.0 0.000393 2425.58423 2517.69629
2595.0 0.000385 2425.99219 2518.11377
2507.0 0.000399 2426.40112 2518.58789
2537.0 0.000394 2426.81250 2519.09521
2554.0 0.000392 2427.22437 2519.64819
2563.0 0.000390 2427.63843 2520.24780
2564.0 0.000390 2428.05298 2520.88794
2586.0 0.000387 2428.46924 2521.56763
2533.0 0.000395 2428.88647 2522.29004
2529.0 0.000395 2429.30615 2523.04810
2471.0 0.000405 2429.72559 2523.86670
2508.0 0.000399 2430.14722 2524.73022
2528.0 0.000396 2430.56958 2525.63770
2504.0 0.000399 2430.99268 2526.58691
2591.0 0.000386 2431.41821 2527.58032
2552.0 0.000392 2431.84448 2528.60767
2563.0 0.000390 2432.27222 2529.68921
2629.0 0.000380 2432.70068 2530.80347
2600.0 0.000385 2433.12988 2531.94995
2505.0 0.000399 2433.56030 2533.11523
2552.0 0.000392 2433.99219 2534.33276
2524.0 0.000396 2434.42554 2535.58374
2595.0 0.000385 2434.85962 2536.85938
2616.0 0.000382 2435.29395 2538.16357
2560.0 0.000391 2435.73096 2539.48413
2497.0 0.000400 2436.16675 2540.81299
2538.0 0.000394 2436.60474 2542.15405
2578.0 0.000388 2437.04297 2543.51538
2594.0 0.000386 2437.48291 2544.88110
2618.0 0.000382 2437.92261 2546.24634
2522.0 0.000397 2438.36475 2547.60815
2504.0 0.000399 2438.80688 2548.96802
2589.0 0.000386 2439.24927 2550.31665
2542.0 0.000393 2439.69263 2551.64722
2546.0 0.000393 2440.13794 2552.96240
2602.0 0.000384 2440.58276 2554.23779
2605.0 0.000384 2441.02856 2555.50024
2600.0 0.000385 2441.47559 2556.73438
2594.0 0.000386 2441.92285 2557.93042
2616.0 0.000382 2442.37109 2559.09180
2558.0 0.000391 2442.81934 2560.21533
2522.0 0.000397 2443.26904 2561.29199
2574.0 0.000389 2443.71826 2562.32007
2522.0 0.000397 2444.16846 2563.30225
2557.0 0.000391 2444.61963 2564.23804
2539.0 0.000394 2445.07056 2565.11841
2573.0 0.000389 2445.52246 2565.94775
2653.0 0.000377 2445.97534 2566.72485
2573.0 0.000389 2446.42773 2567.44873
2586.0 0.000387 2446.88086 2568.11279
2677.0 0.000374 2447.33447 2568.72046
2628.0 0.000381 2447.78809 2569.27393
2577.0 0.000388 2448.24243 2569.77002
2569.0 0.000389 2448.69678 2570.21484
2697.0 0.000371 2449.15161 2570.60181
2613.0 0.000383 2449.60645 2570.94238
2558.0 0.000391 2450.06226 2571.23291
2634.0 0.000380 2450.51733 2571.48291
2560.0 0.000391 2450.97290 2571.67651
2533.0 0.000395 2451.42871 2571.82104
2586.0 0.000387 2451.88525 2571.93896
2597.0 0.000385 2452.34180 2572.01514
2560.0 0.000391 2452.79785 2572.05151
2600.0 0.000385 2453.25317 2572.05859
2628.0 0.000381 2453.70947 2572.03027
2540.0 0.000394 2454.16602 2571.97754
2581.0 0.000387 2454.62231 2571.90356
2496.0 0.000401 2455.07935 2571.80591
2573.0 0.000389 2455.53467 2571.69287
2633.0 0.000380 2455.99170 2571.56226
2555.0 0.000391 2456.44653 2571.42041
2579.0 0.000388 2456.90234 2571.27588
2656.0 0.000377 2457.35889 2571.11230
2562.0 0.000390 2457.81421 2570.96069
2615.0 0.000382 2458.26929 2570.81567
2525.0 0.000396 2458.72461 2570.67456
2548.0 0.000392 2459.17944 2570.53833
2512.0 0.000398 2459.63281 2570.41821
2578.0 0.000388 2460.08813 2570.31348
2530.0 0.000395 2460.54199 2570.22754
2497.0 0.000400 2460.99487 2570.15552
2604.0 0.000384 2461.44751 2570.10962
2557.0 0.000391 2461.90112 2570.09717
2632.0 0.000380 2462.35352 2570.11646
2499.0 0.000400 2462.80493 2570.16187
2515.0 0.000398 2463.25684 2570.23828
2559.0 0.000391 2463.70703 2570.35571
2558.0 0.000391 2464.15771 2570.51196
2508.0 0.000399 2464.60620 2570.70020
2591.0 0.000386 2465.05591 2570.92822
2577.0 0.000388 2465.50464 2571.19873
2557.0 0.000391 2465.95264 2571.50830
2608.0 0.000383 2466.40015 2571.86108
2550.0 0.000392 2466.84692 2572.25269
2604.0 0.000384 2467.29272 2572.68579
2515.0 0.000398 2467.73779 2573.14966
2585.0 0.000387 2468.18262 2573.67212
2502.0 0.000400 2468.62500 2574.23389
2512.0 0.000398 2469.06909 2574.82422
2533.0 0.000395 2469.51050 2575.46387
2615.0 0.000382 2469.95142 2576.13623
2505.0 0.000399 2470.39331 2576.85132
2581.0 0.000387 2470.83252 2577.60034
2595.0 0.000385 2471.27075 2578.37866
2563.0 0.000390 2471.70801 2579.19141
2551.0 0.000392 2472.14478 2580.03003
2514.0 0.000398 2472.58130 2580.89551
2577.0 0.000388 2473.01611 2581.78979
2696.0 0.000371 2473.44922 2582.70337
2644.0 0.000378 2473.88208 2583.65088
2622.0 0.000381 2474.31421 2584.60156
2626.0 0.000381 2474.74438 2585.56299
2586.0 0.000387 2475.17407 2586.53369
2577.0 0.000388 2475.60278 2587.51929
2532.0 0.000395 2476.03076 2588.50586
2511.0 0.000398 2476.45630 2589.49536
2462.0 0.000406 2476.88013 2590.48462
2549.0 0.000392 2477.30444 2591.46851
2573.0 0.000389 2477.72705 2592.44751
2564.0 0.000390 2478.14795 2593.41650
2660.0 0.000376 2478.56836 2594.37207
2517.0 0.000397 2478.98706 2595.31128
2606.0 0.000384 2479.40503 2596.23779
2590.0 0.000386 2479.82080 2597.14551
2564.0 0.000390 2480.23633 2598.02466
2617.0 0.000382 2480.64917 2598.88281
2555.0 0.000391 2481.06104 2599.71631
2534.0 0.000395 2481.47192 2600.51831
2499.0 0.000400 2481.88257 2601.28857
2547.0 0.000393 2482.28979 2602.02661
2548.0 0.000392 2482.69604 2602.72607
2567.0 0.000390 2483.10107 2603.38574
2600.0 0.000385 2483.50513 2604.00684
2577.0 0.000388 2483.90747 2604.58203
2640.0 0.000379 2484.30835 2605.12549
2565.0 0.000390 2484.70728 2605.62183
2511.0 0.000398 2485.10474 2606.07520
2606.0 0.000384 2485.50122 2606.48022
2534.0 0.000395 2485.89551 2606.83984
2628.0 0.000381 2486.28882 2607.15381
2569.0 0.000389 2486.68018 2607.42554
2556.0 0.000391 2487.07031 2607.65161
2602.0 0.000384 2487.45850 2607.83423
2625.0 0.000381 2487.84497 2607.97070
2667.0 0.000375 2488.22949 2608.06055
2524.0 0.000396 2488.61353 2608.10938
2579.0 0.000388 2488.99609 2608.11108
2581.0 0.000387 2489.37524 2608.07397
2532.0 0.000395 2489.75366 2607.99634
2558.0 0.000391 2490.12988 2607.87939
2564.0 0.000390 2490.50464 2607.73242
2561.0 0.000390 2490.87866 2607.54272
2557.0 0.000391 2491.25049 2607.32495
2595.0 0.000385 2491.61987 2607.07520
2514.0 0.000398 2491.98755 2606.80811
2550.0 0.000392 2492.35449 2606.50659
2602.0 0.000384 2492.71973 2606.18848
2571.0 0.000389 2493.08179 2605.84155
2567.0 0.000390 2493.44287 2605.48193
2560.0 0.000391 2493.80249 2605.10767
2524.0 0.000396 2494.15967 2604.72070
2572.0 0.000389 2494.51489 2604.33154
2533.0 0.000395 2494.87012 2603.92725
2645.0 0.000378 2495.22168 2603.52710
2528.0 0.000396 2495.57251 2603.12988
2543.0 0.000393 2495.91992 2602.73389
2595.0 0.000385 2496.26733 2602.33936
2577.0 0.000388 2496.61230 2601.95313
2624.0 0.000381 2496.95605 2601.58203
2603.0 0.000384 2497.29688 2601.21851
2609.0 0.000383 2497.63623 2600.87549
2486.0 0.000402 2497.97339 2600.54785
2568.0 0.000389 2498.30957 2600.24829
2573.0 0.000389 2498.64331 2599.96167
2602.0 0.000384 2498.97412 2599.70483
2553.0 0.000392 2499.30542 2599.47803
2556.0 0.000391 2499.63354 2599.26978
2567.0 0.000390 2499.96021 2599.09546
2584.0 0.000387 2500.28467 2598.94775
2538.0 0.000394 2500.60767 2598.84033
2571.0 0.000389 2500.92773 2598.76465
2549.0 0.000392 2501.24707 2598.72583
2582.0 0.000387 2501.56470 2598.71948
2559.0 0.000391 2501.88013 2598.75928
2538.0 0.000394 2502.19434 2598.83105
2592.0 0.000386 2502.50562 2598.94775
2512.0 0.000398 2502.81567 2599.10400
2593.0 0.000386 2503.12305 2599.30151
2613.0 0.000383 2503.42993 2599.53369
2629.0 0.000380 2503.73340 2599.81030
2554.0 0.000392 2504.03638 2600.12866
2552.0 0.000392 2504.33765 2600.48853
2595.0 0.000385 2504.63599 2600.89526
2582.0 0.000387 2504.93286 2601.34229
2455.0 0.000407 2505.22827 2601.82520
2627.0 0.000381 2505.52148 2602.34888
2679.0 0.000373 2505.81348 2602.90503
2608.0 0.000383 2506.10400 2603.50439
2569.0 0.000389 2506.39136 2604.13623
2617.0 0.000382 2506.67847 2604.80151
2604.0 0.000384 2506.96313 2605.50513
2635.0 0.000380 2507.24487 2606.22998
2630.0 0.000380 2507.52734 2606.99390
2618.0 0.000382 2507.80688 2607.78369
2564.0 0.000390 2508.08447 2608.59644
2540.0 0.000394 2508.36011 2609.42847
2586.0 0.000387 2508.63428 2610.28491
2583.0 0.000387 2508.90747 2611.16016
2640.0 0.000379 2509.17725 2612.05005
2614.0 0.000383 2509.44678 2612.95117
2634.0 0.000380 2509.71533 2613.86841
2613.0 0.000383 2509.98145 2614.79077
2608.0 0.000383 2510.24463 2615.71851
2554.0 0.000392 2510.50732 2616.64941
2635.0 0.000380 2510.76855 2617.58228
2605.0 0.000384 2511.02808 2618.51392
2635.0 0.000380 2511.28613 2619.44385
2622.0 0.000381 2511.54346 2620.36890
2607.0 0.000384 2511.79785 2621.28320
2570.0 0.000389 2512.05151 2622.18872
2608.0 0.000383 2512.30322 2623.08618
2592.0 0.000386 2512.55298 2623.96826
2623.0 0.000381 2512.80225 2624.84082
2657.0 0.000376 2513.05127 2625.69653
2697.0 0.000371 2513.29590 2626.53638
2532.0 0.000395 2513.54077 2627.35693
2602.0 0.000384 2513.78442 2628.16724
2663.0 0.000376 2514.02588 2628.95508
2677.0 0.000374 2514.26636 2629.72729
2639.0 0.000379 2514.50586 2630.47729
2662.0 0.000376 2514.74414 2631.20361
2586.0 0.000387 2514.98096 2631.91699
2542.0 0.000393 2515.21484 2632.61206
2696.0 0.000371 2515.44946 2633.28174
2604.0 0.000384 2515.68140 2633.93799
2642.0 0.000379 2515.91382 2634.58081
2595.0 0.000385 2516.14404 2635.20776
2652.0 0.000377 2516.37329 2635.81592
2591.0 0.000386 2516.60132 2636.40747
2627.0 0.000381 2516.82837 2636.98853
2634.0 0.000380 2517.05420 2637.55518
2564.0 0.000390 2517.27930 2638.11353
2659.0 0.000376 2517.50244 2638.66089
2637.0 0.000379 2517.72510 2639.19775
2618.0 0.000382 2517.94751 2639.72510
2609.0 0.000383 2518.16821 2640.23462
2578.0 0.000388 2518.38721 2640.75488
2614.0 0.000383 2518.60571 2641.26611
2597.0 0.000385 2518.82373 2641.77563
2574.0 0.000389 2519.04175 2642.28296
2595.0 0.000385 2519.25757 2642.78638
2532.0 0.000395 2519.47290 2643.28442
2666.0 0.000375 2519.68823 2643.79077
2644.0 0.000378 2519.90234 2644.28613
2583.0 0.000387 2520.11450 2644.78589
2582.0 0.000387 2520.32788 2645.30078
2625.0 0.000381 2520.53955 2645.81543
2562.0 0.000390 2520.75024 2646.33472
2616.0 0.000382 2520.96045 2646.86206
2636.0 0.000379 2521.17114 2647.38989
2623.0 0.000381 2521.38037 2647.92676
2679.0 0.000373 2521.58936 2648.45337
2621.0 0.000382 2521.79736 2649.00171
2617.0 0.000382 2522.00586 2649.54663
2617.0 0.000382 2522.21387 2650.10376
2561.0 0.000390 2522.42041 2650.66284
2666.0 0.000375 2522.62695 2651.22974
2728.0 0.000367 2522.83301 2651.79639
2629.0 0.000380 2523.04004 2652.36694
2582.0 0.000387 2523.24561 2652.92969
2588.0 0.000386 2523.45020 2653.49414
2674.0 0.000374 2523.65625 2654.05981
2695.0 0.000371 2523.86157 2654.62207
2642.0 0.000379 2524.06519 2655.17993
2766.0 0.000362 2524.27051 2655.72754
2709.0 0.000369 2524.47607 2656.27100
2647.0 0.000378 2524.68091 2656.80444
2599.0 0.000385 2524.88525 2657.32300
2611.0 0.000383 2525.09033 2657.82642
2701.0 0.000370 2525.29541 2658.30835
2631.0 0.000380 2525.50024 2658.76855
2644.0 0.000378 2525.70581 2659.20972
2680.0 0.000373 2525.91040 2659.62769
2656.0 0.000377 2526.11597 2660.01636
2777.0 0.000360 2526.32202 2660.37939
2675.0 0.000374 2526.52686 2660.71680
2687.0 0.000372 2526.73267 2661.02222
2674.0 0.000374 2526.94019 2661.29150
2671.0 0.000374 2527.14697 2661.53198
2706.0 0.000370 2527.35400 2661.73804
2665.0 0.000375 2527.56152 2661.90918
2665.0 0.000375 2527.77100 2662.05298
2720.0 0.000368 2527.97852 2662.15479
2662.0 0.000376 2528.18823 2662.22754
2681.0 0.000373 2528.39771 2662.26294
2662.0 0.000376 2528.60840 2662.26294
2732.0 0.000366 2528.81958 2662.23096
2751.0 0.000364 2529.03052 2662.17090
2678.0 0.000373 2529.24341 2662.07251
2688.0 0.000372 2529.45703 2661.94800
2650.0 0.000377 2529.67065 2661.78955
2744.0 0.000364 2529.88525 2661.60303
2752.0 0.000363 2530.10083 2661.38770
2704.0 0.000370 2530.31763 2661.15137
2701.0 0.000370 2530.53540 2660.88696
2706.0 0.000370 2530.75415 2660.59644
2714.0 0.000368 2530.97363 2660.28882
2625.0 0.000381 2531.19434 2659.96460
2640.0 0.000379 2531.41528 2659.61646
2667.0 0.000375 2531.63892 2659.25635
2792.0 0.000358 2531.86255 2658.88110
2724.0 0.000367 2532.08765 2658.49658
2684.0 0.000373 2532.31348 2658.10474
2692.0 0.000371 2532.54224 2657.70874
2701.0 0.000370 2532.77075 2657.30444
2646.0 0.000378 2533.00073 2656.90698
2598.0 0.000385 2533.23315 2656.50757
2674.0 0.000374 2533.46606 2656.11353
2640.0 0.000379 2533.70044 2655.73340
2707.0 0.000369 2533.93604 2655.35718
2737.0 0.000365 2534.17456 2654.99292
2723.0 0.000367 2534.41284 2654.64746
2636.0 0.000379 2534.65283 2654.31812
2626.0 0.000381 2534.89551 2654.01099
2652.0 0.000377 2535.13916 2653.72607
2653.0 0.000377 2535.38501 2653.46704
2720.0 0.000368 2535.63184 2653.22974
2702.0 0.000370 2535.88062 2653.02612
2595.0 0.000385 2536.13159 2652.84912
2716.0 0.000368 2536.38452 2652.70630
2626.0 0.000381 2536.63892 2652.59497
2698.0 0.000371 2536.89453 2652.52075
2631.0 0.000380 2537.15381 2652.47998
2649.0 0.000378 2537.41333 2652.48315
2622.0 0.000381 2537.67505 2652.51904
2736.0 0.000365 2537.93994 2652.59668
2707.0 0.000369 2538.20581 2652.71631
2717.0 0.000368 2538.47388 2652.87744
2649.0 0.000378 2538.74487 2653.07690
2628.0 0.000381 2539.01758 2653.32080
2585.0 0.000387 2539.29248 2653.60425
2614.0 0.000383 2539.56860 2653.92725
2677.0 0.000374 2539.84766 2654.29077
2618.0 0.000382 2540.13062 2654.69580
2684.0 0.000373 2540.41431 2655.14136
2662.0 0.000376 2540.69946 2655.62891
2662.0 0.000376 2540.98804 2656.14941
2703.0 0.000370 2541.27930 2656.71167
2691.0 0.000372 2541.57227 2657.30493
2647.0 0.000378 2541.86816 2657.93433
2690.0 0.000372 2542.16553 2658.60205
2756.0 0.000363 2542.46704 2659.29663
2720.0 0.000368 2542.77026 2660.02588
2763.0 0.000362 2543.07617 2660.78442
2658.0 0.000376 2543.38477 2661.56665
2715.0 0.000368 2543.69531 2662.37231
2718.0 0.000368 2544.00903 2663.20313
2639.0 0.000379 2544.32642 2664.05542
2720.0 0.000368 2544.64502 2664.92261
2686.0 0.000372 2544.96680 2665.80933
2650.0 0.000377 2545.29102 2666.70557
2694.0 0.000371 2545.61890 2667.61670
2691.0 0.000372 2545.94824 2668.53589
2683.0 0.000373 2546.28101 2669.46313
2662.0 0.000376 2546.61719 2670.39258
2658.0 0.000376 2546.95508 2671.31396
2776.0 0.000360 2547.29712 2672.23315
2704.0 0.000370 2547.64111 2673.15625
2697.0 0.000371 2547.98901 2674.07739
2690.0 0.000372 2548.33862 2674.98804
2698.0 0.000371 2548.69214 2675.88892
2728.0 0.000367 2549.04932 2676.77686
2759.0 0.000362 2549.40796 2677.64233
2743.0 0.000365 2549.77051 2678.49512
2727.0 0.000367 2550.13574 2679.33228
2671.0 0.000374 2550.50366 2680.15063
2667.0 0.000375 2550.87549 2680.95044
2781.0 0.000360 2551.25049 2681.72754
2728.0 0.000367 2551.62891 2682.47974
2644.0 0.000378 2552.00903 2683.20605
2766.0 0.000362 2552.39331 2683.91016
2735.0 0.000366 2552.78027 2684.58276
2737.0 0.000365 2553.17114 2685.23340
2723.0 0.000367 2553.56396 2685.85425
2742.0 0.000365 2553.96167 2686.44873
2752.0 0.000363 2554.36133 2687.01392
2682.0 0.000373 2554.76465 2687.55688
2666.0 0.000375 2555.17139 2688.07300
2736.0 0.000365 2555.58130 2688.56372
2719.0 0.000368 2555.99487 2689.02808
2703.0 0.000370 2556.41138 2689.46704
2706.0 0.000370 2556.83179 2689.88281
2728.0 0.000367 2557.25439 2690.27197
2675.0 0.000374 2557.68140 2690.64233
2770.0 0.000361 2558.11060 2690.99390
2772.0 0.000361 2558.54370 2691.32080
2628.0 0.000381 2558.98120 2691.63208
2772.0 0.000361 2559.42065 2691.92554
2679.0 0.000373 2559.86377 2692.20093
2672.0 0.000374 2560.30957 2692.46045
2678.0 0.000373 2560.76050 2692.70581
2726.0 0.000367 2561.21411 2692.93652
2668.0 0.000375 2561.67114 2693.15967
2746.0 0.000364 2562.13208 2693.37134
2713.0 0.000369 2562.59473 2693.57349
2703.0 0.000370 2563.06250 2693.76587
2668.0 0.000375 2563.53271 2693.95654
2754.0 0.000363 2564.00635 2694.13818
2760.0 0.000362 2564.48364 2694.31982
2707.0 0.000369 2564.96509 2694.49780
2723.0 0.000367 2565.44897 2694.67065
2730.0 0.000366 2565.93604 2694.84521
2785.0 0.000359 2566.42749 2695.02319
2692.0 0.000371 2566.92139 2695.19751
2657.0 0.000376 2567.41870 2695.37622
2718.0 0.000368 2567.92017 2695.55908
2663.0 0.000376 2568.42480 2695.74683
2634.0 0.000380 2568.93286 2695.93823
2751.0 0.000364 2569.44409 2696.13965
2692.0 0.000371 2569.95923 2696.34717
2687.0 0.000372 2570.47681 2696.55859
2650.0 0.000377 2570.99878 2696.78320
2721.0 0.000368 2571.52441 2697.01123
2686.0 0.000372 2572.05225 2697.25073
2749.0 0.000364 2572.58423 2697.50659
2646.0 0.000378 2573.11890 2697.77271
2697.0 0.000371 2573.65796 2698.04663
2704.0 0.000370 2574.19897 2698.34131
2704.0 0.000370 2574.74414 2698.64087
2750.0 0.000364 2575.29272 2698.95557
2734.0 0.000366 2575.84375 2699.28564
2734.0 0.000366 2576.39941 2699.62964
2721.0 0.000368 2576.95752 2699.98828
2723.0 0.000367 2577.51953 2700.35938
2679.0 0.000373 2578.08398 2700.74292
2725.0 0.000367 2578.65234 2701.14600
2621.0 0.000382 2579.22314 2701.55981
2762.0 0.000362 2579.79688 2701.98877
2738.0 0.000365 2580.37524 2702.42798
2681.0 0.000373 2580.95581 2702.88794
2714.0 0.000368 2581.53931 2703.35083
2643.0 0.000378 2582.12744 2703.82959
2706.0 0.000370 2582.71753 2704.32373
2729.0 0.000366 2583.31079 2704.82935
2681.0 0.000373 2583.90698 2705.34131
2716.0 0.000368 2584.50684 2705.86499
2740.0 0.000365 2585.10913 2706.39722
2702.0 0.000370 2585.71387 2706.93994
2724.0 0.000367 2586.32300 2707.49097
2656.0 0.000377 2586.93506 2708.04932
2759.0 0.000362 2587.55005 2708.61328
2624.0 0.000381 2588.16675 2709.18262
2805.0 0.000357 2588.78638 2709.75806
2675.0 0.000374 2589.40991 2710.34082
2649.0 0.000378 2590.03711 2710.92236
2713.0 0.000369 2590.66504 2711.50830
2722.0 0.000367 2591.29736 2712.10229
2774.0 0.000360 2591.93262 2712.68896
2694.0 0.000371 2592.56909 2713.28760
2683.0 0.000373 2593.20898 2713.88940
2679.0 0.000373 2593.85181 2714.49023
2744.0 0.000364 2594.49829 2715.09082
2714.0 0.000368 2595.14600 2715.68481
2713.0 0.000369 2595.79688 2716.29077
2704.0 0.000370 2596.45093 2716.89404
2701.0 0.000370 2597.10645 2717.49829
2634.0 0.000380 2597.76514 2718.09424
2732.0 0.000366 2598.42725 2718.69556
2719.0 0.000368 2599.09009 2719.29492
2637.0 0.000379 2599.75610 2719.89087
2722.0 0.000367 2600.42529 2720.49023
2682.0 0.000373 2601.09521 2721.08325
2665.0 0.000375 2601.76855 2721.67407
2679.0 0.000373 2602.44507 2722.26172
2725.0 0.000367 2603.12183 2722.84546
2750.0 0.000364 2603.80200 2723.41846
2732.0 0.000366 2604.48486 2723.99365
2749.0 0.000364 2605.16992 2724.55835
2667.0 0.000375 2605.85596 2725.12305
2757.0 0.000363 2606.54419 2725.68652
2705.0 0.000370 2607.23633 2726.23584
2741.0 0.000365 2607.92920 2726.78296
2727.0 0.000367 2608.62378 2727.31836
2685.0 0.000372 2609.32129 2727.85498
2702.0 0.000370 2610.02075 2728.38574
2668.0 0.000375 2610.72144 2728.91406
2692.0 0.000371 2611.42432 2729.43506
2749.0 0.000364 2612.12915 2729.95361
2813.0 0.000355 2612.83569 2730.46289
2694.0 0.000371 2613.54370 2730.96777
2671.0 0.000374 2614.25439 2731.46680
2741.0 0.000365 2614.96484 2731.96118
2683.0 0.000373 2615.67847 2732.45386
2698.0 0.000371 2616.39404 2732.93848
2710.0 0.000369 2617.11011 2733.41748
2683.0 0.000373 2617.82910 2733.88989
2684.0 0.000373 2618.54810 2734.35669
2712.0 0.000369 2619.26904 2734.82837
2682.0 0.000373 2619.99219 2735.29272
2697.0 0.000371 2620.71631 2735.74658
2763.0 0.000362 2621.44092 2736.20093
2735.0 0.000366 2622.16748 2736.64429
2679.0 0.000373 2622.89575 2737.08838
2655.0 0.000377 2623.62524 2737.52954
2710.0 0.000369 2624.35474 2737.96338
2728.0 0.000367 2625.08643 2738.39746
2768.0 0.000361 2625.81885 2738.81909
2717.0 0.000368 2626.55322 2739.24316
2763.0 0.000362 2627.28784 2739.66504
2759.0 0.000362 2628.02368 2740.08276
2755.0 0.000363 2628.76050 2740.49292
2723.0 0.000367 2629.49780 2740.90454
2736.0 0.000365 2630.23682 2741.30762
2645.0 0.000378 2630.97583 2741.71680
2697.0 0.000371 2631.71680 2742.11865
2686.0 0.000372 2632.45776 2742.51880
2742.0 0.000365 2633.19897 2742.91968
2785.0 0.000359 2633.94165 2743.32373
2739.0 0.000365 2634.68457 2743.72534
2680.0 0.000373 2635.42798 2744.12183
2776.0 0.000360 2636.17236 2744.52051
2776.0 0.000360 2636.91748 2744.92261
2758.0 0.000363 2637.66260 2745.32349
2797.0 0.000358 2638.40845 2745.73242
2785.0 0.000359 2639.15405 2746.13843
2678.0 0.000373 2639.90063 2746.55029
2655.0 0.000377 2640.64746 2746.96313
2789.0 0.000359 2641.39526 2747.38013
2737.0 0.000365 2642.14209 2747.79590
2675.0 0.000374 2642.88965 2748.21777
2792.0 0.000358 2643.63843 2748.64160
2746.0 0.000364 2644.38672 2749.07080
2789.0 0.000359 2645.13428 2749.50244
2664.0 0.000375 2645.88208 2749.93823
2702.0 0.000370 2646.63086 2750.37744
2749.0 0.000364 2647.37939 2750.81763
2746.0 0.000364 2648.12744 2751.25830
2664.0 0.000375 2648.87573 2751.70728
2839.0 0.000352 2649.62402 2752.15234
2770.0 0.000361 2650.37158 2752.59912
2750.0 0.000364 2651.11963 2753.05103
2746.0 0.000364 2651.86743 2753.50806
2808.0 0.000356 2652.61475 2753.96338
2750.0 0.000364 2653.36304 2754.42114
2782.0 0.000359 2654.10913 2754.87866
2749.0 0.000364 2654.85498 2755.33765
2770.0 0.000361 2655.60181 2755.79761
2744.0 0.000364 2656.34766 2756.25781
2745.0 0.000364 2657.09277 2756.71899
2826.0 0.000354 2657.83765 2757.18066
2746.0 0.000364 2658.58276 2757.64185
2746.0 0.000364 2659.32593 2758.09985
2793.0 0.000358 2660.06958 2758.56299
2798.0 0.000357 2660.81250 2759.01318
2791.0 0.000358 2661.55493 2759.47363
2777.0 0.000360 2662.29614 2759.93115
2746.0 0.000364 2663.03735 2760.38867
2851.0 0.000351 2663.77808 2760.84351
2823.0 0.000354 2664.51709 2761.29419
2873.0 0.0003481 2665.25610 2761.74609
2702.0 0.000370 2665.99487 2762.19043
2702.0 0.000370 2666.73120 2762.63916
2706.0 0.000370 2667.46826 2763.08032
2752.0 0.000363 2668.20288 2763.51929
2763.0 0.000362 2668.93872 2763.95874
2745.0 0.000364 2669.67188 2764.39282
2705.0 0.000370 2670.40576 2764.82690
2774.0 0.000360 2671.13745 2765.25439
2759.0 0.000362 2671.86816 2765.67871
2741.0 0.000365 2672.59888 2766.09692
2741.0 0.000365 2673.32813 2766.51611
2744.0 0.000364 2674.05566 2766.93237
2783.0 0.000359 2674.78296 2767.34302
2784.0 0.000359 2675.50928 2767.74731
2735.0 0.000366 2676.23438 2768.15210
2727.0 0.000367 2676.95825 2768.55273
2712.0 0.000369 2677.68164 2768.95557
2725.0 0.000367 2678.40405 2769.34961
2893.0 0.0003457 2679.12378 2769.73901
2812.0 0.000356 2679.84497 2770.13062
2749.0 0.000364 2680.56299 2770.51733
2786.0 0.000359 2681.27979 2770.89014
2724.0 0.000367 2681.99634 2771.27417
2731.0 0.000366 2682.71191 2771.64990
2754.0 0.000363 2683.42505 2772.02417
2781.0 0.000360 2684.13794 2772.39844
2769.0 0.000361 2684.84888 2772.77124
2840.0 0.000352 2685.55957 2773.13892
2676.0 0.000374 2686.26904 2773.50757
2844.0 0.000352 2686.97632 2773.87671
2836.0 0.000353 2687.68311 2774.24463
2697.0 0.000371 2688.38892 2774.61206
2743.0 0.000365 2689.09351 2774.97754
2799.0 0.000357 2689.79614 2775.34912
2791.0 0.000358 2690.49805 2775.71729
2761.0 0.000362 2691.19800 2776.08838
2778.0 0.000360 2691.89771 2776.46069
2702.0 0.000370 2692.59570 2776.84180
2762.0 0.000362 2693.29248 2777.22046
2790.0 0.000358 2693.98804 2777.60107
2743.0 0.000365 2694.68237 2777.98633
2693.0 0.000371 2695.37573 2778.38232
2741.0 0.000365 2696.06787 2778.77832
2735.0 0.000366 2696.75806 2779.18091
2730.0 0.000366 2697.44775 2779.59033
2845.0 0.000351 2698.13623 2780.00684
2725.0 0.000367 2698.82251 2780.43335
2726.0 0.000367 2699.50879 2780.86816
2695.0 0.000371 2700.19409 2781.30713
2720.0 0.000368 2700.87744 2781.75708
2777.0 0.000360 2701.55981 2782.22070
2726.0 0.000367 2702.24072 2782.69287
2754.0 0.000363 2702.92114 2783.17456
2716.0 0.000368 2703.60059 2783.67139
2761.0 0.000362 2704.27881 2784.17725
2773.0 0.000361 2704.95459 2784.69580
2724.0 0.000367 2705.63086 2785.22827
2777.0 0.000360 2706.30566 2785.77075
2760.0 0.000362 2706.97974 2786.33228
2779.0 0.000360 2707.65210 2786.90405
2815.0 0.000355 2708.32373 2787.49219
2743.0 0.000365 2708.99438 2788.09717
2771.0 0.000361 2709.66455 2788.71509
2784.0 0.000359 2710.33252 2789.34521
2848.0 0.000351 2711.00098 2789.99731
2807.0 0.000356 2711.66797 2790.66284
2759.0 0.000362 2712.33301 2791.34229
2801.0 0.000357 2712.99878 2792.03711
2760.0 0.000362 2713.66284 2792.75122
2783.0 0.000359 2714.32666 2793.47876
2820.0 0.000355 2714.98950 2794.22583
2714.0 0.000368 2715.65112 2794.98462
2735.0 0.000366 2716.31250 2795.76025
2800.0 0.000357 2716.97388 2796.55688
2813.0 0.000355 2717.63306 2797.36279
2831.0 0.000353 2718.29346 2798.19336
2841.0 0.000352 2718.95117 2799.03247
2740.0 0.000365 2719.60913 2799.89111
2827.0 0.000354 2720.26733 2800.76074
2721.0 0.000368 2720.92456 2801.64990
2793.0 0.000358 2721.58057 2802.55078
2887.0 0.0003464 2722.23633 2803.46509
2813.0 0.000355 2722.89160 2804.39404
2809.0 0.000356 2723.54736 2805.34033
2751.0 0.000364 2724.20239 2806.30054
2791.0 0.000358 2724.85718 2807.26636
2870.0 0.0003484 2725.51196 2808.24707
2865.0 0.0003490 2726.16577 2809.24341
2790.0 0.000358 2726.81885 2810.24780
2803.0 0.000357 2727.47314 2811.26221
2730.0 0.000366 2728.12646 2812.28540
2801.0 0.000357 2728.77979 2813.31836
2790.0 0.000358 2729.43359 2814.36401
2904.0 0.0003444 2730.08667 2815.41675
2861.0 0.0003495 2730.73975 2816.47559
2865.0 0.0003490 2731.39331 2817.53882
2865.0 0.0003490 2732.04712 2818.60962
2891.0 0.0003459 2732.70068 2819.69092
2827.0 0.000354 2733.35474 2820.77051
2858.0 0.0003499 2734.01001 2821.85498
2819.0 0.000355 2734.66333 2822.94580
2768.0 0.000361 2735.31763 2824.03711
2892.0 0.0003458 2735.97363 2825.13037
2847.0 0.000351 2736.62793 2826.22607
2839.0 0.000352 2737.28394 2827.32495
2850.0 0.000351 2737.93994 2828.41309
2926.0 0.0003418 2738.59668 2829.51563
2837.0 0.000352 2739.25464 2830.60986
2897.0 0.0003452 2739.91187 2831.70215
2801.0 0.000357 2740.57153 2832.79956
2837.0 0.000352 2741.23145 2833.89111
2830.0 0.000353 2741.89063 2834.98462
2843.0 0.000352 2742.55054 2836.06909
2773.0 0.000361 2743.21289 2837.15283
2901.0 0.0003447 2743.87573 2838.23047
2896.0 0.0003453 2744.53979 2839.30273
2865.0 0.0003490 2745.20386 2840.37207
2799.0 0.000357 2745.86841 2841.43286
2835.0 0.000353 2746.53467 2842.49585
2856.0 0.0003501 2747.20239 2843.54395
2809.0 0.000356 2747.87109 2844.59106
2898.0 0.0003451 2748.54150 2845.63013
2821.0 0.000354 2749.21240 2846.65796
2949.0 0.0003391 2749.88428 2847.68188
2814.0 0.000355 2750.55737 2848.69775
2895.0 0.0003454 2751.23291 2849.70752
2861.0 0.0003495 2751.90942 2850.70190
2867.0 0.0003488 2752.58667 2851.69263
2905.0 0.0003442 2753.26709 2852.67603
2907.0 0.0003440 2753.94702 2853.65332
2921.0 0.0003423 2754.62915 2854.62036
2926.0 0.0003418 2755.31274 2855.57910
2941.0 0.0003400 2755.99902 2856.52881
2829.0 0.000353 2756.68579 2857.47021
2798.0 0.000357 2757.37500 2858.40137
2883.0 0.0003469 2758.06567 2859.32422
2779.0 0.000360 2758.75806 2860.23706
2843.0 0.000352 2759.45239 2861.13208
2849.0 0.000351 2760.14795 2862.03027
2855.0 0.0003503 2760.84570 2862.91772
2875.0 0.0003478 2761.54712 2863.80225
2905.0 0.0003442 2762.24829 2864.67578
2816.0 0.000355 2762.95264 2865.53735
2869.0 0.0003486 2763.65869 2866.39551
2877.0 0.0003476 2764.36694 2867.24341
2918.0 0.0003427 2765.07666 2868.08862
2852.0 0.0003506 2765.79004 2868.92505
2917.0 0.0003428 2766.50513 2869.75610
2848.0 0.000351 2767.22217 2870.58203
2848.0 0.000351 2767.94043 2871.40381
2945.0 0.0003396 2768.66284 2872.21899
2875.0 0.0003478 2769.38647 2873.03198
2934.0 0.0003408 2770.11206 2873.84204
2812.0 0.000356 2770.84082 2874.64722
2892.0 0.0003458 2771.57275 2875.44873
2939.0 0.0003403 2772.30542 2876.24878
2918.0 0.0003427 2773.04199 2877.04932
2889.0 0.0003461 2773.77979 2877.84863
2904.0 0.0003444 2774.52051 2878.63892
2895.0 0.0003454 2775.26465 2879.43774
2895.0 0.0003454 2776.01099 2880.23486
2834.0 0.000353 2776.75952 2881.03467
2896.0 0.0003453 2777.50977 2881.83179
2849.0 0.000351 2778.26416 2882.63428
2953.0 0.0003386 2779.02100 2883.43164
2883.0 0.0003469 2779.77930 2884.23877
2927.0 0.0003416 2780.54126 2885.04736
2871.0 0.0003483 2781.30664 2885.86255
2919.0 0.0003426 2782.07300 2886.67334
2950.0 0.0003390 2782.84326 2887.49146
2957.0 0.0003382 2783.61523 2888.32397
2893.0 0.0003457 2784.39014 2889.15674
2864.0 0.0003492 2785.16919 2889.99463
2909.0 0.0003438 2785.94922 2890.83569
2979.0 0.0003357 2786.73291 2891.68140
2993.0 0.0003341 2787.51855 2892.53857
2847.0 0.000351 2788.30884 2893.39844
2897.0 0.0003452 2789.09985 2894.26782
2967.0 0.0003370 2789.89453 2895.13916
2954.0 0.0003385 2790.69165 2896.02002
2869.0 0.0003486 2791.49194 2896.90942
2901.0 0.0003447 2792.29370 2897.80469
2945.0 0.0003396 2793.10010 2898.70459
2920.0 0.0003425 2793.90820 2899.61353
2884.0 0.0003467 2794.71948 2900.52295
2905.0 0.0003442 2795.53296 2901.44067
2838.0 0.000352 2796.34888 2902.36816
2871.0 0.0003483 2797.16821 2903.30298
2898.0 0.0003451 2797.99023 2904.24268
2908.0 0.0003439 2798.81543 2905.19141
2845.0 0.000351 2799.64185 2906.14136
3030.0 0.0003300 2800.47119 2907.09766
2986.0 0.0003349 2801.30493 2908.05688
2900.0 0.0003448 2802.13892 2909.02563
2844.0 0.000352 2802.97583 2909.99512
2924.0 0.0003420 2803.81689 2910.97192
2990.0 0.0003344 2804.65991 2911.95654
2888.0 0.0003463 2805.50415 2912.94116
2932.0 0.0003411 2806.35254 2913.92676
2863.0 0.0003493 2807.20239 2914.91821
2930.0 0.0003413 2808.05566 2915.91187
2938.0 0.0003404 2808.91089 2916.90381
2975.0 0.0003361 2809.76709 2917.89526
2825.0 0.000354 2810.62671 2918.89404
2902.0 0.0003446 2811.48975 2919.88892
2855.0 0.0003503 2812.35400 2920.88062
2891.0 0.0003459 2813.21948 2921.87378
2938.0 0.0003404 2814.08716 2922.86670
2869.0 0.0003486 2814.95898 2923.86157
2895.0 0.0003454 2815.83081 2924.84058
2922.0 0.0003422 2816.70557 2925.82788
2942.0 0.0003399 2817.58276 2926.81128
3030.0 0.0003300 2818.46143 2927.78711
3029.0 0.0003301 2819.34106 2928.75757
2936.0 0.0003406 2820.22314 2929.72339
2930.0 0.0003413 2821.10742 2930.68530
2894.0 0.0003455 2821.99365 2931.63818
2945.0 0.0003396 2822.88086 2932.57959
2834.0 0.000353 2823.76978 2933.51929
2946.0 0.0003394 2824.66089 2934.44995
2919.0 0.0003426 2825.55273 2935.37305
2863.0 0.0003493 2826.44556 2936.28125
2979.0 0.0003357 2827.34033 2937.18018
2915.0 0.0003431 2828.23730 2938.07031
2949.0 0.0003391 2829.13428 2938.95190
2923.0 0.0003421 2830.03198 2939.81934
2876.0 0.0003477 2830.93213 2940.67822
2907.0 0.0003440 2831.83325 2941.52661
3034.0 0.0003296 2832.73389 2942.35840
2947.0 0.0003393 2833.63599 2943.18115
2959.0 0.0003380 2834.53906 2943.99170
2965.0 0.0003373 2835.44312 2944.78906
2978.0 0.0003358 2836.34814 2945.57568
2925.0 0.0003419 2837.25342 2946.34717
2949.0 0.0003391 2838.15942 2947.10791
2957.0 0.0003382 2839.06519 2947.85474
2967.0 0.0003370 2839.97095 2948.58496
2913.0 0.0003433 2840.87842 2949.30273
2951.0 0.0003389 2841.78589 2950.00977
2916.0 0.0003429 2842.69189 2950.69971
2881.0 0.0003471 2843.59888 2951.37476
2928.0 0.0003415 2844.50610 2952.03613
2965.0 0.0003373 2845.41235 2952.68164
2974.0 0.0003362 2846.32031 2953.31641
3009.0 0.0003323 2847.22583 2953.93311
2918.0 0.0003427 2848.13086 2954.53516
3005.0 0.0003328 2849.03687 2955.12378
2918.0 0.0003427 2849.94189 2955.69995
3052.0 0.0003277 2850.84619 2956.25586
3060.0 0.0003268 2851.74927 2956.79932
2958.0 0.0003381 2852.65161 2957.33179
2982.0 0.0003353 2853.55249 2957.84692
3030.0 0.0003300 2854.45337 2958.34302
2957.0 0.0003382 2855.35327 2958.83618
2972.0 0.0003365 2856.25195 2959.30859
2979.0 0.0003357 2857.14941 2959.76587
3073.0 0.0003254 2858.04419 2960.21362
2962.0 0.0003376 2858.93848 2960.64282
2946.0 0.0003394 2859.83057 2961.06616
2948.0 0.0003392 2860.72192 2961.47168
2997.0 0.0003337 2861.61011 2961.86548
2888.0 0.0003463 2862.49780 2962.25195
2896.0 0.0003453 2863.38354 2962.62866
2947.0 0.0003393 2864.26660 2962.99487
2954.0 0.0003385 2865.14771 2963.34863
2999.0 0.0003334 2866.02637 2963.69458
3042.0 0.0003287 2866.90430 2964.03320
2904.0 0.0003444 2867.77856 2964.36255
2957.0 0.0003382 2868.65063 2964.68872
2964.0 0.0003374 2869.52026 2965.00732
2905.0 0.0003442 2870.38623 2965.32349
3029.0 0.0003301 2871.25073 2965.63672
2966.0 0.0003372 2872.11230 2965.94263
3053.0 0.0003275 2872.97168 2966.24634
2962.0 0.0003376 2873.82690 2966.54980
2961.0 0.0003377 2874.67896 2966.84839
2962.0 0.0003376 2875.52930 2967.15063
3033.0 0.0003297 2876.37476 2967.45142
2948.0 0.0003392 2877.21753 2967.75293
2991.0 0.0003343 2878.05811 2968.05957
2974.0 0.0003362 2878.89331 2968.36768
2926.0 0.0003418 2879.72632 2968.67822
3002.0 0.0003331 2880.55640 2968.99316
2979.0 0.0003357 2881.38184 2969.31689
2949.0 0.0003391 2882.20313 2969.64404
2845.0 0.000351 2883.02246 2969.98218
2900.0 0.0003448 2883.83594 2970.32324
3000.0 0.0003333 2884.64697 2970.67310
2874.0 0.0003479 2885.45313 2971.03320
2926.0 0.0003418 2886.25610 2971.40381
2983.0 0.0003352 2887.05469 2971.78735
3051.0 0.0003278 2887.84937 2972.18335
2972.0 0.0003365 2888.64014 2972.59375
2961.0 0.0003377 2889.42578 2973.01367
2919.0 0.0003426 2890.20776 2973.44873
2948.0 0.0003392 2890.98511 2973.89966
3049.0 0.0003280 2891.75903 2974.36279
2998.0 0.0003336 2892.52832 2974.84497
2889.0 0.0003461 2893.29370 2975.34351
2971.0 0.0003366 2894.05273 2975.85669
2943.0 0.0003398 2894.80786 2976.39111
3054.0 0.0003274 2895.56030 2976.94189
2988.0 0.0003347 2896.30688 2977.51294
2978.0 0.0003358 2897.04834 2978.10693
2928.0 0.0003415 2897.78711 2978.72437
2967.0 0.0003370 2898.52051 2979.35474
3033.0 0.0003297 2899.24902 2980.00806
2912.0 0.0003434 2899.97290 2980.68457
2987.0 0.0003348 2900.69312 2981.38208
2962.0 0.0003376 2901.40723 2982.10498
2970.0 0.0003367 2902.11816 2982.84448
3002.0 0.0003331 2902.82471 2983.60815
2978.0 0.0003358 2903.52490 2984.39600
2943.0 0.0003398 2904.22290 2985.20605
2849.0 0.000351 2904.91504 2986.04297
2892.0 0.0003458 2905.60254 2986.90430
2956.0 0.0003383 2906.28589 2987.78198
3024.0 0.0003307 2906.96655 2988.68506
3010.0 0.0003322 2907.64014 2989.60742
2962.0 0.0003376 2908.31030 2990.55298
2959.0 0.0003380 2908.97729 2991.52393
2927.0 0.0003416 2909.63892 2992.51758
3020.0 0.0003311 2910.29639 2993.52881
2935.0 0.0003407 2910.95020 2994.56128
3021.0 0.0003310 2911.59937 2995.61572
2968.0 0.0003369 2912.24561 2996.69214
2887.0 0.0003464 2912.88647 2997.78638
2976.0 0.0003360 2913.52490 2998.89844
2994.0 0.0003340 2914.15918 3000.02954
3011.0 0.0003321 2914.79053 3001.17578
3006.0 0.0003327 2915.41724 3002.34277
2989.0 0.0003346 2916.03979 3003.52417
2974.0 0.0003362 2916.65991 3004.72290
2940.0 0.0003401 2917.27734 3005.93408
3005.0 0.0003328 2917.88989 3007.15771
2902.0 0.0003446 2918.50049 3008.39600
2974.0 0.0003362 2919.10913 3009.64502
2934.0 0.0003408 2919.71216 3010.90479
2977.0 0.0003359 2920.31543 3012.17334
3009.0 0.0003323 2920.91455 3013.45483
3020.0 0.0003311 2921.51196 3014.73999
2976.0 0.0003360 2922.10620 3016.03345
3036.0 0.0003294 2922.69946 3017.33423
3012.0 0.0003320 2923.29053 3018.63696
2950.0 0.0003390 2923.87939 3019.94165
2989.0 0.0003346 2924.46729 3021.25146
2995.0 0.0003339 2925.05273 3022.56128
3068.0 0.0003259 2925.63672 3023.86719
2992.0 0.0003342 2926.22021 3025.17700
3057.0 0.0003271 2926.80225 3026.48462
3092.0 0.0003234 2927.38477 3027.79224
3018.0 0.0003313 2927.96533 3029.09375
2966.0 0.0003372 2928.54639 3030.38892
3110.0 0.0003215 2929.12646 3031.67749
3038.0 0.0003292 2929.70679 3032.95825
3079.0 0.0003248 2930.28809 3034.23218
3037.0 0.0003293 2930.86963 3035.49878
2978.0 0.0003358 2931.45117 3036.74854
3045.0 0.0003284 2932.03369 3037.99365
3097.0 0.0003229 2932.61743 3039.22900
3033.0 0.0003297 2933.20190 3040.45117
3112.0 0.0003213 2933.78931 3041.65503
3109.0 0.0003216 2934.37793 3042.85059
3036.0 0.0003294 2934.96851 3044.03076
3007.0 0.0003326 2935.56128 3045.19678
2965.0 0.0003373 2936.15601 3046.34546
3071.0 0.0003256 2936.75562 3047.48145
3095.0 0.0003231 2937.35449 3048.59766
3024.0 0.0003307 2937.96069 3049.69653
3046.0 0.0003283 2938.56763 3050.78125
3049.0 0.0003280 2939.17920 3051.84595
3077.0 0.0003250 2939.79541 3052.89746
3126.0 0.0003199 2940.41528 3053.92920
3163.0 0.0003162 2941.04004 3054.94556
3054.0 0.0003274 2941.66870 3055.94214
3018.0 0.0003313 2942.30420 3056.92383
3043.0 0.0003286 2942.94312 3057.88794
3056.0 0.0003272 2943.58984 3058.83398
3149.0 0.0003176 2944.24146 3059.76489
3113.0 0.0003212 2944.89868 3060.67847
3072.0 0.0003255 2945.56323 3061.58081
3100.0 0.0003226 2946.23511 3062.46680
3024.0 0.0003307 2946.91382 3063.33618
3058.0 0.0003270 2947.59912 3064.19507
3028.0 0.0003303 2948.29248 3065.03296
3036.0 0.0003294 2948.99414 3065.86035
3090.0 0.0003236 2949.70239 3066.67969
3024.0 0.0003307 2950.42041 3067.48291
3077.0 0.0003250 2951.14722 3068.27539
3051.0 0.0003278 2951.88232 3069.06055
3117.0 0.0003208 2952.62793 3069.83667
3078.0 0.0003249 2953.38306 3070.59937
3078.0 0.0003249 2954.14624 3071.35474
3084.0 0.0003243 2954.92065 3072.10425
3170.0 0.0003155 2955.70581 3072.84985
3108.0 0.0003218 2956.50146 3073.58569
3069.0 0.0003258 2957.30786 3074.31445
3142.0 0.0003183 2958.12476 3075.04102
3018.0 0.0003313 2958.95386 3075.76392
3018.0 0.0003313 2959.79395 3076.48462
3078.0 0.0003249 2960.64746 3077.20068
2985.0 0.0003350 2961.51172 3077.91870
3051.0 0.0003278 2962.38892 3078.63281
3180.0 0.0003145 2963.27783 3079.35107
3068.0 0.0003259 2964.18066 3080.06641
3115.0 0.0003210 2965.09595 3080.78516
3042.0 0.0003287 2966.02344 3081.50708
3119.0 0.0003206 2966.96558 3082.23462
3186.0 0.0003139 2967.92114 3082.96558
3079.0 0.0003248 2968.88916 3083.70166
2998.0 0.0003336 2969.87378 3084.43921
3005.0 0.0003328 2970.87109 3085.18823
3068.0 0.0003259 2971.88184 3085.94312
3222.0 0.0003104 2972.90918 3086.70508
3091.0 0.0003235 2973.94897 3087.47778
3095.0 0.0003231 2975.00488 3088.25903
3175.0 0.0003150 2976.07495 3089.05005
3012.0 0.0003320 2977.15918 3089.85522
3175.0 0.0003150 2978.26050 3090.66602
3103.0 0.0003223 2979.37476 3091.49097
3137.0 0.0003188 2980.50513 3092.33154
3104.0 0.0003222 2981.65063 3093.18018
3145.0 0.0003180 2982.81104 3094.04614
3110.0 0.0003215 2983.98682 3094.92432
3126.0 0.0003199 2985.17822 3095.81665
3127.0 0.0003198 2986.38403 3096.72534
3197.0 0.0003128 2987.60718 3097.65308
3147.0 0.0003178 2988.84302 3098.59302
3122.0 0.0003203 2990.09497 3099.54590
3106.0 0.0003220 2991.36353 3100.51660
3095.0 0.0003231 2992.64404 3101.50244
3125.0 0.0003200 2993.94165 3102.50684
3154.0 0.0003171 2995.25244 3103.52783
3132.0 0.0003193 2996.58008 3104.56494
3148.0 0.0003177 2997.92139 3105.61841
3051.0 0.0003278 2999.27686 3106.68896
3107.0 0.0003219 3000.64551 3107.77515
3082.0 0.0003245 3002.02954 3108.88110
3060.0 0.0003268 3003.42627 3109.99976
3146.0 0.0003179 3004.83716 3111.13965
3112.0 0.0003213 3006.25952 3112.29199
3159.0 0.0003166 3007.69580 3113.46216
3123.0 0.0003202 3009.14526 3114.64282
3083.0 0.0003244 3010.60547 3115.84155
3065.0 0.0003263 3012.07739 3117.05396
3232.0 0.0003094 3013.56250 3118.28247
3052.0 0.0003277 3015.05762 3119.52271
3144.0 0.0003181 3016.56201 3120.77734
3069.0 0.0003258 3018.07813 3122.04736
3268.0 0.0003060 3019.60400 3123.33032
3150.0 0.0003175 3021.13696 3124.61841
3190.0 0.0003135 3022.68042 3125.92212
3156.0 0.0003169 3024.23218 3127.23535
3141.0 0.0003184 3025.79004 3128.55591
3154.0 0.0003171 3027.35547 3129.88818
3170.0 0.0003155 3028.92627 3131.22607
3082.0 0.0003245 3030.50317 3132.57373
3084.0 0.0003243 3032.08423 3133.92383
3206.0 0.0003119 3033.67163 3135.28198
3073.0 0.0003254 3035.25977 3136.64429
3108.0 0.0003218 3036.85107 3138.00781
3104.0 0.0003222 3038.44531 3139.37646
3122.0 0.0003203 3040.03931 3140.74170
3121.0 0.0003204 3041.63354 3142.11011
3055.0 0.0003273 3043.22729 3143.48120
3290.0 0.0003040 3044.82007 3144.84521
3148.0 0.0003177 3046.40894 3146.20459
3186.0 0.0003139 3047.99585 3147.56421
3201.0 0.0003124 3049.57886 3148.91479
3215.0 0.0003110 3051.15381 3150.25903
3179.0 0.0003146 3052.72437 3151.60010
3072.0 0.0003255 3054.28857 3152.92578
3126.0 0.0003199 3055.84302 3154.24561
3191.0 0.0003134 3057.38647 3155.54956
3110.0 0.0003215 3058.92065 3156.84155
3146.0 0.0003179 3060.44385 3158.11865
3095.0 0.0003231 3061.95239 3159.37915
3189.0 0.0003136 3063.44922 3160.62622
3175.0 0.0003150 3064.92871 3161.85327
3123.0 0.0003202 3066.39209 3163.05615
3166.0 0.0003159 3067.83862 3164.24268
3136.0 0.0003189 3069.26636 3165.40723
3258.0 0.0003069 3070.67212 3166.54565
3196.0 0.0003129 3072.05908 3167.65796
3172.0 0.0003153 3073.42139 3168.74512
3171.0 0.0003154 3074.75977 3169.80518
3186.0 0.0003139 3076.07446 3170.84033
3249.0 0.0003078 3077.36255 3171.83960
3123.0 0.0003202 3078.62256 3172.80957
3120.0 0.0003205 3079.85376 3173.75146
3154.0 0.0003171 3081.05542 3174.65552
3185.0 0.0003140 3082.22388 3175.52783
3166.0 0.0003159 3083.36035 3176.36035
3163.0 0.0003162 3084.46240 3177.15723
3149.0 0.0003176 3085.52881 3177.92090
3085.0 0.0003241 3086.55859 3178.64282
3193.0 0.0003132 3087.55005 3179.32739
3187.0 0.0003138 3088.50366 3179.97119
3145.0 0.0003180 3089.41602 3180.57202
3111.0 0.0003214 3090.28662 3181.13281
3191.0 0.0003134 3091.11499 3181.65259
3157.0 0.0003168 3091.89941 3182.12378
3110.0 0.0003215 3092.63843 3182.55200
3090.0 0.0003236 3093.33130 3182.94336
3233.0 0.0003093 3093.97729 3183.28418
3084.0 0.0003243 3094.57397 3183.57959
3204.0 0.0003121 3095.12280 3183.83057
3151.0 0.0003174 3095.62231 3184.03296
3167.0 0.0003158 3096.07031 3184.19067
3175.0 0.0003150 3096.46655 3184.30371
3127.0 0.0003198 3096.81128 3184.36646
3137.0 0.0003188 3097.10278 3184.38672
3184.0 0.0003141 3097.34033 3184.35571
3155.0 0.0003170 3097.52417 3184.27563
3237.0 0.0003089 3097.65356 3184.15723
3070.0 0.0003257 3097.72852 3183.99023
3136.0 0.0003189 3097.74878 3183.77783
3246.0 0.0003081 3097.71338 3183.52100
3156.0 0.0003169 3097.62402 3183.21875
3250.0 0.0003077 3097.47998 3182.87598
3148.0 0.0003177 3097.28101 3182.49023
3174.0 0.0003151 3097.02832 3182.06226
3082.0 0.0003245 3096.72119 3181.59546
3260.0 0.0003067 3096.36230 3181.08740
3152.0 0.0003173 3095.95117 3180.54565
3181.0 0.0003144 3095.48853 3179.96655
3144.0 0.0003181 3094.97705 3179.35596
3181.0 0.0003144 3094.41675 3178.71460
3131.0 0.0003194 3093.81006 3178.04077
3138.0 0.0003187 3093.15771 3177.34106
3137.0 0.0003188 3092.46338 3176.61719
3314.0 0.0003018 3091.72876 3175.86938
3173.0 0.0003152 3090.95483 3175.10791
3222.0 0.0003104 3090.14551 3174.32788
3159.0 0.0003166 3089.30444 3173.53589
3250.0 0.0003077 3088.43262 3172.73486
3181.0 0.0003144 3087.53589 3171.93188
3216.0 0.0003109 3086.61841 3171.12842
3140.0 0.0003185 3085.68140 3170.32837
3104.0 0.0003222 3084.73291 3169.53955
3124.0 0.0003201 3083.77466 3168.76270
3205.0 0.0003120 3082.81445 3168.00659
3223.0 0.0003103 3081.85547 3167.27979
3148.0 0.0003177 3080.90527 3166.58081
3122.0 0.0003203 3079.97021 3165.92065
3177.0 0.0003148 3079.05566 3165.30786
3165.0 0.0003160 3078.17065 3164.74585
3188.0 0.0003137 3077.32153 3164.24902
3170.0 0.0003155 3076.51587 3163.81665
3148.0 0.0003177 3075.76440 3163.46143
3209.0 0.0003116 3075.07520 3163.19531
3173.0 0.0003152 3074.45679 3163.02466
3261.0 0.0003067 3073.92017 3162.95996
3139.0 0.0003186 3073.47778 3163.01099
3219.0 0.0003107 3073.13843 3163.18921
3228.0 0.0003098 3072.91626 3163.51147
3232.0 0.0003094 3072.82178 3163.98291
3202.0 0.0003123 3072.87012 3164.61914
3095.0 0.0003231 3073.07471 3165.43213
3076.0 0.0003251 3073.44995 3166.44189
3233.0 0.0003093 3074.01074 3167.66040
3206.0 0.0003119 3074.77466 3169.09912
3263.0 0.0003065 3075.75854 3170.77881
3198.0 0.0003127 3076.98022 3172.71997
3201.0 0.0003124 3078.45679 3174.93408
3162.0 0.0003163 3080.20947 3177.44507
3224.0 0.0003102 3082.25757 3180.26440
3221.0 0.0003105 3084.62646 3183.42310
3237.0 0.0003089 3087.33179 3186.93579
3226.0 0.0003100 3090.40063 3190.82520
3131.0 0.0003194 3093.86206 3195.13013
3166.0 0.0003159 3097.73193 3199.85156
3176.0 0.0003149 3102.04224 3205.02930
3135.0 0.0003190 3106.82202 3210.68579
3201.0 0.0003124 3112.10010 3216.85327
3262.0 0.0003066 3117.90112 3223.55200
3240.0 0.0003086 3124.26611 3230.82520
3242.0 0.0003085 3131.22241 3238.69897
3242.0 0.0003085 3138.80518 3247.20386
3368.0 0.0002969 3147.04321 3256.37012
3200.0 0.0003125 3155.98633 3266.24805
3321.0 0.0003011 3165.66675 3276.86719
3267.0 0.0003061 3176.11670 3288.25586
3276.0 0.0003053 3187.39478 3300.47559
3244.0 0.0003083 3199.53394 3313.55664
3300.0 0.0003030 3212.57153 3327.53491
3276.0 0.0003053 3226.58350 3342.48438
3378.0 0.0002960 3241.57813 3358.41162
3276.0 . . .
3257.0 . . .
3215.0 . . .
3279.0 . . .
3326.0 . . .
3297.0 . . .
3286.0 . . .
3349.0 . . .
3300.0 . . .
3387.0 . . .
3249.0 . . .
3282.0 . . .
3254.0 . . .
3249.0 . . .
3340.0 . . .
3255.0 . . .
3415.0 . . .
3346.0 . . .
3410.0 . . .
3431.0 . . .
3342.0 . . .
3390.0 . . .
3341.0 . . .
3367.0 . . .
3398.0 . . .
3455.0 . . .
3416.0 . . .
3390.0 . . .
3365.0 . . .
3305.0 . . .
3298.0 . . .
3279.0 . . .
loop_
_refln_index_h
_refln_index_k
_refln_index_l
_pd_refln_wavelength_id
_refln_observed_status
_refln_F_squared_meas
_refln_F_squared_calc
_refln_phase_calc
_refln_d_spacing
_gsas_i100_meas
2 0 0 1 o 1229.642 1226.690 0.00 7.36281 43.66
2 0 0 2 o 1225.229 1226.690 0.00 7.36281 21.64
1 1 0 1 o 299.897 303.435 0.00 7.08097 14.41
1 1 0 2 o 301.250 303.435 0.00 7.08097 7.20
2 1 0 1 o 6.341 2.386 0.00 5.44098 0.20
2 1 0 2 o 6.390 2.386 0.00 5.44098 0.10
2 0 -1 1 o 3044.521 3038.583 180.00 4.80255 46.60
2 0 -1 2 o 3042.865 3038.583 180.00 4.80255 23.17
0 0 1 1 o 1210.936 1213.274 180.00 4.67589 16.54
0 0 1 2 o 1176.568 1213.274 180.00 4.67589 7.99
1 1 -1 1 o 33.306 29.010 180.00 4.25367 0.70
1 1 -1 2 o 33.056 29.010 180.00 4.25367 0.34
3 1 0 1 o 208.726 211.146 180.00 4.19454 4.31
3 1 0 2 o 208.131 211.146 180.00 4.19454 2.14
2 1 -1 1 o 354.177 362.628 0.00 4.12782 7.08
2 1 -1 2 o 355.975 362.628 0.00 4.12782 3.54
0 1 1 1 o 480.029 470.111 0.00 4.04657 9.32
0 2 0 1 o 5210.601 5144.454 180.00 4.03798 51.87
0 1 1 2 o 475.721 470.111 0.00 4.04657 4.59
0 2 0 2 o 5180.310 5144.454 180.00 4.03798 25.65
1 2 0 1 o 2321.270 2298.091 180.00 3.89422 38.16
1 2 0 2 o 2307.163 2298.091 180.00 3.89422 18.87
3 1 -1 1 o 267.233 291.350 180.00 3.74415 4.47
3 1 -1 2 o 268.703 291.350 180.00 3.74415 2.24
4 0 0 1 o 517.898 520.951 180.00 3.68141 4.44
4 0 0 2 o 535.987 520.951 180.00 3.68141 2.28
1 1 1 1 o 2166.419 2143.544 0.00 3.62512 34.92
1 1 1 2 o 2186.799 2143.544 0.00 3.62512 17.53
4 0 -1 1 o 166.860 152.405 0.00 3.58359 1.31
4 0 -1 2 o 165.719 152.405 0.00 3.58359 0.65
2 2 0 1 o 144.130 136.657 180.00 3.54049 1.63
2 2 0 2 o 143.973 136.657 180.00 3.54049 0.81
2 0 1 1 o 0.334 0.329 0.00 3.42975 0.00
2 0 1 2 o 0.341 0.329 0.00 3.42975 0.00
4 1 0 1 o 2894.705 2856.791 0.00 3.34978 39.18
4 1 0 2 o 2880.008 2856.791 0.00 3.34978 19.39
4 1 -1 1 o 219.770 218.013 0.00 3.27559 2.81
4 1 -1 2 o 220.055 218.013 0.00 3.27559 1.40
2 1 1 1 o 162.353 171.008 180.00 3.15686 1.96
2 1 1 2 o 166.623 171.008 180.00 3.15686 1.00
1 2 -1 1 o 7570.498 7629.954 0.00 3.14246 100.00
1 2 -1 2 o 7635.400 7629.954 0.00 3.14246 50.15
3 2 0 1 o 425.983 433.305 0.00 3.11839 3.72
3 2 0 2 o 425.469 433.305 0.00 3.11839 1.85
2 2 -1 1 o 8227.594 8250.755 0.00 3.09068 98.07
2 2 -1 2 o 8218.100 8250.755 0.00 3.09068 48.72
0 2 1 1 o 200.199 203.190 0.00 3.05613 2.55
0 2 1 2 o 199.141 203.190 0.00 3.05613 1.26
3 2 -1 1 o 5730.084 5574.432 0.00 2.91940 56.58
3 2 -1 2 o 5657.950 5574.432 0.00 2.91940 27.79
1 2 1 1 o 657.856 640.305 180.00 2.86191 7.10
1 2 1 2 o 655.407 640.305 180.00 2.86191 3.52
5 1 -1 1 o 759.945 767.329 180.00 2.83647 7.06
5 1 -1 2 o 762.884 767.329 180.00 2.83647 3.52
3 1 1 1 o 27.641 25.000 0.00 2.73368 0.25
5 1 0 1 o 557.402 588.772 0.00 2.76688 5.09
3 1 1 2 o 26.753 25.000 0.00 2.73368 0.12
5 1 0 2 o 577.984 588.772 0.00 2.76688 2.62
4 2 0 1 o 180.454 170.946 180.00 2.72049 1.29
4 2 0 2 o 180.704 170.946 180.00 2.72049 0.64
4 2 -1 1 o 214.226 250.796 180.00 2.68029 1.70
4 2 -1 2 o 214.672 250.796 180.00 2.68029 0.85
1 3 0 1 o 91.253 103.583 180.00 2.64810 0.70
1 3 0 2 o 92.335 103.583 180.00 2.64810 0.35
2 2 1 1 o 18.928 23.280 180.00 2.61407 0.15
2 2 1 2 o 19.827 23.280 180.00 2.61407 0.08
6 0 -1 1 o 743.077 738.289 180.00 2.58826 2.76
6 0 -1 2 o 773.299 738.289 180.00 2.58826 1.42
2 3 0 1 o 1515.260 1415.683 0.00 2.52830 9.12
2 3 0 2 o 1520.165 1415.683 0.00 2.52830 4.55
2 0 -2 1 o 481.564 442.567 180.00 2.50202 1.81
2 0 -2 2 o 450.130 442.567 180.00 2.50202 0.84
4 0 1 1 o 201.837 208.069 180.00 2.49085 0.77
4 0 1 2 o 191.579 208.069 180.00 2.49085 0.36
6 1 -1 1 o 99.937 112.932 180.00 2.46477 0.67
6 1 -1 2 o 107.182 112.932 180.00 2.46477 0.36
6 0 0 1 o 2001.546 2010.454 180.00 2.45427 7.03
6 0 0 2 o 2040.387 2010.454 180.00 2.45427 3.56
5 2 -1 1 o 0.315 0.341 180.00 2.42329 0.00
5 2 -1 2 o 0.337 0.341 180.00 2.42329 0.00
4 0 -2 1 o 909.262 929.048 180.00 2.40128 3.13
4 0 -2 2 o 890.640 929.048 180.00 2.40128 1.53
2 1 -2 1 o 488.999 511.160 180.00 2.38995 3.02
2 1 -2 2 o 497.877 511.160 180.00 2.38995 1.53
4 1 1 1 o 217.183 219.624 0.00 2.38021 1.50
5 2 0 1 o 0.050 0.051 180.00 2.37947 0.00
3 1 -2 1 o 768.423 763.128 180.00 2.37487 4.76
4 1 1 2 o 221.493 219.624 0.00 2.38021 0.76
5 2 0 2 o 0.051 0.051 180.00 2.37947 0.00
1 3 -1 1 o 0.791 0.775 180.00 2.37071 0.01
3 1 -2 2 o 782.759 763.128 180.00 2.37487 2.41
1 3 -1 2 o 0.802 0.775 180.00 2.37071 0.00
3 3 0 1 o 137.099 132.933 0.00 2.36032 0.64
3 2 1 1 o 91.764 89.458 0.00 2.35825 0.59
3 3 0 2 o 134.839 132.933 0.00 2.36032 0.31
3 2 1 2 o 90.341 89.458 0.00 2.35825 0.29
2 3 -1 1 o 1117.057 1110.986 0.00 2.34824 7.54
6 1 0 1 o 5486.665 5456.994 180.00 2.34823 34.79
1 1 -2 1 o 2078.381 2076.473 0.00 2.34361 12.19
2 3 -1 2 o 1109.841 1110.986 0.00 2.34824 3.73
6 1 0 2 o 5451.289 5456.994 180.00 2.34823 17.19
0 0 2 1 o 55.330 55.901 180.00 2.33795 0.16
1 1 -2 2 o 2054.143 2076.473 0.00 2.34361 5.99
0 3 1 1 o 383.562 389.465 0.00 2.33298 2.84
0 0 2 2 o 55.120 55.901 180.00 2.33795 0.08
0 3 1 2 o 388.132 389.465 0.00 2.33298 1.43
4 1 -2 1 o 212.390 240.635 0.00 2.30169 1.26
4 1 -2 2 o 201.669 240.635 0.00 2.30169 0.60
3 3 -1 1 o 81.018 111.881 0.00 2.27042 0.47
3 3 -1 2 o 82.519 111.881 0.00 2.27042 0.24
0 1 2 1 o 554.981 629.103 180.00 2.24573 2.94
1 3 1 1 o 6.111 6.917 180.00 2.24306 0.04
0 1 2 2 o 554.509 629.103 180.00 2.24573 1.46
1 3 1 2 o 6.083 6.917 180.00 2.24306 0.02
5 1 -2 1 o 324.891 309.574 180.00 2.18511 1.72
5 1 -2 2 o 327.333 309.574 180.00 2.18511 0.86
6 2 -1 1 o 1136.715 1072.310 180.00 2.17905 5.65
6 2 -1 2 o 1167.705 1072.310 180.00 2.17905 2.88
4 3 0 1 o 297.680 272.297 0.00 2.17300 1.13
4 3 0 2 o 307.428 272.297 0.00 2.17300 0.58
7 1 -1 1 o 311.682 263.325 0.00 2.16096 1.54
7 1 -1 2 o 320.927 263.325 0.00 2.16096 0.79
4 3 -1 1 o 20.557 16.657 0.00 2.15235 0.10
2 2 -2 1 o 126.831 107.837 180.00 2.12683 0.57
4 3 -1 2 o 21.122 16.657 0.00 2.15235 0.05
2 2 -2 2 o 115.831 107.837 180.00 2.12683 0.26
4 2 1 1 o 1257.073 1191.735 180.00 2.11996 6.32
2 3 1 1 o 296.716 285.844 0.00 2.11760 1.53
3 2 -2 1 o 4.686 4.525 0.00 2.11618 0.02
4 2 1 2 o 1232.090 1191.735 180.00 2.11996 3.08
1 1 2 1 o 9.270 8.966 180.00 2.11420 0.04
6 0 -2 1 o 186.308 179.292 180.00 2.11286 0.46
2 3 1 2 o 297.869 285.844 0.00 2.11760 0.76
3 2 -2 2 o 4.763 4.525 0.00 2.11618 0.01
1 1 2 2 o 9.509 8.966 180.00 2.11420 0.02
6 0 -2 2 o 191.701 179.292 180.00 2.11286 0.24
6 2 0 1 o 8.567 8.291 0.00 2.09727 0.04
1 2 -2 1 o 419.691 413.303 180.00 2.09398 1.85
5 1 1 1 o 1347.599 1330.745 180.00 2.09231 7.11
6 2 0 2 o 8.394 8.291 0.00 2.09727 0.02
1 2 -2 2 o 422.495 413.303 180.00 2.09398 0.93
5 1 1 2 o 1377.041 1330.745 180.00 2.09231 3.61
4 2 -2 1 o 211.072 164.195 180.00 2.06391 0.92
4 2 -2 2 o 202.989 164.195 180.00 2.06391 0.44
6 1 -2 1 o 122.647 123.808 180.00 2.04407 0.56
6 1 -2 2 o 115.697 123.808 180.00 2.04407 0.26
7 1 0 1 o 618.556 663.984 180.00 2.03573 2.84
7 1 0 2 o 643.519 663.984 180.00 2.03573 1.47
2 0 2 1 o 1572.339 1583.241 180.00 2.02839 3.20
2 0 2 2 o 1643.297 1583.241 180.00 2.02839 1.66
0 2 2 1 o 87.073 83.843 0.00 2.02328 0.36
0 4 0 1 o 273.966 254.295 180.00 2.01899 0.59
0 2 2 2 o 90.835 83.843 0.00 2.02328 0.19
0 4 0 2 o 287.680 254.295 180.00 2.01899 0.31
5 3 -1 1 o 88.382 76.931 180.00 2.01230 0.35
5 3 -1 2 o 89.857 76.931 180.00 2.01230 0.18
1 4 0 1 o 30.860 26.640 0.00 2.00028 0.13
1 4 0 2 o 30.710 26.640 0.00 2.00028 0.06
5 3 0 1 o 199.569 183.695 180.00 1.98700 0.65
5 3 0 2 o 197.647 183.695 180.00 1.98700 0.32
5 2 -2 1 o 38.673 36.896 180.00 1.97861 0.15
3 3 1 1 o 54.804 56.079 0.00 1.97459 0.22
5 2 -2 2 o 35.428 36.896 180.00 1.97861 0.07
8 0 -1 1 o 229.908 259.128 0.00 1.97038 0.45
3 3 1 2 o 49.005 56.079 0.00 1.97459 0.10
2 1 2 1 o 18.613 22.324 0.00 1.96729 0.07
8 0 -1 2 o 210.204 259.128 0.00 1.97038 0.20
2 1 2 2 o 17.519 22.324 0.00 1.96729 0.03
7 2 -1 1 o 82.849 106.351 180.00 1.96063 0.32
7 2 -1 2 o 82.131 106.351 180.00 1.96063 0.16
2 4 0 1 o 302.660 379.872 180.00 1.94711 1.06
2 4 0 2 o 316.073 379.872 180.00 1.94711 0.55
1 2 2 1 o 212.756 222.650 0.00 1.92551 0.82
1 2 2 2 o 210.559 222.650 0.00 1.92551 0.40
8 1 -1 1 o 474.995 517.588 0.00 1.91423 1.75
6 0 1 1 o 366.978 397.989 0.00 1.90958 0.79
8 1 -1 2 o 477.168 517.588 0.00 1.91423 0.88
5 2 1 1 o 627.901 679.862 0.00 1.90892 2.51
6 0 1 2 o 375.720 397.989 0.00 1.90958 0.40
5 2 1 2 o 645.259 679.862 0.00 1.90892 1.28
7 1 -2 1 o 118.917 108.468 180.00 1.89504 0.45
7 1 -2 2 o 123.416 108.468 180.00 1.89504 0.23
1 4 -1 1 o 290.312 307.035 0.00 1.87233 1.22
6 2 -2 1 o 629.857 666.982 0.00 1.87207 2.22
1 4 -1 2 o 281.841 307.035 0.00 1.87233 0.59
6 2 -2 2 o 612.316 666.982 0.00 1.87207 1.07
3 4 0 1 o 7.844 8.555 0.00 1.86721 0.02
6 3 -1 1 o 440.731 483.037 0.00 1.86577 1.45
7 2 0 1 o 157.815 172.966 180.00 1.86566 0.56
3 4 0 2 o 7.808 8.555 0.00 1.86721 0.01
2 4 -1 1 o 984.583 1074.707 180.00 1.86121 3.81
6 3 -1 2 o 442.331 483.037 0.00 1.86577 0.72
7 2 0 2 o 158.480 172.966 180.00 1.86566 0.28
6 1 1 1 o 41.250 44.405 0.00 1.85833 0.16
2 4 -1 2 o 1008.754 1074.707 180.00 1.86121 1.94
6 1 1 2 o 42.667 44.405 0.00 1.85833 0.08
0 4 1 1 o 3.973 4.135 0.00 1.85358 0.02
0 4 1 2 o 4.180 4.135 0.00 1.85358 0.01
8 0 0 1 o 1176.682 1072.673 180.00 1.84070 2.09
8 0 0 2 o 1152.135 1072.673 180.00 1.84070 1.02
3 4 -1 2 o 1167.168 1160.172 180.00 1.82174 1.99
2 3 -2 1 o 63.353 61.818 180.00 1.83268 0.22
3 1 2 2 o 248.749 245.111 180.00 1.81888 0.39
6 3 0 1 o 149.027 146.815 180.00 1.81366 0.42
2 2 2 1 o 778.889 768.657 0.00 1.81256 2.62
1 3 -2 1 o 0.552 0.547 0.00 1.81153 0.00
4 3 1 1 o 823.773 842.966 180.00 1.82827 2.67
2 3 -2 2 o 60.384 61.818 180.00 1.83268 0.11
6 3 0 2 o 146.622 146.815 180.00 1.81366 0.20
2 2 2 2 o 763.162 768.657 0.00 1.81256 1.28
3 3 -2 1 o 90.511 93.490 0.00 1.82585 0.31
1 4 1 1 o 1308.879 1322.166 0.00 1.80751 4.95
1 3 -2 2 o 0.540 0.547 0.00 1.81153 0.00
4 3 1 2 o 818.106 842.966 180.00 1.82827 1.32
3 4 -1 1 o 1136.556 1160.172 180.00 1.82174 3.89
3 3 -2 2 o 91.761 93.490 0.00 1.82585 0.16
1 4 1 2 o 1302.949 1322.166 0.00 1.80751 2.45
3 1 2 1 o 244.356 245.111 180.00 1.81888 0.78
8 1 0 1 o 208.706 198.521 180.00 1.79468 0.70
4 3 -2 1 o 12.566 11.810 0.00 1.79196 0.04
8 0 -2 1 o 1316.267 1233.960 180.00 1.79179 2.15
8 1 0 2 o 212.730 198.521 180.00 1.79468 0.36
4 3 -2 2 o 12.753 11.810 0.00 1.79196 0.02
8 0 -2 2 o 1336.639 1233.960 180.00 1.79179 1.08
8 2 -1 1 o 20.540 17.778 180.00 1.77081 0.06
4 4 0 1 o 200.268 174.389 180.00 1.77024 0.47
8 2 -1 2 o 19.320 17.778 180.00 1.77081 0.03
4 4 0 2 o 188.060 174.389 180.00 1.77024 0.22
0 3 2 1 o 347.441 325.272 180.00 1.76517 1.17
0 3 2 2 o 333.916 325.272 180.00 1.76517 0.56
4 4 -1 1 o 253.342 247.215 0.00 1.75903 0.75
7 2 -2 1 o 1636.099 1577.888 180.00 1.75558 4.99
4 4 -1 2 o 257.312 247.215 0.00 1.75903 0.38
7 2 -2 2 o 1677.046 1577.888 180.00 1.75558 2.54
8 1 -2 1 o 0.592 0.551 180.00 1.74926 0.00
8 1 -2 2 o 0.636 0.551 180.00 1.74926 0.00
2 4 1 1 o 60.485 47.139 0.00 1.73991 0.19
2 4 1 2 o 61.130 47.139 0.00 1.73991 0.09
5 3 -2 1 o 187.203 144.197 180.00 1.73527 0.55
5 3 -2 2 o 182.338 144.197 180.00 1.73527 0.27
6 2 1 1 o 20.959 17.407 180.00 1.72628 0.07
7 3 -1 1 o 67.681 59.145 0.00 1.72310 0.18
6 2 1 2 o 19.378 17.407 180.00 1.72628 0.03
7 3 -1 2 o 61.495 59.145 0.00 1.72310 0.08
4 0 2 1 o 850.742 870.370 0.00 1.71488 1.16
9 1 -1 1 o 604.714 629.041 0.00 1.71275 1.71
4 0 2 2 o 830.118 870.370 0.00 1.71488 0.56
9 1 -1 2 o 599.348 629.041 0.00 1.71275 0.84
1 3 2 1 o 57.352 58.597 0.00 1.69912 0.18
1 3 2 2 o 57.495 58.597 0.00 1.69912 0.09
3 2 2 1 o 1110.367 1131.920 0.00 1.69451 3.20
3 2 2 2 o 1103.641 1131.920 0.00 1.69451 1.58
5 3 1 1 o 6.145 6.332 180.00 1.68769 0.02
5 3 1 2 o 6.183 6.332 180.00 1.68769 0.01
5 4 -1 1 o 693.316 697.693 180.00 1.68007 1.75
4 1 2 1 o 34.308 33.944 0.00 1.67747 0.09
5 4 -1 2 o 712.982 697.693 180.00 1.68007 0.89
8 2 0 1 o 585.819 568.687 0.00 1.67489 1.61
4 1 2 2 o 35.421 33.944 0.00 1.67747 0.05
8 2 0 2 o 605.072 568.687 0.00 1.67489 0.83
7 1 1 1 o 242.428 221.454 180.00 1.66682 0.75
4 0 -3 1 o 11.857 10.732 180.00 1.66560 0.02
5 4 0 1 o 23.909 21.557 0.00 1.66526 0.05
7 1 1 2 o 248.875 221.454 180.00 1.66682 0.38
6 3 -2 1 o 28.996 25.724 180.00 1.66206 0.08
4 0 -3 2 o 12.155 10.732 180.00 1.66560 0.01
5 4 0 2 o 24.502 21.557 0.00 1.66526 0.02
6 3 -2 2 o 29.361 25.724 180.00 1.66206 0.04
3 4 1 1 o 86.851 76.034 0.00 1.65793 0.22
7 3 0 1 o 118.905 104.022 0.00 1.65757 0.28
3 4 1 2 o 84.872 76.034 0.00 1.65793 0.11
7 3 0 2 o 115.629 104.022 0.00 1.65757 0.14
2 0 -3 1 o 2.010 1.993 0.00 1.64934 0.00
2 0 -3 2 o 1.803 1.993 0.00 1.64934 0.00
8 2 -2 1 o 92.408 109.821 0.00 1.63779 0.24
8 2 -2 2 o 88.766 109.821 0.00 1.63779 0.11
3 1 -3 1 o 75.295 93.601 0.00 1.63354 0.20
4 1 -3 1 o 180.707 227.689 0.00 1.63127 0.48
3 1 -3 2 o 74.563 93.601 0.00 1.63354 0.10
4 1 -3 2 o 188.785 227.689 0.00 1.63127 0.25
2 3 2 1 o 111.759 109.874 0.00 1.61999 0.31
9 2 -1 2 o 247.055 235.483 180.00 1.60771 0.30
9 1 0 1 o 3.942 3.753 0.00 1.60360 0.01
2 3 2 2 o 116.512 109.874 0.00 1.61999 0.16
2 1 -3 1 o 17.151 16.210 180.00 1.61599 0.04
1 5 0 2 o 12.763 12.213 180.00 1.60556 0.02
6 0 -3 1 o 22.769 21.895 0.00 1.60085 0.03
9 1 0 2 o 3.878 3.753 0.00 1.60360 0.01
9 1 -2 1 o 158.460 150.188 0.00 1.61295 0.39
2 1 -3 2 o 17.013 16.210 180.00 1.61599 0.02
6 0 -3 2 o 21.891 21.895 0.00 1.60085 0.01
5 1 -3 1 o 2.626 2.513 180.00 1.60944 0.01
9 1 -2 2 o 157.066 150.188 0.00 1.61295 0.19
9 2 -1 1 o 246.280 235.483 180.00 1.60771 0.60
6 4 -1 1 o 403.272 422.841 0.00 1.59193 0.87
1 5 0 1 o 12.800 12.213 180.00 1.60556 0.03
5 1 -3 2 o 2.632 2.513 180.00 1.60944 0.00
8 3 -1 1 o 1909.211 1999.118 180.00 1.58998 4.31
6 4 -1 2 o 407.887 422.841 0.00 1.59193 0.44
8 3 -1 2 o 1959.060 1999.118 180.00 1.58998 2.20
1 1 -3 1 o 0.540 0.519 180.00 1.58047 0.00
7 3 -2 1 o 33.193 31.283 0.00 1.57893 0.08
4 2 2 1 o 4.306 4.047 0.00 1.57843 0.01
2 5 0 1 o 46.688 43.557 0.00 1.57768 0.10
1 1 -3 2 o 0.557 0.519 180.00 1.58047 0.00
10 0 -1 1 o 780.681 722.798 0.00 1.57571 0.88
7 3 -2 2 o 33.880 31.283 0.00 1.57893 0.04
4 2 2 2 o 4.378 4.047 0.00 1.57843 0.01
2 5 0 2 o 47.267 43.557 0.00 1.57768 0.05
10 0 -1 2 o 783.018 722.798 0.00 1.57571 0.44
2 4 -2 1 o 963.169 890.127 0.00 1.57123 2.54
6 1 -3 1 o 507.969 469.756 180.00 1.57030 1.24
7 2 1 1 o 0.308 0.279 180.00 1.56955 0.00
4 4 1 1 o 681.262 633.788 0.00 1.56845 1.42
2 4 -2 2 o 951.701 890.127 0.00 1.57123 1.25
3 4 -2 1 o 912.007 854.740 0.00 1.56692 2.32
6 1 -3 2 o 500.154 469.756 180.00 1.57030 0.61
7 2 1 2 o 0.301 0.279 180.00 1.56955 0.00
4 4 1 2 o 667.014 633.788 0.00 1.56845 0.69
3 4 -2 2 o 890.853 854.740 0.00 1.56692 1.13
6 4 0 1 o 3.213 3.158 0.00 1.55920 0.01
0 0 3 1 o 3838.937 3786.733 0.00 1.55863 4.47
1 4 -2 1 o 464.887 461.139 0.00 1.55784 1.24
6 3 1 1 o 4.961 4.934 180.00 1.55751 0.01
6 4 0 2 o 3.126 3.158 0.00 1.55920 0.00
0 0 3 2 o 3733.170 3786.733 0.00 1.55863 2.16
1 4 -2 2 o 452.317 461.139 0.00 1.55784 0.60
6 3 1 2 o 4.835 4.934 180.00 1.55751 0.01
5 1 2 1 o 16.524 16.940 180.00 1.54726 0.04
10 1 -1 1 o 166.842 170.765 180.00 1.54654 0.37
4 4 -2 1 o 1122.377 1148.448 0.00 1.54534 2.66
5 1 2 2 o 16.434 16.940 180.00 1.54726 0.02
10 1 -1 2 o 164.924 170.765 180.00 1.54654 0.18
3 2 -3 1 o 11.600 12.149 0.00 1.54166 0.03
4 4 -2 2 o 1097.776 1148.448 0.00 1.54534 1.30
4 2 -3 1 o 3.406 3.620 0.00 1.53976 0.01
3 2 -3 2 o 11.185 12.149 0.00 1.54166 0.01
1 5 -1 1 o 10.198 11.109 0.00 1.53710 0.03
4 2 -3 2 o 3.317 3.620 0.00 1.53976 0.00
8 0 1 1 o 36.854 40.437 0.00 1.53540 0.05
3 5 0 1 o 23.200 25.628 180.00 1.53426 0.04
3 3 2 1 o 0.011 0.012 0.00 1.53406 0.00
1 5 -1 2 o 9.960 11.109 0.00 1.53710 0.01
8 0 1 2 o 35.608 40.437 0.00 1.53540 0.02
2 5 -1 1 o 23.187 26.611 0.00 1.53093 0.05
3 5 0 2 o 22.140 25.628 180.00 1.53426 0.02
0 1 3 1 o 1.445 1.666 0.00 1.53039 0.00
3 3 2 2 o 0.011 0.012 0.00 1.53406 0.00
0 4 2 1 o 3.014 3.649 0.00 1.52806 0.01
2 5 -1 2 o 21.717 26.611 0.00 1.53093 0.03
2 2 -3 1 o 12.479 15.347 180.00 1.52688 0.03
0 5 1 1 o 193.445 239.242 0.00 1.52667 0.49
0 1 3 2 o 1.360 1.666 0.00 1.53039 0.00
9 2 -2 1 o 38.789 48.760 0.00 1.52432 0.08
0 4 2 2 o 2.908 3.649 0.00 1.52806 0.00
2 2 -3 2 o 12.269 15.347 180.00 1.52688 0.01
0 5 1 2 o 190.755 239.242 0.00 1.52667 0.24
5 2 -3 1 o 83.894 104.292 180.00 1.52136 0.18
9 2 -2 2 o 39.420 48.760 0.00 1.52432 0.04
8 3 0 1 o 146.384 179.208 180.00 1.51946 0.29
5 2 -3 2 o 87.029 104.292 180.00 1.52136 0.09
7 1 -3 1 o 222.469 266.591 180.00 1.51750 0.50
9 2 0 1 o 42.532 50.124 0.00 1.51642 0.09
8 3 0 2 o 153.477 179.208 180.00 1.51946 0.15
10 0 -2 1 o 244.233 280.730 0.00 1.51474 0.26
7 1 -3 2 o 235.389 266.591 180.00 1.51750 0.26
9 2 0 2 o 45.061 50.124 0.00 1.51642 0.05
10 0 -2 2 o 257.906 280.730 0.00 1.51474 0.14
3 5 -1 1 o 35.781 38.442 180.00 1.50874 0.08
5 4 -2 1 o 700.218 751.799 0.00 1.50855 1.51
8 1 1 1 o 0.026 0.029 0.00 1.50838 0.00
3 5 -1 2 o 34.368 38.442 180.00 1.50874 0.04
5 4 -2 2 o 670.394 751.799 0.00 1.50855 0.72
8 1 1 2 o 0.024 0.029 0.00 1.50838 0.00
1 5 1 1 o 151.356 184.116 180.00 1.50063 0.36
7 4 -1 1 o 0.354 0.430 0.00 1.50053 0.00
1 5 1 2 o 152.613 184.116 180.00 1.50063 0.18
7 4 -1 2 o 0.357 0.430 0.00 1.50053 0.00
1 2 -3 1 o 344.425 414.424 180.00 1.49682 0.68
1 2 -3 2 o 374.826 414.424 180.00 1.49682 0.37
8 3 -2 1 o 24.519 25.943 180.00 1.49159 0.05
10 1 -2 1 o 6.151 6.046 180.00 1.48877 0.01
6 2 -3 1 o 327.068 317.768 180.00 1.48817 0.66
8 3 -2 2 o 26.826 25.943 180.00 1.49159 0.03
10 1 -2 2 o 6.464 6.046 180.00 1.48877 0.01
1 4 2 1 o 193.843 180.736 0.00 1.48461 0.46
6 2 -3 2 o 340.814 317.768 180.00 1.48817 0.34
1 4 2 2 o 196.517 180.736 0.00 1.48461 0.23
8 0 -3 1 o 806.168 739.582 0.00 1.47949 0.86
4 5 0 1 o 167.306 153.273 0.00 1.47909 0.27
5 4 1 1 o 125.163 114.219 0.00 1.47697 0.22
8 0 -3 2 o 811.244 739.582 0.00 1.47949 0.43
4 5 0 2 o 168.343 153.273 0.00 1.47909 0.14
5 4 1 2 o 125.652 114.219 0.00 1.47697 0.11
10 0 0 1 o 1059.536 964.179 0.00 1.47256 1.11
4 5 -1 1 o 38.713 35.287 0.00 1.47253 0.07
1 1 3 1 o 50.990 46.942 0.00 1.46992 0.10
10 0 0 2 o 1039.366 964.179 0.00 1.47256 0.54
4 5 -1 2 o 37.980 35.287 0.00 1.47253 0.04
9 3 -1 1 o 500.540 465.400 180.00 1.46877 0.94
5 2 2 1 o 712.284 663.595 180.00 1.46852 1.47
10 2 -1 1 o 44.302 41.529 180.00 1.46790 0.09
1 1 3 2 o 49.323 46.942 0.00 1.46992 0.05
9 3 -1 2 o 484.072 465.400 180.00 1.46877 0.45
5 2 2 2 o 689.143 663.595 180.00 1.46852 0.71
10 2 -1 2 o 42.976 41.529 180.00 1.46790 0.04
2 5 1 1 o 20.425 19.548 0.00 1.46126 0.04
6 4 -2 1 o 18.878 17.635 180.00 1.45970 0.04
4 3 2 1 o 325.115 270.145 0.00 1.44634 0.66
2 5 1 2 o 21.814 19.548 0.00 1.46126 0.02
10 1 0 2 o 40.670 34.143 180.00 1.44868 0.04
7 4 0 1 o 0.130 0.114 180.00 1.45665 0.00
6 4 -2 2 o 20.294 17.635 180.00 1.45970 0.02
8 1 -3 1 o 6.343 5.439 0.00 1.45527 0.01
7 2 -3 1 o 41.790 36.048 180.00 1.44300 0.08
4 3 2 2 o 312.356 270.145 0.00 1.44634 0.32
0 2 3 1 o 280.011 236.455 180.00 1.45407 0.51
7 4 0 2 o 0.136 0.114 180.00 1.45665 0.00
6 0 2 1 o 145.158 120.725 180.00 1.45259 0.14
8 1 -3 2 o 6.566 5.439 0.00 1.45527 0.01
7 3 1 1 o 301.661 273.185 0.00 1.43949 0.57
7 2 -3 2 o 39.782 36.048 180.00 1.44300 0.04
0 2 3 2 o 286.702 236.455 180.00 1.45407 0.26
6 0 2 2 o 146.929 120.725 180.00 1.45259 0.07
10 1 0 1 o 41.519 34.143 180.00 1.44868 0.08
7 3 1 2 o 288.265 273.185 0.00 1.43949 0.27
8 2 1 1 o 76.081 72.703 0.00 1.43515 0.16
8 2 1 2 o 72.938 72.703 0.00 1.43515 0.08
2 4 2 1 o 142.436 143.374 180.00 1.43095 0.30
6 1 2 1 o 4.064 4.166 0.00 1.42965 0.01
2 4 2 2 o 135.591 143.374 180.00 1.43095 0.14
6 1 2 2 o 3.919 4.166 0.00 1.42965 0.00
5 5 -1 1 o 712.752 762.672 0.00 1.42527 1.22
2 0 3 1 o 20.806 22.276 0.00 1.42485 0.02
5 5 -1 2 o 731.435 762.672 0.00 1.42527 0.62
2 0 3 2 o 21.472 22.276 0.00 1.42485 0.01
10 2 -2 1 o 0.797 0.795 180.00 1.41823 0.00
3 3 -3 1 o 117.409 116.815 0.00 1.41789 0.20
4 3 -3 1 o 156.650 154.834 180.00 1.41641 0.27
5 5 0 1 o 10.043 9.923 0.00 1.41619 0.01
10 2 -2 2 o 0.803 0.795 180.00 1.41823 0.00
3 3 -3 2 o 117.696 116.815 0.00 1.41789 0.10
4 3 -3 2 o 154.629 154.834 180.00 1.41641 0.13
5 5 0 2 o 9.897 9.923 0.00 1.41619 0.01
3 5 1 1 o 97.615 98.490 180.00 1.41168 0.17
8 4 -1 1 o 13.203 13.398 180.00 1.41014 0.02
3 5 1 2 o 97.240 98.490 180.00 1.41168 0.08
11 1 -1 1 o 5.917 5.982 0.00 1.40786 0.01
8 4 -1 2 o 13.329 13.398 180.00 1.41014 0.01
2 3 -3 1 o 919.676 922.416 0.00 1.40637 1.55
11 1 -1 2 o 6.061 5.982 0.00 1.40786 0.01
9 3 -2 1 o 4.945 4.876 0.00 1.40436 0.01
2 1 3 1 o 27.582 26.860 0.00 1.40318 0.05
2 3 -3 2 o 950.100 922.416 0.00 1.40637 0.80
7 4 -2 1 o 384.257 370.745 180.00 1.40242 0.67
5 3 -3 1 o 56.476 54.225 180.00 1.40205 0.10
1 2 3 1 o 0.321 0.308 0.00 1.40190 0.00
9 3 -2 2 o 5.162 4.876 0.00 1.40436 0.00
2 1 3 2 o 29.042 26.860 0.00 1.40318 0.02
7 4 -2 2 o 407.403 370.745 180.00 1.40242 0.35
5 3 -3 2 o 60.093 54.225 180.00 1.40205 0.05
1 2 3 2 o 0.341 0.308 0.00 1.40190 0.00
9 3 0 1 o 17.642 15.762 180.00 1.39818 0.03
9 3 0 2 o 19.139 15.762 180.00 1.39818 0.02
8 2 -3 1 o 31.503 25.642 0.00 1.38918 0.06
9 1 -3 1 o 87.966 73.118 0.00 1.38763 0.16
6 4 1 1 o 6.401 5.350 0.00 1.38734 0.01
8 2 -3 2 o 30.408 25.642 0.00 1.38918 0.03
9 1 -3 2 o 86.255 73.118 0.00 1.38763 0.08
6 4 1 2 o 6.302 5.350 0.00 1.38734 0.00
10 2 0 1 o 7.690 6.499 0.00 1.38344 0.01
1 3 -3 1 o 13.427 11.281 180.00 1.38277 0.02
10 2 0 2 o 7.902 6.499 0.00 1.38344 0.01
1 3 -3 2 o 13.809 11.281 180.00 1.38277 0.01
11 1 -2 1 o 235.324 190.679 0.00 1.37726 0.39
6 3 -3 1 o 126.530 102.794 180.00 1.37594 0.21
9 1 1 1 o 14.231 11.616 180.00 1.37577 0.03
11 1 -2 2 o 230.939 190.679 0.00 1.37726 0.19
6 3 -3 2 o 122.421 102.794 180.00 1.37594 0.10
9 1 1 2 o 13.760 11.616 180.00 1.37577 0.01
3 4 2 1 o 188.291 161.307 0.00 1.37069 0.35
6 5 -1 1 o 0.008 0.007 0.00 1.37027 0.00
3 4 2 2 o 187.160 161.307 0.00 1.37069 0.17
6 5 -1 2 o 0.008 0.007 0.00 1.37027 0.00
6 2 2 1 o 56.833 48.775 180.00 1.36684 0.10
6 2 2 2 o 58.440 48.775 180.00 1.36684 0.05
5 3 2 1 o 225.050 185.461 180.00 1.36036 0.39
8 4 0 1 o 21.187 17.487 0.00 1.36025 0.03
10 3 -1 1 o 23.682 19.455 180.00 1.35988 0.04
5 3 2 2 o 218.425 185.461 180.00 1.36036 0.19
2 5 -2 1 o 21.086 17.890 180.00 1.35700 0.04
8 4 0 2 o 20.519 17.487 0.00 1.36025 0.01
10 3 -1 2 o 22.740 19.455 180.00 1.35988 0.02
4 5 1 1 o 1.342 1.202 0.00 1.35521 0.00
3 5 -2 1 o 84.002 77.691 0.00 1.35422 0.15
2 5 -2 2 o 18.946 17.890 180.00 1.35700 0.02
4 5 1 2 o 1.184 1.202 0.00 1.35521 0.00
3 5 -2 2 o 73.745 77.691 0.00 1.35422 0.07
6 5 0 1 o 340.109 377.134 180.00 1.34922 0.41
0 3 3 1 o 99.013 110.746 0.00 1.34886 0.16
1 5 -2 1 o 183.171 207.299 180.00 1.34834 0.36
11 2 -1 1 o 60.786 69.219 180.00 1.34776 0.09
0 6 0 1 o 344.383 402.223 180.00 1.34599 0.28
6 5 0 2 o 323.099 377.134 180.00 1.34922 0.19
0 3 3 2 o 94.673 110.746 0.00 1.34886 0.07
1 5 -2 2 o 176.560 207.299 180.00 1.34834 0.17
11 2 -1 2 o 59.167 69.219 180.00 1.34776 0.05
2 2 3 1 o 116.690 137.267 0.00 1.34365 0.18
0 6 0 2 o 342.241 402.223 180.00 1.34599 0.14
1 6 0 1 o 185.697 214.391 180.00 1.34041 0.29
2 2 3 2 o 118.881 137.267 0.00 1.34365 0.09
4 5 -2 1 o 8.284 9.564 0.00 1.34021 0.01
8 4 -2 1 o 9.285 10.671 180.00 1.34015 0.01
7 3 -3 1 o 0.569 0.662 0.00 1.34001 0.00
1 6 0 2 o 196.715 214.391 180.00 1.34041 0.16
4 5 -2 2 o 8.800 9.564 0.00 1.34021 0.01
8 4 -2 2 o 9.853 10.671 180.00 1.34015 0.01
7 3 -3 2 o 0.608 0.662 0.00 1.34001 0.00
9 2 -3 2 o 101.623 109.638 180.00 1.32998 0.08
10 0 -3 1 o 467.513 496.349 0.00 1.33584 0.38
0 5 2 2 o 21.919 24.197 180.00 1.32890 0.02
7 1 2 1 o 10.226 11.507 0.00 1.32448 0.02
2 6 0 1 o 354.021 402.206 0.00 1.32405 0.52
8 3 1 1 o 4.261 4.386 180.00 1.33371 0.01
3 1 3 1 o 65.149 66.900 180.00 1.33369 0.10
9 4 -1 1 o 0.065 0.079 180.00 1.32352 0.00
10 0 -3 2 o 487.846 496.349 0.00 1.33584 0.20
7 1 2 2 o 9.823 11.507 0.00 1.32448 0.01
11 2 -2 1 o 171.219 201.548 0.00 1.32085 0.26
2 6 0 2 o 341.840 402.206 0.00 1.32405 0.25
8 3 1 2 o 4.299 4.386 180.00 1.33371 0.00
3 1 3 2 o 65.664 66.900 180.00 1.33369 0.05
11 1 0 1 o 34.930 41.140 0.00 1.32067 0.06
9 4 -1 2 o 0.062 0.079 180.00 1.32352 0.00
9 2 -3 1 o 107.239 109.638 180.00 1.32998 0.17
10 3 -2 1 o 233.274 275.061 0.00 1.32010 0.36
9 2 1 1 o 2.791 3.322 180.00 1.31953 0.01
0 5 2 1 o 23.357 24.197 180.00 1.32890 0.05
10 1 -3 1 o 20.688 24.049 0.00 1.31793 0.03
11 2 -2 2 o 173.324 201.548 0.00 1.32085 0.13
11 1 0 2 o 35.445 41.140 0.00 1.32067 0.03
10 3 -2 2 o 238.556 275.061 0.00 1.32010 0.18
9 2 1 2 o 2.881 3.322 180.00 1.31953 0.00
5 5 -2 1 o 217.221 247.458 0.00 1.31600 0.35
10 1 -3 2 o 21.716 24.049 0.00 1.31793 0.02
5 5 -2 2 o 233.528 247.458 0.00 1.31600 0.19
7 5 -1 1 o 228.395 229.062 180.00 1.31067 0.30
12 0 -1 1 o 1.348 1.296 180.00 1.30761 0.00
7 5 -1 2 o 239.372 229.062 180.00 1.31067 0.16
4 4 2 1 o 127.987 122.489 180.00 1.30704 0.21
1 3 3 1 o 3.623 3.464 180.00 1.30690 0.01
12 0 -1 2 o 1.315 1.296 180.00 1.30761 0.00
4 4 2 2 o 123.037 122.489 180.00 1.30704 0.10
1 3 3 2 o 3.470 3.464 180.00 1.30690 0.00
7 4 1 1 o 344.999 357.561 180.00 1.30198 0.47
1 5 2 1 o 0.087 0.094 180.00 1.30002 0.00
1 6 -1 1 o 181.675 196.398 180.00 1.29979 0.30
7 4 1 2 o 326.140 357.561 180.00 1.30198 0.22
3 6 0 1 o 0.990 1.098 0.00 1.29807 0.00
1 5 2 2 o 0.084 0.094 180.00 1.30002 0.00
1 6 -1 2 o 176.573 196.398 180.00 1.29979 0.14
8 3 -3 1 o 0.341 0.382 180.00 1.29658 0.00
2 6 -1 1 o 67.030 74.684 180.00 1.29605 0.11
3 6 0 2 o 0.982 1.098 0.00 1.29807 0.00
5 5 1 1 o 415.688 462.530 0.00 1.29488 0.52
12 0 -2 1 o 139.907 155.007 0.00 1.29413 0.10
0 6 1 1 o 5.693 6.298 0.00 1.29347 0.01
8 3 -3 2 o 0.343 0.382 180.00 1.29658 0.00
2 6 -1 2 o 67.626 74.684 180.00 1.29605 0.05
10 3 0 1 o 21.070 23.083 180.00 1.29191 0.03
5 5 1 2 o 421.498 462.530 0.00 1.29488 0.26
12 0 -2 2 o 142.190 155.007 0.00 1.29413 0.05
12 1 -1 1 o 13.679 14.923 0.00 1.29080 0.02
0 6 1 2 o 5.801 6.298 0.00 1.29347 0.00
10 3 0 2 o 21.644 23.083 180.00 1.29191 0.02
12 1 -1 2 o 14.178 14.923 0.00 1.29080 0.01
3 4 -3 1 o 297.073 305.024 0.00 1.28593 0.43
4 4 -3 1 o 729.902 740.459 180.00 1.28482 1.05
6 5 -2 1 o 25.740 25.896 0.00 1.28319 0.04
3 4 -3 2 o 303.350 305.024 0.00 1.28593 0.22
3 6 -1 1 o 50.686 50.960 0.00 1.28250 0.07
3 2 3 1 o 23.474 23.603 180.00 1.28227 0.03
4 4 -3 2 o 736.222 740.459 180.00 1.28482 0.53
7 5 0 1 o 0.159 0.160 0.00 1.28112 0.00
6 5 -2 2 o 25.739 25.896 0.00 1.28319 0.02
4 0 3 1 o 301.930 303.760 180.00 1.27997 0.20
3 6 -1 2 o 50.713 50.960 0.00 1.28250 0.04
10 0 1 1 o 50.788 51.024 180.00 1.27928 0.04
3 2 3 2 o 23.504 23.603 180.00 1.28227 0.02
6 3 2 1 o 3.572 3.575 0.00 1.27836 0.01
7 5 0 2 o 0.160 0.160 0.00 1.28112 0.00
12 1 -2 1 o 214.075 213.593 0.00 1.27783 0.30
1 6 1 1 o 0.802 0.798 180.00 1.27751 0.00
2 4 -3 1 o 159.434 158.481 180.00 1.27731 0.23
4 0 3 2 o 306.884 303.760 180.00 1.27997 0.10
10 0 1 2 o 51.881 51.024 180.00 1.27928 0.02
9 4 -2 1 o 102.076 100.016 180.00 1.27581 0.14
6 3 2 2 o 3.676 3.575 0.00 1.27836 0.00
12 1 -2 2 o 220.737 213.593 0.00 1.27783 0.15
1 6 1 2 o 0.832 0.798 180.00 1.27751 0.00
2 4 -3 2 o 164.828 158.481 180.00 1.27731 0.12
7 2 2 1 o 143.420 137.716 180.00 1.27408 0.22
5 4 -3 1 o 25.462 24.449 0.00 1.27407 0.04
9 4 -2 2 o 105.883 100.016 180.00 1.27581 0.07
9 4 0 1 o 68.140 63.545 180.00 1.27117 0.08
7 2 2 2 o 147.922 137.716 180.00 1.27408 0.11
5 4 -3 2 o 26.259 24.449 0.00 1.27407 0.02
11 2 0 1 o 196.302 182.304 180.00 1.27068 0.29
10 2 -3 1 o 77.414 71.147 180.00 1.26824 0.11
9 4 0 2 o 69.171 63.545 180.00 1.27117 0.04
11 2 0 2 o 198.984 182.304 180.00 1.27068 0.15
10 2 -3 2 o 78.341 71.147 180.00 1.26824 0.06
4 1 3 1 o 68.634 62.015 0.00 1.26419 0.09
4 6 0 1 o 771.788 698.031 0.00 1.26415 0.90
10 1 1 1 o 6.676 6.023 180.00 1.26353 0.01
2 5 2 1 o 0.110 0.101 0.00 1.26354 0.00
11 3 -1 1 o 248.108 223.555 180.00 1.26271 0.33
4 1 3 2 o 68.952 62.015 0.00 1.26419 0.05
4 6 0 2 o 775.146 698.031 0.00 1.26415 0.45
2 5 2 2 o 0.110 0.101 0.00 1.26354 0.00
10 1 1 2 o 6.678 6.023 180.00 1.26353 0.01
4 6 -1 1 o 49.857 45.085 180.00 1.26004 0.07
11 3 -1 2 o 246.789 223.555 180.00 1.26271 0.17
1 4 -3 1 o 34.620 31.366 0.00 1.25955 0.05
2 3 3 1 o 1.988 1.797 0.00 1.25933 0.00
4 6 -1 2 o 48.736 45.085 180.00 1.26004 0.03
1 4 -3 2 o 33.743 31.366 0.00 1.25955 0.02
2 3 3 2 o 1.933 1.797 0.00 1.25933 0.00
6 4 -3 1 o 5.408 5.162 180.00 1.25439 0.01
2 6 1 1 o 198.509 192.461 180.00 1.25296 0.28
6 4 -3 2 o 5.227 5.162 180.00 1.25439 0.00
4 0 -4 1 o 1.772 1.751 180.00 1.25101 0.00
2 6 1 2 o 193.299 192.461 180.00 1.25296 0.14
8 5 -1 1 o 0.168 0.167 0.00 1.24914 0.00
11 1 -3 1 o 12.299 12.204 0.00 1.24871 0.02
9 3 -3 1 o 5.948 5.854 180.00 1.24805 0.01
4 0 -4 2 o 1.785 1.751 180.00 1.25101 0.00
8 5 -1 2 o 0.176 0.167 0.00 1.24914 0.00
11 1 -3 2 o 13.155 12.204 0.00 1.24871 0.01
8 0 2 1 o 261.645 241.193 0.00 1.24543 0.19
9 3 -3 2 o 6.451 5.854 180.00 1.24805 0.00
12 2 -1 1 o 685.870 606.703 0.00 1.24401 0.92
7 5 -2 1 o 5.639 4.949 180.00 1.24376 0.01
5 4 2 1 o 17.797 15.239 180.00 1.24255 0.03
8 0 2 2 o 280.597 241.193 0.00 1.24543 0.10
6 0 -4 1 o 65.729 56.534 0.00 1.24237 0.05
0 4 3 1 o 8.546 7.811 0.00 1.23376 0.01
10 4 -1 1 o 2.568 2.197 180.00 1.24218 0.00
5 1 -4 2 o 0.122 0.109 180.00 1.23641 0.00
4 1 -4 2 o 207.085 187.592 0.00 1.23627 0.14
6 5 1 1 o 7.924 7.188 0.00 1.23321 0.01
12 2 -1 2 o 709.779 606.703 0.00 1.24401 0.47
12 2 -2 1 o 2.218 1.994 180.00 1.23239 0.00
7 5 -2 2 o 5.794 4.949 180.00 1.24376 0.00
11 3 -2 1 o 170.942 146.661 0.00 1.24049 0.22
5 4 2 2 o 17.653 15.239 180.00 1.24255 0.01
9 3 1 1 o 191.452 166.492 0.00 1.23940 0.27
8 1 2 1 o 1101.185 960.999 0.00 1.23088 1.59
6 0 -4 2 o 64.896 56.534 0.00 1.24237 0.02
0 4 3 2 o 8.956 7.811 0.00 1.23376 0.01
10 4 -1 2 o 2.523 2.197 180.00 1.24218 0.00
6 5 1 2 o 8.274 7.188 0.00 1.23321 0.00
5 6 -1 1 o 46.594 40.381 180.00 1.23005 0.06
12 2 -2 2 o 2.283 1.994 180.00 1.23239 0.00
11 3 -2 2 o 162.892 146.661 0.00 1.24049 0.11
5 1 -4 1 o 0.121 0.109 180.00 1.23641 0.00
9 3 1 2 o 181.884 166.492 0.00 1.23940 0.13
6 1 -4 1 o 123.564 108.785 180.00 1.22792 0.17
4 1 -4 1 o 204.970 187.592 0.00 1.23627 0.29
8 1 2 2 o 1090.599 960.999 0.00 1.23088 0.78
3 1 -4 1 o 27.003 23.915 180.00 1.22750 0.04
12 0 0 1 o 480.033 429.155 180.00 1.22714 0.33
5 6 -1 2 o 45.017 40.381 180.00 1.23005 0.03
7 4 -3 1 o 112.143 100.674 0.00 1.22698 0.15
6 1 -4 2 o 113.896 108.785 180.00 1.22792 0.08
2 0 -4 1 o 31.561 30.499 0.00 1.22450 0.02
3 1 -4 2 o 24.742 23.915 180.00 1.22750 0.02
5 6 0 1 o 1.659 1.619 0.00 1.22420 0.00
12 0 0 2 o 439.052 429.155 180.00 1.22714 0.15
7 4 -3 2 o 102.533 100.674 0.00 1.22698 0.07
8 4 1 1 o 61.569 63.184 180.00 1.22214 0.08
2 0 -4 2 o 29.352 30.499 0.00 1.22450 0.01
3 5 2 1 o 22.102 22.963 0.00 1.22147 0.03
3 6 1 1 o 66.481 69.318 0.00 1.22128 0.08
5 6 0 2 o 1.551 1.619 0.00 1.22420 0.00
4 2 3 1 o 165.125 175.188 180.00 1.22013 0.21
10 2 1 1 o 0.891 0.946 0.00 1.21954 0.00
8 4 1 2 o 58.715 63.184 180.00 1.22214 0.04
3 5 2 2 o 21.131 22.963 0.00 1.22147 0.02
3 6 1 2 o 63.542 69.318 0.00 1.22128 0.04
4 2 3 2 o 157.670 175.188 180.00 1.22013 0.10
10 2 1 2 o 0.854 0.946 0.00 1.21954 0.00
8 5 0 1 o 7.599 8.959 0.00 1.21406 0.01
12 1 0 1 o 14.951 18.008 180.00 1.21321 0.02
10 4 -2 1 o 101.674 130.751 180.00 1.21165 0.13
7 1 -4 1 o 32.040 42.102 0.00 1.21133 0.04
8 5 0 2 o 6.800 8.959 0.00 1.21406 0.00
2 1 -4 1 o 3.004 4.088 180.00 1.21066 0.00
12 1 0 2 o 13.134 18.008 180.00 1.21321 0.01
10 4 -2 2 o 86.646 130.751 180.00 1.21165 0.05
3 3 3 1 o 1.289 1.973 180.00 1.20837 0.00
7 1 -4 2 o 27.167 42.102 0.00 1.21133 0.02
2 1 -4 2 o 2.568 4.088 180.00 1.21066 0.00
11 2 -3 1 o 7.923 13.039 180.00 1.20620 0.01
3 3 3 2 o 1.244 1.973 180.00 1.20837 0.00
11 2 -3 2 o 8.745 13.039 180.00 1.20620 0.01
7 3 2 1 o 7.723 10.526 180.00 1.20151 0.01
1 4 3 1 o 100.984 139.097 0.00 1.20142 0.14
8 0 -4 1 o 37.262 49.984 180.00 1.20064 0.03
8 5 -2 1 o 5.123 6.707 180.00 1.19970 0.01
11 3 0 1 o 0.319 0.421 0.00 1.19866 0.00
7 3 2 2 o 8.302 10.526 180.00 1.20151 0.01
1 4 3 2 o 108.817 139.097 0.00 1.20142 0.07
8 0 -4 2 o 39.787 49.984 180.00 1.20064 0.01
8 5 -2 2 o 5.433 6.707 180.00 1.19970 0.00
10 3 -3 1 o 32.121 39.538 180.00 1.19661 0.04
5 1 3 1 o 44.334 54.505 0.00 1.19654 0.05
11 3 0 2 o 0.339 0.421 0.00 1.19866 0.00
5 2 -4 1 o 375.054 448.721 0.00 1.19510 0.46
4 2 -4 1 o 261.066 311.845 180.00 1.19498 0.32
12 0 -3 1 o 382.577 453.607 180.00 1.19453 0.24
6 6 -1 1 o 61.801 72.959 0.00 1.19417 0.07
10 3 -3 2 o 33.961 39.538 180.00 1.19661 0.02
5 1 3 2 o 46.880 54.505 0.00 1.19654 0.03
8 4 -3 1 o 25.621 29.710 180.00 1.19338 0.03
5 2 -4 2 o 397.549 448.721 0.00 1.19510 0.24
4 2 -4 2 o 276.851 311.845 180.00 1.19498 0.17
12 0 -3 2 o 406.059 453.607 180.00 1.19453 0.13
6 6 -1 2 o 65.671 72.959 0.00 1.19417 0.04
13 1 -1 1 o 53.176 58.580 0.00 1.19094 0.06
8 4 -3 2 o 27.183 29.710 180.00 1.19338 0.02
8 2 2 1 o 152.496 165.440 180.00 1.19011 0.21
10 4 0 1 o 88.607 95.475 0.00 1.18973 0.10
13 1 -2 1 o 293.681 315.057 180.00 1.18939 0.36
13 1 -1 2 o 55.620 58.580 0.00 1.19094 0.03
9 5 -1 1 o 38.148 40.047 0.00 1.18773 0.04
8 1 -4 1 o 1.895 1.989 180.00 1.18759 0.00
6 2 -4 1 o 363.065 380.325 180.00 1.18743 0.45
8 2 2 2 o 158.300 165.440 180.00 1.19011 0.11
3 2 -4 1 o 120.991 126.307 0.00 1.18706 0.14
10 4 0 2 o 91.630 95.475 0.00 1.18973 0.05
1 1 -4 1 o 35.823 37.316 0.00 1.18671 0.04
13 1 -2 2 o 302.850 315.057 180.00 1.18939 0.18
2 6 -2 1 o 564.369 583.845 180.00 1.18535 0.82
9 5 -1 2 o 38.794 40.047 0.00 1.18773 0.02
8 1 -4 2 o 1.926 1.989 180.00 1.18759 0.00
6 2 -4 2 o 368.647 380.325 180.00 1.18743 0.23
4 6 1 1 o 29.844 30.761 0.00 1.18416 0.03
3 2 -4 2 o 122.617 126.307 0.00 1.18706 0.07
1 1 -4 2 o 36.263 37.316 0.00 1.18671 0.02
3 6 -2 1 o 63.920 65.721 0.00 1.18350 0.09
2 6 -2 2 o 570.703 583.845 180.00 1.18535 0.41
12 1 -3 1 o 0.094 0.095 180.00 1.18167 0.00
4 6 1 2 o 30.271 30.761 0.00 1.18416 0.02
3 6 -2 2 o 64.984 65.721 0.00 1.18350 0.05
6 6 0 1 o 77.530 78.140 0.00 1.18016 0.07
1 6 -2 1 o 15.830 15.873 0.00 1.17957 0.02
6 4 2 1 o 7.278 7.269 180.00 1.17913 0.01
12 1 -3 2 o 0.095 0.095 180.00 1.18167 0.00
6 6 0 2 o 79.492 78.140 0.00 1.18016 0.04
1 6 -2 2 o 16.198 15.873 0.00 1.17957 0.01
6 4 2 2 o 7.430 7.269 180.00 1.17913 0.00
12 3 -1 1 o 592.310 578.799 0.00 1.17619 0.71
4 5 2 1 o 43.542 42.501 180.00 1.17577 0.06
4 6 -2 1 o 181.952 177.830 180.00 1.17412 0.24
12 2 0 1 o 0.472 0.462 180.00 1.17412 0.00
12 3 -1 2 o 590.062 578.799 0.00 1.17619 0.35
4 5 2 2 o 43.211 42.501 180.00 1.17577 0.03
7 2 -4 1 o 42.995 42.427 0.00 1.17241 0.05
7 5 1 1 o 47.851 47.298 180.00 1.17209 0.05
2 2 -4 1 o 441.074 436.758 0.00 1.17180 0.52
4 6 -2 2 o 179.072 177.830 180.00 1.17412 0.12
12 2 0 2 o 0.465 0.462 180.00 1.17412 0.00
7 2 -4 2 o 42.723 42.427 0.00 1.17241 0.03
7 5 1 2 o 47.719 47.298 180.00 1.17209 0.02
0 0 4 1 o 25.118 24.856 0.00 1.16897 0.02
2 2 -4 2 o 441.468 436.758 0.00 1.17180 0.26
11 1 1 1 o 24.859 24.233 0.00 1.16752 0.04
4 5 -3 1 o 43.413 41.382 0.00 1.15953 0.05
11 4 -1 1 o 879.805 851.076 0.00 1.16681 0.98
0 6 2 1 o 99.574 95.965 180.00 1.16649 0.15
5 2 3 1 o 27.156 25.923 180.00 1.15899 0.03
12 3 -2 1 o 182.728 175.843 180.00 1.16635 0.22
0 0 4 2 o 25.915 24.856 0.00 1.16897 0.01
9 1 -4 1 o 17.633 16.835 180.00 1.15796 0.02
5 6 -2 1 o 13.422 12.812 180.00 1.15774 0.02
3 5 -3 2 o 348.682 332.697 180.00 1.16034 0.22
11 1 1 2 o 25.606 24.233 0.00 1.16752 0.02
0 1 4 1 o 19.012 18.116 180.00 1.15692 0.02
2 4 3 1 o 4.503 4.246 180.00 1.16414 0.01
4 5 -3 2 o 43.419 41.382 0.00 1.15953 0.03
11 4 -1 2 o 900.662 851.076 0.00 1.16681 0.50
0 6 2 2 o 101.620 95.965 180.00 1.16649 0.07
5 2 3 2 o 27.207 25.923 180.00 1.15899 0.02
12 3 -2 2 o 186.227 175.843 180.00 1.16635 0.11
4 3 3 1 o 17.441 16.595 0.00 1.15595 0.02
10 3 1 1 o 455.912 434.031 0.00 1.15545 0.58
9 4 -3 1 o 233.122 221.915 180.00 1.15522 0.27
9 1 -4 2 o 17.675 16.835 180.00 1.15796 0.01
5 6 -2 2 o 13.447 12.812 180.00 1.15774 0.01
7 6 -1 1 o 2.687 2.562 180.00 1.15410 0.00
0 1 4 2 o 18.974 18.116 180.00 1.15692 0.01
2 5 -3 1 o 139.106 132.905 0.00 1.15400 0.18
2 4 3 2 o 4.492 4.246 180.00 1.16414 0.00
13 2 -1 1 o 26.173 25.042 180.00 1.15389 0.03
4 3 3 2 o 17.267 16.595 0.00 1.15595 0.01
3 5 -3 1 o 349.878 332.697 180.00 1.16034 0.45
9 5 -2 1 o 11.201 10.796 180.00 1.15289 0.01
10 3 1 2 o 449.229 434.031 0.00 1.15545 0.28
13 2 -2 1 o 391.141 378.413 0.00 1.15248 0.46
9 4 -3 2 o 229.153 221.915 180.00 1.15522 0.13
5 5 -3 1 o 55.906 54.615 0.00 1.15161 0.07
7 6 -1 2 o 2.613 2.562 180.00 1.15410 0.00
2 5 -3 2 o 135.310 132.905 0.00 1.15400 0.09
13 2 -1 2 o 25.454 25.042 180.00 1.15389 0.01
8 2 -4 1 o 34.509 34.027 0.00 1.15084 0.04
1 7 0 1 o 9.433 9.371 180.00 1.15018 0.01
9 5 -2 2 o 10.853 10.796 180.00 1.15289 0.01
1 2 -4 1 o 153.848 153.054 0.00 1.15004 0.18
13 2 -2 2 o 378.856 378.413 0.00 1.15248 0.22
9 5 0 1 o 0.274 0.274 0.00 1.14946 0.00
11 4 -2 1 o 29.796 29.887 0.00 1.14922 0.03
5 5 -3 2 o 54.232 54.615 0.00 1.15161 0.03
9 4 1 1 o 348.243 352.025 180.00 1.14835 0.40
8 2 -4 2 o 33.565 34.027 0.00 1.15084 0.02
9 1 2 1 o 590.641 600.890 0.00 1.14763 0.78
1 7 0 2 o 9.190 9.371 180.00 1.15018 0.01
1 2 -4 2 o 149.844 153.054 0.00 1.15004 0.09
1 6 2 1 o 32.305 33.143 180.00 1.14681 0.05
9 5 0 2 o 0.266 0.274 0.00 1.14946 0.00
11 4 -2 2 o 28.978 29.887 0.00 1.14922 0.02
9 4 1 2 o 337.605 352.025 180.00 1.14835 0.19
12 2 -3 1 o 0.267 0.279 0.00 1.14546 0.00
9 1 2 2 o 570.266 600.890 0.00 1.14763 0.37
11 3 -3 1 o 4.163 4.442 0.00 1.14408 0.00
1 6 2 2 o 31.045 33.143 180.00 1.14681 0.02
5 6 1 1 o 11.761 12.691 180.00 1.14328 0.01
6 0 3 1 o 415.848 448.701 180.00 1.14325 0.23
12 2 -3 2 o 0.255 0.279 0.00 1.14546 0.00
11 3 -3 2 o 4.035 4.442 0.00 1.14408 0.00
1 5 -3 1 o 32.608 35.845 0.00 1.14085 0.04
5 6 1 2 o 11.569 12.691 180.00 1.14328 0.01
6 0 3 2 o 409.327 448.701 180.00 1.14325 0.11
2 7 0 1 o 1.076 1.179 180.00 1.13980 0.00
1 5 -3 2 o 34.428 35.845 0.00 1.14085 0.02
6 5 -3 1 o 80.551 80.325 180.00 1.13701 0.10
2 7 0 2 o 1.183 1.179 180.00 1.13980 0.00
6 6 -2 1 o 90.979 83.056 180.00 1.13521 0.11
10 0 -4 1 o 172.871 155.170 0.00 1.13489 0.11
5 3 -4 1 o 103.760 92.034 180.00 1.13460 0.11
4 3 -4 1 o 26.075 22.955 0.00 1.13449 0.03
6 5 -3 2 o 92.287 80.325 180.00 1.13701 0.05
7 6 0 1 o 3.717 3.172 0.00 1.13378 0.00
11 2 1 1 o 259.779 213.852 0.00 1.13255 0.33
6 6 -2 2 o 101.177 83.056 180.00 1.13521 0.06
10 0 -4 2 o 190.413 155.170 0.00 1.13489 0.06
6 1 3 1 o 1326.377 1082.160 180.00 1.13196 1.44
5 3 -4 2 o 112.971 92.034 180.00 1.13460 0.06
4 3 -4 2 o 28.313 22.955 0.00 1.13449 0.02
7 6 0 2 o 3.916 3.172 0.00 1.13378 0.00
8 3 2 1 o 248.465 203.424 180.00 1.13032 0.31
11 2 1 2 o 258.533 213.852 0.00 1.13255 0.17
6 1 3 2 o 1286.010 1082.160 180.00 1.13196 0.70
5 5 2 1 o 109.964 95.772 0.00 1.12817 0.13
6 3 -4 1 o 172.930 151.645 0.00 1.12803 0.19
10 5 -1 1 o 147.455 130.069 180.00 1.12789 0.15
3 3 -4 1 o 0.028 0.026 180.00 1.12771 0.00
8 3 2 2 o 227.401 203.424 180.00 1.13032 0.14
5 5 2 2 o 98.542 95.772 0.00 1.12817 0.06
6 3 -4 2 o 155.274 151.645 0.00 1.12803 0.08
10 5 -1 2 o 132.592 130.069 180.00 1.12789 0.07
3 3 -4 2 o 0.027 0.026 180.00 1.12771 0.00
1 7 -1 1 o 12.231 12.306 0.00 1.12422 0.01
10 1 -4 1 o 0.197 0.200 0.00 1.12384 0.00
9 2 -4 1 o 93.172 94.630 0.00 1.12382 0.11
3 4 3 1 o 69.740 71.285 180.00 1.12354 0.09
3 7 0 1 o 125.508 129.400 0.00 1.12310 0.13
0 2 4 1 o 8.784 9.094 0.00 1.12287 0.01
1 1 4 1 o 2.030 2.108 180.00 1.12268 0.00
2 7 -1 1 o 101.890 107.475 180.00 1.12179 0.12
13 1 0 1 o 1.960 2.069 180.00 1.12176 0.00
0 5 3 1 o 18.502 19.581 180.00 1.12158 0.02
2 6 2 1 o 43.273 45.847 0.00 1.12153 0.06
1 7 -1 2 o 11.613 12.306 0.00 1.12422 0.01
14 0 -2 1 o 340.866 362.076 0.00 1.12137 0.19
10 1 -4 2 o 0.187 0.200 0.00 1.12384 0.00
9 2 -4 2 o 88.599 94.630 0.00 1.12382 0.05
3 4 3 2 o 66.354 71.285 180.00 1.12354 0.04
3 7 0 2 o 119.504 129.400 0.00 1.12310 0.06
0 7 1 1 o 6.917 7.525 180.00 1.12012 0.01
0 2 4 2 o 8.365 9.094 0.00 1.12287 0.00
1 1 4 2 o 1.932 2.108 180.00 1.12268 0.00
2 7 -1 2 o 96.746 107.475 180.00 1.12179 0.06
13 1 0 2 o 1.860 2.069 180.00 1.12176 0.00
0 5 3 2 o 17.563 19.581 180.00 1.12158 0.01
2 6 2 2 o 41.063 45.847 0.00 1.12153 0.03
14 0 -2 2 o 323.424 362.076 0.00 1.12137 0.09
7 4 2 1 o 19.331 21.926 180.00 1.11801 0.02
13 1 -3 1 o 10.154 11.542 0.00 1.11789 0.01
0 7 1 2 o 6.584 7.525 180.00 1.12012 0.00
12 3 0 1 o 4.802 5.541 0.00 1.11659 0.01
7 5 -3 1 o 9.278 10.686 0.00 1.11648 0.01
11 4 0 1 o 14.531 16.691 180.00 1.11572 0.02
14 0 -1 1 o 0.882 1.016 0.00 1.11537 0.00
7 4 2 2 o 19.076 21.926 180.00 1.11801 0.01
13 1 -3 2 o 10.049 11.542 0.00 1.11789 0.01
7 3 -4 1 o 20.061 22.977 0.00 1.11512 0.02
2 3 -4 1 o 64.738 73.888 0.00 1.11461 0.07
9 2 2 1 o 3.485 3.947 180.00 1.11437 0.00
10 4 -3 1 o 72.739 82.202 0.00 1.11407 0.08
12 3 0 2 o 4.900 5.541 0.00 1.11659 0.00
7 5 -3 2 o 9.486 10.686 0.00 1.11648 0.01
11 4 0 2 o 15.032 16.691 180.00 1.11572 0.01
3 7 -1 1 o 14.491 16.145 0.00 1.11297 0.02
8 5 1 1 o 112.748 124.895 180.00 1.11283 0.11
14 0 -1 2 o 0.917 1.016 0.00 1.11537 0.00
7 3 -4 2 o 20.866 22.977 0.00 1.11512 0.01
2 3 -4 2 o 67.445 73.888 0.00 1.11461 0.04
9 2 2 2 o 3.623 3.947 180.00 1.11437 0.00
8 6 -1 1 o 31.135 33.923 180.00 1.11143 0.03
10 4 -3 2 o 75.504 82.202 0.00 1.11407 0.04
14 1 -2 1 o 455.752 495.593 0.00 1.11071 0.50
3 7 -1 2 o 14.784 16.145 0.00 1.11297 0.01
8 5 1 2 o 114.559 124.895 180.00 1.11283 0.05
1 7 1 1 o 128.076 140.500 180.00 1.10971 0.16
8 6 -1 2 o 30.316 33.923 180.00 1.11143 0.01
14 1 -2 2 o 433.461 495.593 0.00 1.11071 0.24
7 6 -2 1 o 14.275 16.542 180.00 1.10763 0.02
4 7 0 1 o 32.050 41.352 180.00 1.10091 0.03
5 3 3 2 o 87.676 112.676 180.00 1.10356 0.05
1 7 1 2 o 118.385 140.500 180.00 1.10971 0.07
6 6 1 1 o 11.384 14.501 180.00 1.10016 0.01
6 2 3 1 o 46.883 59.197 0.00 1.10001 0.05
13 3 -1 1 o 96.809 119.822 180.00 1.09916 0.11
7 6 -2 2 o 13.008 16.542 180.00 1.10763 0.01
10 5 -2 1 o 90.942 115.356 180.00 1.10489 0.10
14 1 -1 1 o 26.578 33.661 0.00 1.10488 0.03
4 7 0 2 o 34.110 41.352 180.00 1.10091 0.02
4 7 -1 1 o 8.665 10.560 0.00 1.09820 0.01
13 3 -2 1 o 50.634 60.819 0.00 1.09794 0.06
12 4 -1 1 o 349.261 415.952 180.00 1.09753 0.37
6 6 1 2 o 12.165 14.501 180.00 1.10016 0.01
6 2 3 2 o 50.023 59.197 0.00 1.10001 0.03
1 5 3 1 o 32.019 37.816 180.00 1.09711 0.04
5 3 3 1 o 86.702 112.676 180.00 1.10356 0.10
8 3 -4 1 o 435.521 507.859 180.00 1.09652 0.48
13 3 -1 2 o 103.128 119.822 180.00 1.09916 0.06
1 3 -4 1 o 19.019 21.839 180.00 1.09583 0.02
10 5 -2 2 o 88.429 115.356 180.00 1.10489 0.05
14 1 -1 2 o 25.852 33.661 0.00 1.10488 0.01
4 7 -1 2 o 9.211 10.560 0.00 1.09820 0.01
2 0 4 1 o 133.843 152.292 180.00 1.09530 0.07
13 3 -2 2 o 53.605 60.819 0.00 1.09794 0.03
12 4 -1 2 o 369.112 415.952 180.00 1.09753 0.19
12 0 1 1 o 8.942 10.005 0.00 1.09450 0.01
1 5 3 2 o 33.789 37.816 180.00 1.09711 0.02
8 3 -4 2 o 458.677 507.859 180.00 1.09652 0.25
2 7 1 1 o 0.136 0.151 180.00 1.09350 0.00
1 3 -4 2 o 19.993 21.839 180.00 1.09583 0.01
2 0 4 2 o 140.680 152.292 180.00 1.09530 0.04
10 2 -4 1 o 14.098 15.234 0.00 1.09256 0.02
12 3 -3 1 o 127.162 135.771 0.00 1.09186 0.14
12 0 1 2 o 9.388 10.005 0.00 1.09450 0.00
3 6 2 1 o 25.384 27.073 0.00 1.09180 0.03
1 2 4 1 o 1.984 2.098 0.00 1.09148 0.00
8 5 -3 1 o 12.779 13.417 180.00 1.09098 0.01
2 7 1 2 o 0.144 0.151 180.00 1.09350 0.00
13 2 0 1 o 82.278 85.986 0.00 1.09064 0.10
10 2 -4 2 o 14.773 15.234 0.00 1.09256 0.01
12 4 -2 1 o 25.668 26.320 180.00 1.08952 0.03
12 3 -3 2 o 133.072 135.771 0.00 1.09186 0.07
3 6 2 2 o 26.559 27.073 0.00 1.09180 0.02
1 2 4 2 o 2.069 2.098 0.00 1.09148 0.00
8 5 -3 2 o 13.322 13.417 180.00 1.09098 0.01
10 5 0 1 o 557.194 560.386 0.00 1.08820 0.51
13 2 0 2 o 85.756 85.986 0.00 1.09064 0.05
13 2 -3 1 o 275.033 272.839 0.00 1.08709 0.30
12 4 -2 2 o 26.598 26.320 180.00 1.08952 0.01
11 1 -4 1 o 15.235 15.035 0.00 1.08661 0.02
8 6 0 1 o 79.621 78.497 180.00 1.08650 0.07
10 5 0 2 o 573.736 560.386 0.00 1.08820 0.26
2 1 4 1 o 0.920 0.899 180.00 1.08536 0.00
12 1 1 1 o 40.936 39.628 0.00 1.08459 0.05
13 2 -3 2 o 282.366 272.839 0.00 1.08709 0.15
11 1 -4 2 o 15.638 15.035 0.00 1.08661 0.01
8 6 0 2 o 81.698 78.497 180.00 1.08650 0.03
10 0 2 1 o 289.318 275.936 0.00 1.08314 0.18
2 1 4 2 o 0.943 0.899 180.00 1.08536 0.00
12 1 1 2 o 42.034 39.628 0.00 1.08459 0.03
4 4 3 1 o 236.492 221.693 0.00 1.08103 0.27
11 3 1 1 o 270.460 253.401 0.00 1.08067 0.31
10 4 1 1 o 24.403 22.888 180.00 1.08062 0.03
14 2 -2 1 o 295.822 277.123 180.00 1.08048 0.32
10 0 2 2 o 294.671 275.936 0.00 1.08314 0.09
6 5 2 1 o 41.452 38.871 180.00 1.08006 0.05
4 4 3 2 o 230.546 221.693 0.00 1.08103 0.13
5 7 -1 1 o 1.018 0.987 180.00 1.07817 0.00
11 3 1 2 o 260.903 253.401 0.00 1.08067 0.15
10 4 1 2 o 23.524 22.888 180.00 1.08062 0.01
14 2 -2 2 o 283.790 277.123 180.00 1.08048 0.15
6 5 2 2 o 39.266 38.871 180.00 1.08006 0.02
8 6 -2 1 o 93.336 96.807 0.00 1.07617 0.10
5 7 -1 2 o 0.933 0.987 180.00 1.07817 0.00
14 2 -1 1 o 64.975 70.153 180.00 1.07511 0.07
5 7 0 1 o 98.105 108.525 180.00 1.07423 0.09
8 6 -2 2 o 86.666 96.807 0.00 1.07617 0.05
10 1 2 1 o 4.596 5.167 180.00 1.07352 0.01
9 3 -4 1 o 1.018 1.145 180.00 1.07307 0.00
14 2 -1 2 o 62.964 70.153 180.00 1.07511 0.03
3 7 1 1 o 3.440 3.804 0.00 1.07225 0.00
0 3 4 1 o 18.394 20.410 0.00 1.07224 0.02
5 7 0 2 o 99.456 108.525 180.00 1.07423 0.04
11 4 -3 1 o 0.806 0.865 180.00 1.07130 0.00
7 1 3 1 o 13.819 14.824 0.00 1.07111 0.01
10 1 2 2 o 4.839 5.167 180.00 1.07352 0.00
11 5 -1 1 o 26.301 27.617 0.00 1.07057 0.03
9 3 -4 2 o 1.095 1.145 180.00 1.07307 0.00
3 7 1 2 o 3.784 3.804 0.00 1.07225 0.00
0 3 4 2 o 20.313 20.410 0.00 1.07224 0.01
11 4 -3 2 o 0.897 0.865 180.00 1.07130 0.00
2 5 3 1 o 123.517 117.767 0.00 1.06851 0.15
7 1 3 2 o 15.561 14.824 0.00 1.07111 0.01
11 5 -1 2 o 29.718 27.617 0.00 1.07057 0.01
9 6 -1 1 o 78.592 71.655 0.00 1.06751 0.07
14 0 -3 1 o 254.044 228.397 180.00 1.06713 0.13
2 5 3 2 o 136.627 117.767 0.00 1.06851 0.08
9 6 -1 2 o 84.922 71.655 0.00 1.06751 0.04
9 3 2 1 o 280.311 236.608 180.00 1.06484 0.33
14 0 -3 2 o 271.535 228.397 180.00 1.06713 0.07
5 4 -4 1 o 191.546 160.275 180.00 1.06351 0.19
4 4 -4 1 o 187.878 157.025 0.00 1.06342 0.19
9 3 2 2 o 281.321 236.608 180.00 1.06484 0.16
9 5 -3 1 o 39.809 33.645 180.00 1.06160 0.04
5 4 -4 2 o 188.131 160.275 180.00 1.06351 0.09
4 4 -4 2 o 184.359 157.025 0.00 1.06342 0.09
8 4 2 1 o 1.555 1.340 0.00 1.05998 0.00
9 5 -3 2 o 38.950 33.645 180.00 1.06160 0.02
4 6 2 1 o 0.656 0.576 0.00 1.05880 0.00
6 3 3 1 o 24.135 22.718 0.00 1.05229 0.03
11 2 -4 1 o 1.449 1.266 180.00 1.05825 0.00
6 4 -4 1 o 107.419 93.429 0.00 1.05809 0.11
14 1 -3 1 o 244.263 212.954 180.00 1.05793 0.26
14 0 0 1 o 85.355 80.568 180.00 1.05183 0.05
3 4 -4 1 o 412.087 359.223 180.00 1.05783 0.41
8 4 2 2 o 1.525 1.340 0.00 1.05998 0.00
6 7 -1 2 o 11.724 11.101 180.00 1.05376 0.01
2 2 4 1 o 18.364 16.105 0.00 1.05710 0.02
11 5 -2 1 o 407.993 358.468 180.00 1.05693 0.41
12 0 -4 1 o 8.005 7.116 180.00 1.05643 0.00
12 2 1 1 o 4.973 4.387 0.00 1.05638 0.01
9 5 1 1 o 4.281 3.813 180.00 1.05626 0.00
4 6 2 2 o 0.641 0.576 0.00 1.05880 0.00
7 6 1 1 o 65.893 58.525 180.00 1.05611 0.06
6 3 3 2 o 23.996 22.718 0.00 1.05229 0.01
11 2 -4 2 o 1.410 1.266 180.00 1.05825 0.00
6 4 -4 2 o 104.267 93.429 0.00 1.05809 0.05
14 1 -3 2 o 236.859 212.954 180.00 1.05793 0.12
14 0 0 2 o 85.310 80.568 180.00 1.05183 0.02
3 4 -4 2 o 399.167 359.223 180.00 1.05783 0.20
12 4 0 1 o 98.848 93.239 0.00 1.04864 0.10
2 2 4 2 o 17.690 16.105 0.00 1.05710 0.01
11 5 -2 2 o 392.611 358.468 180.00 1.05693 0.20
12 0 -4 2 o 7.699 7.116 180.00 1.05643 0.00
12 2 1 2 o 4.769 4.387 0.00 1.05638 0.00
6 7 -1 1 o 12.045 11.101 180.00 1.05376 0.01
9 5 1 2 o 4.115 3.813 180.00 1.05626 0.00
2 7 -2 1 o 10.493 9.894 0.00 1.04769 0.01
7 6 1 2 o 63.209 58.525 180.00 1.05611 0.03
12 1 -4 1 o 32.014 30.214 180.00 1.04751 0.04
3 6 -3 1 o 0.004 0.003 0.00 1.04749 0.00
7 4 -4 1 o 70.910 66.948 180.00 1.04742 0.07
2 4 -4 1 o 224.990 212.880 180.00 1.04699 0.23
4 6 -3 1 o 817.326 774.174 0.00 1.04689 0.96
4 7 1 1 o 0.563 0.532 0.00 1.04687 0.00
3 7 -2 1 o 14.105 13.403 0.00 1.04641 0.02
3 1 4 1 o 0.478 0.453 0.00 1.04622 0.00
10 2 2 1 o 7.136 6.818 180.00 1.04615 0.01
12 4 0 2 o 97.485 93.239 0.00 1.04864 0.05
10 3 -4 1 o 20.028 19.243 0.00 1.04575 0.02
2 7 -2 2 o 10.173 9.894 0.00 1.04769 0.01
12 1 -4 2 o 30.940 30.214 180.00 1.04751 0.02
3 6 -3 2 o 0.004 0.003 0.00 1.04749 0.00
7 4 -4 2 o 68.424 66.948 180.00 1.04742 0.03
1 3 4 1 o 28.405 27.807 0.00 1.04481 0.03
2 4 -4 2 o 215.457 212.880 180.00 1.04699 0.11
4 6 -3 2 o 781.635 774.174 0.00 1.04689 0.46
4 7 1 2 o 0.537 0.532 0.00 1.04687 0.00
6 7 0 1 o 40.842 40.668 0.00 1.04410 0.03
13 3 0 1 o 6.534 6.510 0.00 1.04407 0.01
7 2 3 1 o 81.006 81.023 180.00 1.04392 0.09
3 7 -2 2 o 13.372 13.403 0.00 1.04641 0.01
1 7 -2 1 o 452.952 455.745 180.00 1.04369 0.58
3 1 4 2 o 0.449 0.453 0.00 1.04622 0.00
10 2 2 2 o 6.758 6.818 180.00 1.04615 0.00
10 3 -4 2 o 18.875 19.243 0.00 1.04575 0.01
14 1 0 1 o 1.523 1.557 180.00 1.04302 0.00
2 6 -3 1 o 272.582 280.580 0.00 1.04282 0.33
1 3 4 2 o 26.620 27.807 0.00 1.04481 0.01
9 6 -2 1 o 3.684 3.866 180.00 1.04200 0.00
6 7 0 2 o 38.266 40.668 0.00 1.04410 0.02
13 3 0 2 o 6.118 6.510 0.00 1.04407 0.00
7 2 3 2 o 75.933 81.023 180.00 1.04392 0.04
1 7 -2 2 o 424.990 455.745 180.00 1.04369 0.27
5 6 -3 1 o 77.788 83.517 0.00 1.04105 0.09
13 3 -3 1 o 35.630 38.337 0.00 1.04095 0.04
15 1 -2 1 o 59.215 64.138 180.00 1.04060 0.06
14 1 0 2 o 1.442 1.557 180.00 1.04302 0.00
2 6 -3 2 o 257.545 280.580 0.00 1.04282 0.16
4 7 -2 1 o 0.023 0.027 180.00 1.03991 0.00
9 6 0 1 o 66.361 73.076 0.00 1.03946 0.05
9 6 -2 2 o 3.519 3.866 180.00 1.04200 0.00
5 6 -3 2 o 75.324 83.517 0.00 1.04105 0.04
13 3 -3 2 o 34.556 38.337 0.00 1.04095 0.02
15 1 -2 2 o 57.810 64.138 180.00 1.04060 0.03
5 4 3 1 o 80.029 88.813 0.00 1.03782 0.09
4 7 -2 2 o 0.023 0.027 180.00 1.03991 0.00
9 6 0 2 o 66.258 73.076 0.00 1.03946 0.03
3 5 3 1 o 29.908 32.990 0.00 1.03685 0.04
5 4 3 2 o 82.405 88.813 0.00 1.03782 0.05
14 3 -2 1 o 9.452 10.169 0.00 1.03515 0.01
0 7 2 1 o 2.348 2.499 0.00 1.03460 0.00
3 5 3 2 o 31.219 32.990 0.00 1.03685 0.02
13 4 -1 1 o 0.797 0.844 180.00 1.03415 0.00
13 4 -2 1 o 17.350 17.860 180.00 1.03314 0.02
1 6 -3 1 o 72.219 74.303 180.00 1.03308 0.09
14 3 -2 2 o 9.979 10.169 0.00 1.03515 0.01
7 5 2 1 o 7.950 8.085 180.00 1.03251 0.01
0 7 2 2 o 2.477 2.499 0.00 1.03460 0.00
8 4 -4 1 o 30.955 31.171 180.00 1.03196 0.03
14 2 -3 1 o 45.258 45.402 0.00 1.03171 0.05
13 4 -1 2 o 0.843 0.844 180.00 1.03415 0.00
1 4 -4 1 o 83.828 83.736 0.00 1.03138 0.09
11 5 0 1 o 5.127 5.090 180.00 1.03070 0.00
13 4 -2 2 o 17.990 17.860 180.00 1.03314 0.01
1 6 -3 2 o 74.872 74.303 180.00 1.03308 0.05
14 3 -1 1 o 2.646 2.625 0.00 1.03043 0.00
6 6 -3 1 o 382.750 379.603 0.00 1.03023 0.43
15 1 -1 1 o 0.001 0.001 0.00 1.03006 0.00
7 5 2 2 o 8.151 8.085 180.00 1.03251 0.00
8 4 -4 2 o 31.326 31.171 180.00 1.03196 0.02
10 5 -3 1 o 80.580 80.198 0.00 1.02940 0.08
14 2 -3 2 o 45.518 45.402 0.00 1.03171 0.02
1 4 -4 2 o 83.601 83.736 0.00 1.03138 0.04
5 7 -2 1 o 22.440 22.610 0.00 1.02847 0.03
11 5 0 2 o 5.020 5.090 180.00 1.03070 0.00
12 4 -3 1 o 96.533 98.008 0.00 1.02807 0.10
14 3 -1 2 o 2.574 2.625 0.00 1.03043 0.00
6 6 -3 2 o 370.837 379.603 0.00 1.03023 0.21
15 1 -1 2 o 0.001 0.001 0.00 1.03006 0.00
10 5 -3 2 o 76.811 80.198 0.00 1.02940 0.04
5 7 -2 2 o 21.201 22.610 0.00 1.02847 0.01
7 7 -1 1 o 0.197 0.211 0.00 1.02592 0.00
12 4 -3 2 o 91.162 98.008 0.00 1.02807 0.05
5 6 2 1 o 10.618 11.763 180.00 1.02364 0.01
10 6 -1 1 o 0.027 0.030 180.00 1.02343 0.00
7 7 -1 2 o 0.190 0.211 0.00 1.02592 0.00
8 0 3 1 o 114.012 127.650 180.00 1.02238 0.06
12 2 -4 1 o 244.458 274.958 0.00 1.02203 0.27
5 6 2 2 o 10.343 11.763 180.00 1.02364 0.01
10 6 -1 2 o 0.027 0.030 180.00 1.02343 0.00
3 2 4 1 o 220.677 251.515 0.00 1.02084 0.23
1 7 2 1 o 9.625 10.988 180.00 1.02079 0.01
8 0 3 2 o 110.941 127.650 180.00 1.02238 0.03
12 2 -4 2 o 237.900 274.958 0.00 1.02203 0.13
0 6 3 1 o 118.959 138.129 180.00 1.01871 0.15
11 4 1 1 o 32.955 38.372 0.00 1.01871 0.04
15 2 -2 2 o 6.330 6.457 0.00 1.01562 0.00
11 3 -4 2 o 10.779 10.989 180.00 1.01556 0.01
3 2 4 2 o 216.970 251.515 0.00 1.02084 0.11
5 7 1 1 o 28.449 33.011 0.00 1.01830 0.03
1 7 2 2 o 9.468 10.988 180.00 1.02079 0.01
6 7 -2 1 o 1.528 1.550 180.00 1.01259 0.00
7 6 -3 2 o 0.265 0.268 0.00 1.01488 0.00
14 2 0 1 o 2.253 2.624 180.00 1.01786 0.00
9 4 -4 1 o 71.511 72.433 180.00 1.01234 0.07
13 1 1 1 o 16.268 16.477 180.00 1.01232 0.02
8 6 1 1 o 1.109 1.122 0.00 1.01214 0.00
2 3 4 2 o 353.081 357.516 0.00 1.01454 0.18
8 1 3 2 o 207.407 210.117 180.00 1.01428 0.11
4 0 4 2 o 2.622 2.657 180.00 1.01420 0.00
0 4 4 1 o 3.869 3.922 180.00 1.01164 0.00
7 7 0 1 o 176.865 179.417 0.00 1.01157 0.14
12 3 1 2 o 0.149 0.151 180.00 1.01390 0.00
12 5 -1 1 o 14.431 16.073 180.00 1.01631 0.01
0 6 3 2 o 123.777 138.129 180.00 1.01871 0.08
11 4 1 2 o 34.320 38.372 0.00 1.01871 0.02
5 7 1 2 o 29.974 33.011 0.00 1.01830 0.01
15 2 -2 1 o 5.905 6.457 0.00 1.01562 0.01
6 7 -2 2 o 1.498 1.550 180.00 1.01259 0.00
11 3 -4 1 o 10.056 10.989 180.00 1.01556 0.01
12 5 -2 1 o 29.261 30.346 180.00 1.00994 0.03
14 2 0 2 o 2.409 2.624 180.00 1.01786 0.00
9 4 -4 2 o 69.763 72.433 180.00 1.01234 0.04
13 1 1 2 o 15.865 16.477 180.00 1.01232 0.01
8 6 1 2 o 1.081 1.122 0.00 1.01214 0.00
0 8 0 1 o 22.989 24.036 180.00 1.00949 0.01
7 6 -3 1 o 0.252 0.268 0.00 1.01488 0.00
0 4 4 2 o 3.740 3.922 180.00 1.01164 0.00
7 7 0 2 o 170.739 179.417 0.00 1.01157 0.07
2 3 4 1 o 338.687 357.516 0.00 1.01454 0.35
8 1 3 1 o 200.695 210.117 180.00 1.01428 0.21
4 0 4 1 o 2.544 2.657 180.00 1.01420 0.00
12 3 1 1 o 0.146 0.151 180.00 1.01390 0.00
12 5 -1 2 o 15.562 16.073 180.00 1.01631 0.01
13 1 -4 1 o 0.376 0.397 0.00 1.00759 0.00
12 5 -2 2 o 28.648 30.346 180.00 1.00994 0.01
11 1 2 1 o 0.000 0.000 180.00 1.00739 0.00
1 8 0 1 o 165.049 174.355 0.00 1.00713 0.18
0 8 0 2 o 22.747 24.036 180.00 1.00949 0.01
4 1 4 1 o 17.552 18.326 0.00 1.00629 0.02
10 6 -2 1 o 39.604 41.221 0.00 1.00615 0.04
15 2 -1 1 o 57.050 59.064 180.00 1.00581 0.06
9 4 2 1 o 10.364 10.630 0.00 1.00542 0.01
13 1 -4 2 o 0.390 0.397 0.00 1.00759 0.00
11 1 2 2 o 0.000 0.000 180.00 1.00739 0.00
10 3 2 1 o 40.435 40.949 180.00 1.00485 0.05
1 8 0 2 o 172.974 174.355 0.00 1.00713 0.09
4 1 4 2 o 18.525 18.326 0.00 1.00629 0.01
10 6 -2 2 o 41.779 41.221 0.00 1.00615 0.02
15 2 -1 2 o 60.289 59.064 180.00 1.00581 0.03
4 5 3 1 o 257.175 251.200 0.00 1.00317 0.30
9 4 2 2 o 10.917 10.630 0.00 1.00542 0.01
7 3 3 1 o 0.103 0.101 180.00 1.00287 0.00
2 7 2 1 o 11.553 11.225 180.00 1.00284 0.01
10 5 1 1 o 87.823 85.350 180.00 1.00284 0.08
10 3 2 2 o 42.425 40.949 180.00 1.00485 0.03
15 1 -3 1 o 98.184 94.459 180.00 1.00202 0.10
6 0 -5 1 o 648.761 622.050 180.00 1.00148 0.37
4 5 3 2 o 262.566 251.200 0.00 1.00317 0.15
7 3 3 2 o 0.104 0.101 180.00 1.00287 0.00
2 7 2 2 o 11.730 11.225 180.00 1.00284 0.01
10 5 1 2 o 89.150 85.350 180.00 1.00284 0.04
1 6 3 1 o 23.818 22.791 180.00 1.00027 0.03
2 8 0 1 o 1.842 1.762 0.00 1.00014 0.00
15 1 -3 2 o 98.406 94.459 180.00 1.00202 0.05
6 0 -5 2 o 645.715 622.050 180.00 1.00148 0.18
1 6 3 2 o 23.468 22.791 180.00 1.00027 0.01
2 8 0 2 o 1.814 1.762 0.00 1.00014 0.00
8 6 -3 1 o 73.565 72.564 180.00 0.99562 0.08
8 7 -1 1 o 0.059 0.058 0.00 0.99560 0.00
4 0 -5 1 o 5.369 5.302 180.00 0.99556 0.00
11 5 -3 1 o 0.204 0.201 0.00 0.99538 0.00
6 4 3 1 o 0.240 0.238 180.00 0.99483 0.00
6 1 -5 1 o 2.871 2.874 180.00 0.99387 0.00
10 6 0 1 o 698.214 701.344 180.00 0.99350 0.58
5 1 -5 1 o 19.448 19.588 180.00 0.99321 0.02
8 6 -3 2 o 72.016 72.564 180.00 0.99562 0.04
8 7 -1 2 o 0.058 0.058 0.00 0.99560 0.00
4 0 -5 2 o 5.262 5.302 180.00 0.99556 0.00
11 5 -3 2 o 0.200 0.201 0.00 0.99538 0.00
7 7 -2 1 o 38.368 38.764 0.00 0.99287 0.04
6 4 3 2 o 0.235 0.238 180.00 0.99483 0.00
14 3 -3 1 o 0.046 0.047 180.00 0.99203 0.00
6 1 -5 2 o 2.812 2.874 180.00 0.99387 0.00
8 2 3 1 o 68.583 70.122 0.00 0.99110 0.07
10 6 0 2 o 685.656 701.344 180.00 0.99350 0.29
5 1 -5 2 o 19.126 19.588 180.00 0.99321 0.01
7 7 -2 2 o 37.814 38.764 0.00 0.99287 0.02
7 1 -5 1 o 40.937 42.001 180.00 0.99002 0.05
14 3 -3 2 o 0.045 0.047 180.00 0.99203 0.00
1 8 -1 1 o 101.396 103.992 0.00 0.98956 0.11
10 4 -4 1 o 15.490 15.894 180.00 0.98931 0.02
13 2 1 1 o 49.774 51.079 0.00 0.98927 0.06
8 0 -5 1 o 677.576 695.056 180.00 0.98916 0.39
5 5 -4 1 o 147.333 151.145 0.00 0.98912 0.16
4 5 -4 1 o 32.595 33.430 0.00 0.98904 0.03
3 8 0 1 o 33.473 34.338 180.00 0.98880 0.03
8 2 3 2 o 68.418 70.122 0.00 0.99110 0.04
1 4 4 1 o 5.062 5.191 0.00 0.98851 0.01
4 1 -5 1 o 61.232 62.702 0.00 0.98808 0.07
2 8 -1 1 o 82.569 84.482 180.00 0.98791 0.09
13 4 0 1 o 14.482 14.817 0.00 0.98788 0.02
7 1 -5 2 o 41.086 42.001 180.00 0.99002 0.02
6 7 1 1 o 41.060 41.949 180.00 0.98748 0.04
6 6 2 1 o 184.754 188.601 0.00 0.98730 0.20
1 8 -1 2 o 101.980 103.992 0.00 0.98956 0.06
10 4 -4 2 o 15.600 15.894 180.00 0.98931 0.01
13 2 1 2 o 50.137 51.079 0.00 0.98927 0.03
0 8 1 1 o 52.472 53.424 180.00 0.98676 0.06
8 0 -5 2 o 682.796 695.056 180.00 0.98916 0.20
5 5 -4 2 o 148.505 151.145 0.00 0.98912 0.08
4 5 -4 2 o 32.863 33.430 0.00 0.98904 0.02
3 8 0 2 o 33.792 34.338 180.00 0.98880 0.02
8 5 2 1 o 0.033 0.033 0.00 0.98628 0.00
1 4 4 2 o 5.117 5.191 0.00 0.98851 0.00
4 1 -5 2 o 62.011 62.702 0.00 0.98808 0.04
2 8 -1 2 o 83.668 84.482 180.00 0.98791 0.05
13 4 0 2 o 14.677 14.817 0.00 0.98788 0.01
14 4 -2 1 o 58.420 55.581 0.00 0.98031 0.06
13 4 -3 1 o 19.819 19.974 0.00 0.98524 0.02
16 0 -2 1 o 0.085 0.086 180.00 0.98519 0.00
11 6 -1 1 o 46.196 43.738 180.00 0.98003 0.04
6 7 1 2 o 41.690 41.949 180.00 0.98748 0.02
3 3 4 2 o 162.685 153.849 0.00 0.98235 0.09
6 6 2 2 o 187.713 188.601 0.00 0.98730 0.10
13 2 -4 1 o 81.593 81.967 180.00 0.98486 0.09
14 3 0 1 o 8.678 8.169 0.00 0.97970 0.01
6 5 -4 1 o 22.829 22.914 180.00 0.98475 0.02
15 2 -3 1 o 3.141 2.962 0.00 0.97965 0.00
1 8 1 1 o 256.161 240.949 180.00 0.97962 0.29
11 2 2 1 o 0.876 0.878 180.00 0.98467 0.00
3 8 -1 2 o 1.059 0.999 0.00 0.98187 0.00
3 5 -4 1 o 2.447 2.452 180.00 0.98454 0.00
8 1 -5 2 o 42.547 39.866 0.00 0.98182 0.02
0 8 1 2 o 53.419 53.424 180.00 0.98676 0.03
3 7 2 2 o 30.933 28.737 0.00 0.98142 0.02
8 5 2 2 o 0.033 0.033 0.00 0.98628 0.00
3 1 -5 1 o 50.140 46.331 180.00 0.97867 0.06
4 2 4 1 o 51.759 51.424 180.00 0.98364 0.05
2 6 3 1 o 126.211 116.300 180.00 0.97845 0.16
12 3 -4 1 o 188.896 187.255 0.00 0.98342 0.20
16 1 -2 1 o 3.026 2.774 0.00 0.97794 0.00
14 4 -2 2 o 60.824 55.581 0.00 0.98031 0.03
13 4 -3 2 o 20.283 19.974 0.00 0.98524 0.01
16 0 -2 2 o 0.088 0.086 180.00 0.98519 0.00
15 3 -2 1 o 3.268 2.996 0.00 0.97770 0.00
11 6 -1 2 o 48.060 43.738 180.00 0.98003 0.02
8 7 0 1 o 3.811 3.475 180.00 0.97756 0.00
13 2 -4 2 o 83.566 81.967 180.00 0.98486 0.05
3 3 4 1 o 157.021 153.849 0.00 0.98235 0.16
14 3 0 2 o 9.014 8.169 0.00 0.97970 0.01
6 5 -4 2 o 23.391 22.914 180.00 0.98475 0.01
15 2 -3 2 o 3.257 2.962 0.00 0.97965 0.00
1 8 1 2 o 265.802 240.949 180.00 0.97962 0.15
11 2 2 2 o 0.897 0.878 180.00 0.98467 0.00
12 5 0 1 o 342.781 310.290 0.00 0.97712 0.33
3 5 -4 2 o 2.511 2.452 180.00 0.98454 0.00
3 8 -1 1 o 1.023 0.999 0.00 0.98187 0.00
8 1 -5 1 o 40.963 39.866 0.00 0.98182 0.05
3 7 2 1 o 29.714 28.737 0.00 0.98142 0.04
14 4 -1 1 o 5.875 5.274 0.00 0.97630 0.01
3 1 -5 2 o 51.533 46.331 180.00 0.97867 0.03
4 2 4 2 o 53.305 51.424 180.00 0.98364 0.03
7 5 -4 1 o 103.584 93.139 180.00 0.97613 0.11
2 6 3 2 o 129.258 116.300 180.00 0.97845 0.08
12 3 -4 2 o 194.706 187.255 0.00 0.98342 0.11
2 5 -4 1 o 2.452 2.213 0.00 0.97579 0.00
16 1 -2 2 o 3.071 2.774 0.00 0.97794 0.00
15 3 -2 2 o 3.300 2.996 0.00 0.97770 0.00
8 7 0 2 o 3.840 3.475 180.00 0.97756 0.00
14 0 -4 1 o 107.663 97.554 180.00 0.97473 0.06
12 5 0 2 o 342.291 310.290 0.00 0.97712 0.16
15 1 0 1 o 2.844 2.584 0.00 0.97453 0.00
14 4 -1 2 o 5.766 5.274 0.00 0.97630 0.00
7 5 -4 2 o 101.375 93.139 180.00 0.97613 0.05
4 8 0 1 o 3.061 2.833 180.00 0.97356 0.00
2 5 -4 2 o 2.387 2.213 0.00 0.97579 0.00
9 6 -3 1 o 25.023 23.248 0.00 0.97313 0.03
14 0 -4 2 o 103.473 97.554 180.00 0.97473 0.03
2 0 -5 1 o 0.151 0.140 180.00 0.97232 0.00
15 1 0 2 o 2.731 2.584 0.00 0.97453 0.00
6 2 -5 1 o 148.241 140.582 0.00 0.97203 0.16
4 8 -1 1 o 1.759 1.677 0.00 0.97168 0.00
16 0 -1 1 o 93.313 89.130 180.00 0.97143 0.05
5 2 -5 1 o 43.818 41.887 180.00 0.97142 0.05
4 8 0 2 o 2.950 2.833 180.00 0.97356 0.00
9 6 -3 2 o 24.172 23.248 0.00 0.97313 0.01
8 7 -2 1 o 55.702 53.713 0.00 0.97002 0.06
2 0 -5 2 o 0.146 0.140 180.00 0.97232 0.00
6 2 -5 2 o 145.786 140.582 0.00 0.97203 0.08
9 1 -5 1 o 105.458 101.598 0.00 0.96960 0.12
11 6 -2 1 o 12.206 11.756 180.00 0.96954 0.01
4 8 -1 2 o 1.742 1.677 0.00 0.97168 0.00
16 0 -1 2 o 92.848 89.130 180.00 0.97143 0.03
5 2 -5 2 o 43.612 41.887 180.00 0.97142 0.02
9 6 1 1 o 23.056 22.155 180.00 0.96902 0.02
15 3 -1 1 o 68.035 65.305 180.00 0.96894 0.07
7 2 -5 1 o 136.332 130.047 180.00 0.96843 0.15
2 8 1 1 o 68.350 65.198 0.00 0.96842 0.08
5 5 3 1 o 72.492 69.095 0.00 0.96835 0.09
14 1 -4 1 o 68.554 64.690 0.00 0.96771 0.08
8 7 -2 2 o 57.007 53.713 0.00 0.97002 0.03
9 1 -5 2 o 108.734 101.598 0.00 0.96960 0.06
11 6 -2 2 o 12.596 11.756 180.00 0.96954 0.01
9 6 1 2 o 23.943 22.155 180.00 0.96902 0.01
4 2 -5 1 o 14.664 13.546 0.00 0.96661 0.02
15 3 -1 2 o 70.739 65.305 180.00 0.96894 0.04
5 1 4 1 o 175.398 161.396 180.00 0.96642 0.18
7 2 -5 2 o 142.427 130.047 180.00 0.96843 0.08
2 8 1 2 o 71.400 65.198 0.00 0.96842 0.04
5 5 3 2 o 75.744 69.095 0.00 0.96835 0.04
13 5 -1 1 o 7.361 6.640 180.00 0.96537 0.01
2 1 -5 1 o 18.806 16.935 180.00 0.96535 0.02
14 1 -4 2 o 71.688 64.690 0.00 0.96771 0.04
13 5 -2 1 o 31.881 28.457 0.00 0.96454 0.03
16 1 -1 1 o 4.629 4.118 180.00 0.96447 0.01
4 2 -5 2 o 15.189 13.546 0.00 0.96661 0.01
5 1 4 2 o 181.141 161.396 180.00 0.96642 0.09
9 7 -1 1 o 71.715 63.844 180.00 0.96366 0.07
11 4 -4 1 o 114.458 101.925 0.00 0.96362 0.12
8 5 -4 1 o 34.594 30.780 180.00 0.96358 0.04
1 5 -4 1 o 5.161 4.616 180.00 0.96311 0.01
13 5 -1 2 o 7.434 6.640 180.00 0.96537 0.00
2 1 -5 2 o 18.985 16.935 180.00 0.96535 0.01
2 4 4 1 o 1.995 1.791 180.00 0.96275 0.00
12 4 1 1 o 5.359 4.833 180.00 0.96221 0.01
13 5 -2 2 o 31.515 28.457 0.00 0.96454 0.02
16 1 -1 2 o 4.566 4.118 180.00 0.96447 0.00
9 1 3 1 o 0.604 0.550 180.00 0.96150 0.00
9 7 -1 2 o 69.383 63.844 180.00 0.96366 0.03
11 4 -4 2 o 110.660 101.925 0.00 0.96362 0.06
8 5 -4 2 o 33.407 30.780 180.00 0.96358 0.02
8 2 -5 1 o 86.390 80.590 0.00 0.96075 0.10
1 5 -4 2 o 4.944 4.616 180.00 0.96311 0.00
10 0 -5 1 o 26.996 25.279 0.00 0.96051 0.02
12 5 -3 1 o 102.181 96.067 0.00 0.96042 0.11
2 4 4 2 o 1.901 1.791 180.00 0.96275 0.00
12 4 1 2 o 5.072 4.833 180.00 0.96221 0.00
9 1 3 2 o 0.569 0.550 180.00 0.96150 0.00
8 2 -5 2 o 81.973 80.590 0.00 0.96075 0.05
10 0 -5 2 o 25.623 25.279 0.00 0.96051 0.01
12 5 -3 2 o 97.199 96.067 0.00 0.96042 0.05
14 0 1 2 o 2.373 2.431 0.00 0.95546 0.00
3 2 -5 1 o 79.835 79.205 0.00 0.95780 0.09
5 8 -1 1 o 110.194 109.445 0.00 0.95772 0.12
7 7 1 2 o 9.591 9.807 180.00 0.95525 0.00
11 5 1 1 o 206.882 211.652 180.00 0.95277 0.21
7 4 3 1 o 0.862 0.883 180.00 0.95277 0.00
5 8 0 2 o 0.272 0.279 180.00 0.95495 0.00
4 7 2 1 o 52.156 52.109 0.00 0.95724 0.06
12 0 2 2 o 34.001 34.726 180.00 0.95479 0.01
16 2 -2 1 o 11.546 11.551 0.00 0.95712 0.01
10 4 2 2 o 5.105 5.206 180.00 0.95446 0.00
16 0 -3 1 o 228.085 228.950 180.00 0.95679 0.12
13 3 1 2 o 13.979 14.211 0.00 0.95413 0.01
3 6 3 2 o 46.387 47.108 0.00 0.95397 0.03
15 2 0 2 o 0.493 0.501 0.00 0.95392 0.00
10 1 -5 2 o 48.509 49.193 180.00 0.95379 0.03
3 8 1 2 o 32.381 32.782 180.00 0.95357 0.02
8 3 3 1 o 160.341 162.421 180.00 0.95577 0.19
14 0 1 1 o 2.394 2.431 0.00 0.95546 0.00
3 2 -5 2 o 77.995 79.205 0.00 0.95780 0.04
5 8 -1 2 o 107.727 109.445 0.00 0.95772 0.06
7 6 2 1 o 5.734 5.777 0.00 0.95058 0.01
7 7 1 1 o 9.651 9.807 180.00 0.95525 0.01
11 5 1 2 o 210.177 211.652 180.00 0.95277 0.11
7 4 3 2 o 0.876 0.883 180.00 0.95277 0.00
5 8 0 1 o 0.273 0.279 180.00 0.95495 0.00
4 7 2 2 o 51.129 52.109 0.00 0.95724 0.03
13 3 -4 1 o 1.052 1.058 180.00 0.95017 0.00
16 1 -3 1 o 231.578 232.941 180.00 0.95015 0.25
12 0 2 1 o 34.051 34.726 180.00 0.95479 0.02
16 2 -2 2 o 11.322 11.551 0.00 0.95712 0.01
11 3 2 1 o 12.847 12.916 180.00 0.95000 0.02
10 4 2 1 o 5.093 5.206 180.00 0.95446 0.01
16 0 -3 2 o 224.069 228.950 180.00 0.95679 0.06
13 3 1 1 o 13.894 14.211 0.00 0.95413 0.02
3 6 3 1 o 46.020 47.108 0.00 0.95397 0.06
9 2 -5 1 o 1.960 1.973 0.00 0.94929 0.00
15 2 0 1 o 0.489 0.501 0.00 0.95392 0.00
11 6 0 1 o 3.237 3.260 180.00 0.94917 0.00
10 1 -5 1 o 48.034 49.193 180.00 0.95379 0.06
4 3 4 1 o 134.279 135.250 180.00 0.94908 0.15
3 8 1 1 o 31.996 32.782 180.00 0.95357 0.03
3 7 -3 1 o 10.575 10.666 0.00 0.94885 0.01
14 1 1 1 o 9.620 9.705 0.00 0.94884 0.01
8 3 3 2 o 158.514 162.421 180.00 0.95577 0.09
1 1 -5 1 o 47.593 48.116 0.00 0.94860 0.05
4 7 -3 1 o 0.095 0.096 180.00 0.94841 0.00
7 6 2 2 o 5.696 5.777 0.00 0.95058 0.00
12 1 2 1 o 18.380 18.666 0.00 0.94818 0.02
10 6 -3 1 o 122.737 124.690 180.00 0.94815 0.13
13 3 -4 2 o 1.037 1.058 180.00 0.95017 0.00
16 1 -3 2 o 228.250 232.941 180.00 0.95015 0.13
11 3 2 2 o 12.632 12.916 180.00 0.95000 0.01
9 5 -4 1 o 29.615 30.348 0.00 0.94755 0.03
14 2 -4 1 o 54.270 55.659 180.00 0.94752 0.06
0 5 4 1 o 0.133 0.139 0.00 0.94698 0.00
9 2 -5 2 o 1.903 1.973 0.00 0.94929 0.00
11 6 0 2 o 3.139 3.260 180.00 0.94917 0.00
4 3 4 2 o 130.219 135.250 180.00 0.94908 0.07
3 7 -3 2 o 10.235 10.666 0.00 0.94885 0.01
14 1 1 2 o 9.303 9.705 0.00 0.94884 0.01
5 2 4 1 o 31.468 32.918 0.00 0.94631 0.03
1 1 -5 2 o 45.911 48.116 0.00 0.94860 0.03
4 7 -3 2 o 0.091 0.096 180.00 0.94841 0.00
12 1 2 2 o 17.680 18.666 0.00 0.94818 0.01
10 6 -3 2 o 118.047 124.690 180.00 0.94815 0.06
15 3 -3 1 o 15.918 16.899 0.00 0.94549 0.02
2 7 -3 1 o 26.239 27.983 180.00 0.94538 0.04
2 2 -5 1 o 18.380 19.596 180.00 0.94530 0.02
9 5 -4 2 o 28.393 30.348 0.00 0.94755 0.02
14 2 -4 2 o 51.997 55.659 180.00 0.94752 0.03
9 7 -2 1 o 51.370 55.448 180.00 0.94477 0.05
0 5 4 2 o 0.127 0.139 0.00 0.94698 0.00
16 2 -1 1 o 41.631 45.176 180.00 0.94448 0.05
5 7 -3 1 o 0.276 0.300 0.00 0.94406 0.00
5 2 4 2 o 30.060 32.918 0.00 0.94631 0.02
14 4 -3 1 o 0.211 0.235 0.00 0.94345 0.00
15 3 -3 2 o 15.123 16.899 0.00 0.94549 0.01
2 7 -3 2 o 24.845 27.983 180.00 0.94538 0.02
2 2 -5 2 o 17.417 19.596 180.00 0.94530 0.01
9 7 0 1 o 1.988 2.259 180.00 0.94288 0.00
9 7 -2 2 o 48.283 55.448 180.00 0.94477 0.03
16 2 -1 2 o 38.986 45.176 180.00 0.94448 0.02
9 5 2 1 o 1.921 2.275 180.00 0.94187 0.00
5 7 -3 2 o 0.259 0.300 0.00 0.94406 0.00
9 2 3 1 o 4.657 5.494 0.00 0.94169 0.01
14 4 -3 2 o 0.194 0.235 0.00 0.94345 0.00
9 7 0 2 o 1.810 2.259 180.00 0.94288 0.00
6 8 -1 1 o 91.885 113.873 0.00 0.94049 0.10
9 5 2 2 o 1.741 2.275 180.00 0.94187 0.00
9 2 3 2 o 4.257 5.494 0.00 0.94169 0.00
6 3 -5 1 o 0.714 0.940 180.00 0.93863 0.00
6 8 -1 2 o 86.124 113.873 0.00 0.94049 0.05
1 7 -3 1 o 9.257 12.189 180.00 0.93811 0.01
5 3 -5 1 o 3.270 4.344 180.00 0.93808 0.00
12 6 -1 1 o 1.394 1.793 0.00 0.93790 0.00
6 3 -5 2 o 0.724 0.940 180.00 0.93863 0.00
2 8 -2 1 o 97.317 125.298 0.00 0.93617 0.13
12 4 -4 1 o 111.238 142.790 180.00 0.93604 0.13
6 7 -3 1 o 2.640 3.394 0.00 0.93597 0.00
1 7 -3 2 o 9.616 12.189 180.00 0.93811 0.01
5 3 -5 2 o 3.407 4.344 180.00 0.93808 0.00
12 6 -1 2 o 1.456 1.793 0.00 0.93790 0.00
4 8 1 1 o 16.588 20.903 0.00 0.93558 0.02
7 3 -5 1 o 15.682 19.630 0.00 0.93539 0.02
3 8 -2 1 o 108.959 135.210 180.00 0.93525 0.14
0 0 5 1 o 119.663 147.946 0.00 0.93518 0.07
3 4 4 1 o 12.685 15.551 180.00 0.93512 0.01
11 1 -5 1 o 3.327 4.070 0.00 0.93494 0.00
10 2 -5 1 o 0.416 0.498 180.00 0.93444 0.00
14 2 1 1 o 50.790 48.435 180.00 0.92979 0.07
1 2 -5 1 o 1.034 0.982 180.00 0.92956 0.00
2 8 -2 2 o 109.232 125.298 0.00 0.93617 0.07
4 3 -5 1 o 21.781 24.777 0.00 0.93375 0.02
12 4 -4 2 o 125.371 142.790 180.00 0.93604 0.07
6 7 -3 2 o 2.986 3.394 0.00 0.93597 0.00
6 8 0 1 o 0.248 0.276 180.00 0.93360 0.00
12 2 2 1 o 67.951 64.527 0.00 0.92917 0.09
6 0 4 1 o 0.407 0.468 180.00 0.93342 0.00
0 1 5 1 o 50.475 47.965 0.00 0.92897 0.06
1 8 -2 1 o 103.225 114.385 180.00 0.93331 0.14
4 8 1 2 o 18.870 20.903 0.00 0.93558 0.01
15 4 -2 2 o 3.642 3.461 0.00 0.93110 0.00
6 5 3 1 o 1.424 1.571 180.00 0.93315 0.00
5 7 2 2 o 57.728 54.926 0.00 0.93102 0.03
16 2 -3 2 o 27.851 26.508 0.00 0.93101 0.02
7 3 -5 2 o 17.912 19.630 0.00 0.93539 0.01
10 5 -4 1 o 1.656 1.578 180.00 0.92859 0.00
10 7 -1 2 o 24.636 23.483 0.00 0.93087 0.01
3 8 -2 2 o 124.475 135.210 180.00 0.93525 0.08
15 1 -4 1 o 18.751 17.887 0.00 0.92851 0.02
12 6 -2 1 o 2.180 2.345 0.00 0.93288 0.00
0 0 5 2 o 136.804 147.946 0.00 0.93518 0.04
8 3 -5 1 o 6.934 6.622 180.00 0.92847 0.01
14 4 0 1 o 0.008 0.009 0.00 0.93283 0.00
3 4 4 2 o 14.458 15.551 180.00 0.93512 0.01
4 8 -2 2 o 20.810 19.898 0.00 0.93060 0.01
11 1 -5 2 o 3.814 4.070 0.00 0.93494 0.00
1 5 4 1 o 2.753 2.650 180.00 0.92793 0.00
10 2 -5 2 o 0.479 0.498 180.00 0.93444 0.00
4 6 3 1 o 9.593 9.305 0.00 0.92754 0.01
14 2 1 2 o 49.798 48.435 180.00 0.92979 0.03
13 5 0 1 o 4.564 4.454 0.00 0.92741 0.00
0 7 3 1 o 8.047 7.871 180.00 0.92731 0.01
10 6 1 1 o 99.763 97.704 0.00 0.92728 0.10
1 2 -5 2 o 1.003 0.982 180.00 0.92956 0.00
6 1 4 1 o 0.394 0.387 0.00 0.92725 0.00
4 3 -5 2 o 24.711 24.777 0.00 0.93375 0.01
6 8 0 2 o 0.277 0.276 180.00 0.93360 0.00
12 2 2 2 o 65.079 64.527 0.00 0.92917 0.04
0 8 2 1 o 5.487 5.458 180.00 0.92679 0.01
6 0 4 2 o 0.474 0.468 180.00 0.93342 0.00
15 4 -2 1 o 3.504 3.461 0.00 0.93110 0.00
0 1 5 2 o 48.047 47.965 0.00 0.92897 0.03
5 7 2 1 o 55.758 54.926 0.00 0.93102 0.06
1 8 -2 2 o 116.109 114.385 180.00 0.93331 0.08
16 2 -3 1 o 26.916 26.508 0.00 0.93101 0.03
10 7 -1 1 o 23.969 23.483 0.00 0.93087 0.02
6 5 3 2 o 1.605 1.571 180.00 0.93315 0.00
10 5 -4 2 o 1.560 1.578 180.00 0.92859 0.00
4 8 -2 1 o 20.484 19.898 0.00 0.93060 0.03
12 6 -2 2 o 2.411 2.345 0.00 0.93288 0.00
15 1 -4 2 o 17.622 17.887 0.00 0.92851 0.01
14 4 0 2 o 0.010 0.009 0.00 0.93283 0.00
8 3 -5 2 o 6.517 6.622 180.00 0.92847 0.00
3 3 -5 1 o 5.159 5.327 0.00 0.92580 0.01
1 5 4 2 o 2.555 2.650 180.00 0.92793 0.00
4 6 3 2 o 8.813 9.305 0.00 0.92754 0.01
13 5 -3 1 o 22.730 23.957 180.00 0.92522 0.03
16 3 -2 1 o 10.103 10.653 0.00 0.92518 0.01
13 5 0 2 o 4.219 4.454 0.00 0.92741 0.00
0 7 3 2 o 7.423 7.871 180.00 0.92731 0.01
10 6 1 2 o 92.139 97.704 0.00 0.92728 0.04
6 1 4 2 o 0.367 0.387 0.00 0.92725 0.00
0 8 2 2 o 5.066 5.458 180.00 0.92679 0.00
7 7 -3 1 o 110.050 118.801 0.00 0.92442 0.14
15 4 -1 1 o 1.196 1.309 0.00 0.92353 0.00
3 3 -5 2 o 4.850 5.327 0.00 0.92580 0.00
13 5 -3 2 o 21.807 23.957 180.00 0.92522 0.01
16 3 -2 2 o 9.714 10.653 0.00 0.92518 0.01
5 8 -2 1 o 32.819 35.788 180.00 0.92238 0.04
8 7 1 1 o 98.313 107.130 0.00 0.92234 0.09
15 3 0 1 o 3.461 3.765 180.00 0.92229 0.00
7 7 -3 2 o 109.377 118.801 0.00 0.92442 0.07
17 1 -2 1 o 3.160 3.389 180.00 0.92176 0.00
11 6 -3 1 o 14.759 15.627 180.00 0.92137 0.02
15 4 -1 2 o 1.244 1.309 0.00 0.92353 0.00
14 5 -2 1 o 2.040 2.130 180.00 0.92114 0.00
7 8 -1 1 o 1.848 1.871 180.00 0.92054 0.00
16 0 0 1 o 8.274 8.285 180.00 0.92035 0.01
5 8 -2 2 o 36.307 35.788 180.00 0.92238 0.02
8 7 1 2 o 108.969 107.130 0.00 0.92234 0.05
15 3 0 2 o 3.842 3.765 180.00 0.92229 0.00
12 0 -5 1 o 1.129 1.071 0.00 0.91953 0.00
17 1 -2 2 o 3.595 3.389 180.00 0.92176 0.00
11 6 -3 2 o 17.121 15.627 180.00 0.92137 0.01
14 5 -2 2 o 2.361 2.130 180.00 0.92114 0.00
10 0 3 1 o 226.005 197.217 0.00 0.91855 0.14
7 8 -1 2 o 2.176 1.871 180.00 0.92054 0.00
9 3 -5 1 o 1.894 1.603 180.00 0.91811 0.00
16 0 0 2 o 9.911 8.285 180.00 0.92035 0.00
10 7 -2 1 o 14.381 11.848 0.00 0.91781 0.02
14 5 -1 1 o 0.399 0.322 0.00 0.91780 0.00
12 0 -5 2 o 1.338 1.071 0.00 0.91953 0.00
1 8 2 1 o 53.743 40.964 0.00 0.91683 0.08
11 2 -5 1 o 0.347 0.264 180.00 0.91669 0.00
14 3 -4 1 o 2.100 1.596 180.00 0.91650 0.00
5 6 -4 1 o 28.058 20.795 180.00 0.91640 0.03
4 6 -4 1 o 13.134 9.600 0.00 0.91634 0.02
10 0 3 2 o 268.673 197.217 0.00 0.91855 0.08
9 3 -5 2 o 2.216 1.603 180.00 0.91811 0.00
10 7 -2 2 o 16.727 11.848 0.00 0.91781 0.01
14 5 -1 2 o 0.470 0.322 0.00 0.91780 0.00
5 3 4 1 o 106.841 75.182 0.00 0.91541 0.12
1 7 3 2 o 0.932 0.678 180.00 0.91334 0.00
0 2 5 1 o 15.133 10.956 180.00 0.91106 0.02
6 8 -2 1 o 29.407 21.455 180.00 0.91087 0.04
5 8 1 1 o 0.001 0.001 0.00 0.91502 0.00
6 6 -4 2 o 0.031 0.019 0.00 0.91292 0.00
13 4 1 1 o 1.935 1.427 180.00 0.91067 0.00
15 2 -4 1 o 23.024 17.105 180.00 0.91063 0.03
3 6 -4 2 o 14.179 10.545 0.00 0.91275 0.01
10 1 3 2 o 7.370 5.497 180.00 0.91267 0.00
1 8 2 2 o 60.160 40.964 0.00 0.91683 0.04
2 3 -5 1 o 3.880 2.636 0.00 0.91450 0.00
11 2 -5 2 o 0.385 0.264 180.00 0.91669 0.00
16 1 0 1 o 180.474 122.286 180.00 0.91443 0.23
7 8 0 1 o 19.130 14.499 0.00 0.91013 0.02
14 3 -4 2 o 2.300 1.596 180.00 0.91650 0.00
5 6 -4 2 o 30.717 20.795 180.00 0.91640 0.02
8 6 2 1 o 0.340 0.226 0.00 0.91414 0.00
4 6 -4 2 o 14.369 9.600 0.00 0.91634 0.01
8 4 3 2 o 3.251 2.512 180.00 0.91210 0.00
8 7 -3 1 o 4.049 3.123 0.00 0.90979 0.00
16 3 -1 1 o 5.185 3.485 0.00 0.91375 0.01
12 1 -5 1 o 11.727 7.931 0.00 0.91362 0.01
6 2 4 1 o 37.945 29.793 180.00 0.90944 0.04
1 7 3 1 o 0.996 0.678 180.00 0.91334 0.00
5 3 4 2 o 110.669 75.182 0.00 0.91541 0.06
9 3 3 2 o 31.706 25.364 180.00 0.91123 0.02
0 2 5 2 o 13.604 10.956 180.00 0.91106 0.01
6 6 -4 1 o 0.036 0.019 0.00 0.91292 0.00
5 8 1 2 o 0.001 0.001 0.00 0.91502 0.00
6 8 -2 2 o 26.434 21.455 180.00 0.91087 0.02
3 6 -4 1 o 15.462 10.545 0.00 0.91275 0.02
10 1 3 1 o 8.058 5.497 180.00 0.91267 0.01
13 4 1 2 o 1.741 1.427 180.00 0.91067 0.00
15 2 -4 2 o 20.758 17.105 180.00 0.91063 0.01
10 7 0 1 o 183.232 152.088 180.00 0.90817 0.17
2 3 -5 2 o 3.822 2.636 0.00 0.91450 0.00
16 1 0 2 o 177.139 122.286 180.00 0.91443 0.11
8 4 3 1 o 3.585 2.512 180.00 0.91210 0.00
7 8 0 2 o 17.276 14.499 0.00 0.91013 0.01
8 6 2 2 o 0.328 0.226 0.00 0.91414 0.00
8 7 -3 2 o 3.667 3.123 0.00 0.90979 0.00
16 3 -1 2 o 4.924 3.485 0.00 0.91375 0.00
12 1 -5 2 o 11.083 7.931 0.00 0.91362 0.01
11 5 -4 1 o 0.457 0.390 180.00 0.90725 0.00
13 4 -4 1 o 6.748 5.778 180.00 0.90723 0.01
6 2 4 2 o 34.462 29.793 180.00 0.90944 0.02
9 3 3 1 o 35.261 25.364 180.00 0.91123 0.04
11 4 2 1 o 103.678 89.847 0.00 0.90708 0.14
1 1 5 1 o 71.380 61.901 0.00 0.90705 0.09
12 6 0 1 o 12.131 10.681 180.00 0.90683 0.01
17 1 -1 1 o 5.142 4.550 0.00 0.90655 0.01
2 5 4 1 o 1.276 1.124 0.00 0.90652 0.00
4 4 4 1 o 27.888 24.972 0.00 0.90628 0.04
12 5 1 1 o 10.914 9.868 180.00 0.90607 0.01
7 6 -4 1 o 55.084 49.923 180.00 0.90604 0.07
10 7 0 2 o 166.999 152.088 180.00 0.90817 0.08
2 6 -4 1 o 18.568 16.977 180.00 0.90576 0.02
11 5 -4 2 o 0.412 0.390 180.00 0.90725 0.00
13 4 -4 2 o 6.098 5.778 180.00 0.90723 0.00
11 4 2 2 o 93.955 89.847 0.00 0.90708 0.06
1 1 5 2 o 64.656 61.901 0.00 0.90705 0.04
10 3 -5 1 o 8.397 8.105 180.00 0.90465 0.01
12 6 0 2 o 11.021 10.681 180.00 0.90683 0.01
17 1 -1 2 o 4.639 4.550 0.00 0.90655 0.00
2 5 4 2 o 1.145 1.124 0.00 0.90652 0.00
17 2 -2 1 o 60.821 59.857 180.00 0.90426 0.07
4 4 4 2 o 25.124 24.972 0.00 0.90628 0.02
12 5 1 2 o 9.827 9.868 180.00 0.90607 0.01
7 6 -4 2 o 49.654 49.923 180.00 0.90604 0.03
2 8 2 1 o 3.850 3.882 180.00 0.90376 0.01
2 6 -4 2 o 16.650 16.977 180.00 0.90576 0.01
6 7 2 1 o 21.232 21.753 0.00 0.90343 0.03
15 4 -3 1 o 1.007 1.043 180.00 0.90315 0.00
10 3 -5 2 o 7.545 8.105 180.00 0.90465 0.00
17 1 -3 1 o 80.718 87.666 180.00 0.90217 0.10
17 2 -2 2 o 54.764 59.857 180.00 0.90426 0.03
16 3 -3 1 o 1.921 2.140 180.00 0.90154 0.00
2 8 2 2 o 3.483 3.882 180.00 0.90376 0.00
6 7 2 2 o 19.239 21.753 0.00 0.90343 0.01
15 4 -3 2 o 0.921 1.043 180.00 0.90315 0.00
14 3 1 1 o 18.094 21.148 180.00 0.90043 0.03
1 3 -5 1 o 0.966 1.139 180.00 0.90022 0.00
17 1 -3 2 o 73.566 87.666 180.00 0.90217 0.05
12 3 2 1 o 31.722 37.934 0.00 0.89986 0.05
5 6 3 1 o 7.505 9.000 180.00 0.89981 0.01
10 5 2 1 o 76.281 92.002 180.00 0.89959 0.10
16 3 -3 2 o 1.757 2.140 180.00 0.90154 0.00
13 6 -2 2 o 15.623 20.889 0.00 0.89675 0.01
5 4 -5 2 o 1.009 1.317 0.00 0.89669 0.00
8 8 -1 1 o 33.492 42.210 0.00 0.89844 0.04
2 7 3 2 o 18.349 24.374 180.00 0.89663 0.01
12 2 -5 2 o 0.000 0.001 0.00 0.89657 0.00
7 4 -5 1 o 13.559 18.098 180.00 0.89434 0.02
14 3 1 2 o 16.598 21.148 180.00 0.90043 0.01
7 8 -2 2 o 57.181 76.193 0.00 0.89644 0.04
7 5 3 1 o 22.523 28.785 180.00 0.89817 0.03
1 3 -5 2 o 0.888 1.139 180.00 0.90022 0.00
11 7 -1 1 o 73.429 94.456 0.00 0.89785 0.08
8 6 -4 2 o 6.432 8.420 0.00 0.89598 0.00
12 3 2 2 o 29.241 37.934 0.00 0.89986 0.02
16 0 -4 2 o 3.191 4.126 0.00 0.89590 0.00
5 6 3 2 o 6.921 9.000 180.00 0.89981 0.00
13 6 -1 1 o 19.793 25.849 0.00 0.89741 0.02
1 9 0 2 o 19.176 24.817 0.00 0.89567 0.01
10 2 3 2 o 0.009 0.013 0.00 0.89567 0.00
10 5 2 2 o 70.617 92.002 180.00 0.89959 0.05
12 6 -3 1 o 14.842 19.060 180.00 0.89343 0.02
1 6 -4 2 o 9.943 12.919 180.00 0.89560 0.01
16 2 0 1 o 0.920 1.219 0.00 0.89734 0.00
6 4 -5 1 o 2.520 3.324 0.00 0.89717 0.00
4 4 -5 1 o 24.021 30.511 0.00 0.89290 0.03
13 6 -2 1 o 15.720 20.889 0.00 0.89675 0.02
13 1 2 2 o 6.914 8.793 180.00 0.89500 0.01
5 4 -5 1 o 1.013 1.317 0.00 0.89669 0.00
2 7 3 1 o 18.382 24.374 180.00 0.89663 0.03
15 1 1 1 o 40.947 51.950 180.00 0.89268 0.06
12 2 -5 1 o 0.000 0.001 0.00 0.89657 0.00
9 7 -3 1 o 2.479 3.156 180.00 0.89254 0.00
7 8 -2 1 o 56.861 76.193 0.00 0.89644 0.07
6 8 1 1 o 1.230 1.551 180.00 0.89246 0.00
8 8 -1 2 o 31.626 42.210 0.00 0.89844 0.02
7 4 -5 2 o 14.552 18.098 180.00 0.89434 0.01
8 6 -4 1 o 6.290 8.420 0.00 0.89598 0.01
7 5 3 2 o 21.387 28.785 180.00 0.89817 0.01
16 0 -4 1 o 3.114 4.126 0.00 0.89590 0.00
1 9 0 1 o 18.555 24.817 0.00 0.89567 0.02
10 2 3 1 o 0.008 0.013 0.00 0.89567 0.00
11 7 -1 2 o 70.387 94.456 0.00 0.89785 0.04
1 6 -4 1 o 9.591 12.919 180.00 0.89560 0.01
13 6 -1 2 o 19.224 25.849 0.00 0.89741 0.01
16 2 0 2 o 0.895 1.219 0.00 0.89734 0.00
12 6 -3 2 o 15.982 19.060 180.00 0.89343 0.01
13 1 2 1 o 6.546 8.793 180.00 0.89500 0.01
6 4 -5 2 o 2.467 3.324 0.00 0.89717 0.00
2 9 0 1 o 1.570 1.868 180.00 0.89074 0.00
4 4 -5 2 o 25.858 30.511 0.00 0.89290 0.02
15 1 1 2 o 44.073 51.950 180.00 0.89268 0.03
16 1 -4 1 o 2.777 3.290 180.00 0.89043 0.00
13 1 -5 1 o 30.845 36.292 180.00 0.89043 0.04
14 5 -3 1 o 0.368 0.429 0.00 0.89036 0.00
1 2 5 1 o 1.209 1.409 180.00 0.89036 0.00
9 7 -3 2 o 2.671 3.156 180.00 0.89254 0.00
6 8 1 2 o 1.320 1.551 180.00 0.89246 0.00
17 2 -1 1 o 4.032 4.679 0.00 0.88989 0.01
11 7 -2 1 o 26.782 31.131 180.00 0.88976 0.03
9 7 1 1 o 85.035 98.022 180.00 0.88936 0.09
7 1 4 1 o 68.310 78.586 180.00 0.88922 0.08
2 0 5 1 o 0.161 0.175 0.00 0.88875 0.00
2 9 0 2 o 1.628 1.868 180.00 0.89074 0.00
11 3 -5 1 o 0.491 0.563 0.00 0.88852 0.00
8 4 -5 1 o 15.389 17.517 0.00 0.88828 0.02
16 1 -4 2 o 2.866 3.290 180.00 0.89043 0.00
13 1 -5 2 o 31.787 36.292 180.00 0.89043 0.02
14 5 -3 2 o 0.379 0.429 0.00 0.89036 0.00
1 2 5 2 o 1.243 1.409 180.00 0.89036 0.00
3 8 2 1 o 98.531 112.142 180.00 0.88798 0.14
17 2 -1 2 o 4.130 4.679 0.00 0.88989 0.00
11 7 -2 2 o 27.438 31.131 180.00 0.88976 0.02
11 6 1 1 o 3.801 4.300 180.00 0.88727 0.00
9 7 1 2 o 87.122 98.022 180.00 0.88936 0.04
7 1 4 2 o 70.050 78.586 180.00 0.88922 0.04
2 0 5 2 o 0.164 0.175 0.00 0.88875 0.00
11 3 -5 2 o 0.510 0.563 0.00 0.88852 0.00
8 4 -5 2 o 16.043 17.517 0.00 0.88828 0.01
3 4 -5 1 o 85.389 92.877 0.00 0.88594 0.11
3 8 2 2 o 103.710 112.142 180.00 0.88798 0.08
17 2 -3 1 o 2.519 2.714 0.00 0.88574 0.00
16 4 -2 1 o 25.033 26.593 180.00 0.88540 0.03
8 8 0 1 o 7.035 7.369 180.00 0.88512 0.01
11 6 1 2 o 4.105 4.300 180.00 0.88727 0.00
3 9 0 2 o 29.696 25.887 180.00 0.88270 0.02
0 6 4 2 o 0.552 0.486 0.00 0.88259 0.00
12 5 -4 1 o 0.789 0.784 180.00 0.88411 0.00
3 4 -5 2 o 95.273 92.877 0.00 0.88594 0.06
15 5 -2 1 o 23.472 20.287 0.00 0.87995 0.03
2 9 -1 2 o 0.942 0.807 180.00 0.88206 0.00
17 2 -3 2 o 2.811 2.714 0.00 0.88574 0.00
6 3 4 2 o 53.942 46.672 180.00 0.88191 0.04
2 1 5 1 o 28.623 27.422 0.00 0.88342 0.04
0 3 5 1 o 0.896 0.860 180.00 0.88339 0.00
3 5 4 1 o 118.972 113.471 180.00 0.88334 0.17
8 8 -2 1 o 1.227 1.065 180.00 0.87951 0.00
1 9 -1 1 o 16.614 15.787 180.00 0.88324 0.02
16 4 -2 2 o 28.037 26.593 180.00 0.88540 0.02
9 6 -4 1 o 12.547 11.791 0.00 0.88305 0.02
15 3 -4 1 o 98.420 92.354 180.00 0.88299 0.13
14 5 0 2 o 31.630 27.260 0.00 0.88141 0.02
8 8 0 2 o 7.870 7.369 180.00 0.88512 0.00
9 4 -5 1 o 4.368 3.746 180.00 0.87920 0.01
15 4 0 1 o 20.377 18.994 0.00 0.88287 0.03
0 9 1 2 o 71.299 61.249 180.00 0.88125 0.05
3 9 0 1 o 27.970 25.887 180.00 0.88270 0.04
13 2 2 1 o 55.281 47.461 0.00 0.87896 0.09
0 6 4 1 o 0.524 0.486 0.00 0.88259 0.00
9 6 2 1 o 1.759 1.499 0.00 0.87844 0.00
2 9 -1 1 o 0.900 0.807 180.00 0.88206 0.00
12 5 -4 2 o 0.865 0.784 180.00 0.88411 0.00
6 3 4 1 o 51.870 46.672 180.00 0.88191 0.07
15 5 -2 2 o 23.875 20.287 0.00 0.87995 0.02
14 4 -4 1 o 35.301 30.021 0.00 0.87779 0.05
3 9 -1 1 o 3.308 2.816 0.00 0.87776 0.00
14 5 0 1 o 30.710 27.260 0.00 0.88141 0.04
3 7 3 1 o 31.892 27.092 0.00 0.87768 0.05
0 9 1 1 o 69.377 61.249 180.00 0.88125 0.10
2 1 5 2 o 30.987 27.422 0.00 0.88342 0.02
0 3 5 2 o 0.966 0.860 180.00 0.88339 0.00
3 5 4 2 o 128.630 113.471 180.00 0.88334 0.09
1 9 -1 2 o 17.883 15.787 180.00 0.88324 0.01
8 8 -2 2 o 1.246 1.065 180.00 0.87951 0.00
9 6 -4 2 o 13.464 11.791 0.00 0.88305 0.01
17 3 -2 1 o 25.961 22.048 0.00 0.87718 0.03
15 3 -4 2 o 105.291 92.354 180.00 0.88299 0.07
9 4 -5 2 o 4.436 3.746 180.00 0.87920 0.00
15 4 0 2 o 21.751 18.994 0.00 0.88287 0.01
5 4 4 1 o 12.737 10.844 180.00 0.87683 0.02
13 2 2 2 o 56.097 47.461 0.00 0.87896 0.04
15 2 1 1 o 0.079 0.066 0.00 0.87676 0.00
18 0 -2 1 o 45.141 38.107 180.00 0.87631 0.03
9 6 2 2 o 1.781 1.499 0.00 0.87844 0.00
1 9 1 1 o 1.951 1.650 180.00 0.87615 0.00
2 4 -5 1 o 48.374 40.899 0.00 0.87603 0.06
14 4 -4 2 o 35.575 30.021 0.00 0.87779 0.02
3 9 -1 2 o 3.332 2.816 0.00 0.87776 0.00
3 7 3 2 o 32.103 27.092 0.00 0.87768 0.03
16 4 -1 1 o 26.968 22.802 0.00 0.87537 0.04
7 7 2 1 o 116.841 99.120 0.00 0.87504 0.15
17 3 -2 2 o 25.966 22.048 0.00 0.87718 0.02
9 8 -1 1 o 17.149 14.641 180.00 0.87476 0.02
5 4 4 2 o 12.673 10.844 180.00 0.87683 0.01
16 2 -4 1 o 54.072 46.081 180.00 0.87463 0.07
13 2 -5 1 o 102.478 87.159 0.00 0.87462 0.15
15 2 1 2 o 0.079 0.066 0.00 0.87676 0.00
18 0 -2 2 o 44.489 38.107 180.00 0.87631 0.01
1 9 1 2 o 1.917 1.650 180.00 0.87615 0.00
11 7 0 1 o 40.123 34.562 180.00 0.87394 0.04
2 4 -5 2 o 47.426 40.899 0.00 0.87603 0.03
15 5 -1 1 o 67.142 58.209 0.00 0.87355 0.09
7 2 4 1 o 11.467 9.967 0.00 0.87348 0.02
16 4 -1 2 o 26.098 22.802 0.00 0.87537 0.02
9 4 3 1 o 0.148 0.132 180.00 0.87315 0.00
10 7 -3 1 o 16.188 14.208 180.00 0.87314 0.02
7 7 2 2 o 112.389 99.120 0.00 0.87504 0.07
9 8 -1 2 o 16.428 14.641 180.00 0.87476 0.01
16 2 -4 2 o 51.635 46.081 180.00 0.87463 0.04
13 2 -5 2 o 97.798 87.159 0.00 0.87462 0.07
7 8 1 1 o 146.346 150.327 0.00 0.86846 0.16
4 9 -1 2 o 11.583 11.965 180.00 0.87045 0.01
4 9 0 1 o 32.949 29.951 180.00 0.87180 0.04
11 7 0 2 o 37.911 34.562 180.00 0.87394 0.02
2 9 1 1 o 28.402 29.543 180.00 0.86811 0.04
12 3 -5 2 o 5.945 6.194 180.00 0.87016 0.00
2 2 5 1 o 0.930 0.968 180.00 0.86798 0.00
15 5 -1 2 o 63.090 58.209 0.00 0.87355 0.04
4 8 2 2 o 13.827 14.533 180.00 0.86995 0.01
6 6 3 1 o 0.127 0.119 180.00 0.87136 0.00
7 2 4 2 o 10.770 9.967 0.00 0.87348 0.01
10 6 -4 1 o 3.042 3.217 180.00 0.86764 0.00
18 1 -2 1 o 0.181 0.167 0.00 0.87120 0.00
11 1 3 1 o 7.473 7.919 0.00 0.86756 0.01
9 4 3 2 o 0.140 0.132 180.00 0.87315 0.00
10 7 -3 2 o 15.163 14.208 180.00 0.87314 0.01
14 0 -5 1 o 279.242 262.146 0.00 0.87093 0.21
10 4 -5 1 o 17.664 18.817 0.00 0.86736 0.02
16 3 0 1 o 10.851 10.189 180.00 0.87086 0.02
10 3 3 2 o 10.152 10.903 0.00 0.86934 0.01
1 6 4 1 o 33.650 36.161 180.00 0.86710 0.05
4 9 -1 1 o 12.546 11.965 180.00 0.87045 0.02
13 6 0 1 o 3.454 3.761 0.00 0.86668 0.00
12 3 -5 1 o 6.415 6.194 180.00 0.87016 0.01
4 8 2 1 o 14.955 14.533 180.00 0.86995 0.02
7 8 1 2 o 137.311 150.327 0.00 0.86846 0.08
4 9 0 2 o 30.497 29.951 180.00 0.87180 0.02
2 9 1 2 o 26.801 29.543 180.00 0.86811 0.02
14 1 -5 1 o 120.377 132.866 0.00 0.86591 0.18
2 2 5 2 o 0.885 0.968 180.00 0.86798 0.00
10 3 3 1 o 10.965 10.903 0.00 0.86934 0.02
6 6 3 2 o 0.119 0.119 180.00 0.87136 0.00
18 1 -2 2 o 0.166 0.167 0.00 0.87120 0.00
10 6 -4 2 o 2.897 3.217 180.00 0.86764 0.00
11 1 3 2 o 7.136 7.919 0.00 0.86756 0.01
14 0 -5 2 o 258.337 262.146 0.00 0.87093 0.10
10 4 -5 2 o 16.962 18.817 0.00 0.86736 0.01
16 3 0 2 o 10.011 10.189 180.00 0.87086 0.01
12 7 -1 1 o 11.159 12.353 0.00 0.86512 0.01
1 6 4 2 o 32.513 36.161 180.00 0.86710 0.03
13 6 -3 1 o 0.036 0.043 0.00 0.86489 0.00
16 4 -3 1 o 6.093 6.783 0.00 0.86462 0.01
13 6 0 2 o 3.375 3.761 0.00 0.86668 0.00
1 3 5 1 o 1.048 1.161 180.00 0.86448 0.00
17 3 -1 1 o 14.778 16.356 0.00 0.86404 0.02
8 5 3 1 o 1.252 1.368 0.00 0.86386 0.00
14 1 -5 2 o 120.387 132.866 0.00 0.86591 0.09
3 8 -3 1 o 58.085 63.993 180.00 0.86364 0.10
14 4 1 1 o 29.677 32.690 0.00 0.86364 0.05
1 4 -5 1 o 4.081 4.493 0.00 0.86345 0.01
4 8 -3 1 o 19.753 21.584 180.00 0.86331 0.03
12 4 2 1 o 17.558 19.179 180.00 0.86314 0.03
12 7 -1 2 o 11.382 12.353 0.00 0.86512 0.01
13 6 -3 2 o 0.038 0.043 0.00 0.86489 0.00
18 0 -3 1 o 32.375 35.114 0.00 0.86275 0.02
13 5 1 1 o 0.004 0.004 180.00 0.86265 0.00
16 4 -3 2 o 6.282 6.783 0.00 0.86462 0.00
1 3 5 2 o 1.081 1.161 180.00 0.86448 0.00
17 3 -1 2 o 15.320 16.356 0.00 0.86404 0.01
8 5 3 2 o 1.294 1.368 0.00 0.86386 0.00
14 6 -2 1 o 2.615 2.777 0.00 0.86155 0.00
3 8 -3 2 o 60.268 63.993 180.00 0.86364 0.05
14 4 1 2 o 30.791 32.690 0.00 0.86364 0.02
5 8 -3 2 o 46.340 51.214 180.00 0.86003 0.04
1 4 -5 2 o 4.235 4.493 0.00 0.86345 0.00
18 1 -3 1 o 0.003 0.005 0.00 0.85787 0.00
17 1 0 1 o 47.010 49.796 180.00 0.86127 0.07
18 0 -1 2 o 7.709 8.587 0.00 0.85988 0.00
4 8 -3 2 o 20.435 21.584 180.00 0.86331 0.02
12 7 -2 1 o 1.815 1.922 0.00 0.86118 0.00
13 5 -4 2 o 3.539 3.946 180.00 0.85972 0.00
2 8 -3 1 o 0.001 0.001 0.00 0.86102 0.00
12 4 2 2 o 18.152 19.179 180.00 0.86314 0.01
11 5 2 2 o 0.341 0.382 0.00 0.85959 0.00
8 0 4 1 o 32.514 36.476 0.00 0.85744 0.02
3 9 1 1 o 5.368 6.024 180.00 0.85736 0.01
18 0 -3 2 o 33.276 35.114 0.00 0.86275 0.01
9 8 -2 1 o 3.587 3.775 0.00 0.86056 0.00
13 5 1 2 o 0.004 0.004 180.00 0.86265 0.00
9 8 0 2 o 47.397 53.568 180.00 0.85913 0.03
5 9 -1 1 o 7.889 8.321 0.00 0.86038 0.01
4 7 3 1 o 44.312 50.108 180.00 0.85697 0.08
17 3 -3 1 o 27.864 29.420 0.00 0.86025 0.04
4 5 4 2 o 5.347 6.036 0.00 0.85891 0.00
10 7 1 1 o 8.164 9.239 0.00 0.85676 0.01
14 6 -1 2 o 21.293 24.189 0.00 0.85882 0.01
5 8 -3 1 o 48.471 51.214 180.00 0.86003 0.08
3 1 5 2 o 14.426 16.451 180.00 0.85861 0.01
18 0 -1 1 o 8.098 8.587 0.00 0.85988 0.01
18 2 -2 1 o 6.649 7.572 180.00 0.85638 0.01
13 5 -4 1 o 3.720 3.946 180.00 0.85972 0.01
5 9 0 2 o 10.258 11.675 0.00 0.85837 0.01
15 5 -3 1 o 18.059 20.625 0.00 0.85625 0.03
11 5 2 1 o 0.359 0.382 0.00 0.85959 0.00
14 6 -2 2 o 2.605 2.777 0.00 0.86155 0.00
17 1 0 2 o 46.405 49.796 180.00 0.86127 0.04
18 1 -3 2 o 0.003 0.005 0.00 0.85787 0.00
9 8 0 1 o 49.938 53.568 180.00 0.85913 0.06
12 7 -2 2 o 1.786 1.922 0.00 0.86118 0.00
4 5 4 1 o 5.614 6.036 0.00 0.85891 0.01
2 8 -3 2 o 0.001 0.001 0.00 0.86102 0.00
1 8 -3 1 o 22.445 25.391 0.00 0.85552 0.04
14 6 -1 1 o 22.380 24.189 0.00 0.85882 0.03
8 0 4 2 o 32.373 36.476 0.00 0.85744 0.01
3 9 1 2 o 5.365 6.024 180.00 0.85736 0.00
3 1 5 1 o 15.118 16.451 180.00 0.85861 0.02
9 8 -2 2 o 3.472 3.775 0.00 0.86056 0.00
18 1 -1 1 o 17.693 19.708 0.00 0.85505 0.03
5 9 0 1 o 10.681 11.675 0.00 0.85837 0.01
5 9 -1 2 o 7.595 8.321 0.00 0.86038 0.01
4 7 3 2 o 45.215 50.108 180.00 0.85697 0.04
17 3 -3 2 o 26.736 29.420 0.00 0.86025 0.02
10 7 1 2 o 8.418 9.239 0.00 0.85676 0.01
18 2 -2 2 o 7.006 7.572 180.00 0.85638 0.01
15 5 -3 2 o 19.174 20.625 0.00 0.85625 0.01
13 3 2 1 o 1.450 1.550 180.00 0.85403 0.00
6 8 -3 1 o 0.490 0.518 180.00 0.85389 0.00
17 1 -4 1 o 27.290 28.772 0.00 0.85381 0.04
1 8 -3 2 o 24.583 25.391 0.00 0.85552 0.02
11 4 -5 1 o 27.223 27.637 0.00 0.85311 0.04
18 1 -1 2 o 19.586 19.708 0.00 0.85505 0.01
11 2 3 1 o 3.671 3.689 180.00 0.85292 0.01
8 1 4 1 o 0.413 0.408 0.00 0.85265 0.00
7 3 4 1 o 77.470 69.593 0.00 0.84900 0.12
11 7 -3 1 o 32.037 30.882 180.00 0.85210 0.05
7 5 -5 1 o 0.997 0.893 0.00 0.84873 0.00
15 3 1 1 o 10.658 10.232 180.00 0.85201 0.02
5 5 -5 2 o 25.566 22.910 0.00 0.85073 0.02
13 3 2 2 o 1.621 1.550 180.00 0.85403 0.00
0 4 5 1 o 10.647 9.560 180.00 0.84857 0.02
6 8 -3 2 o 0.543 0.518 180.00 0.85389 0.00
14 0 2 1 o 59.735 56.702 0.00 0.85175 0.05
17 1 -4 2 o 30.332 28.772 0.00 0.85381 0.02
15 4 -4 1 o 68.062 61.112 0.00 0.84821 0.11
5 7 -4 1 o 6.732 6.052 180.00 0.84816 0.01
4 7 -4 1 o 1.492 1.349 180.00 0.84811 0.00
11 6 -4 2 o 22.803 20.472 180.00 0.85016 0.02
14 2 -5 1 o 60.077 56.246 180.00 0.85135 0.10
5 8 2 2 o 15.216 13.626 0.00 0.85013 0.01
16 3 -4 2 o 15.292 13.761 180.00 0.85006 0.01
13 3 -5 2 o 0.950 0.851 0.00 0.85005 0.00
10 8 -1 2 o 9.163 8.213 180.00 0.85001 0.01
6 5 -5 1 o 1.708 1.590 180.00 0.85115 0.00
6 9 -1 1 o 0.702 0.631 0.00 0.84782 0.00
11 4 -5 2 o 29.878 27.637 0.00 0.85311 0.02
11 2 3 2 o 4.011 3.689 180.00 0.85292 0.00
4 5 -5 1 o 2.159 1.966 180.00 0.84750 0.00
2 6 4 2 o 4.895 4.423 0.00 0.84956 0.00
5 5 -5 1 o 24.970 22.910 0.00 0.85073 0.04
0 8 3 1 o 6.302 5.677 180.00 0.84730 0.01
16 0 1 1 o 6.160 5.574 180.00 0.84730 0.01
8 1 4 2 o 0.453 0.408 0.00 0.85265 0.00
6 4 4 1 o 51.754 46.828 0.00 0.84726 0.08
12 6 1 2 o 10.733 9.711 180.00 0.84919 0.01
14 1 2 1 o 21.749 19.743 180.00 0.84705 0.04
17 2 0 1 o 5.934 5.388 180.00 0.84695 0.01
7 3 4 2 o 76.590 69.593 0.00 0.84900 0.06
11 6 -4 1 o 22.575 20.472 180.00 0.85016 0.04
5 8 2 1 o 15.069 13.626 0.00 0.85013 0.02
16 3 -4 1 o 15.173 13.761 180.00 0.85006 0.02
13 3 -5 1 o 0.942 0.851 0.00 0.85005 0.00
10 8 -1 1 o 9.098 8.213 180.00 0.85001 0.01
11 7 -3 2 o 34.099 30.882 180.00 0.85210 0.03
15 3 1 2 o 11.322 10.232 180.00 0.85201 0.01
7 5 -5 2 o 0.981 0.893 0.00 0.84873 0.00
0 4 5 2 o 10.456 9.560 180.00 0.84857 0.01
14 0 2 2 o 62.928 56.702 0.00 0.85175 0.03
8 7 2 1 o 0.203 0.186 180.00 0.84636 0.00
2 6 4 1 o 4.904 4.423 0.00 0.84956 0.01
15 4 -4 2 o 66.494 61.112 0.00 0.84821 0.05
5 7 -4 2 o 6.573 6.052 180.00 0.84816 0.01
14 2 -5 2 o 62.498 56.246 180.00 0.85135 0.05
4 7 -4 2 o 1.458 1.349 180.00 0.84811 0.00
12 6 1 1 o 10.825 9.711 180.00 0.84919 0.02
6 5 -5 2 o 1.766 1.590 180.00 0.85115 0.00
6 9 -1 2 o 0.682 0.631 0.00 0.84782 0.00
4 5 -5 2 o 2.098 1.966 180.00 0.84750 0.00
6 7 -4 1 o 3.164 2.945 180.00 0.84540 0.01
3 7 -4 1 o 70.878 66.195 0.00 0.84527 0.13
0 8 3 2 o 6.087 5.677 180.00 0.84730 0.01
16 0 1 2 o 5.958 5.574 180.00 0.84730 0.00
6 4 4 2 o 50.032 46.828 0.00 0.84726 0.04
7 8 -3 1 o 17.115 16.043 180.00 0.84509 0.03
14 1 2 2 o 21.000 19.743 180.00 0.84705 0.02
17 2 0 2 o 5.724 5.388 180.00 0.84695 0.00
2 9 -2 1 o 5.307 5.011 0.00 0.84465 0.01
3 2 5 1 o 35.821 33.953 0.00 0.84441 0.06
8 7 2 2 o 0.196 0.186 180.00 0.84636 0.00
16 5 -2 1 o 16.208 16.099 180.00 0.84108 0.03
4 9 1 1 o 2.128 2.024 0.00 0.84422 0.00
18 2 -1 1 o 8.611 8.561 0.00 0.84102 0.01
17 4 -2 2 o 101.666 101.130 180.00 0.84306 0.09
3 9 -2 1 o 0.016 0.015 180.00 0.84398 0.00
2 3 5 1 o 2.089 1.994 180.00 0.84395 0.00
6 9 0 2 o 63.544 63.594 0.00 0.84277 0.05
10 6 2 1 o 6.386 6.116 180.00 0.84384 0.01
16 1 1 2 o 11.944 11.978 0.00 0.84267 0.01
7 6 3 2 o 4.391 4.403 0.00 0.84267 0.00
4 9 -2 1 o 47.557 47.744 180.00 0.84056 0.09
12 7 0 1 o 57.282 57.510 180.00 0.84055 0.08
15 1 -5 1 o 0.207 0.208 180.00 0.84056 0.00
18 2 -3 1 o 2.517 2.413 0.00 0.84371 0.00
1 9 -2 2 o 2.915 2.931 0.00 0.84255 0.00
8 5 -5 1 o 4.140 3.985 0.00 0.84355 0.01
8 8 1 1 o 25.035 24.096 180.00 0.84351 0.03
6 7 -4 2 o 3.054 2.945 180.00 0.84540 0.00
3 7 -4 2 o 68.502 66.195 0.00 0.84527 0.06
10 8 -2 1 o 23.816 24.236 180.00 0.84003 0.04
7 7 -4 1 o 0.137 0.140 180.00 0.83993 0.00
17 4 -2 1 o 104.515 101.130 180.00 0.84306 0.17
7 8 -3 2 o 16.564 16.043 180.00 0.84509 0.01
17 2 -4 1 o 52.417 53.649 180.00 0.83984 0.09
2 7 -4 1 o 5.573 5.727 180.00 0.83971 0.01
6 9 0 1 o 65.501 63.594 0.00 0.84277 0.09
16 1 1 1 o 12.317 11.978 0.00 0.84267 0.02
7 6 3 1 o 4.531 4.403 0.00 0.84267 0.01
3 5 -5 2 o 6.239 6.460 0.00 0.84154 0.00
2 9 -2 2 o 5.151 5.011 0.00 0.84465 0.01
1 9 -2 1 o 3.010 2.931 0.00 0.84255 0.01
3 2 5 2 o 34.810 33.953 0.00 0.84441 0.03
4 9 1 2 o 2.070 2.024 0.00 0.84422 0.00
16 5 -2 2 o 15.302 16.099 180.00 0.84108 0.01
18 2 -1 2 o 8.114 8.561 0.00 0.84102 0.01
15 5 0 1 o 4.087 4.319 0.00 0.83891 0.01
3 9 -2 2 o 0.016 0.015 180.00 0.84398 0.00
2 3 5 2 o 2.034 1.994 180.00 0.84395 0.00
8 2 4 1 o 20.322 21.632 0.00 0.83874 0.03
10 6 2 2 o 6.225 6.116 180.00 0.84384 0.01
18 2 -3 2 o 2.453 2.413 0.00 0.84371 0.00
4 9 -2 2 o 44.504 47.744 180.00 0.84056 0.04
12 7 0 2 o 53.622 57.510 180.00 0.84055 0.04
15 1 -5 2 o 0.194 0.208 180.00 0.84056 0.00
3 5 -5 1 o 6.552 6.460 0.00 0.84154 0.01
8 5 -5 2 o 4.038 3.985 0.00 0.84355 0.00
8 8 1 2 o 24.407 24.096 180.00 0.84351 0.02
10 8 -2 2 o 22.205 24.236 180.00 0.84003 0.02
7 7 -4 2 o 0.127 0.140 180.00 0.83993 0.00
17 2 -4 2 o 48.846 53.649 180.00 0.83984 0.04
0 9 2 1 o 24.505 27.010 0.00 0.83774 0.05
2 7 -4 2 o 5.198 5.727 180.00 0.83971 0.00
4 0 5 1 o 17.697 19.580 0.00 0.83756 0.01
16 4 0 1 o 0.070 0.077 180.00 0.83745 0.00
14 6 -3 2 o 0.113 0.119 180.00 0.83621 0.00
10 4 3 2 o 0.762 0.805 0.00 0.83609 0.00
6 0 -6 1 o 43.547 45.955 0.00 0.83401 0.04
8 8 -3 1 o 1.220 1.282 180.00 0.83387 0.00
15 5 0 2 o 3.851 4.319 0.00 0.83891 0.00
12 4 -5 1 o 2.796 3.138 0.00 0.83682 0.00
5 5 4 1 o 21.398 22.328 0.00 0.83372 0.04
9 5 -5 2 o 8.961 9.347 180.00 0.83575 0.01
8 2 4 2 o 19.214 21.632 0.00 0.83874 0.02
1 8 3 1 o 1.480 1.661 0.00 0.83660 0.00
14 2 2 1 o 19.645 20.196 180.00 0.83341 0.04
18 3 -2 1 o 5.424 5.546 180.00 0.83327 0.01
14 6 -3 1 o 0.107 0.119 180.00 0.83621 0.00
7 9 -1 1 o 27.672 28.091 180.00 0.83312 0.05
4 1 5 1 o 12.480 12.657 0.00 0.83310 0.02
10 4 3 1 o 0.717 0.805 0.00 0.83609 0.00
13 7 -1 1 o 86.760 87.760 0.00 0.83304 0.13
2 5 -5 1 o 7.512 7.595 180.00 0.83303 0.01
5 7 3 2 o 20.493 20.612 180.00 0.83495 0.02
8 0 -6 1 o 220.236 220.602 0.00 0.83280 0.21
9 5 -5 1 o 8.313 9.347 180.00 0.83575 0.01
0 9 2 2 o 24.093 27.010 0.00 0.83774 0.03
10 8 0 1 o 2.918 2.902 180.00 0.83263 0.00
13 7 -2 1 o 3.866 3.825 0.00 0.83251 0.01
14 5 -4 2 o 37.904 37.513 0.00 0.83454 0.03
4 0 5 2 o 17.556 19.580 0.00 0.83756 0.01
16 5 -1 1 o 0.169 0.167 180.00 0.83247 0.00
5 9 -2 2 o 4.665 4.603 0.00 0.83448 0.00
16 4 0 2 o 0.070 0.077 180.00 0.83745 0.00
6 0 -6 2 o 47.293 45.955 0.00 0.83401 0.02
5 7 3 1 o 18.781 20.612 180.00 0.83495 0.04
8 7 -4 1 o 4.280 4.145 0.00 0.83189 0.01
8 8 -3 2 o 1.326 1.282 180.00 0.83387 0.00
12 4 -5 2 o 2.879 3.138 0.00 0.83682 0.00
1 4 5 1 o 27.475 26.529 0.00 0.83177 0.05
5 5 4 2 o 23.203 22.328 0.00 0.83372 0.02
1 7 -4 1 o 0.068 0.064 180.00 0.83159 0.00
1 8 3 2 o 1.539 1.661 0.00 0.83660 0.00
14 5 -4 1 o 34.725 37.513 0.00 0.83454 0.06
5 9 -2 1 o 4.252 4.603 0.00 0.83448 0.01
17 4 -1 1 o 2.205 2.107 0.00 0.83138 0.00
14 2 2 2 o 21.136 20.196 180.00 0.83341 0.02
18 3 -2 2 o 5.830 5.546 180.00 0.83327 0.01
7 9 -1 2 o 29.594 28.091 180.00 0.83312 0.02
4 1 5 2 o 13.340 12.657 0.00 0.83310 0.01
12 6 -4 1 o 4.112 3.894 180.00 0.83103 0.01
11 3 3 2 o 0.086 0.082 0.00 0.83009 0.00
13 7 -1 2 o 92.514 87.760 0.00 0.83304 0.07
2 5 -5 2 o 8.010 7.595 180.00 0.83303 0.01
17 4 -3 1 o 15.518 14.920 180.00 0.82800 0.03
12 7 -3 2 o 54.796 52.921 180.00 0.82985 0.05
8 0 -6 2 o 233.505 220.602 0.00 0.83280 0.12
10 8 0 2 o 3.090 2.902 180.00 0.83263 0.00
9 5 3 1 o 25.454 23.960 0.00 0.83055 0.05
15 6 -2 1 o 39.951 38.846 180.00 0.82757 0.07
6 1 -6 2 o 5.306 5.156 180.00 0.82959 0.01
13 7 -2 2 o 4.084 3.825 0.00 0.83251 0.00
16 5 -1 2 o 0.177 0.167 180.00 0.83247 0.00
3 6 4 1 o 3.586 3.364 0.00 0.83039 0.01
1 9 2 1 o 5.112 4.807 180.00 0.83036 0.01
7 1 -6 1 o 9.580 8.998 180.00 0.83032 0.02
12 0 3 1 o 5.209 4.889 180.00 0.83028 0.01
15 2 -5 1 o 13.299 13.062 180.00 0.82722 0.03
16 2 1 2 o 23.101 22.705 0.00 0.82924 0.02
11 3 3 1 o 0.088 0.082 0.00 0.83009 0.00
5 9 1 2 o 20.668 20.447 0.00 0.82902 0.02
6 8 2 2 o 18.129 17.962 0.00 0.82897 0.02
12 7 -3 1 o 56.447 52.921 180.00 0.82985 0.10
8 7 -4 2 o 4.428 4.145 0.00 0.83189 0.00
1 4 5 2 o 28.295 26.529 0.00 0.83177 0.03
14 6 0 2 o 21.157 21.076 0.00 0.82879 0.02
6 1 -6 1 o 5.510 5.156 180.00 0.82959 0.01
1 7 -4 2 o 0.070 0.064 180.00 0.83159 0.00
14 3 -5 2 o 4.071 4.073 0.00 0.82864 0.00
17 4 -1 2 o 2.244 2.107 0.00 0.83138 0.00
8 1 -6 2 o 13.922 14.019 180.00 0.82841 0.01
16 2 1 1 o 24.152 22.705 0.00 0.82924 0.05
5 1 -6 1 o 38.499 38.890 180.00 0.82626 0.08
5 9 1 1 o 21.702 20.447 0.00 0.82902 0.04
12 6 -4 2 o 4.139 3.894 180.00 0.83103 0.00
6 8 2 1 o 19.057 17.962 0.00 0.82897 0.03
17 4 -3 2 o 14.662 14.920 180.00 0.82800 0.01
6 9 -2 1 o 4.580 4.668 0.00 0.82593 0.01
12 1 3 1 o 41.395 42.158 0.00 0.82593 0.09
14 6 0 1 o 22.296 21.076 0.00 0.82879 0.04
14 3 -5 1 o 4.302 4.073 0.00 0.82864 0.01
9 5 3 2 o 25.228 23.960 0.00 0.83055 0.03
10 5 -5 1 o 14.663 15.052 180.00 0.82556 0.03
15 6 -2 2 o 37.839 38.846 180.00 0.82757 0.03
19 1 -2 1 o 31.170 32.012 0.00 0.82553 0.06
8 1 -6 1 o 14.719 14.019 180.00 0.82841 0.03
4 0 -6 2 o 67.215 67.962 180.00 0.82467 0.04
11 8 -1 2 o 14.833 14.992 180.00 0.82465 0.01
3 6 4 2 o 3.535 3.364 0.00 0.83039 0.00
1 9 2 2 o 5.038 4.807 180.00 0.83036 0.01
17 3 0 2 o 1.709 1.726 0.00 0.82458 0.00
7 1 -6 2 o 9.426 8.998 180.00 0.83032 0.01
7 9 0 1 o 19.727 20.305 180.00 0.82538 0.03
12 0 3 2 o 5.119 4.889 180.00 0.83028 0.00
13 4 2 1 o 0.174 0.175 0.00 0.82244 0.00
14 5 1 1 o 0.035 0.036 0.00 0.82235 0.00
15 2 -5 2 o 12.655 13.062 180.00 0.82722 0.01
15 6 -1 1 o 5.562 5.580 180.00 0.82224 0.01
3 3 5 1 o 7.254 7.275 180.00 0.82224 0.01
1 5 -5 1 o 2.952 2.959 180.00 0.82219 0.01
11 7 1 1 o 51.281 53.057 180.00 0.82490 0.08
12 5 2 1 o 1.042 1.039 180.00 0.82192 0.00
9 1 -6 2 o 0.859 0.856 0.00 0.82392 0.00
4 0 -6 1 o 65.625 67.962 180.00 0.82467 0.07
11 8 -1 1 o 14.476 14.992 180.00 0.82465 0.02
17 3 0 1 o 1.663 1.726 0.00 0.82458 0.00
2 8 3 2 o 0.959 0.952 0.00 0.82371 0.00
18 3 -3 1 o 0.033 0.033 180.00 0.82159 0.00
9 7 -4 1 o 1.385 1.372 180.00 0.82151 0.00
5 1 -6 2 o 37.575 38.890 180.00 0.82626 0.04
10 0 -6 1 o 36.588 36.069 0.00 0.82119 0.04
16 5 -3 2 o 1.610 1.589 0.00 0.82320 0.00
0 7 4 1 o 5.005 4.930 0.00 0.82114 0.01
9 1 -6 1 o 0.829 0.856 0.00 0.82392 0.00
6 9 -2 2 o 4.517 4.668 0.00 0.82593 0.00
12 1 3 2 o 40.844 42.158 0.00 0.82593 0.04
18 0 -4 2 o 0.010 0.010 0.00 0.82306 0.00
2 8 3 1 o 0.925 0.952 0.00 0.82371 0.00
10 5 -5 2 o 14.645 15.052 180.00 0.82556 0.01
19 1 -2 2 o 31.168 32.012 0.00 0.82553 0.03
15 4 1 1 o 11.964 11.719 0.00 0.82065 0.03
2 9 2 1 o 6.091 5.966 180.00 0.82062 0.01
7 9 0 2 o 19.822 20.305 180.00 0.82538 0.02
9 8 -3 1 o 0.006 0.006 180.00 0.82053 0.00
13 4 2 2 o 0.179 0.175 0.00 0.82244 0.00
16 5 -3 1 o 1.559 1.589 0.00 0.82320 0.00
4 1 -6 1 o 1.287 1.259 0.00 0.82041 0.00
14 5 1 2 o 0.036 0.036 0.00 0.82235 0.00
18 0 -4 1 o 0.009 0.010 0.00 0.82306 0.00
15 6 -1 2 o 5.715 5.580 180.00 0.82224 0.01
3 3 5 2 o 7.448 7.275 180.00 0.82224 0.01
1 5 -5 2 o 3.031 2.959 180.00 0.82219 0.00
4 2 5 1 o 0.247 0.241 180.00 0.82011 0.00
11 7 1 2 o 52.237 53.057 180.00 0.82490 0.04
12 5 2 2 o 1.063 1.039 180.00 0.82192 0.00
