#------------------------------------------------------------------------------
#$Date: 2016-02-14 16:26:36 +0200 (Sun, 14 Feb 2016) $
#$Revision: 176435 $
#$URL: svn://www.crystallography.net/cod/cif/1/51/62/1516206.cif $
#------------------------------------------------------------------------------
#
# This file is available in the Crystallography Open Database (COD),
# http://www.crystallography.net/
#
# All data on this site have been placed in the public domain by the
# contributors.
#
data_1516206
loop_
_publ_author_name
'Migliorati, Valentina'
'Ballirano, Paolo'
'Gontrani, Lorenzo'
'Russina, Olga'
'Caminiti, Ruggero'
_publ_section_title
;
 Crystal polymorphism of propylammonium chloride and structural properties
 of its mixture with water.
;
_journal_issue                   41
_journal_name_full               'The journal of physical chemistry. B'
_journal_page_first              11805
_journal_page_last               11815
_journal_paper_doi               10.1021/jp206831d
_journal_volume                  115
_journal_year                    2011
_chemical_formula_sum            'C3 Cl N'
_chemical_formula_weight         85.49
_chemical_name_systematic        ' ?'
_space_group_IT_number           129
_symmetry_cell_setting           tetragonal
_symmetry_space_group_name_Hall  '-P 4a 2a'
_symmetry_space_group_name_H-M   'P 4/n m m :2'
_audit_creation_date             2011-07-21T08:56
_audit_creation_method           'from EXP file using GSAS2CIF'
_audit_update_record
' 2011-07-21T08:56  Initial CIF as created by GSAS2CIF'
_cell_angle_alpha                90.0
_cell_angle_beta                 90.0
_cell_angle_gamma                90.0
_cell_formula_units_Z            2
_cell_length_a                   6.26687(7)
_cell_length_b                   6.26687
_cell_length_c                   7.40789(18)
_cell_volume                     290.935(8)
_computing_structure_refinement  GSAS
_diffrn_radiation_probe          x-ray
_exptl_absorpt_correction_T_max  0.81792
_exptl_absorpt_correction_T_min  0.81483
_exptl_absorpt_process_details
;   GSAS Absorption/surface roughness correction: function number 0
 Debye-Scherrer absorption correction
Term (= MU.r/wave) =     0.78580E-01
Correction is not refined.
;
_pd_block_id                     2011-07-21T08:56|80|paolo|Bruker_AXS_D8_Advance
_pd_calc_method                  'Rietveld Refinement'
_pd_instr_location               ' ?'
_pd_meas_2theta_range_inc        0.022
_pd_meas_2theta_range_max        89.988
_pd_meas_2theta_range_min        3.0
_pd_meas_number_of_points        3955
_pd_phase_name                   'Propylammonium chloride'
_pd_proc_2theta_range_inc        0.022
_pd_proc_2theta_range_max        89.988
_pd_proc_2theta_range_min        3.0
_pd_proc_info_datetime           2011-07-21T08:56:50
_pd_proc_info_excluded_regions   ' ?'
_pd_proc_ls_background_function
;   GSAS Background function number 1 with 30 terms.
 Shifted Chebyshev function of 1st kind
      1:    521.109     2:   -340.326     3:    35.6440     4:    79.4765    
      5:   -73.5944     6:   -1.19471     7:    71.4033     8:   -77.4401    
      9:    36.1286    10:    9.88509    11:   -28.1239    12:    24.1098    
     13:   -5.09734    14:   -9.69166    15:    3.29513    16:   0.779220    
     17:   -1.25309    18:   -1.36130    19:    1.72659    20:    1.09527    
     21:   -4.30675    22:    2.50723    23:   -1.13648    24:  -0.993478    
     25:    3.83794    26:   -2.24091    27:  -0.484778    28:    2.49468    
     29:   -2.03181    30:    2.32725    
;
_pd_proc_ls_peak_cutoff          0.00100
_pd_proc_ls_profile_function
;
 CW Profile function number 3 with  19 terms
 Pseudovoigt profile coefficients as parameterized in
 P. Thompson, D.E. Cox & J.B. Hastings (1987). J. Appl. Cryst.,20,79-83.
 Asymmetry correction of L.W. Finger, D.E. Cox & A. P. Jephcoat (1994).
 J. Appl. Cryst.,27,892-900.
 Peak tails are ignored  where the intensity is below 0.0010 times the peak
   Aniso. broadening axis   0.0   1.0   0.0
;
_pd_proc_ls_prof_R_factor        0.0436
_pd_proc_ls_prof_wR_expected     0.0407
_pd_proc_ls_prof_wR_factor       0.0572
_pd_proc_number_of_points        3955
_pd_spec_mounting                ' ?'
_refine_ls_goodness_of_fit_all   1.42
_refine_ls_matrix_type           full
_refine_ls_number_parameters     47
_refine_ls_number_restraints     8
_refine_ls_R_Fsqd_factor         0.14588
_refine_ls_shift/su_max          0.08
_refine_ls_shift/su_mean         0.01
_reflns_d_resolution_high        1.096
_reflns_d_resolution_low         7.408
_reflns_limit_h_max              5
_reflns_limit_h_min              0
_reflns_limit_k_max              4
_reflns_limit_k_min              0
_reflns_limit_l_max              6
_reflns_limit_l_min              0
_reflns_number_total             174
_cod_data_source_file            353K.cif
_cod_data_source_block           80_publ
_cod_depositor_comments
;
The following automatic conversions were performed:

'_geom_bond_publ_flag' value 'N' changed to 'n' according to
/usr/data/users/saulius/automatic-downloads/retrospective/ACS/lib/dictionaries/cif_core.dic
dictionary named 'cif_core.dic' version 2.4.2 from 2011-04-26 (24
times).

'_geom_angle_publ_flag' value 'N' changed to 'n' according
to
/usr/data/users/saulius/automatic-downloads/retrospective/ACS/lib/dictionaries/cif_core.dic
dictionary named 'cif_core.dic' version 2.4.2 from 2011-04-26 (68
times).

Automatic conversion script
Id: cif_fix_values 2281 2013-09-26 08:29:07Z andrius 
;
_cod_original_cell_volume        290.935(10)
_cod_original_sg_symbol_H-M      'p 4/n m m'
_cod_original_formula_sum        'C3.00 Cl N'
_cod_database_code               1516206
#BEGIN Tags that were not found in dictionaries:
_gsas_exptl_extinct_corr_t_min   1.00000
_gsas_exptl_extinct_corr_t_max   1.00000
#END Tags that were not found in dictionaries
loop_
_symmetry_equiv_pos_site_id
_symmetry_equiv_pos_as_xyz
1 +x,+y,+z
2 -y+1/2,+x,+z
3 -x+1/2,-y+1/2,+z
4 +y,-x+1/2,+z
5 -x+1/2,+y,+z
6 -y+1/2,-x+1/2,+z
7 +x,-y+1/2,+z
8 +y,+x,+z
-1 -x,-y,-z
-2 +y+1/2,-x,-z
-3 +x+1/2,+y+1/2,-z
-4 -y,+x+1/2,-z
-5 +x+1/2,-y,-z
-6 +y+1/2,+x+1/2,-z
-7 -x,+y+1/2,-z
-8 -y,-x,-z
loop_
_atom_site_type_symbol
_atom_site_label
_atom_site_fract_x
_atom_site_fract_y
_atom_site_fract_z
_atom_site_occupancy
_atom_site_thermal_displace_type
_atom_site_U_iso_or_equiv
_atom_site_symmetry_multiplicity
Cl CL1 0.25 -0.25 0.0 1.0 Uiso 0.1157(9) 2
C C(1) 0.25 0.3325(6) 0.29318(32) 0.25 Uiso 0.0709(16) 8
N N 0.25 0.25 0.10767(28) 1.0 Uiso 0.0709(16) 2
C C(2) 0.25 0.1490(5) 0.43155(28) 0.25 Uiso 0.0709(16) 8
C C(3) 0.25 0.25 0.6233(4) 1.0 Uiso 0.0709(16) 2
loop_
_atom_type_symbol
_atom_type_number_in_cell
_atom_type_scat_dispersion_real
_atom_type_scat_dispersion_imag
_atom_type_scat_Cromer_Mann_a1
_atom_type_scat_Cromer_Mann_a2
_atom_type_scat_Cromer_Mann_a3
_atom_type_scat_Cromer_Mann_a4
_atom_type_scat_Cromer_Mann_b1
_atom_type_scat_Cromer_Mann_b2
_atom_type_scat_Cromer_Mann_b3
_atom_type_scat_Cromer_Mann_b4
_atom_type_scat_Cromer_Mann_c
_atom_type_scat_source
Cl 2.0 0.000 0.000 11.4604 0.01040 7.19640 1.16620 6.25560 18.5194 1.64550
47.7784 -9.5574 International_Tables_Vol_C
C 6.0 0.000 0.000 2.31000 20.8439 1.02000 10.2075 1.58860 0.56870 0.86500
51.6512 0.21560 International_Tables_Vol_C
N 2.0 0.000 0.000 12.2126 0.00570 3.13220 9.89330 2.01250 28.9975 1.16630
0.58260 -11.529 International_Tables_Vol_C
loop_
_diffrn_radiation_wavelength
_diffrn_radiation_wavelength_wt
_diffrn_radiation_type
_diffrn_radiation_wavelength_id
1.540598 1.000 K\a~1~ 1
1.544390 0.500 K\a~2~ 2
loop_
_geom_angle_atom_site_label_1
_geom_angle_atom_site_label_2
_geom_angle_atom_site_label_3
_geom_angle
_geom_angle_site_symmetry_1
_geom_angle_site_symmetry_3
_geom_angle_publ_flag
C(1) C(1) C(1) 45.0 2_555 3_555 n
C(1) C(1) C(1) 90.0 2_555 4_555 n
C(1) C(1) N 75.58(9) 2_555 1_555 n
C(1) C(1) C(2) 58.14(8) 2_555 1_555 n
C(1) C(1) C(2) 93.59(15) 2_555 2_555 n
C(1) C(1) C(2) 94.56(19) 2_555 3_555 n
C(1) C(1) C(2) 51.66(15) 2_555 4_555 n
C(1) C(1) C(1) 45.0 3_555 4_555 n
C(1) C(1) N 69.38(14) 3_555 1_555 n
C(1) C(1) C(2) 41.71(15) 3_555 1_555 n
C(1) C(1) C(2) 66.78(15) 3_555 2_555 n
C(1) C(1) C(2) 96.46(27) 3_555 3_555 n
C(1) C(1) C(2) 66.78(15) 3_555 4_555 n
C(1) C(1) N 75.58(9) 4_555 1_555 n
C(1) C(1) C(2) 58.14(8) 4_555 1_555 n
C(1) C(1) C(2) 51.66(15) 4_555 2_555 n
C(1) C(1) C(2) 94.56(19) 4_555 3_555 n
C(1) C(1) C(2) 93.59(15) 4_555 4_555 n
N C(1) C(2) 111.09(25) 1_555 1_555 n
N C(1) C(2) 126.37(23) 1_555 2_555 n
N C(1) C(2) 165.8(4) 1_555 3_555 n
N C(1) C(2) 126.37(23) 1_555 4_555 n
C(2) C(1) C(2) 35.45(17) 1_555 2_555 n
C(2) C(1) C(2) 54.75(30) 1_555 3_555 n
C(2) C(1) C(2) 35.45(17) 1_555 4_555 n
C(2) C(1) C(2) 42.90(23) 2_555 3_555 n
C(2) C(1) C(2) 57.75(29) 2_555 4_555 n
C(2) C(1) C(2) 42.90(23) 3_555 4_555 n
C(1) N C(1) 28.84(19) 1_555 2_555 n
C(1) N C(1) 41.23(28) 1_555 3_555 n
C(1) N C(1) 28.84(19) 1_555 4_555 n
C(1) N C(1) 28.84(19) 2_555 3_555 n
C(1) N C(1) 41.23(28) 2_555 4_555 n
C(1) N C(1) 28.84(19) 3_555 4_555 n
C(1) C(2) C(1) 28.27(18) 1_555 2_555 n
C(1) C(2) C(1) 41.83(31) 1_555 3_555 n
C(1) C(2) C(1) 28.27(18) 1_555 4_555 n
C(1) C(2) C(2) 58.14(8) 1_555 2_555 n
C(1) C(2) C(2) 41.71(15) 1_555 3_555 n
C(1) C(2) C(2) 58.14(8) 1_555 4_555 n
C(1) C(2) C(3) 107.69(23) 1_555 1_555 n
C(1) C(2) C(1) 33.77(25) 2_555 3_555 n
C(1) C(2) C(1) 46.45(31) 2_555 4_555 n
C(1) C(2) C(2) 86.41(15) 2_555 2_555 n
C(1) C(2) C(2) 61.13(14) 2_555 3_555 n
C(1) C(2) C(2) 51.66(15) 2_555 4_555 n
C(1) C(2) C(3) 121.17(22) 2_555 1_555 n
C(1) C(2) C(1) 33.77(25) 3_555 4_555 n
C(1) C(2) C(2) 85.44(19) 3_555 2_555 n
C(1) C(2) C(2) 83.54(27) 3_555 3_555 n
C(1) C(2) C(2) 85.44(19) 3_555 4_555 n
C(1) C(2) C(3) 149.5(4) 3_555 1_555 n
C(1) C(2) C(2) 51.66(15) 4_555 2_555 n
C(1) C(2) C(2) 61.13(14) 4_555 3_555 n
C(1) C(2) C(2) 86.41(15) 4_555 4_555 n
C(1) C(2) C(3) 121.17(22) 4_555 1_555 n
C(2) C(2) C(2) 45.0 2_555 3_555 n
C(2) C(2) C(2) 90.0 2_555 4_555 n
C(2) C(2) C(3) 73.27(8) 2_555 1_555 n
C(2) C(2) C(2) 45.0 3_555 4_555 n
C(2) C(2) C(3) 65.98(12) 3_555 1_555 n
C(2) C(2) C(3) 73.27(8) 4_555 1_555 n
C(2) C(3) C(2) 33.46(16) 1_555 2_555 n
C(2) C(3) C(2) 48.05(24) 1_555 3_555 n
C(2) C(3) C(2) 33.46(16) 1_555 4_555 n
C(2) C(3) C(2) 33.46(16) 2_555 3_555 n
C(2) C(3) C(2) 48.05(24) 2_555 4_555 n
C(2) C(3) C(2) 33.46(16) 3_555 4_555 n
loop_
_geom_bond_atom_site_label_1
_geom_bond_atom_site_label_2
_geom_bond_distance
_geom_bond_site_symmetry_2
_geom_bond_publ_flag
C(1) C(1) 0.731(5) 2_555 n
C(1) C(1) 1.034(7) 3_555 n
C(1) C(1) 0.731(5) 4_555 n
C(1) N 1.4682(32) 1_555 n
C(1) C(2) 1.541(4) 1_555 n
C(1) C(2) 1.3110(32) 2_555 n
C(1) C(2) 1.0316(32) 3_555 n
C(1) C(2) 1.3110(32) 4_555 n
N C(1) 1.4682(32) 1_555 n
N C(1) 1.4682(32) 2_555 n
N C(1) 1.4682(32) 3_555 n
N C(1) 1.4682(32) 4_555 n
C(2) C(1) 1.541(4) 1_555 n
C(2) C(1) 1.3110(32) 2_555 n
C(2) C(1) 1.0316(32) 3_555 n
C(2) C(1) 1.3110(32) 4_555 n
C(2) C(2) 0.895(5) 2_555 n
C(2) C(2) 1.266(7) 3_555 n
C(2) C(2) 0.895(5) 4_555 n
C(2) C(3) 1.5551(33) 1_555 n
C(3) C(2) 1.5551(33) 1_555 n
C(3) C(2) 1.5551(33) 2_555 n
C(3) C(2) 1.5551(33) 3_555 n
C(3) C(2) 1.5551(33) 4_555 n
loop_
_pd_meas_counts_total
_pd_proc_ls_weight
_pd_proc_intensity_bkg_calc
_pd_calc_intensity_total
21530.0 0.0 -43584912.00000 .
20356.0 0.0 -42484280.00000 .
20048.0 0.0 -41409648.00000 .
19266.0 0.0 -40360396.00000 .
18580.0 0.0 -39335992.00000 .
17983.0 0.0 -38335872.00000 .
17405.0 0.0 -37359536.00000 .
16956.0 0.0 -36406420.00000 .
16154.0 0.0 -35476016.00000 .
15767.0 0.0 -34567836.00000 .
15060.0 0.0 -33681368.00000 .
14680.0 0.0 -32816116.00000 .
14201.0 0.0 -31971634.00000 .
13868.0 0.0 -31147458.00000 .
13141.0 0.0 -30343090.00000 .
13225.0 0.0 -29558132.00000 .
12506.0 0.0 -28792112.00000 .
12281.0 0.0 -28044664.00000 .
11855.0 0.0 -27315304.00000 .
11796.0 0.0 -26603648.00000 .
11261.0 0.0 -25909292.00000 .
10852.0 0.0 -25231844.00000 .
10516.0 0.0 -24570932.00000 .
10308.0 0.0 -23926158.00000 .
9850.0 0.0 -23297174.00000 .
9631.0 0.0 -22683622.00000 .
9591.0 0.0 -22085120.00000 .
9078.0 0.0 -21501356.00000 .
8846.0 0.0 -20931986.00000 .
8797.0 0.0 -20376672.00000 .
8707.0 0.0 -19835094.00000 .
8300.0 0.0 -19306922.00000 .
7970.0 0.0 -18791876.00000 .
7998.0 0.0 -18289632.00000 .
7887.0 0.0 -17799896.00000 .
7521.0 0.0 -17322386.00000 .
7329.0 0.0 -16856804.00000 .
7227.0 0.0 -16402883.00000 .
7027.0 0.0 -15960351.00000 .
7002.0 0.0 -15528938.00000 .
6742.0 0.0 -15108380.00000 .
6628.0 0.0 -14698435.00000 .
6413.0 0.0 -14298847.00000 .
6314.0 0.0 -13909371.00000 .
6195.0 0.0 -13529781.00000 .
6169.0 0.0 -13159825.00000 .
6058.0 0.0 -12799292.00000 .
6027.0 0.0 -12447949.00000 .
5838.0 0.0 -12105577.00000 .
5704.0 0.0 -11771971.00000 .
5648.0 0.0 -11446922.00000 .
5374.0 0.0 -11130213.00000 .
5327.0 0.0 -10821659.00000 .
5387.0 0.0 -10521071.00000 .
5341.0 0.0 -10228240.00000 .
5221.0 0.0 -9942983.00000 .
5094.0 0.0 -9665124.00000 .
5025.0 0.0 -9394496.00000 .
4998.0 0.0 -9130896.00000 .
4798.0 0.0 -8874179.00000 .
4898.0 0.0 -8624166.00000 .
4677.0 0.0 -8380704.00000 .
4582.0 0.0 -8143622.50000 .
4666.0 0.0 -7912773.00000 .
4481.0 0.0 -7688002.50000 .
4433.0 0.0 -7469166.50000 .
4402.0 0.0 -7256109.50000 .
4429.0 0.0 -7048698.50000 .
4396.0 0.0 -6846790.00000 .
4212.0 0.0 -6650257.50000 .
4074.0 0.0 -6458951.00000 .
4211.0 0.0 -6272755.50000 .
3997.0 0.0 -6091543.50000 .
4038.0 0.0 -5915193.00000 .
4074.0 0.0 -5743576.50000 .
3967.0 0.0 -5576575.50000 .
3850.0 0.0 -5414080.50000 .
3876.0 0.0 -5255977.00000 .
3936.0 0.0 -5102151.50000 .
3804.0 0.0 -4952503.00000 .
3711.0 0.0 -4806923.00000 .
3756.0 0.0 -4665308.50000 .
3733.0 0.0 -4527563.50000 .
3593.0 0.0 -4393584.00000 .
3645.0 0.0 -4263279.50000 .
3558.0 0.0 -4136555.75000 .
3421.0 0.0 -4013318.00000 .
3444.0 0.0 -3893485.50000 .
3433.0 0.0 -3776964.75000 .
3322.0 0.0 -3663671.75000 .
3285.0 0.0 -3553523.25000 .
3245.0 0.0 -3446439.00000 .
3382.0 0.0 -3342345.75000 .
3257.0 0.0 -3241161.75000 .
3272.0 0.0 -3142809.00000 .
3125.0 0.0 -3047216.50000 .
3108.0 0.0 -2954316.75000 .
3147.0 0.0 -2864031.75000 .
3093.0 0.0 -2776300.75000 .
3175.0 0.0 -2691056.50000 .
3016.0 0.0 -2608228.25000 .
2977.0 0.0 -2527757.50000 .
3081.0 0.0 -2449577.00000 .
2939.0 0.0 -2373635.75000 .
2962.0 0.0 -2299872.00000 .
2890.0 0.0 -2228218.00000 .
2884.0 0.0 -2158630.50000 .
2856.0 0.0 -2091045.37500 .
2797.0 0.0 -2025416.00000 .
2974.0 0.0 -1961689.50000 .
2828.0 0.0 -1899810.62500 .
2743.0 0.0 -1839735.62500 .
2749.0 0.0 -1781409.12500 .
2689.0 0.0 -1724790.25000 .
2808.0 0.0 -1669834.00000 .
2684.0 0.0 -1616487.12500 .
2649.0 0.0 -1564714.87500 .
2695.0 0.0 -1514468.00000 .
2658.0 0.0 -1465710.37500 .
2689.0 0.0 -1418400.75000 .
2657.0 0.0 -1372493.25000 .
2590.0 0.0 -1327957.25000 .
2529.0 0.0 -1284750.75000 .
2515.0 0.0 -1242838.62500 .
2527.0 0.0 -1202186.75000 .
2536.0 0.0 -1162755.75000 .
2423.0 0.0 -1124517.25000 .
2491.0 0.0 -1087433.12500 .
2478.0 0.0 -1051474.25000 .
2472.0 0.0 -1016611.50000 .
2295.0 0.0 -982808.18750 .
2387.0 0.0 -950040.25000 .
2307.0 0.0 -918273.75000 .
2343.0 0.0 -887484.31250 .
2385.0 0.0 -857644.93750 .
2319.0 0.0 -828724.50000 .
2355.0 0.0 -800700.68750 .
2326.0 0.0 -773545.43750 .
2327.0 0.0 -747236.06250 .
2304.0 0.0 -721749.12500 .
2261.0 0.0 -697057.56250 .
2227.0 0.0 -673141.81250 .
2209.0 0.0 -649976.31250 .
2236.0 0.0 -627542.62500 .
2203.0 0.0 -605820.00000 .
2112.0 0.0 -584784.12500 .
2204.0 0.0 -564418.93750 .
2071.0 0.0 -544701.68750 .
2126.0 0.0 -525615.00000 .
2113.0 0.0 -507141.90625 .
2083.0 0.0 -489260.90625 .
2191.0 0.0 -471957.87500 .
2061.0 0.0 -455213.06250 .
2047.0 0.0 -439012.34375 .
2024.0 0.0 -423339.00000 .
2059.0 0.0 -408175.40625 .
2059.0 0.0 -393508.46875 .
1995.0 0.0 -379322.15625 .
2035.0 0.0 -365603.31250 .
2053.0 0.0 -352337.40625 .
1945.0 0.0 -339509.78125 .
1922.0 0.0 -327108.50000 .
1984.0 0.0 -315119.56250 .
1951.0 0.0 -303531.03125 .
1863.0 0.0 -292331.62500 .
1954.0 0.0 -281507.25000 .
1913.0 0.0 -271048.46875 .
1897.0 0.0 -260942.53125 .
1907.0 0.0 -251179.35938 .
1804.0 0.0 -241748.98438 .
1734.0 0.0 -232639.81250 .
1821.0 0.0 -223842.60938 .
1738.0 0.0 -215347.10938 .
1726.0 0.0 -207144.53125 .
1752.0 0.0 -199225.76563 .
1733.0 0.0 -191580.92188 .
1742.0 0.0 -184202.15625 .
1700.0 0.0 -177080.85938 .
1711.0 0.0 -170208.73438 .
1676.0 0.0 -163578.56250 .
1632.0 0.0 -157181.31250 .
1685.0 0.0 -151010.79688 .
1721.0 0.0 -145058.73438 .
1674.0 0.0 -139318.75000 .
1673.0 0.0 -133784.12500 .
1722.0 0.0 -128447.35938 .
1598.0 0.0 -123302.96094 .
1641.0 0.0 -118343.81250 .
1673.0 0.0 -113564.59375 .
1616.0 0.0 -108959.17188 .
1631.0 0.0 -104521.42969 .
1559.0 0.0 -100246.27344 .
1520.0 0.0 -96128.03125 .
1608.0 0.0 -92161.82813 .
1629.0 0.0 -88342.55469 .
1492.0 0.0 -84664.78906 .
1628.0 0.0 -81124.31250 .
1552.0 0.0 -77716.10156 .
1520.0 0.0 -74436.04688 .
1533.0 0.0 -71279.88281 .
1521.0 0.0 -68242.84375 .
1430.0 0.0 -65321.35156 .
1517.0 0.0 -62511.14844 .
1490.0 0.0 -59808.51953 .
1467.0 0.0 -57209.98047 .
1456.0 0.0 -54711.52344 .
1459.0 0.0 -52310.00391 .
1448.0 0.0 -50001.77344 .
1474.0 0.0 -47783.75781 .
1362.0 0.0 -45652.82813 .
1400.0 0.0 -43605.60547 .
1391.0 0.0 -41639.45703 .
1406.0 0.0 -39751.32813 .
1352.0 0.0 -37938.48047 .
1398.0 0.0 -36198.30078 .
1362.0 0.0 -34528.00781 .
1328.0 0.0 -32925.26172 .
1374.0 0.0 -31387.41602 .
1314.0 0.0 -29912.28125 .
1375.0 0.0 -28497.60938 .
1326.0 0.0 -27140.96875 .
1397.0 0.0 -25840.42578 .
1282.0 0.0 -24593.77930 .
1263.0 0.0 -23399.10156 .
1309.0 0.0 -22254.46875 .
1332.0 0.0 -21157.94727 .
1322.0 0.0 -20107.78711 .
1249.0 0.0 -19102.16211 .
1191.0 0.0 -18139.48047 .
1207.0 0.0 -17218.15820 .
1279.0 0.0 -16336.41016 .
1189.0 0.0 -15492.92188 .
1191.0 0.0 -14686.09473 .
1182.0 0.0 -13914.55859 .
1109.0 0.0 -13177.00391 .
1110.0 0.0 -12471.95605 .
1176.0 0.0 -11798.28125 .
1147.0 0.0 -11154.63574 .
1134.0 0.0 -10539.93555 .
1095.0 0.0 -9952.97656 .
1139.0 0.0 -9392.63867 .
1118.0 0.0 -8857.89746 .
1106.0 0.0 -8347.64063 .
1088.0 0.0 -7860.96387 .
1059.0 0.0 -7396.90576 .
1061.0 0.0 -6954.45410 .
1090.0 0.0 -6532.81104 .
1120.0 0.0 -6131.06787 .
1033.0 0.0 -5748.41406 .
1077.0 0.0 -5384.06299 .
1093.0 0.0 -5037.22803 .
1068.0 0.0 -4707.19287 .
1050.0 0.0 -4393.20605 .
1067.0 0.0 -4094.62793 .
1032.0 0.0 -3810.78833 .
1057.0 0.0 -3541.02808 .
1008.0 0.0 -3284.75757 .
1029.0 0.0 -3041.38037 .
1030.0 0.0 -2810.34155 .
941.0 0.0 -2591.11035 .
977.0 0.0 -2383.11890 .
975.0 0.0 -2185.91064 .
1008.0 0.0 -1998.97876 .
973.0 0.0 -1821.86316 .
975.0 0.0 -1654.13208 .
966.0 0.0 -1495.34082 .
1010.0 0.0 -1345.08875 .
941.0 0.0 -1202.96826 .
1042.0 0.0 -1068.61902 .
930.0 0.0 -941.67145 .
950.0 0.0 -821.76733 .
999.0 0.0 -708.57861 .
994.0 0.0 -601.78571 .
961.0 0.0 -501.08163 .
1007.0 0.0 -406.17810 .
921.0 0.0 -316.77399 .
966.0 0.0 -232.61752 .
922.0 0.0 -153.43851 .
948.0 0.0 -78.99294 .
992.0 0.0 -9.04401 .
1042.0 0.0 56.63731 .
906.0 0.0 118.26690 .
988.0 0.0 176.05797 .
962.0 0.0 230.20293 .
915.0 0.0 280.89005 .
911.0 0.0 328.31088 .
971.0 0.0 372.62939 .
920.0 0.0 414.01761 .
918.0 0.0 452.63080 .
949.0 0.0 488.61737 .
966.0 0.0 522.12927 .
983.0 0.0 553.29626 .
882.0 0.0 582.25385 .
932.0 0.0 609.12543 .
937.0 0.0 634.02899 .
893.0 0.0 657.07941 .
925.0 0.0 678.38312 .
942.0 0.0 698.04523 .
914.0 0.0 716.16064 .
910.0 0.0 732.82196 .
867.0 0.0 748.12048 .
900.0 0.0 762.13696 .
902.0 0.0 774.95270 .
923.0 0.0 786.64258 .
926.0 0.0 797.27802 .
899.0 0.0 806.92755 .
865.0 0.0 815.65497 .
886.0 0.0 823.52197 .
920.0 0.0 830.58539 .
881.0 0.0 836.90009 .
907.0 0.0 842.51819 .
885.0 0.0 847.48810 .
866.0 0.0 851.85614 .
894.0 0.0 855.66547 .
876.0 0.0 858.95697 .
843.0 0.0 861.77008 .
871.0 0.0 864.14044 .
879.0 0.0 866.10278 .
893.0 0.001120 867.68915 867.68781
878.0 0.001139 868.92981 868.92859
865.0 0.001156 869.85333 869.85217
938.0 0.001066 870.48633 870.48523
865.0 0.001156 870.85376 870.85278
892.0 0.001121 870.97913 870.97815
898.0 0.001114 870.88428 870.88342
883.0 0.001133 870.58966 870.58887
838.0 0.001193 870.11444 870.11365
823.0 0.001215 869.47632 869.47552
858.0 0.001166 868.69189 868.69116
848.0 0.001179 867.77673 867.77600
888.0 0.001126 866.74493 866.74426
812.0 0.001232 865.60992 865.60925
873.0 0.001145 864.38397 864.38324
861.0 0.001161 863.07831 863.07764
842.0 0.001188 861.70367 861.70300
867.0 0.001153 860.26953 860.26886
837.0 0.001195 858.78473 858.78406
811.0 0.001233 857.25757 857.25690
811.0 0.001233 855.69537 855.69470
889.0 0.001125 854.10510 854.10437
848.0 0.001179 852.49274 852.49200
875.0 0.001143 850.86383 850.86310
830.0 0.001205 849.22375 849.22302
816.0 0.001225 847.57672 847.57599
863.0 0.001159 845.92725 845.92645
827.0 0.001209 844.27869 844.27789
853.0 0.001172 842.63428 842.63342
830.0 0.001205 840.99701 840.99622
856.0 0.001168 839.36926 839.36841
797.0 0.001255 837.75342 837.75250
827.0 0.001209 836.15118 836.15027
836.0 0.001196 834.56403 834.56311
861.0 0.001161 832.99353 832.99261
806.0 0.001241 831.44067 831.43976
898.0 0.001114 829.90637 829.90540
821.0 0.001218 828.39111 828.39014
804.0 0.001244 826.89539 826.89441
854.0 0.001171 825.41974 825.41876
804.0 0.001244 823.96399 823.96295
854.0 0.001171 822.52844 822.52740
852.0 0.001174 821.11279 821.11176
864.0 0.001157 819.71686 819.71576
816.0 0.001225 818.34021 818.33911
806.0 0.001241 816.98254 816.98145
870.0 0.001149 815.64331 815.64227
802.0 0.001247 814.32208 814.32098
841.0 0.001189 813.01788 816.12341
818.0 0.001222 811.73035 814.99384
795.0 0.001258 810.45862 815.48932
797.0 0.001255 809.20203 814.49927
778.0 0.001285 807.95959 813.54523
823.0 0.001215 806.73071 812.62891
792.0 0.001263 805.51453 811.75238
856.0 0.001168 804.31006 810.91791
833.0 0.001200 803.11670 810.12848
819.0 0.001221 801.93347 809.38745
772.0 0.001295 800.75958 808.69916
821.0 0.001218 799.59418 808.06866
787.0 0.001271 798.43646 807.50189
817.0 0.001224 797.28577 807.00647
795.0 0.001258 796.14117 806.59125
791.0 0.001264 795.00189 806.26703
803.0 0.001245 793.86743 806.04724
771.0 0.001297 792.73688 805.94836
836.0 0.001196 791.60962 805.99054
819.0 0.001221 790.48511 806.19910
861.0 0.001161 789.36267 806.60577
848.0 0.001179 788.24170 807.25092
834.0 0.001199 787.12158 808.18616
850.0 0.001176 786.00201 809.47864
873.0 0.001145 784.88245 811.21729
843.0 0.001186 783.76233 813.52118
898.0 0.001114 782.64136 816.55353
869.0 0.001151 781.51917 820.54388
824.0 0.001214 780.39545 825.82428
895.0 0.001117 779.26990 832.91028
957.0 0.001045 778.14215 842.75220
911.0 0.001098 777.01215 857.60907
951.0 0.001052 775.87958 883.32269
965.0 0.001036 774.74426 932.68835
1055.0 0.000948 773.60632 1026.55835
1185.0 0.000844 772.46533 1187.85437
1373.0 0.000728 771.32153 1435.89563
1649.0 0.000606 770.17462 1790.38586
2066.0 0.000484 769.02490 2291.92969
2950.0 0.0003390 767.87219 3017.75586
3970.0 0.0002519 766.71655 4021.90747
5061.0 0.0001976 765.55829 5123.18164
5644.0 0.0001772 764.39728 5711.68408
5146.0 0.0001943 763.23383 5152.86523
3653.0 0.0002737 762.06805 3761.65625
2235.0 0.000447 760.90009 2380.36328
1366.0 0.000732 759.73029 1518.05750
1051.0 0.000951 758.55865 1123.60388
885.0 0.001130 757.38568 969.71191
855.0 0.001170 756.21161 904.28998
850.0 0.001176 755.03656 867.92560
792.0 0.001263 753.86102 843.43542
750.0 0.001333 752.68524 825.56464
785.0 0.001274 751.50958 811.97668
838.0 0.001193 750.33441 801.31854
744.0 0.001344 749.15997 792.73480
736.0 0.001359 747.98682 785.66235
750.0 0.001333 746.81519 779.71631
745.0 0.001342 745.64563 774.62823
750.0 0.001333 744.47833 770.20477
743.0 0.001346 743.31384 766.30481
769.0 0.001300 742.15265 762.82343
790.0 0.001266 740.99493 759.68054
762.0 0.001312 739.84143 756.81531
770.0 0.001299 738.69232 754.17993
768.0 0.001302 737.54803 751.73669
722.0 0.001385 736.40912 749.45599
761.0 0.001314 735.27594 747.31366
747.0 0.001339 734.14893 745.29041
749.0 0.001335 733.02856 743.37048
733.0 0.001364 731.91510 741.54065
748.0 0.001337 730.80920 739.79041
756.0 0.001323 729.71106 738.11060
740.0 0.001351 728.62122 736.49396
734.0 0.001362 727.54004 734.93408
732.0 0.001366 726.46790 733.42560
707.0 0.001414 725.40533 731.96423
715.0 0.001399 724.35242 730.54596
737.0 0.001357 723.30988 729.16779
681.0 0.001468 722.27789 727.82672
788.0 0.001269 721.25690 726.52045
715.0 0.001399 720.24713 725.24695
760.0 0.001316 719.24902 724.00446
734.0 0.001362 718.26294 719.83356
731.0 0.001368 717.28918 718.78510
681.0 0.001468 716.32794 716.32727
731.0 0.001368 715.37970 715.37903
764.0 0.001309 714.44464 714.44391
739.0 0.001353 713.52301 713.52234
685.0 0.001460 712.61530 712.61456
705.0 0.001418 711.72144 711.72070
724.0 0.001381 710.84186 710.84119
698.0 0.001433 709.97675 709.97601
695.0 0.001439 709.12634 709.12567
729.0 0.001372 708.29089 708.29016
675.0 0.001481 707.47046 707.46973
675.0 0.001481 706.66528 706.66461
678.0 0.001475 705.87561 705.87488
739.0 0.001353 705.10150 705.10077
745.0 0.001342 704.34320 704.34247
675.0 0.001481 703.60065 703.59991
678.0 0.001475 702.87408 702.87335
767.0 0.001304 702.16364 702.16290
670.0 0.001493 701.46936 701.46863
712.0 0.001404 700.79132 700.79059
699.0 0.001431 700.12964 700.12891
708.0 0.001412 699.48425 699.48352
694.0 0.001441 698.85535 698.85455
711.0 0.001406 698.24280 698.24207
774.0 0.001292 697.64679 697.64606
713.0 0.001403 697.06714 697.06641
688.0 0.001453 696.50403 696.50330
728.0 0.001374 695.95734 695.95660
720.0 0.001389 695.42706 695.42633
673.0 0.001486 694.91315 694.91235
735.0 0.001361 694.41553 694.41473
703.0 0.001422 693.93420 693.93341
729.0 0.001372 693.46899 693.46826
700.0 0.001429 693.01996 693.01917
670.0 0.001493 692.58691 692.58618
702.0 0.001425 692.16980 692.16901
683.0 0.001464 691.76849 691.76770
760.0 0.001316 691.38287 691.38208
737.0 0.001357 691.01282 691.01202
695.0 0.001439 690.65820 690.65741
740.0 0.001351 690.31885 690.31805
665.0 0.001504 689.99469 689.99390
684.0 0.001462 689.68549 689.68469
689.0 0.001451 689.39105 689.39026
672.0 0.001488 689.11133 689.11053
668.0 0.001497 688.84607 688.84528
670.0 0.001493 688.59515 688.59436
649.0 0.001541 688.35828 688.35742
695.0 0.001439 688.13531 688.13452
735.0 0.001361 687.92609 687.92529
687.0 0.001456 687.73035 687.72955
715.0 0.001399 687.54797 687.54718
722.0 0.001385 687.37866 687.37781
687.0 0.001456 687.22217 687.22137
689.0 0.001451 687.07837 687.07758
678.0 0.001475 686.94702 686.94623
692.0 0.001445 686.82788 686.82709
660.0 0.001515 686.72076 686.71991
679.0 0.001473 686.62537 686.62451
740.0 0.001351 686.54150 686.54065
691.0 0.001447 686.46893 686.46808
710.0 0.001408 686.40741 686.40656
743.0 0.001346 686.35675 686.35590
721.0 0.001387 686.31665 686.31580
720.0 0.001389 686.28687 686.28607
717.0 0.001395 686.26727 686.26642
701.0 0.001427 686.25757 686.25671
660.0 0.001515 686.25745 686.25659
688.0 0.001453 686.26678 686.26593
672.0 0.001488 686.28528 686.28442
696.0 0.001437 686.31274 686.31189
698.0 0.001433 686.34894 686.34808
662.0 0.001511 686.39355 686.39276
743.0 0.001346 686.44653 686.44568
680.0 0.001471 686.50751 686.50665
732.0 0.001366 686.57623 686.57538
656.0 0.001524 686.65265 686.65179
719.0 0.001391 686.73639 686.73553
698.0 0.001433 686.82733 686.82648
680.0 0.001471 686.92517 686.92432
699.0 0.001431 687.02979 687.02899
689.0 0.001451 687.14099 687.14014
668.0 0.001497 687.25848 687.25763
715.0 0.001399 687.38208 687.38129
683.0 0.001464 687.51172 687.51086
685.0 0.001460 687.64709 687.64624
659.0 0.001517 687.78802 687.78717
704.0 0.001420 687.93439 687.93359
655.0 0.001527 688.08600 688.08514
710.0 0.001408 688.24268 688.24182
666.0 0.001502 688.40417 688.40338
688.0 0.001453 688.57050 688.56964
672.0 0.001488 688.74139 688.74054
664.0 0.001506 688.91669 688.91583
679.0 0.001473 689.09631 689.09546
665.0 0.001504 689.28009 689.27924
698.0 0.001433 689.46783 689.46704
683.0 0.001464 689.65948 689.65869
697.0 0.001435 689.85498 689.85419
618.0 0.001618 690.05408 690.05328
687.0 0.001456 690.25677 690.25598
708.0 0.001412 690.46289 690.46210
666.0 0.001502 690.67236 690.67151
702.0 0.001425 690.88507 690.88428
664.0 0.001506 691.10095 691.10016
679.0 0.001473 691.31995 691.31915
720.0 0.001389 691.54193 691.54114
672.0 0.001488 691.76691 691.76611
694.0 0.001441 691.99469 691.99390
687.0 0.001456 692.22540 692.22461
670.0 0.001493 692.45886 692.45807
648.0 0.001543 692.69501 692.69421
704.0 0.001420 692.93390 692.93311
720.0 0.001389 693.17542 693.17462
655.0 0.001527 693.41956 693.41882
712.0 0.001404 693.66638 693.66559
701.0 0.001427 693.91577 693.91498
679.0 0.001473 694.16779 694.16699
677.0 0.001477 694.42236 694.42157
655.0 0.001527 694.67950 694.67877
694.0 0.001441 694.93927 694.93854
678.0 0.001475 695.20166 695.20093
696.0 0.001437 695.46667 695.46594
701.0 0.001427 695.73431 695.73358
680.0 0.001471 696.00464 696.00391
707.0 0.001414 696.27771 696.27698
690.0 0.001449 696.55359 696.55280
740.0 0.001351 696.83215 696.83142
622.0 0.001608 697.11365 697.11292
715.0 0.001399 697.39801 697.39728
723.0 0.001383 697.68536 697.68463
727.0 0.001376 697.97577 697.97504
691.0 0.001447 698.26923 698.26849
661.0 0.001513 698.56586 698.56512
658.0 0.001520 698.86572 698.86499
666.0 0.001502 699.16895 699.16821
695.0 0.001439 699.47552 699.47485
673.0 0.001486 699.78571 699.78497
756.0 0.001323 700.09937 700.09869
714.0 0.001401 700.41681 700.41608
641.0 0.001560 700.73798 700.73730
686.0 0.001458 701.06311 701.06238
711.0 0.001406 701.39221 701.39154
671.0 0.001490 701.72546 701.72473
781.0 0.001280 702.06287 702.06219
688.0 0.001453 702.40472 702.40399
658.0 0.001520 702.75092 702.75024
699.0 0.001431 703.10181 703.10107
638.0 0.001567 703.45734 703.45667
705.0 0.001418 703.81775 703.81702
666.0 0.001502 704.18311 704.18237
683.0 0.001464 704.55353 704.55286
729.0 0.001372 704.92926 704.92853
729.0 0.001372 705.31030 705.30957
684.0 0.001462 705.69684 705.69617
717.0 0.001395 706.08905 706.08838
750.0 0.001333 706.48706 706.48639
714.0 0.001401 706.89099 706.89032
704.0 0.001420 707.30096 707.30029
694.0 0.001441 707.71716 707.71649
697.0 0.001435 708.13977 708.13910
663.0 0.001508 708.56879 708.56812
691.0 0.001447 709.00452 709.00385
675.0 0.001481 709.44708 709.44641
741.0 0.001350 709.89648 709.89581
741.0 0.001350 710.35303 710.35236
682.0 0.001466 710.81677 710.81610
741.0 0.001350 711.28802 711.28735
673.0 0.001486 711.76672 711.76605
748.0 0.001337 712.25305 712.25238
673.0 0.001486 712.74731 712.74664
754.0 0.001326 713.24945 713.24878
671.0 0.001490 713.75983 713.75916
683.0 0.001464 714.27832 714.27765
727.0 0.001376 714.80530 714.80463
709.0 0.001410 715.34082 715.34015
733.0 0.001364 715.88501 715.88434
739.0 0.001353 716.43811 716.43744
700.0 0.001429 717.00006 716.99939
699.0 0.001431 717.57111 717.57043
757.0 0.001321 718.15143 718.15076
712.0 0.001404 718.74115 718.74048
772.0 0.001295 719.34039 719.33972
747.0 0.001339 719.94922 719.94855
750.0 0.001333 720.56781 720.56714
712.0 0.001404 721.19635 721.19568
726.0 0.001377 721.83484 721.83417
721.0 0.001387 722.48352 722.48285
722.0 0.001385 723.14240 723.14172
703.0 0.001422 723.81158 723.81091
736.0 0.001359 724.49139 724.49072
733.0 0.001364 725.18170 725.18103
706.0 0.001416 725.88275 725.88208
717.0 0.001395 726.59454 726.59387
689.0 0.001451 727.31726 727.31659
773.0 0.001294 728.05096 728.05029
715.0 0.001399 728.79584 728.79517
750.0 0.001333 729.55176 729.55109
766.0 0.001305 730.31903 730.31836
769.0 0.001300 731.09766 731.09698
686.0 0.001458 731.88782 731.88715
724.0 0.001381 732.68939 732.68872
721.0 0.001387 733.50262 733.50195
763.0 0.001311 734.32751 734.32684
732.0 0.001366 735.16406 735.16339
748.0 0.001337 736.01257 736.01190
722.0 0.001385 736.87280 736.87213
743.0 0.001346 737.74506 737.74438
741.0 0.001350 738.62921 738.62854
768.0 0.001302 739.52533 739.52466
752.0 0.001330 740.43359 740.43286
785.0 0.001274 741.35394 741.35327
741.0 0.001350 742.28644 742.28577
707.0 0.001414 743.23108 743.23035
722.0 0.001385 744.18787 744.18719
709.0 0.001410 745.15704 748.12457
748.0 0.001337 746.13831 749.25543
785.0 0.001274 747.13196 751.88092
767.0 0.001304 748.13776 753.13477
790.0 0.001266 749.15588 754.42084
768.0 0.001302 750.18634 755.74139
766.0 0.001305 751.22900 757.09882
757.0 0.001321 752.28400 758.49628
776.0 0.001289 753.35120 759.93658
808.0 0.001238 754.43066 761.42395
806.0 0.001241 755.52240 762.96277
730.0 0.001370 756.62634 764.55804
837.0 0.001195 757.74237 766.21576
809.0 0.001236 758.87061 767.94324
783.0 0.001277 760.01093 769.74878
845.0 0.001183 761.16345 771.64252
797.0 0.001255 762.32788 773.63629
813.0 0.001230 763.50446 775.74487
763.0 0.001311 764.69281 777.98560
832.0 0.001202 765.89301 780.38013
849.0 0.001178 767.10516 782.95563
826.0 0.001211 768.32898 785.74493
859.0 0.001164 769.56458 788.79077
809.0 0.001236 770.81171 792.14648
807.0 0.001239 772.07031 795.88177
871.0 0.001148 773.34052 800.08826
778.0 0.001285 774.62195 804.88684
840.0 0.001190 775.91467 810.44287
858.0 0.001166 777.21857 816.98395
852.0 0.001174 778.53369 824.83380
906.0 0.001104 779.85962 834.46576
886.0 0.001129 781.19647 846.61627
943.0 0.001060 782.54425 862.61975
904.0 0.001106 783.90253 885.51080
951.0 0.001052 785.27136 923.13855
1014.0 0.000986 786.65076 994.46155
1152.0 0.000868 788.04028 1138.29602
1435.0 0.000697 789.44019 1420.30103
1969.0 0.000508 790.84998 1928.31824
2760.0 0.000362 792.26965 2735.45190
3632.0 0.0002753 793.69922 3785.80786
4544.0 0.0002201 795.13837 4756.37646
4875.0 0.0002051 796.58698 5105.75391
4738.0 0.0002111 798.04492 4609.67285
3814.0 0.0002622 799.51221 3641.91504
2767.0 0.000361 800.98834 2587.21826
1877.0 0.000533 802.47345 1770.12744
1263.0 0.000792 803.96735 1292.74158
1033.0 0.000968 805.46973 1066.32935
920.0 0.001087 806.98053 970.34210
884.0 0.001131 808.49969 926.75299
840.0 0.001190 810.02679 902.32196
812.0 0.001232 811.56189 886.18237
796.0 0.001256 813.10461 874.76117
835.0 0.001198 814.65485 866.46387
854.0 0.001171 816.21259 860.36053
849.0 0.001178 817.77734 855.84833
834.0 0.001199 819.34912 852.51801
836.0 0.001196 820.92786 850.08527
834.0 0.001199 822.51306 848.34613
836.0 0.001196 824.10468 847.15155
809.0 0.001236 825.70258 846.39154
817.0 0.001224 827.30664 845.98206
857.0 0.001167 828.91638 845.85895
819.0 0.001221 830.53180 845.97223
880.0 0.001136 832.15277 846.28247
827.0 0.001209 833.77887 846.75806
804.0 0.001244 835.41016 847.37390
822.0 0.001217 837.04614 848.74103
848.0 0.001179 838.68677 849.61108
840.0 0.001190 840.33197 850.88287
824.0 0.001214 841.98126 851.93964
858.0 0.001166 843.63452 853.06793
827.0 0.001209 845.29175 854.26019
857.0 0.001167 846.95239 855.50989
874.0 0.001144 848.61646 856.81146
853.0 0.001172 850.28369 858.16052
905.0 0.001105 851.95398 859.55377
824.0 0.001214 853.62689 860.98773
829.0 0.001206 855.30231 862.46039
824.0 0.001214 856.98016 863.97021
827.0 0.001209 858.65997 865.51587
913.0 0.001095 860.34180 867.09692
836.0 0.001196 862.02515 865.83990
813.0 0.001230 863.70990 867.62500
864.0 0.001157 865.39606 868.00238
876.0 0.001142 867.08307 869.91437
884.0 0.001131 868.77100 871.85779
881.0 0.001135 870.45941 873.83795
882.0 0.001134 872.14813 875.86188
859.0 0.001164 873.83704 877.93854
840.0 0.001190 875.52582 880.07935
821.0 0.001218 877.21448 882.29926
843.0 0.001186 878.90253 884.61743
875.0 0.001143 880.58978 887.06012
847.0 0.001181 882.27631 889.66302
924.0 0.001082 883.96149 892.47467
917.0 0.001091 885.64545 895.56543
841.0 0.001189 887.32776 899.03699
888.0 0.001126 889.00824 903.04913
870.0 0.001149 890.68689 907.89203
898.0 0.001114 892.36322 914.22876
878.0 0.001139 894.03723 923.78961
934.0 0.001071 895.70850 940.83057
998.0 0.001002 897.37695 974.34167
1110.0 0.000901 899.04242 1039.89453
1321.0 0.000757 900.70477 1157.21533
1506.0 0.000664 902.36353 1337.94165
1727.0 0.000579 904.01868 1558.13647
2077.0 0.000481 905.66998 1738.58496
2233.0 0.000448 907.31738 1775.70410
2201.0 0.000454 908.96045 1659.02063
1780.0 0.000562 910.59924 1468.22681
1470.0 0.000680 912.23334 1266.09668
1240.0 0.000806 913.86255 1109.20715
968.0 0.001033 915.48694 1016.04071
942.0 0.001062 917.10602 971.22321
912.0 0.001096 918.71991 952.51697
897.0 0.001115 920.32806 944.71399
890.0 0.001124 921.93054 940.96881
874.0 0.001144 923.52710 938.94775
959.0 0.001043 925.11774 937.88391
926.0 0.001080 926.70197 937.44702
902.0 0.001109 928.27979 937.44897
918.0 0.001089 929.85095 937.76770
872.0 0.001147 931.41553 938.32013
931.0 0.001074 932.97308 939.04816
940.0 0.001064 934.52362 939.91040
925.0 0.001081 936.06677 940.87604
887.0 0.001127 937.60254 941.92255
971.0 0.001030 939.13074 943.03253
857.0 0.001167 940.65155 944.19312
937.0 0.001067 942.16406 945.39307
943.0 0.001060 943.66870 946.62488
935.0 0.001070 945.16504 947.88159
907.0 0.001103 946.65308 949.15802
895.0 0.001117 948.13312 950.45020
890.0 0.001124 949.60388 951.75354
878.0 0.001139 951.06647 953.06616
882.0 0.001134 952.51965 954.38464
921.0 0.001086 953.96429 955.70764
949.0 0.001054 955.39990 957.03326
937.0 0.001067 956.82587 958.35919
857.0 0.001167 958.24274 959.68506
920.0 0.001087 959.64990 961.00903
944.0 0.001059 961.04755 962.33057
941.0 0.001063 962.43585 963.64886
941.0 0.001063 963.81384 964.96246
909.0 0.001100 965.18219 966.27148
901.0 0.001110 966.54022 967.57458
960.0 0.001042 967.88824 968.87177
956.0 0.001046 969.22638 969.56061
908.0 0.001101 970.55365 970.87164
970.0 0.001031 971.87091 971.87036
989.0 0.001011 973.17731 973.17676
967.0 0.001034 974.47321 974.47266
968.0 0.001033 975.75867 975.75812
978.0 0.001022 977.03302 977.03247
1057.0 0.000946 978.29669 978.29620
983.0 0.001017 979.54932 979.54877
1015.0 0.000985 980.79095 980.79047
1010.0 0.000990 982.02191 982.02136
998.0 0.001002 983.24127 983.24078
1020.0 0.000980 984.44965 984.44916
979.0 0.001021 985.64661 985.64606
998.0 0.001002 986.83228 986.83179
1027.0 0.000974 988.00696 988.00641
1026.0 0.000975 989.16962 989.16913
1001.0 0.000999 990.32123 990.32074
1004.0 0.000996 991.46106 991.46057
1087.0 0.000920 992.58936 992.58887
966.0 0.001035 993.70630 993.70581
875.0 0.001143 994.81128 994.81079
1001.0 0.000999 995.90479 995.90430
970.0 0.001031 996.98639 996.98590
968.0 0.001033 998.05634 998.05585
974.0 0.001027 999.11475 999.11426
938.0 0.001066 1000.16101 1000.16058
968.0 0.001033 1001.19568 1001.19519
916.0 0.001092 1002.21832 1002.21783
921.0 0.001086 1003.22913 1003.22870
962.0 0.001040 1004.22839 1004.22797
957.0 0.001045 1005.21533 1005.21490
980.0 0.001020 1006.19073 1006.19031
932.0 0.001073 1007.15399 1007.15356
1065.0 0.000939 1008.10541 1008.10498
930.0 0.001075 1009.04517 1009.04468
987.0 0.001013 1009.97272 1009.97223
990.0 0.001010 1010.88855 1010.88812
1026.0 0.000975 1011.79236 1011.79187
984.0 0.001016 1012.68433 1012.68390
1038.0 0.000963 1013.56470 1013.56427
951.0 0.001052 1014.43292 1014.43250
1037.0 0.000964 1015.28943 1015.28900
1004.0 0.000996 1016.13403 1016.13361
989.0 0.001011 1016.96686 1016.96643
1002.0 0.000998 1017.78821 1017.78778
1007.0 0.000993 1018.59741 1018.59698
967.0 0.001034 1019.39514 1019.39478
1015.0 0.000985 1020.18109 1020.18066
1002.0 0.000998 1020.95538 1020.95496
967.0 0.001034 1021.71820 1021.71777
1023.0 0.000978 1022.46924 1022.46881
946.0 0.001057 1023.20892 1023.20850
1039.0 0.000962 1023.93683 1023.93646
1038.0 0.000963 1024.65344 1024.65308
1040.0 0.000962 1025.35876 1025.35840
966.0 0.001035 1026.05249 1026.05212
1025.0 0.000976 1026.73511 1026.73474
993.0 0.001007 1027.40625 1027.40588
1004.0 0.000996 1028.06628 1034.70374
994.0 0.001006 1028.71533 1035.61829
989.0 0.001011 1029.35303 1036.53760
1037.0 0.000964 1029.97974 1040.81238
1023.0 0.000978 1030.59534 1041.88098
1054.0 0.000949 1031.20020 1042.96777
1039.0 0.000962 1031.79407 1044.07568
1101.0 0.000908 1032.37720 1045.20679
1109.0 0.000902 1032.94958 1046.36511
1077.0 0.000929 1033.51111 1047.55322
1089.0 0.000918 1034.06213 1048.77588
1091.0 0.000917 1034.60278 1050.03784
1078.0 0.000928 1035.13281 1051.34338
1065.0 0.000939 1035.65247 1052.69849
1092.0 0.000916 1036.16174 1054.10938
1111.0 0.000900 1036.66077 1055.58362
1105.0 0.000905 1037.14978 1057.12988
1137.0 0.000880 1037.62854 1058.75659
1072.0 0.000933 1038.09741 1060.47571
1110.0 0.000901 1038.55615 1062.29871
1083.0 0.000923 1039.00513 1064.24097
1149.0 0.000870 1039.44434 1066.31934
1107.0 0.000903 1039.87378 1068.55237
1146.0 0.000873 1040.29370 1070.96436
1113.0 0.000898 1040.70386 1073.58118
1157.0 0.000864 1041.10474 1076.43628
1212.0 0.000825 1041.49634 1079.56824
1217.0 0.000822 1041.87854 1083.02161
1211.0 0.000826 1042.25159 1086.85437
1179.0 0.000848 1042.61548 1091.90320
1193.0 0.000838 1042.97034 1096.74353
1171.0 0.000854 1043.31641 1102.59448
1165.0 0.000858 1043.65344 1108.85254
1131.0 0.000884 1043.98181 1116.04565
1222.0 0.000818 1044.30139 1124.38245
1272.0 0.000786 1044.61255 1134.14075
1275.0 0.000784 1044.91516 1145.68530
1308.0 0.000765 1045.20935 1159.49500
1257.0 0.000796 1045.49536 1176.23938
1237.0 0.000808 1045.77295 1196.83276
1313.0 0.000762 1046.04260 1222.59839
1325.0 0.000755 1046.30420 1255.50354
1334.0 0.000750 1046.55774 1298.74023
1416.0 0.000706 1046.80347 1358.74524
1497.0 0.000668 1047.04138 1451.46265
1740.0 0.000575 1047.27173 1619.53943
2068.0 0.000484 1047.49463 1966.64209
2771.0 0.000361 1047.70984 2701.01831
4023.0 0.0002486 1047.91772 4135.62061
6214.0 0.0001609 1048.11829 6519.61377
8842.0 0.0001131 1048.31165 9685.79297
12175.0 0.0000821 1048.49792 12719.35059
13931.0 0.0000718 1048.67712 14177.66992
13753.0 0.0000727 1048.84949 13384.12891
11760.0 0.0000850 1049.01489 11225.21191
8479.0 0.0001179 1049.17371 8522.94434
5890.0 0.0001698 1049.32581 5832.78711
3935.0 0.0002541 1049.47119 3769.95825
2514.0 0.000398 1049.61023 2505.99609
1701.0 0.000588 1049.74280 1860.49292
1433.0 0.000698 1049.86914 1565.63403
1350.0 0.000741 1049.98926 1426.42224
1308.0 0.000765 1050.10315 1348.10657
1258.0 0.000795 1050.21106 1295.74341
1210.0 0.000826 1050.31299 1257.57349
1251.0 0.000799 1050.40918 1228.76489
1183.0 0.000845 1050.49939 1206.69568
1189.0 0.000841 1050.58398 1189.72595
1117.0 0.000895 1050.66296 1176.77087
1133.0 0.000883 1050.73645 1167.16040
1212.0 0.000825 1050.80444 1160.52795
1147.0 0.000872 1050.86707 1156.83704
1192.0 0.000839 1050.92444 1156.60876
1140.0 0.000877 1050.97644 1161.77698
1206.0 0.000829 1051.02344 1177.96497
1259.0 0.000794 1051.06543 1218.82629
1307.0 0.000765 1051.10242 1310.80896
1666.0 0.000600 1051.13440 1490.14746
1995.0 0.000501 1051.16162 1778.61328
2616.0 0.000382 1051.18408 2140.76416
2779.0 0.000360 1051.20190 2456.33545
2605.0 0.000384 1051.21509 2567.47534
2643.0 0.000378 1051.22375 2439.23608
2338.0 0.000428 1051.22803 2185.06274
1835.0 0.000545 1051.22778 1880.74976
1606.0 0.000623 1051.22327 1585.80176
1365.0 0.000733 1051.21448 1363.64941
1233.0 0.000811 1051.20154 1228.52820
1148.0 0.000871 1051.18445 1159.19153
1092.0 0.000916 1051.16333 1126.77026
1051.0 0.000951 1051.13818 1110.69043
1114.0 0.000898 1051.10901 1101.07739
1087.0 0.000920 1051.07605 1094.29626
1018.0 0.000982 1051.03931 1078.90674
1057.0 0.000946 1050.99878 1075.23071
1045.0 0.000957 1050.95447 1072.28113
1066.0 0.000938 1050.90662 1064.88147
1072.0 0.000933 1050.85510 1063.10510
1090.0 0.000917 1050.80017 1061.62598
1042.0 0.000960 1050.74170 1060.37878
1081.0 0.000925 1050.67969 1059.31372
1091.0 0.000917 1050.61438 1058.39429
985.0 0.001015 1050.54578 1057.59253
995.0 0.001005 1050.47375 1056.88647
1034.0 0.000967 1050.39856 1056.25928
1036.0 0.000965 1050.32019 1055.69714
1046.0 0.000956 1050.23865 1055.18945
1071.0 0.000934 1050.15393 1054.72742
1050.0 0.000952 1050.06628 1054.30383
1064.0 0.000940 1049.97546 1053.91309
1063.0 0.000941 1049.88171 1053.54993
999.0 0.001001 1049.78491 1053.21069
1080.0 0.000926 1049.68530 1052.89185
1012.0 0.000988 1049.58276 1052.59021
1014.0 0.000986 1049.47742 1052.30408
1048.0 0.000954 1049.36914 1052.03064
1035.0 0.000966 1049.25806 1051.76868
1052.0 0.000951 1049.14429 1051.51636
1047.0 0.000955 1049.02771 1051.27234
1084.0 0.000923 1048.90845 1051.03589
1004.0 0.000996 1048.78650 1050.80566
1071.0 0.000934 1048.66187 1050.58044
1023.0 0.000978 1048.53455 1050.36023
1018.0 0.000982 1048.40466 1050.14404
1006.0 0.000994 1048.27222 1049.93103
1044.0 0.000958 1048.13708 1049.72107
975.0 0.001026 1047.99939 1049.51331
1074.0 0.000931 1047.85913 1049.30762
993.0 0.001007 1047.71643 1049.10352
1011.0 0.000989 1047.57117 1048.90088
1029.0 0.000972 1047.42334 1048.69897
1101.0 0.000908 1047.27295 1048.49780
1036.0 0.000965 1047.12012 1047.53979
1018.0 0.000982 1046.96484 1047.36780
1090.0 0.000917 1046.80701 1047.19434
994.0 0.001006 1046.64673 1046.64624
1064.0 0.000940 1046.48389 1046.48340
1045.0 0.000957 1046.31873 1046.31824
1045.0 0.000957 1046.15100 1046.15051
1090.0 0.000917 1045.98083 1045.98035
1031.0 0.000970 1045.80811 1045.80762
1063.0 0.000941 1045.63293 1045.63245
983.0 0.001017 1045.45532 1045.45483
1032.0 0.000969 1045.27527 1045.27478
1025.0 0.000976 1045.09265 1045.09216
1042.0 0.000960 1044.90759 1044.90710
1009.0 0.000991 1044.71997 1044.71948
991.0 0.001009 1044.52979 1044.52942
1030.0 0.000971 1044.33716 1044.33667
1020.0 0.000980 1044.14197 1044.14160
1029.0 0.000972 1043.94434 1043.94385
991.0 0.001009 1043.74390 1043.74341
1046.0 0.000956 1043.54114 1043.54065
1034.0 0.000967 1043.33557 1043.33508
1048.0 0.000954 1043.12756 1043.12708
1060.0 0.000943 1042.91687 1042.91638
1074.0 0.000931 1042.70349 1042.70300
1103.0 0.000907 1042.48743 1042.48694
1074.0 0.000931 1042.26868 1042.26819
1049.0 0.000953 1042.04736 1042.04688
1036.0 0.000965 1041.82312 1041.82263
1017.0 0.000983 1041.59619 1041.59570
1028.0 0.000973 1041.36658 1041.36609
1014.0 0.000986 1041.13403 1041.13354
1048.0 0.000954 1040.89868 1040.89819
1036.0 0.000965 1040.66052 1040.66003
981.0 0.001019 1040.41943 1040.41895
1015.0 0.000985 1040.17542 1040.17493
986.0 0.001014 1039.92847 1039.92798
1095.0 0.000913 1039.67859 1039.67810
1004.0 0.000996 1039.42566 1039.42517
1030.0 0.000971 1039.16956 1039.16907
1005.0 0.000995 1038.91052 1038.91003
994.0 0.001006 1038.64844 1038.64795
1024.0 0.000977 1038.38318 1038.38269
1044.0 0.000958 1038.11475 1038.11426
979.0 0.001021 1037.84290 1037.84241
981.0 0.001019 1037.56799 1037.56750
1014.0 0.000986 1037.28979 1037.28931
975.0 0.001026 1037.00830 1037.00781
1018.0 0.000982 1036.72339 1036.72290
1002.0 0.000998 1036.43506 1036.43457
1030.0 0.000971 1036.14343 1036.14282
1011.0 0.000989 1035.84814 1035.84766
1021.0 0.000979 1035.54944 1035.54895
988.0 0.001012 1035.24719 1035.24670
968.0 0.001033 1034.94128 1034.94080
951.0 0.001052 1034.63184 1034.63135
1073.0 0.000932 1034.31860 1034.31812
999.0 0.001001 1034.00171 1034.00122
1015.0 0.000985 1033.68103 1033.68054
1049.0 0.000953 1033.35645 1033.35596
997.0 0.001003 1033.02820 1033.02771
1070.0 0.000935 1032.69592 1032.69543
981.0 0.001019 1032.35974 1032.35925
982.0 0.001018 1032.01965 1032.01917
1013.0 0.000987 1031.67529 1031.67480
1035.0 0.000966 1031.32715 1031.32666
960.0 0.001042 1030.97473 1030.97424
1031.0 0.000970 1030.61829 1030.61780
1016.0 0.000984 1030.25757 1030.25708
1100.0 0.000909 1029.89246 1029.89197
1008.0 0.000992 1029.52319 1029.52271
1047.0 0.000955 1029.14954 1029.14905
984.0 0.001016 1028.77148 1028.77100
1000.0 0.001000 1028.38904 1028.38855
1027.0 0.000974 1028.00208 1028.00159
1014.0 0.000986 1027.61060 1027.61011
1026.0 0.000975 1027.21448 1027.48010
996.0 0.001004 1026.81384 1027.08997
940.0 0.001064 1026.40857 1026.69592
967.0 0.001034 1025.99854 1026.29773
1010.0 0.000990 1025.58374 1026.03223
1008.0 0.000992 1025.16406 1025.63147
1010.0 0.000990 1024.73962 1025.22705
1060.0 0.000943 1024.31030 1024.81921
1032.0 0.000969 1023.87592 1024.40771
1003.0 0.000997 1023.43671 1023.99292
993.0 0.001007 1022.99237 1023.57477
1068.0 0.000936 1022.54303 1023.15356
974.0 0.001027 1022.08856 1022.72925
1013.0 0.000987 1021.62885 1022.30194
1038.0 0.000963 1021.16406 1021.87207
1011.0 0.000989 1020.69385 1021.43964
1013.0 0.000987 1020.21851 1021.00519
1015.0 0.000985 1019.73773 1020.56873
1012.0 0.000988 1019.25159 1020.13074
1009.0 0.000991 1018.76007 1019.69177
1015.0 0.000985 1018.26300 1019.25195
1023.0 0.000978 1017.76056 1018.81226
988.0 0.001012 1017.25250 1018.37317
988.0 0.001012 1016.73865 1021.92853
1016.0 0.000984 1016.21942 1021.65149
1100.0 0.000909 1015.69440 1021.38739
1092.0 0.000916 1015.16376 1021.13861
1002.0 0.000998 1014.62738 1022.95349
1006.0 0.000994 1014.08502 1022.82526
1030.0 0.000971 1013.53711 1022.72620
1059.0 0.000944 1012.98309 1022.66071
1068.0 0.000936 1012.42334 1022.63434
1053.0 0.000950 1011.85754 1022.65344
1002.0 0.000998 1011.28577 1022.72626
1043.0 0.000959 1010.70807 1022.86206
1104.0 0.000906 1010.12415 1023.07300
1056.0 0.000947 1009.53436 1023.37451
1071.0 0.000934 1008.93842 1023.78619
1105.0 0.000905 1008.33612 1024.33350
1081.0 0.000925 1007.72784 1025.05029
1032.0 0.000969 1007.11322 1025.98315
1081.0 0.000925 1006.49249 1027.19751
1026.0 0.000975 1005.86548 1028.79395
1114.0 0.000898 1005.23193 1030.95288
1108.0 0.000903 1004.59229 1034.08667
1060.0 0.000943 1003.94623 1039.29675
1096.0 0.000912 1003.29376 1049.38928
1078.0 0.000928 1002.63495 1070.40088
1036.0 0.000965 1001.96948 1112.16626
1217.0 0.000822 1001.29779 1184.55872
1313.0 0.000762 1000.61938 1287.21631
1440.0 0.000694 999.93469 1398.60852
1505.0 0.000664 999.24335 1477.19556
1448.0 0.000691 998.54523 1488.04382
1478.0 0.000677 997.84082 1443.60046
1384.0 0.000723 997.12964 1376.60706
1340.0 0.000746 996.41199 1298.40173
1257.0 0.000796 995.68756 1218.38611
1245.0 0.000803 994.95630 1153.45081
1139.0 0.000878 994.21863 1111.86804
1137.0 0.000880 993.47412 1091.69116
1194.0 0.000838 992.72302 1086.45959
1132.0 0.000883 991.96515 1090.14746
1143.0 0.000875 991.20044 1099.45850
1169.0 0.000855 990.42908 1113.56030
1177.0 0.000850 989.65076 1133.29382
1202.0 0.000832 988.86597 1161.26099
1251.0 0.000799 988.07422 1204.28711
1418.0 0.000705 987.27545 1281.03064
1513.0 0.000661 986.47015 1438.33752
1912.0 0.000523 985.65796 1773.27588
2522.0 0.000397 984.83899 2434.29077
3723.0 0.0002686 984.01312 3553.23120
5520.0 0.0001812 983.18024 5084.86328
7008.0 0.0001427 982.34076 6665.00000
7443.0 0.0001344 981.49432 7669.75098
7298.0 0.0001370 980.64117 7667.24365
7473.0 0.0001338 979.78107 6930.70996
6248.0 0.0001601 978.91400 5907.92725
4314.0 0.0002318 978.04034 4724.74463
3517.0 0.0002843 977.15955 3517.87646
2658.0 0.000376 976.27222 2525.68823
1869.0 0.000535 975.37781 1855.47400
1418.0 0.000705 974.47650 1473.34741
1268.0 0.000789 973.56860 1281.91663
1144.0 0.000874 972.65369 1189.13452
1109.0 0.000902 971.73212 1139.29919
1120.0 0.000893 970.80365 1107.41833
981.0 0.001019 969.86816 1084.20361
1023.0 0.000978 968.92615 1066.19617
1010.0 0.000990 967.97723 1051.77209
1066.0 0.000938 967.02173 1039.97742
1029.0 0.000972 966.05933 1030.16077
1021.0 0.000979 965.08990 1021.86328
984.0 0.001016 964.11426 1014.75635
997.0 0.001003 963.13147 1008.58862
1006.0 0.000994 962.14240 1003.17700
1021.0 0.000979 961.14630 998.37665
1010.0 0.000990 960.14355 994.07703
984.0 0.001016 959.13434 990.19354
909.0 0.001100 958.11835 986.65472
936.0 0.001068 957.09595 983.40680
948.0 0.001055 956.06683 980.40375
1012.0 0.000988 955.03094 977.60864
940.0 0.001064 953.98883 974.72650
1007.0 0.000993 952.94006 972.27338
975.0 0.001026 951.88495 969.95245
923.0 0.001083 950.82330 967.61194
932.0 0.001073 949.75500 965.50885
996.0 0.001004 948.68066 963.49298
959.0 0.001043 947.59967 961.55219
964.0 0.001037 946.51251 959.67828
925.0 0.001081 945.41901 957.86267
912.0 0.001096 944.31903 956.09833
919.0 0.001088 943.21307 954.38000
988.0 0.001012 942.10077 952.70184
960.0 0.001042 940.98236 951.05957
983.0 0.001017 939.85779 949.44910
927.0 0.001079 938.72681 947.86639
911.0 0.001098 937.59009 946.30927
962.0 0.001040 936.44720 944.77435
928.0 0.001078 935.29852 943.25946
929.0 0.001076 934.14374 941.76215
942.0 0.001062 932.98273 940.28021
910.0 0.001099 931.81641 938.81281
873.0 0.001145 930.64380 937.35742
915.0 0.001093 929.46570 935.91339
939.0 0.001065 928.28180 930.52179
870.0 0.001149 927.09192 929.24310
913.0 0.001095 925.89667 927.96423
917.0 0.001091 924.69568 924.69537
933.0 0.001072 923.48926 923.48901
967.0 0.001034 922.27722 922.27692
987.0 0.001013 921.05945 921.05914
860.0 0.001163 919.83661 919.83630
899.0 0.001112 918.60822 918.60791
882.0 0.001134 917.37463 917.37439
914.0 0.001094 916.13574 917.49371
944.0 0.001059 914.89130 916.30334
937.0 0.001067 913.64221 915.11169
957.0 0.001045 912.38751 914.57990
894.0 0.001119 911.12811 913.41138
890.0 0.001124 909.86365 912.24365
862.0 0.001160 908.59393 911.07697
927.0 0.001079 907.31958 909.91260
904.0 0.001106 906.04022 908.75055
905.0 0.001105 904.75629 907.59204
854.0 0.001171 903.46753 906.43762
886.0 0.001129 902.17371 905.28802
861.0 0.001161 900.87573 904.14496
944.0 0.001059 899.57294 903.00897
970.0 0.001031 898.26587 901.88184
893.0 0.001120 896.95422 900.76465
908.0 0.001101 895.63788 899.65881
918.0 0.001089 894.31775 898.56720
926.0 0.001080 892.99292 897.49084
910.0 0.001099 891.66418 896.43311
947.0 0.001056 890.33124 895.39636
866.0 0.001155 888.99396 894.38391
899.0 0.001112 887.65295 894.62909
910.0 0.001099 886.30768 893.72638
931.0 0.001074 884.95898 892.86487
871.0 0.001148 883.60620 892.05066
937.0 0.001067 882.24933 891.91241
882.0 0.001134 880.88922 891.24243
916.0 0.001092 879.52521 890.64929
973.0 0.001028 878.15784 890.14642
920.0 0.001087 876.78693 889.75037
907.0 0.001103 875.41211 889.48126
924.0 0.001082 874.03448 889.36438
922.0 0.001085 872.65326 889.43134
864.0 0.001157 871.26904 889.72229
901.0 0.001110 869.88153 890.28882
910.0 0.001099 868.49066 891.19873
874.0 0.001144 867.09711 892.54034
918.0 0.001089 865.70026 894.43481
927.0 0.001079 864.30096 897.04657
904.0 0.001106 862.89856 900.61017
906.0 0.001104 861.49304 905.47980
924.0 0.001082 860.08533 912.26715
961.0 0.001041 858.67474 922.32574
978.0 0.001022 857.26178 939.17029
973.0 0.001028 855.84625 971.97632
1105.0 0.000905 854.42792 1041.44653
1189.0 0.000841 853.00775 1184.10999
1502.0 0.000666 851.58502 1444.49976
1994.0 0.000502 850.16034 1843.14563
2448.0 0.000408 848.73334 2329.72266
2760.0 0.000362 847.30408 2761.57129
2995.0 0.0003339 845.87311 2959.32910
3113.0 0.0003212 844.43994 2872.75244
2648.0 0.000378 843.00531 2631.35913
2216.0 0.000451 841.56866 2337.29004
1852.0 0.000540 840.12994 2000.73108
1571.0 0.000637 838.69006 1652.28577
1326.0 0.000754 837.24829 1356.82385
1076.0 0.000929 835.80530 1149.08167
963.0 0.001038 834.36072 1025.44800
909.0 0.001100 832.91443 961.79779
910.0 0.001099 831.46729 932.08875
856.0 0.001168 830.01862 918.82111
955.0 0.001047 828.56909 913.65955
939.0 0.001065 827.11835 914.00439
932.0 0.001073 825.66632 920.90460
891.0 0.001122 824.21375 940.06317
938.0 0.001066 822.75989 986.04382
1047.0 0.000955 821.30566 1086.99756
1339.0 0.000747 819.85034 1282.04224
1610.0 0.000621 818.39423 1600.01563
2162.0 0.000463 816.93787 2019.37646
2571.0 0.000389 815.48077 2438.07910
2719.0 0.000368 814.02338 2695.59717
2707.0 0.000369 812.56549 2692.98389
2635.0 0.000380 811.10687 2507.56494
2424.0 0.000413 809.64850 2258.17529
1954.0 0.000512 808.18970 1972.59436
1635.0 0.000612 806.73096 1658.30176
1437.0 0.000696 805.27209 1367.36279
1203.0 0.000831 803.81287 1145.19897
1048.0 0.000954 802.35425 1001.68323
926.0 0.001080 800.89532 921.21661
858.0 0.001166 799.43713 879.84961
829.0 0.001206 797.97876 858.12823
843.0 0.001186 796.52063 845.06165
753.0 0.001328 795.06329 835.82214
854.0 0.001171 793.60614 828.55725
758.0 0.001319 792.14978 822.53778
780.0 0.001282 790.69391 817.40149
790.0 0.001266 789.23828 812.92627
756.0 0.001323 787.78387 808.96143
786.0 0.001272 786.33008 805.39465
818.0 0.001222 784.87732 802.14545
846.0 0.001182 783.42535 799.15167
788.0 0.001269 781.97400 796.36572
805.0 0.001242 780.52429 793.75281
762.0 0.001312 779.07538 791.28259
751.0 0.001332 777.62769 788.93323
784.0 0.001276 776.18121 786.68597
775.0 0.001290 774.73578 784.52563
794.0 0.001259 773.29193 782.44092
772.0 0.001295 771.84949 779.05475
748.0 0.001337 770.40851 777.14343
814.0 0.001229 768.96906 775.27899
712.0 0.001404 767.53094 773.45544
757.0 0.001321 766.09497 771.00067
786.0 0.001272 764.66016 769.27100
841.0 0.001189 763.22760 767.56952
717.0 0.001395 761.79663 765.89246
768.0 0.001302 760.36700 764.23712
808.0 0.001238 758.94006 762.60266
771.0 0.001297 757.51459 760.98584
727.0 0.001376 756.09161 759.38623
728.0 0.001374 754.67047 757.80164
773.0 0.001294 753.25104 756.23053
779.0 0.001284 751.83447 754.67310
738.0 0.001355 750.41968 753.12720
747.0 0.001339 749.00769 751.59308
702.0 0.001425 747.59778 750.06897
763.0 0.001311 746.19000 748.55450
797.0 0.001255 744.78491 747.04950
768.0 0.001302 743.38214 745.55292
768.0 0.001302 741.98236 744.06506
769.0 0.001300 740.58490 742.58490
771.0 0.001297 739.18988 739.89099
736.0 0.001359 737.79779 738.47089
765.0 0.001307 736.40845 737.05511
760.0 0.001316 735.02185 735.02148
738.0 0.001355 733.63812 733.63776
715.0 0.001399 732.25702 732.25659
742.0 0.001348 730.87909 730.87866
723.0 0.001383 729.50415 729.50372
739.0 0.001353 728.13214 728.13171
792.0 0.001263 726.76324 726.76282
711.0 0.001406 725.39722 725.39679
761.0 0.001314 724.03473 724.03430
745.0 0.001342 722.67505 722.67462
710.0 0.001408 721.31897 721.31854
762.0 0.001312 719.96570 719.96527
672.0 0.001488 718.61578 718.61536
769.0 0.001300 717.26965 717.26923
689.0 0.001451 715.92639 715.92596
696.0 0.001437 714.58704 714.58661
719.0 0.001391 713.25092 713.25049
752.0 0.001330 711.91785 712.18262
679.0 0.001473 710.58893 710.86426
690.0 0.001449 709.26312 709.54962
747.0 0.001339 707.94141 708.23975
728.0 0.001374 706.62311 707.06635
717.0 0.001395 705.30798 705.76990
731.0 0.001368 703.99725 704.47906
677.0 0.001477 702.68976 703.19275
695.0 0.001439 701.38654 701.91217
705.0 0.001418 700.08685 700.63666
736.0 0.001359 698.79077 699.36646
698.0 0.001433 697.49878 698.10217
690.0 0.001449 696.21069 696.84399
711.0 0.001406 694.92645 695.59180
691.0 0.001447 693.64618 694.34625
711.0 0.001406 692.36963 693.10706
686.0 0.001458 691.09735 691.87518
660.0 0.001515 689.82910 690.65082
653.0 0.001531 688.56488 689.43420
716.0 0.001397 687.30469 688.22601
687.0 0.001456 686.04840 687.02655
638.0 0.001567 684.79669 685.83691
696.0 0.001437 683.54865 684.65729
736.0 0.001359 682.30505 683.48889
637.0 0.001570 681.06561 682.33264
659.0 0.001517 679.83014 681.18958
672.0 0.001488 678.59937 680.06146
717.0 0.001395 677.37244 678.94934
652.0 0.001534 676.15021 677.85602
692.0 0.001445 674.93201 676.78326
677.0 0.001477 673.71771 675.73389
652.0 0.001534 672.50842 674.71246
684.0 0.001462 671.30298 673.72253
681.0 0.001468 670.10242 672.77057
649.0 0.001541 668.90594 671.86316
663.0 0.001508 667.71350 671.00946
699.0 0.001431 666.52612 670.22235
669.0 0.001495 665.34271 669.51691
683.0 0.001464 664.16412 668.91504
627.0 0.001595 662.98981 668.44562
709.0 0.001410 661.81982 668.15051
651.0 0.001536 660.65442 668.09369
666.0 0.001502 659.49359 668.39392
691.0 0.001447 658.33728 669.32349
658.0 0.001520 657.18542 671.59119
646.0 0.001548 656.03790 676.95477
687.0 0.001456 654.89508 689.10461
711.0 0.001406 653.75690 714.10956
714.0 0.001401 652.62323 758.76495
755.0 0.001325 651.49408 825.78363
841.0 0.001189 650.36932 907.09314
948.0 0.001055 649.24957 980.56610
938.0 0.001066 648.13397 1018.43213
887.0 0.001127 647.02319 1009.44312
967.0 0.001034 645.91705 972.11719
880.0 0.001136 644.81525 926.61749
864.0 0.001157 643.71844 876.24060
773.0 0.001294 642.62592 819.40808
772.0 0.001295 641.53833 763.48529
682.0 0.001466 640.45514 717.56506
638.0 0.001567 639.37628 685.33173
609.0 0.001642 638.30255 665.57306
666.0 0.001502 637.23309 654.51776
621.0 0.001610 636.16864 648.36578
676.0 0.001479 635.10864 644.55884
621.0 0.001610 634.05292 641.79761
601.0 0.001664 633.00232 639.53729
659.0 0.001517 631.95599 637.56268
626.0 0.001597 630.91467 635.78180
616.0 0.001623 629.87781 634.14362
606.0 0.001650 628.84540 632.61499
591.0 0.001692 627.81775 631.17346
629.0 0.001590 626.79456 629.80103
621.0 0.001610 625.77637 628.48566
608.0 0.001645 624.76263 627.21674
606.0 0.001650 623.75323 625.98676
634.0 0.001577 622.74872 624.79016
630.0 0.001587 621.74878 623.62189
660.0 0.001515 620.75342 622.47827
576.0 0.001736 619.76263 621.35626
600.0 0.001667 618.77631 620.25311
617.0 0.001621 617.79474 619.16699
584.0 0.001712 616.81769 618.09625
600.0 0.001667 615.84521 617.03943
623.0 0.001605 614.87738 615.99524
633.0 0.001580 613.91388 614.96252
565.0 0.001770 612.95526 613.94086
618.0 0.001618 612.00085 612.92908
630.0 0.001587 611.05133 611.92694
600.0 0.001667 610.10608 610.93353
565.0 0.001770 609.16510 609.94818
574.0 0.001742 608.22906 608.97125
597.0 0.001675 607.29724 608.00165
574.0 0.001742 606.37024 607.03961
583.0 0.001715 605.44751 606.08453
598.0 0.001672 604.52893 605.13586
602.0 0.001661 603.61523 604.19415
607.0 0.001647 602.70575 603.25854
587.0 0.001704 601.80096 602.32935
604.0 0.001656 600.90045 601.63574
554.0 0.001805 600.00415 600.72729
591.0 0.001692 599.11243 599.82520
584.0 0.001712 598.22498 598.92908
600.0 0.001667 597.34216 597.88269
601.0 0.001664 596.46356 597.01373
565.0 0.001770 595.58911 596.15051
556.0 0.001799 594.71918 595.29321
606.0 0.001650 593.85358 594.30756
590.0 0.001695 592.99225 593.46710
599.0 0.001669 592.13525 592.63245
628.0 0.001592 591.28235 591.80359
600.0 0.001667 590.43390 590.98083
568.0 0.001761 589.58966 590.16437
634.0 0.001577 588.74963 589.35431
606.0 0.001650 587.91382 588.55084
658.0 0.001520 587.08209 587.75403
560.0 0.001786 586.25482 586.96472
587.0 0.001704 585.43146 586.18256
595.0 0.001681 584.61255 585.40851
575.0 0.001739 583.79749 584.64252
599.0 0.001669 582.98651 583.88531
605.0 0.001653 582.17993 583.13782
567.0 0.001764 581.37720 582.40009
609.0 0.001642 580.57880 581.67365
582.0 0.001718 579.78430 580.95898
550.0 0.001818 578.99359 580.25708
586.0 0.001706 578.20728 579.57013
563.0 0.001776 577.42474 578.89917
575.0 0.001739 576.64648 578.24658
558.0 0.001792 575.87201 577.61481
619.0 0.001616 575.10126 577.00665
571.0 0.001751 574.33484 576.42664
593.0 0.001686 573.57208 575.87903
564.0 0.001773 572.81348 575.37054
621.0 0.001610 572.05865 574.90881
613.0 0.001631 571.30756 574.50439
607.0 0.001647 570.56042 574.17090
592.0 0.001689 569.81714 573.92700
612.0 0.001634 569.07764 573.79785
550.0 0.001818 568.34198 573.82086
563.0 0.001776 567.60992 574.05695
550.0 0.001818 566.88184 574.62915
606.0 0.001650 566.15741 575.83752
645.0 0.001550 565.43677 578.44012
597.0 0.001675 564.71979 584.18146
634.0 0.001577 564.00641 596.39258
658.0 0.001520 563.29688 619.92706
750.0 0.001333 562.59082 659.39478
906.0 0.001104 561.88849 715.22101
1044.0 0.000958 561.18976 779.32562
1039.0 0.000962 560.49457 833.88080
956.0 0.001046 559.80316 858.74542
929.0 0.001076 559.11505 848.78088
960.0 0.001042 558.43073 819.52838
905.0 0.001105 557.74982 786.56671
833.0 0.001200 557.07214 749.99768
766.0 0.001305 556.39838 708.14453
715.0 0.001399 555.72778 664.88666
668.0 0.001497 555.06085 627.31012
601.0 0.001664 554.39728 599.80402
598.0 0.001672 553.73688 581.67603
605.0 0.001653 553.08026 571.15417
548.0 0.001825 552.42670 565.35413
591.0 0.001692 551.77679 562.02008
549.0 0.001821 551.13007 559.83832
588.0 0.001701 550.48657 558.19470
559.0 0.001789 549.84650 556.83795
536.0 0.001866 549.20966 555.66412
601.0 0.001664 548.57611 554.62402
558.0 0.001792 547.94580 553.68829
561.0 0.001783 547.31860 552.83722
562.0 0.001779 546.69476 552.05725
544.0 0.001838 546.07416 551.33820
540.0 0.001852 545.45660 550.67297
551.0 0.001815 544.84229 550.05688
562.0 0.001779 544.23096 549.48639
555.0 0.001802 543.62305 548.96014
557.0 0.001795 543.01794 548.47717
531.0 0.001883 542.41608 548.03815
531.0 0.001883 541.81726 547.64478
543.0 0.001842 541.22137 547.29962
505.0 0.001980 540.62878 547.00659
568.0 0.001761 540.03894 546.77075
515.0 0.001942 539.45233 546.59937
520.0 0.001923 538.86859 546.50049
565.0 0.001770 538.28760 546.48523
544.0 0.001838 537.70990 546.56757
599.0 0.001669 537.13489 546.76526
568.0 0.001761 536.56305 547.10089
581.0 0.001721 535.99396 547.60345
550.0 0.001818 535.42755 548.31122
574.0 0.001742 534.86432 549.27405
553.0 0.001808 534.30371 550.55951
540.0 0.001852 533.74615 552.25989
598.0 0.001672 533.19135 554.51013
593.0 0.001686 532.63922 557.53192
565.0 0.001770 532.08997 561.76843
594.0 0.001684 531.54340 568.29156
586.0 0.001706 530.99969 579.76947
600.0 0.001667 530.45868 602.28955
646.0 0.001548 529.92035 647.46942
755.0 0.001325 529.38477 732.46979
924.0 0.001082 528.85187 874.19183
982.0 0.001018 528.32166 1077.11890
1309.0 0.000764 527.79407 1316.77454
1418.0 0.000705 527.26904 1533.68860
1453.0 0.000688 526.74677 1652.61926
1619.0 0.000618 526.22711 1640.39966
1563.0 0.000640 525.71002 1543.35303
1365.0 0.000733 525.19556 1423.00122
1185.0 0.000844 524.68353 1296.77429
990.0 0.001010 524.17426 1152.89624
939.0 0.001065 523.66730 994.66730
819.0 0.001221 523.16309 846.78546
695.0 0.001439 522.66132 729.08356
672.0 0.001488 522.16187 647.89575
531.0 0.001883 521.66510 598.64972
573.0 0.001745 521.17072 571.47205
531.0 0.001883 520.67889 556.91534
506.0 0.001976 520.18951 548.60492
533.0 0.001876 519.70233 543.19019
532.0 0.001880 519.21783 539.19000
541.0 0.001848 518.73553 535.99280
541.0 0.001848 518.25586 533.33350
538.0 0.001859 517.77838 531.06873
518.0 0.001931 517.30328 529.10754
478.0 0.002092 516.83057 527.38605
490.0 0.002041 516.36017 525.85559
535.0 0.001869 515.89221 524.50702
521.0 0.001919 515.42651 523.25946
538.0 0.001859 514.96301 522.11676
545.0 0.001835 514.50189 521.06219
527.0 0.001898 514.04303 520.09448
454.0 0.002203 513.58649 519.17737
517.0 0.001934 513.13214 518.31403
484.0 0.002066 512.67999 517.49725
546.0 0.001832 512.23016 516.72095
522.0 0.001916 511.78250 515.97986
497.0 0.002012 511.33710 515.27002
491.0 0.002037 510.89386 514.58752
496.0 0.002016 510.45276 513.92926
505.0 0.001980 510.01398 513.29321
485.0 0.002062 509.57721 512.67657
458.0 0.002183 509.14276 512.07782
530.0 0.001887 508.71027 511.49496
500.0 0.002000 508.27994 510.92676
527.0 0.001898 507.85187 510.37222
518.0 0.001931 507.42578 509.82990
537.0 0.001862 507.00192 509.29926
512.0 0.001953 506.58008 508.77914
458.0 0.002183 506.16019 508.26895
527.0 0.001898 505.74255 507.76843
540.0 0.001852 505.32687 507.27661
454.0 0.002203 504.91336 506.79349
496.0 0.002016 504.50183 506.31848
480.0 0.002083 504.09219 505.85123
551.0 0.001815 503.68478 505.39191
513.0 0.001949 503.27924 504.94012
477.0 0.002096 502.87589 503.60724
501.0 0.001996 502.47440 503.20398
485.0 0.002062 502.07486 502.80673
482.0 0.002075 501.67737 502.41623
528.0 0.001894 501.28183 501.58447
514.0 0.001946 500.88824 501.22635
568.0 0.001761 500.49661 500.87677
445.0 0.002247 500.10684 500.53738
510.0 0.001961 499.71912 500.21072
510.0 0.001961 499.33328 499.90012
491.0 0.002037 498.94937 499.61111
482.0 0.002075 498.56735 499.35464
494.0 0.002024 498.18719 499.15662
484.0 0.002066 497.80905 499.08047
489.0 0.002045 497.43265 499.26971
507.0 0.001972 497.05820 500.09378
471.0 0.002123 496.68558 501.79141
484.0 0.002066 496.31479 504.90991
550.0 0.001818 495.94598 509.65106
548.0 0.001825 495.57883 515.59357
589.0 0.001698 495.21368 521.43958
601.0 0.001664 494.85031 525.53558
582.0 0.001718 494.48862 525.97485
552.0 0.001812 494.12894 523.61395
515.0 0.001942 493.77090 520.19196
523.0 0.001912 493.41479 516.66705
527.0 0.001898 493.06042 512.88733
532.0 0.001880 492.70770 509.43814
570.0 0.001754 492.35696 504.99756
518.0 0.001931 492.00787 501.04892
492.0 0.002033 491.66061 497.97644
497.0 0.002012 491.31509 496.25998
535.0 0.001869 490.97125 494.89453
476.0 0.002101 490.62918 494.03391
523.0 0.001912 490.28888 493.45688
479.0 0.002088 489.95026 493.02335
483.0 0.002070 489.61334 492.66171
501.0 0.001996 489.27814 492.34064
513.0 0.001949 488.94464 492.04749
533.0 0.001876 488.61288 491.77679
499.0 0.002004 488.28278 491.52588
522.0 0.001916 487.95438 491.29340
470.0 0.002128 487.62759 491.07867
495.0 0.002020 487.30255 490.88177
492.0 0.002033 486.97910 490.70276
465.0 0.002151 486.65735 490.54248
501.0 0.001996 486.33725 490.40213
495.0 0.002020 486.01871 490.28302
508.0 0.001969 485.70193 490.18713
470.0 0.002128 485.38669 490.11670
547.0 0.001828 485.07315 490.07458
497.0 0.002012 484.76117 490.06436
475.0 0.002105 484.45068 490.09033
497.0 0.002012 484.14197 490.15765
472.0 0.002119 483.83478 490.27283
458.0 0.002183 483.52924 490.44385
485.0 0.002062 483.22522 490.68088
501.0 0.001996 482.92267 490.99661
562.0 0.001779 482.62186 491.40735
516.0 0.001938 482.32251 491.93478
507.0 0.001972 482.02481 492.60773
511.0 0.001957 481.72861 493.46829
466.0 0.002146 481.43390 494.58652
518.0 0.001931 481.14075 496.10352
522.0 0.001916 480.84909 498.35242
488.0 0.002049 480.55905 502.11874
518.0 0.001931 480.27051 509.08990
518.0 0.001931 479.98337 522.31476
566.0 0.001767 479.69781 546.10657
574.0 0.001742 479.41373 584.67133
655.0 0.001527 479.13116 639.10126
719.0 0.001391 478.85004 704.01306
782.0 0.001279 478.57037 765.69910
860.0 0.001163 478.29221 805.26508
785.0 0.001274 478.01547 811.21631
810.0 0.001235 477.74023 791.36609
821.0 0.001218 477.46643 762.83008
725.0 0.001379 477.19403 734.48944
688.0 0.001453 476.92313 704.70612
644.0 0.001553 476.65356 670.83716
629.0 0.001590 476.38553 636.71198
617.0 0.001621 476.11884 610.88995
595.0 0.001681 475.85345 602.34741
589.0 0.001698 475.58963 621.92224
621.0 0.001610 475.32712 684.60663
717.0 0.001395 475.06604 808.10699
891.0 0.001122 474.80630 1005.53149
1249.0 0.000801 474.54785 1270.67114
1638.0 0.000611 474.29089 1564.12512
1716.0 0.000583 474.03522 1811.52368
1686.0 0.000593 473.78094 1930.87769
1802.0 0.000555 473.52802 1899.00037
1759.0 0.000569 473.27634 1776.37573
1558.0 0.000642 473.02603 1633.06775
1208.0 0.000828 472.77701 1489.91675
1094.0 0.000914 472.52939 1330.25671
1016.0 0.000984 472.28302 1146.92358
886.0 0.001129 472.03790 962.19043
759.0 0.001318 471.79410 802.78088
612.0 0.001634 471.55161 682.81433
524.0 0.001908 471.31036 603.24274
551.0 0.001815 471.07040 555.86072
530.0 0.001887 470.83170 529.59515
521.0 0.001919 470.59421 515.12018
512.0 0.001953 470.35803 506.53860
487.0 0.002053 470.12299 500.78964
536.0 0.001866 469.88925 496.49973
504.0 0.001984 469.65671 493.08127
486.0 0.002058 469.42538 490.26169
494.0 0.002024 469.19525 487.89307
534.0 0.001873 468.96634 485.87668
522.0 0.001916 468.73856 484.14294
492.0 0.002033 468.51196 482.95975
479.0 0.002088 468.28659 481.65680
456.0 0.002193 468.06235 480.51352
500.0 0.002000 467.83929 479.50565
551.0 0.001815 467.61731 478.61429
495.0 0.002020 467.39655 477.98450
481.0 0.002079 467.17685 477.29089
501.0 0.001996 466.95834 476.67957
513.0 0.001949 466.74088 476.14404
458.0 0.002183 466.52451 475.67993
487.0 0.002053 466.30930 475.28543
474.0 0.002110 466.09509 474.95966
481.0 0.002079 465.88208 474.70459
483.0 0.002070 465.67001 474.52408
511.0 0.001957 465.45905 474.42490
484.0 0.002066 465.24918 474.41739
491.0 0.002037 465.04028 474.51620
488.0 0.002049 464.83252 474.74292
524.0 0.001908 464.62567 475.13086
498.0 0.002008 464.41986 475.73834
457.0 0.002188 464.21512 476.68799
463.0 0.002160 464.01129 478.27060
504.0 0.001984 463.80856 481.16861
465.0 0.002151 463.60669 486.83636
480.0 0.002083 463.40585 497.89621
552.0 0.001812 463.20596 518.11865
568.0 0.001761 463.00705 551.37067
544.0 0.001838 462.80905 599.18793
609.0 0.001642 462.61194 657.89923
629.0 0.001590 462.41583 716.40125
652.0 0.001534 462.22058 758.65143
659.0 0.001517 462.02628 770.96063
692.0 0.001445 461.83286 755.66534
635.0 0.001575 461.64032 727.76648
645.0 0.001550 461.44861 698.65344
600.0 0.001667 461.25784 669.44171
563.0 0.001776 461.06787 636.01080
526.0 0.001901 460.87875 598.20447
497.0 0.002012 460.69049 561.06567
535.0 0.001869 460.50302 529.58405
463.0 0.002160 460.31644 506.20102
506.0 0.001976 460.13058 489.97302
500.0 0.002000 459.94562 480.93106
480.0 0.002083 459.76135 476.01001
499.0 0.002004 459.57785 473.42746
475.0 0.002105 459.39520 472.06363
502.0 0.001992 459.21323 470.92123
491.0 0.002037 459.03207 470.61166
478.0 0.002092 458.85159 470.60870
512.0 0.001953 458.67184 470.89542
450.0 0.002222 458.49286 471.49646
493.0 0.002028 458.31451 472.48553
462.0 0.002165 458.13693 474.03860
475.0 0.002105 457.95999 476.58862
507.0 0.001972 457.78375 481.16046
489.0 0.002045 457.60815 489.94336
506.0 0.001976 457.43323 506.93344
524.0 0.001908 457.25894 537.98291
624.0 0.001603 457.08527 589.36584
760.0 0.001316 456.91223 664.21783
940.0 0.001064 456.73984 757.96802
1029.0 0.000972 456.56799 855.11597
1159.0 0.000863 456.39679 930.18152
1114.0 0.000898 456.22614 959.38745
1225.0 0.000816 456.05606 941.26636
1092.0 0.000916 455.88657 897.98389
1019.0 0.000981 455.71759 850.56274
872.0 0.001147 455.54916 804.22931
788.0 0.001269 455.38129 752.77997
748.0 0.001337 455.21387 693.08087
696.0 0.001437 455.04706 631.57562
630.0 0.001587 454.88068 576.90363
553.0 0.001808 454.71481 534.33630
505.0 0.001980 454.54941 504.95502
482.0 0.002075 454.38443 486.73245
464.0 0.002155 454.21997 476.27234
474.0 0.002110 454.05591 470.40753
484.0 0.002066 453.89236 466.95471
468.0 0.002137 453.72913 464.68707
485.0 0.002062 453.56638 463.01697
451.0 0.002217 453.40402 461.68484
493.0 0.002028 453.24203 460.57376
478.0 0.002092 453.08047 459.62451
475.0 0.002105 452.91925 458.79996
451.0 0.002217 452.75842 458.07483
477.0 0.002096 452.59790 457.43005
465.0 0.002151 452.43771 456.85083
484.0 0.002066 452.27792 456.32596
468.0 0.002137 452.11841 455.84616
474.0 0.002110 451.95920 455.40454
436.0 0.002294 451.80029 454.99518
462.0 0.002165 451.64169 454.61325
455.0 0.002198 451.48337 454.25497
448.0 0.002232 451.32529 453.91711
473.0 0.002114 451.16748 453.41293
458.0 0.002183 451.00992 453.11398
469.0 0.002132 450.85260 452.82837
480.0 0.002083 450.69550 452.55453
405.0 0.002469 450.53864 452.19681
439.0 0.002278 450.38193 451.94553
439.0 0.002278 450.22546 451.70233
456.0 0.002193 450.06915 451.46631
456.0 0.002193 449.91309 451.23685
436.0 0.002294 449.75711 451.01309
443.0 0.002257 449.60129 450.79456
445.0 0.002247 449.44568 450.58087
423.0 0.002364 449.29016 450.37140
439.0 0.002278 449.13480 450.16586
440.0 0.002273 448.97949 449.96381
455.0 0.002198 448.82431 449.76495
437.0 0.002288 448.66928 449.56909
446.0 0.002242 448.51428 449.37589
428.0 0.002336 448.35944 449.18521
461.0 0.002169 448.20456 449.01117
461.0 0.002169 448.04980 448.82529
416.0 0.002404 447.89508 448.64127
422.0 0.002370 447.74039 448.45908
437.0 0.002288 447.58575 448.27847
467.0 0.002141 447.43112 448.10654
467.0 0.002141 447.27652 447.92917
429.0 0.002331 447.12189 447.75305
444.0 0.002252 446.96729 447.57813
454.0 0.002203 446.81265 447.40442
429.0 0.002331 446.65799 447.23166
466.0 0.002146 446.50327 447.05991
434.0 0.002304 446.34854 446.88910
421.0 0.002375 446.19376 446.40796
467.0 0.002141 446.03891 446.24832
439.0 0.002278 445.88400 446.08899
418.0 0.002392 445.72897 445.92993
452.0 0.002212 445.57394 445.77121
445.0 0.002247 445.41873 445.45779
442.0 0.002262 445.26349 445.30432
430.0 0.002326 445.10806 445.15079
400.0 0.002500 444.95251 444.99725
430.0 0.002326 444.79694 444.84378
435.0 0.002299 444.64114 444.69028
447.0 0.002237 444.48523 444.53690
396.0 0.002525 444.32913 444.38345
445.0 0.002247 444.17288 444.23007
399.0 0.002506 444.01651 444.07681
434.0 0.002304 443.85992 443.92355
443.0 0.002257 443.70319 443.77051
427.0 0.002342 443.54620 443.61749
423.0 0.002364 443.38904 443.46527
444.0 0.002252 443.23169 443.31265
464.0 0.002155 443.07410 443.16031
472.0 0.002119 442.91635 443.00827
435.0 0.002299 442.75830 442.85657
398.0 0.002513 442.60004 442.70532
439.0 0.002278 442.44153 442.55487
427.0 0.002342 442.28278 442.40485
420.0 0.002381 442.12378 442.25555
436.0 0.002294 441.96451 442.10718
432.0 0.002315 441.80496 441.96005
447.0 0.002237 441.64514 441.81421
400.0 0.002500 441.48505 441.67017
456.0 0.002193 441.32468 441.52820
452.0 0.002212 441.16397 441.38876
463.0 0.002160 441.00296 441.25259
423.0 0.002364 440.84171 441.12045
393.0 0.002545 440.68008 440.99341
420.0 0.002381 440.51816 440.87289
441.0 0.002268 440.35590 440.76111
429.0 0.002331 440.19330 440.66162
408.0 0.002451 440.03040 440.58185
394.0 0.002538 439.86710 440.53854
452.0 0.002212 439.70352 440.57022
472.0 0.002119 439.53952 440.75769
427.0 0.002342 439.37515 441.24796
454.0 0.002203 439.21051 442.26050
436.0 0.002294 439.04541 444.04370
417.0 0.002398 438.88000 446.75668
441.0 0.002268 438.71417 450.30969
388.0 0.002577 438.54794 454.22772
489.0 0.002045 438.38138 457.62155
433.0 0.002309 438.21439 459.42584
455.0 0.002198 438.04706 459.16919
444.0 0.002252 437.87924 457.48816
460.0 0.002174 437.71106 455.38132
428.0 0.002336 437.54245 453.38409
409.0 0.002445 437.37344 451.41315
423.0 0.002364 437.20404 449.13477
439.0 0.002278 437.03415 446.52548
435.0 0.002299 436.86389 443.89905
432.0 0.002315 436.69318 441.57526
427.0 0.002342 436.52203 439.73428
425.0 0.002353 436.35046 438.40781
458.0 0.002183 436.17847 437.51376
418.0 0.002392 436.00598 436.92291
437.0 0.002288 435.83310 436.51498
431.0 0.002320 435.65973 436.20517
419.0 0.002387 435.48593 436.18018
416.0 0.002404 435.31168 435.95248
402.0 0.002488 435.13693 435.73920
430.0 0.002326 434.96179 435.53552
481.0 0.002079 434.78613 435.33908
444.0 0.002252 434.61005 435.14893
479.0 0.002088 434.43347 435.08395
431.0 0.002320 434.25638 434.91205
453.0 0.002208 434.07892 434.75256
446.0 0.002242 433.90091 434.61249
442.0 0.002262 433.72247 434.50095
473.0 0.002114 433.54352 434.42545
478.0 0.002092 433.36411 434.38678
482.0 0.002075 433.18423 434.37283
454.0 0.002203 433.00385 434.35593
486.0 0.002058 432.82303 434.29630
475.0 0.002105 432.64166 434.16193
481.0 0.002079 432.45984 433.95978
461.0 0.002169 432.27753 433.72656
478.0 0.002092 432.09473 433.49301
466.0 0.002146 431.91147 433.26694
505.0 0.001980 431.72769 433.03738
472.0 0.002119 431.54343 432.79547
455.0 0.002198 431.35867 432.54776
429.0 0.002331 431.17346 432.30759
484.0 0.002066 430.98773 432.08536
400.0 0.002500 430.80151 431.88565
444.0 0.002252 430.61481 431.70807
408.0 0.002451 430.42761 431.54895
421.0 0.002375 430.23993 431.40372
496.0 0.002016 430.05176 431.61597
422.0 0.002370 429.86310 431.50052
436.0 0.002294 429.67392 431.39297
470.0 0.002128 429.48434 431.29358
406.0 0.002463 429.29419 431.20288
433.0 0.002309 429.10361 431.12195
415.0 0.002410 428.91251 431.22665
460.0 0.002174 428.72089 431.17471
422.0 0.002370 428.52887 431.13724
435.0 0.002299 428.33630 431.11655
446.0 0.002242 428.14331 431.11505
431.0 0.002320 427.94977 431.13608
476.0 0.002101 427.75577 431.18347
400.0 0.002500 427.56134 431.26202
457.0 0.002188 427.36636 431.37747
431.0 0.002320 427.17102 431.53741
441.0 0.002268 426.97510 431.92978
433.0 0.002309 426.77875 432.20041
426.0 0.002347 426.58194 432.56714
458.0 0.002183 426.38461 433.03629
413.0 0.002421 426.18689 433.63797
452.0 0.002212 425.98868 434.50967
414.0 0.002415 425.79001 435.57184
421.0 0.002375 425.59088 437.14224
446.0 0.002242 425.39130 439.70609
472.0 0.002119 425.19128 444.29047
456.0 0.002193 424.99078 452.78851
452.0 0.002212 424.78983 468.12170
498.0 0.002008 424.58847 493.84073
490.0 0.002041 424.38666 532.83148
551.0 0.001815 424.18442 585.17377
701.0 0.001427 423.98172 646.17920
823.0 0.001215 423.77859 705.33148
801.0 0.001248 423.57507 747.59607
762.0 0.001312 423.37109 760.75165
765.0 0.001307 423.16675 746.61359
839.0 0.001192 422.96188 718.86987
767.0 0.001304 422.75665 689.77942
730.0 0.001370 422.55106 663.23840
666.0 0.001502 422.34497 635.64038
626.0 0.001597 422.13858 602.68439
546.0 0.001832 421.93170 565.63556
533.0 0.001876 421.72443 529.37012
511.0 0.001957 421.51682 498.16318
513.0 0.001949 421.30878 474.26361
517.0 0.001934 421.10040 457.90155
429.0 0.002331 420.89160 447.81610
452.0 0.002212 420.68240 442.17688
439.0 0.002278 420.47290 439.31427
427.0 0.002342 420.26297 438.06543
453.0 0.002208 420.05276 437.78714
464.0 0.002155 419.84210 438.22623
453.0 0.002208 419.63113 439.44116
429.0 0.002331 419.41983 441.85889
493.0 0.002028 419.20816 446.52496
453.0 0.002208 418.99619 455.50281
466.0 0.002146 418.78378 472.23856
471.0 0.002123 418.57114 501.39517
495.0 0.002020 418.35815 547.61560
580.0 0.001724 418.14484 613.10162
678.0 0.001475 417.93121 694.58142
828.0 0.001208 417.71729 781.33942
879.0 0.001138 417.50302 855.05725
841.0 0.001189 417.28851 895.05768
875.0 0.001143 417.07364 892.93463
873.0 0.001145 416.85852 861.29388
821.0 0.001218 416.64310 820.15350
801.0 0.001248 416.42737 781.56146
687.0 0.001456 416.21146 745.71899
636.0 0.001572 415.99518 705.98541
613.0 0.001631 415.77875 659.79272
575.0 0.001739 415.56195 612.93500
517.0 0.001934 415.34491 574.23962
521.0 0.001919 415.12772 551.05121
499.0 0.002004 414.91019 547.43463
570.0 0.001754 414.69250 563.10828
642.0 0.001558 414.47452 593.06128
649.0 0.001541 414.25632 627.99011
659.0 0.001517 414.03796 655.75696
736.0 0.001359 413.81931 665.81152
710.0 0.001408 413.60056 656.74695
731.0 0.001368 413.38150 636.70398
684.0 0.001462 413.16229 614.69360
627.0 0.001595 412.94290 594.69000
624.0 0.001603 412.72333 575.13715
568.0 0.001761 412.50360 552.52112
532.0 0.001880 412.28363 526.36115
498.0 0.002008 412.06354 499.54239
484.0 0.002066 411.84332 475.30347
478.0 0.002092 411.62292 455.69897
418.0 0.002392 411.40237 441.38828
399.0 0.002506 411.18170 431.83490
416.0 0.002404 410.96085 425.86914
446.0 0.002242 410.73993 422.24136
446.0 0.002242 410.51883 419.96820
436.0 0.002294 410.29767 418.42224
432.0 0.002315 410.07635 417.25748
439.0 0.002278 409.85495 416.06982
445.0 0.002247 409.63348 415.25580
389.0 0.002571 409.41187 414.53412
421.0 0.002375 409.19025 413.88345
422.0 0.002370 408.96848 413.28946
440.0 0.002273 408.74661 412.62323
402.0 0.002488 408.52478 412.11850
442.0 0.002262 408.30280 411.64627
429.0 0.002331 408.08087 411.20172
438.0 0.002283 407.85876 410.78079
416.0 0.002404 407.63666 410.38022
387.0 0.002584 407.41458 409.99747
383.0 0.002611 407.19241 409.63013
402.0 0.002488 406.97031 409.27655
410.0 0.002439 406.74808 408.93500
403.0 0.002481 406.52591 408.60428
434.0 0.002304 406.30371 408.28329
410.0 0.002439 406.08151 407.97101
375.0 0.002667 405.85938 407.66687
390.0 0.002564 405.63718 407.37003
393.0 0.002545 405.41504 407.08005
406.0 0.002463 405.19296 406.79654
407.0 0.002457 404.97089 406.51923
385.0 0.002597 404.74887 406.30542
445.0 0.002247 404.52692 406.04178
411.0 0.002433 404.30493 405.78406
398.0 0.002513 404.08310 405.53259
398.0 0.002513 403.86130 405.28763
383.0 0.002611 403.63959 405.04996
384.0 0.002604 403.41794 404.50314
388.0 0.002577 403.19638 404.29568
413.0 0.002421 402.97495 404.10275
409.0 0.002445 402.75357 403.93396
411.0 0.002433 402.53235 403.81091
369.0 0.002710 402.31116 403.77579
412.0 0.002427 402.09012 403.73178
388.0 0.002577 401.86926 404.13336
383.0 0.002611 401.64847 404.93326
384.0 0.002604 401.42786 406.23499
383.0 0.002611 401.20734 408.04919
420.0 0.002381 400.98697 410.22427
371.0 0.002695 400.76682 412.40884
404.0 0.002475 400.54675 414.08566
416.0 0.002404 400.32693 414.76974
398.0 0.002513 400.10724 414.35962
365.0 0.002740 399.88773 413.04160
369.0 0.002710 399.66843 411.66263
431.0 0.002320 399.44925 410.33484
384.0 0.002604 399.23038 409.06027
396.0 0.002525 399.01160 407.67468
409.0 0.002445 398.79309 406.00259
404.0 0.002475 398.57480 404.31583
360.0 0.002778 398.35672 402.69403
413.0 0.002421 398.13885 401.28012
397.0 0.002519 397.92123 400.14545
415.0 0.002410 397.70383 399.29236
394.0 0.002538 397.48669 398.67444
454.0 0.002203 397.26981 398.22522
388.0 0.002577 397.05319 397.88348
393.0 0.002545 396.83682 397.60458
423.0 0.002364 396.62070 397.36093
424.0 0.002358 396.40491 397.13797
380.0 0.002632 396.18933 396.92877
406.0 0.002463 395.97412 396.73056
389.0 0.002571 395.75912 396.54221
372.0 0.002688 395.54440 396.36380
388.0 0.002577 395.33008 396.19592
385.0 0.002597 395.11597 396.03943
403.0 0.002481 394.90228 395.89603
419.0 0.002387 394.68881 395.76770
397.0 0.002519 394.47568 395.65735
359.0 0.002786 394.26294 395.56909
398.0 0.002513 394.05045 395.50894
421.0 0.002375 393.83838 395.48752
377.0 0.002653 393.62659 395.52576
415.0 0.002410 393.41516 395.66910
381.0 0.002625 393.20413 396.01443
403.0 0.002481 392.99341 396.75626
394.0 0.002538 392.78314 398.23880
380.0 0.002632 392.57315 400.98715
403.0 0.002481 392.36359 405.65063
389.0 0.002571 392.15439 412.80603
395.0 0.002532 391.94556 422.63507
407.0 0.002457 391.73715 434.56149
381.0 0.002625 391.52911 447.03403
430.0 0.002326 391.32150 457.56326
402.0 0.002488 391.11429 463.39050
396.0 0.002525 390.90750 463.28607
451.0 0.002217 390.70114 458.74564
444.0 0.002252 390.49518 452.49121
419.0 0.002387 390.28961 446.43396
430.0 0.002326 390.08456 440.96783
403.0 0.002481 389.87985 435.27463
412.0 0.002427 389.67563 428.51114
384.0 0.002604 389.47186 420.83795
467.0 0.002141 389.26849 413.12408
425.0 0.002353 389.06567 406.21063
383.0 0.002611 388.86322 400.61090
371.0 0.002695 388.66132 396.47711
381.0 0.002625 388.45981 393.65552
387.0 0.002584 388.25876 391.83224
377.0 0.002653 388.05826 390.67120
388.0 0.002577 387.85818 389.90262
385.0 0.002597 387.65866 389.34915
398.0 0.002513 387.45956 388.90942
398.0 0.002513 387.26096 388.53180
365.0 0.002740 387.06290 388.18466
429.0 0.002331 386.86530 387.86627
377.0 0.002653 386.66827 387.57068
363.0 0.002755 386.47171 387.28992
373.0 0.002681 386.27567 387.02145
349.0 0.002865 386.08014 386.75961
401.0 0.002494 385.88516 386.50806
391.0 0.002558 385.69070 386.26578
406.0 0.002463 385.49673 386.02969
398.0 0.002513 385.30331 385.79904
395.0 0.002532 385.11047 385.57309
425.0 0.002353 384.91815 385.35141
374.0 0.002674 384.72641 385.13342
372.0 0.002688 384.53519 384.91879
381.0 0.002625 384.34448 384.70718
374.0 0.002674 384.15442 384.49844
391.0 0.002558 383.96487 384.29221
355.0 0.002817 383.77591 384.08847
375.0 0.002667 383.58752 384.10855
334.0 0.002994 383.39966 383.91635
405.0 0.002469 383.21243 383.72672
406.0 0.002463 383.02576 383.53952
376.0 0.002660 382.83969 383.35489
378.0 0.002646 382.65417 383.17273
413.0 0.002421 382.46924 383.10257
380.0 0.002632 382.28497 382.92963
385.0 0.002597 382.10123 382.76013
390.0 0.002564 381.91815 382.59485
321.0 0.003115 381.73563 382.43521
362.0 0.002762 381.55371 382.28448
396.0 0.002525 381.37247 382.14920
386.0 0.002591 381.19177 382.04160
392.0 0.002551 381.01175 381.98178
354.0 0.002825 380.83228 381.99780
422.0 0.002370 380.65350 382.12067
361.0 0.002770 380.47531 382.37271
369.0 0.002710 380.29776 382.75198
380.0 0.002632 380.12088 383.21658
393.0 0.002545 379.94455 383.67889
360.0 0.002778 379.76895 384.01248
404.0 0.002475 379.59393 384.09576
403.0 0.002481 379.41959 383.90012
398.0 0.002513 379.24591 383.51837
371.0 0.002695 379.07288 383.02106
398.0 0.002513 378.90045 382.60608
376.0 0.002660 378.72870 382.22391
419.0 0.002387 378.55765 381.83228
341.0 0.002933 378.38724 381.39236
381.0 0.002625 378.21747 380.91360
395.0 0.002532 378.04837 380.40900
368.0 0.002717 377.88000 379.97772
385.0 0.002597 377.71222 379.61606
374.0 0.002674 377.54520 379.33347
377.0 0.002653 377.37878 379.12479
404.0 0.002475 377.21307 378.97699
358.0 0.002793 377.04807 378.87549
381.0 0.002625 376.88373 378.80862
373.0 0.002681 376.72009 378.76929
393.0 0.002545 376.55713 378.75446
395.0 0.002532 376.39484 378.76440
375.0 0.002667 376.23331 378.80139
377.0 0.002653 376.07239 378.86914
402.0 0.002488 375.91226 378.97299
408.0 0.002451 375.75278 379.11987
373.0 0.002681 375.59399 379.31870
388.0 0.002577 375.43594 379.58112
416.0 0.002404 375.27856 379.92416
375.0 0.002667 375.12198 380.37430
405.0 0.002469 374.96600 380.98044
397.0 0.002519 374.81079 381.84229
412.0 0.002427 374.65631 383.16983
427.0 0.002342 374.50253 385.39203
391.0 0.002558 374.34949 389.30557
396.0 0.002525 374.19717 396.22849
419.0 0.002387 374.04553 408.01508
417.0 0.002398 373.89465 426.76807
437.0 0.002288 373.74451 454.35452
516.0 0.001938 373.59509 490.49048
555.0 0.001802 373.44641 533.03278
644.0 0.001553 373.29843 576.55524
709.0 0.001410 373.15125 612.84509
695.0 0.001439 373.00473 633.16687
655.0 0.001527 372.85904 633.78284
722.0 0.001385 372.71402 619.14557
656.0 0.001524 372.56973 598.14111
606.0 0.001650 372.42624 577.44849
576.0 0.001736 372.28348 559.11755
504.0 0.001984 372.14148 541.05219
491.0 0.002037 372.00018 519.95715
515.0 0.001942 371.85965 495.15244
479.0 0.002088 371.71991 468.90964
486.0 0.002058 371.58087 444.15274
444.0 0.002252 371.44263 423.07849
437.0 0.002288 371.30511 406.74478
381.0 0.002625 371.16833 395.14639
403.0 0.002481 371.03238 387.51425
458.0 0.002183 370.89716 382.76266
370.0 0.002703 370.76273 379.87411
388.0 0.002577 370.62900 378.07941
378.0 0.002646 370.49606 376.88864
382.0 0.002618 370.36389 376.02557
397.0 0.002519 370.23251 375.34836
383.0 0.002611 370.10187 374.79077
385.0 0.002597 369.97198 374.30939
381.0 0.002625 369.84290 373.89444
339.0 0.002950 369.71460 373.53110
426.0 0.002347 369.58704 373.21115
385.0 0.002597 369.46027 372.92859
420.0 0.002381 369.33426 372.68030
400.0 0.002500 369.20901 372.45862
383.0 0.002611 369.08459 372.26550
392.0 0.002551 368.96088 372.09760
392.0 0.002551 368.83798 371.95374
373.0 0.002681 368.71588 371.83359
371.0 0.002695 368.59451 371.73715
372.0 0.002688 368.47397 371.66498
364.0 0.002747 368.35419 371.61835
404.0 0.002475 368.23523 371.59921
376.0 0.002660 368.11700 371.61011
405.0 0.002469 367.99954 371.65466
382.0 0.002618 367.88290 371.73761
401.0 0.002494 367.76703 371.86514
366.0 0.002732 367.65198 372.04541
382.0 0.002618 367.53766 372.28952
400.0 0.002500 367.42416 372.61407
366.0 0.002732 367.31146 373.04633
411.0 0.002433 367.19949 373.63870
312.0 0.003205 367.08838 374.49826
371.0 0.002695 366.97800 375.84814
413.0 0.002421 366.86844 378.12634
385.0 0.002597 366.75964 382.11606
386.0 0.002591 366.65167 389.05853
373.0 0.002681 366.54446 400.61990
399.0 0.002506 366.43802 418.60513
447.0 0.002237 366.33240 444.29398
494.0 0.002024 366.22757 477.56128
481.0 0.002079 366.12350 516.10974
567.0 0.001764 366.02026 555.02942
599.0 0.001669 365.91779 587.16754
548.0 0.001825 365.81610 605.05243
549.0 0.001821 365.71521 605.50989
568.0 0.001761 365.61511 592.53503
559.0 0.001789 365.51578 573.70715
522.0 0.001916 365.41727 554.96875
508.0 0.001969 365.31952 538.22211
471.0 0.002123 365.22260 522.39374
400.0 0.002500 365.12640 504.27481
472.0 0.002119 365.03107 482.72702
402.0 0.002488 364.93646 459.32111
428.0 0.002336 364.84265 436.61523
392.0 0.002551 364.74963 416.60153
433.0 0.002309 364.65741 400.69278
399.0 0.002506 364.56598 389.03088
370.0 0.002703 364.47531 381.11804
341.0 0.002933 364.38544 376.07895
357.0 0.002801 364.29636 372.99716
383.0 0.002611 364.20804 371.13171
382.0 0.002618 364.12054 369.98761
432.0 0.002315 364.03378 369.27985
400.0 0.002500 363.94781 368.92313
398.0 0.002513 363.86264 368.73343
358.0 0.002793 363.77823 368.71823
421.0 0.002375 363.69464 368.81918
364.0 0.002747 363.61176 368.95465
362.0 0.002762 363.52969 369.02115
408.0 0.002451 363.44839 368.92319
388.0 0.002577 363.36789 368.66049
413.0 0.002421 363.28815 368.23569
356.0 0.002809 363.20920 367.76990
363.0 0.002755 363.13098 367.32947
396.0 0.002525 363.05353 366.93222
377.0 0.002653 362.97687 366.55234
359.0 0.002786 362.90097 366.15103
380.0 0.002632 362.82584 365.71600
367.0 0.002725 362.75146 365.26816
352.0 0.002841 362.67789 364.83908
377.0 0.002653 362.60501 364.45374
376.0 0.002660 362.53296 364.12616
380.0 0.002632 362.46161 363.85831
367.0 0.002725 362.39102 363.64328
363.0 0.002755 362.32120 363.46948
365.0 0.002740 362.25214 363.32474
360.0 0.002778 362.18384 363.19940
382.0 0.002618 362.11624 363.08670
332.0 0.003012 362.04941 362.98233
372.0 0.002688 361.98337 362.88409
349.0 0.002865 361.91803 362.79074
335.0 0.002985 361.85342 362.70151
376.0 0.002660 361.78958 362.61603
376.0 0.002660 361.72644 362.53400
380.0 0.002632 361.66406 362.45529
374.0 0.002674 361.60239 362.37964
345.0 0.002899 361.54150 362.30707
396.0 0.002525 361.48129 362.23727
376.0 0.002660 361.42181 362.17047
361.0 0.002770 361.36307 362.10635
386.0 0.002591 361.30502 362.04514
354.0 0.002825 361.24771 361.98663
396.0 0.002525 361.19113 361.93103
364.0 0.002747 361.13522 361.87827
375.0 0.002667 361.08005 361.82849
334.0 0.002994 361.02557 361.78186
377.0 0.002653 360.97180 361.52676
385.0 0.002597 360.91873 361.49332
307.0 0.003257 360.86633 361.46301
370.0 0.002703 360.81467 361.43640
359.0 0.002786 360.76367 361.41367
368.0 0.002717 360.71338 361.39523
351.0 0.002849 360.66376 361.38159
382.0 0.002618 360.61481 361.26953
384.0 0.002604 360.56656 361.27032
368.0 0.002717 360.51898 361.27768
332.0 0.003012 360.47208 361.29263
358.0 0.002793 360.42581 361.31638
382.0 0.002618 360.38022 361.35031
390.0 0.002564 360.33533 361.39633
373.0 0.002681 360.29105 361.45657
353.0 0.002833 360.24744 361.53391
364.0 0.002747 360.20447 361.63226
366.0 0.002732 360.16217 361.75717
355.0 0.002817 360.12048 361.91763
347.0 0.002882 360.07944 362.13043
336.0 0.002976 360.03906 362.42905
346.0 0.002890 359.99927 362.88141
370.0 0.002703 359.96011 363.61911
386.0 0.002591 359.92160 364.87680
374.0 0.002674 359.88367 367.03018
372.0 0.002688 359.84637 370.59937
355.0 0.002817 359.80969 376.18307
359.0 0.002786 359.77359 384.29617
380.0 0.002632 359.73810 395.09607
422.0 0.002370 359.70322 408.13516
438.0 0.002283 359.66891 422.16318
435.0 0.002299 359.63519 435.13690
398.0 0.002513 359.60205 444.49866
425.0 0.002353 359.56949 448.21555
414.0 0.002415 359.53751 446.23578
447.0 0.002237 359.50607 440.57068
438.0 0.002283 359.47522 433.70325
443.0 0.002257 359.44492 427.26596
413.0 0.002421 359.41516 421.62537
375.0 0.002667 359.38596 416.07443
380.0 0.002632 359.35730 409.62997
393.0 0.002545 359.32916 402.00137
390.0 0.002564 359.30154 393.75482
393.0 0.002545 359.27448 385.73792
345.0 0.002899 359.24792 378.64716
364.0 0.002747 359.22189 372.90002
384.0 0.002604 359.19635 368.60370
367.0 0.002725 359.17133 365.62140
399.0 0.002506 359.14679 363.67422
381.0 0.002625 359.12274 362.45233
378.0 0.002646 359.09921 361.69235
381.0 0.002625 359.07611 361.20538
339.0 0.002950 359.05353 360.87482
366.0 0.002732 359.03140 360.62610
384.0 0.002604 359.00974 360.42792
374.0 0.002674 358.98853 360.26215
381.0 0.002625 358.96777 360.11954
368.0 0.002717 358.94745 359.99469
411.0 0.002433 358.92758 359.88477
378.0 0.002646 358.90814 359.78821
346.0 0.002890 358.88910 359.69980
373.0 0.002681 358.87051 359.61987
348.0 0.002874 358.85233 359.54721
390.0 0.002564 358.83456 359.48090
412.0 0.002427 358.81717 359.42001
391.0 0.002558 358.80020 359.36395
366.0 0.002732 358.78360 359.31210
362.0 0.002762 358.76740 359.26398
339.0 0.002950 358.75156 359.21924
322.0 0.003106 358.73605 359.17737
352.0 0.002841 358.72095 359.13824
340.0 0.002941 358.70618 359.10144
357.0 0.002801 358.69177 359.06693
333.0 0.003003 358.67770 359.03436
336.0 0.002976 358.66397 359.00357
322.0 0.003106 358.65054 358.97449
352.0 0.002841 358.63745 358.94687
363.0 0.002755 358.62466 358.92068
345.0 0.002899 358.61221 358.89584
370.0 0.002703 358.60004 358.87219
371.0 0.002695 358.58813 358.84976
358.0 0.002793 358.57654 358.82831
348.0 0.002874 358.56522 358.80786
337.0 0.002967 358.55414 358.78833
328.0 0.003049 358.54333 358.76968
364.0 0.002747 358.53281 358.75183
356.0 0.002809 358.52252 358.73489
349.0 0.002865 358.51245 358.71866
361.0 0.002770 358.50262 358.70313
366.0 0.002732 358.49304 358.68823
353.0 0.002833 358.48364 358.71985
330.0 0.003030 358.47446 358.70755
351.0 0.002849 358.46548 358.69589
372.0 0.002688 358.45673 358.68497
359.0 0.002786 358.44812 358.67462
350.0 0.002857 358.43970 358.66489
370.0 0.002703 358.43146 358.65585
342.0 0.002924 358.42337 358.67017
338.0 0.002959 358.41547 358.66302
357.0 0.002801 358.40768 358.65652
333.0 0.003003 358.40005 358.65082
328.0 0.003049 358.39255 358.64587
374.0 0.002674 358.38516 358.64169
352.0 0.002841 358.37790 358.68823
349.0 0.002865 358.37073 358.68713
364.0 0.002747 358.36368 358.68704
359.0 0.002786 358.35669 358.68802
388.0 0.002577 358.34982 358.69040
367.0 0.002725 358.34302 358.63614
382.0 0.002618 358.33627 358.64294
344.0 0.002907 358.32959 358.67633
350.0 0.002857 358.32297 358.68787
366.0 0.002732 358.31641 358.70224
357.0 0.002801 358.30984 358.72043
338.0 0.002959 358.30334 358.74451
359.0 0.002786 358.29684 358.74966
334.0 0.002994 358.29034 358.80154
347.0 0.002882 358.28387 358.88437
362.0 0.002762 358.27740 359.02036
332.0 0.003012 358.27090 359.24234
358.0 0.002793 358.26437 359.59155
355.0 0.002817 358.25784 360.11060
385.0 0.002597 358.25125 360.82880
352.0 0.002841 358.24463 361.74390
362.0 0.002762 358.23795 362.80612
385.0 0.002597 358.23120 363.90805
382.0 0.002618 358.22440 364.89026
363.0 0.002755 358.21750 365.57040
378.0 0.002646 358.21054 365.82089
356.0 0.002809 358.20346 365.65619
369.0 0.002710 358.19632 365.22482
364.0 0.002747 358.18903 364.70444
387.0 0.002584 358.18164 364.21487
370.0 0.002703 358.17410 363.78845
321.0 0.003115 358.16647 363.38123
373.0 0.002681 358.15869 362.92184
353.0 0.002833 358.15073 362.37558
349.0 0.002865 358.14264 361.77045
361.0 0.002770 358.13437 361.16583
378.0 0.002646 358.12595 360.61801
361.0 0.002770 358.11731 360.16571
345.0 0.002899 358.10852 359.82608
376.0 0.002660 358.09952 359.59702
328.0 0.003049 358.09030 359.51544
387.0 0.002584 358.08087 359.45963
322.0 0.003106 358.07123 359.45465
374.0 0.002674 358.06137 359.48804
360.0 0.002778 358.05127 359.54999
336.0 0.002976 358.04092 359.63574
364.0 0.002747 358.03033 359.74463
372.0 0.002688 358.01947 359.87939
345.0 0.002899 358.00836 360.07410
370.0 0.002703 357.99695 360.29306
354.0 0.002825 357.98529 360.58932
368.0 0.002717 357.97333 361.02368
381.0 0.002625 357.96106 361.70303
323.0 0.003096 357.94849 362.80679
361.0 0.002770 357.93564 364.60364
339.0 0.002950 357.92242 367.44354
329.0 0.003040 357.90894 371.70840
352.0 0.002841 357.89508 377.69693
321.0 0.003115 357.88089 385.47998
382.0 0.002618 357.86636 394.74142
405.0 0.002469 357.85147 404.68686
381.0 0.002625 357.83624 414.05145
383.0 0.002611 357.82062 421.25137
358.0 0.002793 357.80463 424.94479
379.0 0.002639 357.78827 424.90054
359.0 0.002786 357.77151 422.33472
392.0 0.002551 357.75436 419.01825
358.0 0.002793 357.73682 416.58551
345.0 0.002899 357.71887 415.99023
405.0 0.002469 357.70050 417.44150
382.0 0.002618 357.68170 420.54349
413.0 0.002421 357.66251 424.70261
425.0 0.002353 357.64285 429.41544
458.0 0.002183 357.62277 434.10876
461.0 0.002169 357.60223 437.76724
388.0 0.002577 357.58124 439.12143
453.0 0.002208 357.55981 437.25977
484.0 0.002066 357.53790 432.45822
424.0 0.002358 357.51553 426.06409
408.0 0.002451 357.49271 419.56448
389.0 0.002571 357.46936 413.87997
403.0 0.002481 357.44556 409.15671
422.0 0.002370 357.42126 404.87302
394.0 0.002538 357.39645 400.23694
421.0 0.002375 357.37115 394.80487
405.0 0.002469 357.34534 388.75238
387.0 0.002584 357.31903 382.59869
354.0 0.002825 357.29221 376.87585
342.0 0.002924 357.26483 371.96518
367.0 0.002725 357.23694 368.06079
360.0 0.002778 357.20853 365.17123
353.0 0.002833 357.17957 363.16629
351.0 0.002849 357.15005 361.84921
350.0 0.002857 357.12000 361.01651
398.0 0.002513 357.08939 360.49994
324.0 0.003086 357.05826 360.17902
357.0 0.002801 357.02655 359.97708
389.0 0.002571 356.99426 359.85089
393.0 0.002545 356.96143 359.77835
394.0 0.002538 356.92801 359.74918
365.0 0.002740 356.89401 359.76013
363.0 0.002755 356.85944 359.82529
365.0 0.002740 356.82428 359.95819
363.0 0.002755 356.78854 360.19650
372.0 0.002688 356.75223 360.61395
379.0 0.002639 356.71530 361.34158
359.0 0.002786 356.67776 362.59351
385.0 0.002597 356.63965 364.67969
361.0 0.002770 356.60092 367.99979
385.0 0.002597 356.56158 372.96494
400.0 0.002500 356.52164 379.88165
423.0 0.002364 356.48108 388.79117
424.0 0.002358 356.43991 399.30109
470.0 0.002128 356.39813 410.50677
429.0 0.002331 356.35571 420.97931
493.0 0.002028 356.31271 428.95477
455.0 0.002198 356.26904 432.91193
516.0 0.001938 356.22479 432.46683
526.0 0.001901 356.17987 428.69467
471.0 0.002123 356.13434 423.35025
480.0 0.002083 356.08820 417.90771
455.0 0.002198 356.04138 413.09125
412.0 0.002427 355.99396 408.82086
420.0 0.002381 355.94589 404.44632
416.0 0.002404 355.89719 399.31866
453.0 0.002208 355.84784 393.32254
421.0 0.002375 355.79785 386.87326
420.0 0.002381 355.74722 380.57364
387.0 0.002584 355.69595 374.95264
368.0 0.002717 355.64404 370.38733
365.0 0.002740 355.59149 367.08765
374.0 0.002674 355.53830 365.13239
368.0 0.002717 355.48447 364.53937
339.0 0.002950 355.42999 365.32004
354.0 0.002825 355.37488 367.49725
376.0 0.002660 355.31909 371.06186
402.0 0.002488 355.26270 375.89270
439.0 0.002278 355.20566 381.66125
437.0 0.002288 355.14795 387.73676
433.0 0.002309 355.08960 393.36523
443.0 0.002257 355.03061 397.49924
451.0 0.002217 354.97101 399.32718
477.0 0.002096 354.91074 398.71530
488.0 0.002049 354.84982 396.32657
454.0 0.002203 354.78830 393.14764
414.0 0.002415 354.72614 389.97360
438.0 0.002283 354.66330 387.15292
404.0 0.002475 354.59988 384.66150
428.0 0.002336 354.53580 382.09952
422.0 0.002370 354.47107 379.10172
422.0 0.002370 354.40576 375.60580
410.0 0.002439 354.33978 371.79303
393.0 0.002545 354.27319 368.09412
411.0 0.002433 354.20599 364.73889
374.0 0.002674 354.13812 361.91269
354.0 0.002825 354.06970 359.69019
316.0 0.003165 354.00064 358.04498
370.0 0.002703 353.93097 356.88721
343.0 0.002915 353.86066 356.07291
383.0 0.002611 353.78976 355.53897
374.0 0.002674 353.71826 355.16776
358.0 0.002793 353.64615 354.89459
349.0 0.002865 353.57346 354.67868
325.0 0.003077 353.50015 354.49625
362.0 0.002762 353.42627 354.33408
348.0 0.002874 353.35181 354.18527
343.0 0.002915 353.27673 354.04611
368.0 0.002717 353.20111 353.91428
333.0 0.003003 353.12488 353.78833
359.0 0.002786 353.04810 353.66727
372.0 0.002688 352.97076 353.55032
341.0 0.002933 352.89282 353.43875
369.0 0.002710 352.81436 353.32809
360.0 0.002778 352.73532 353.21988
347.0 0.002882 352.65573 353.11371
334.0 0.002994 352.57559 353.00931
358.0 0.002793 352.49493 352.90646
346.0 0.002890 352.41370 352.80478
364.0 0.002747 352.33197 352.70520
358.0 0.002793 352.24969 352.60559
349.0 0.002865 352.16693 352.50797
334.0 0.002994 352.08362 352.40982
340.0 0.002941 351.99979 352.31223
352.0 0.002841 351.91547 352.21503
380.0 0.002632 351.83066 352.11823
326.0 0.003067 351.74536 352.02179
343.0 0.002915 351.65952 351.92557
348.0 0.002874 351.57327 351.82944
360.0 0.002778 351.48648 351.73416
345.0 0.002899 351.39923 351.63840
355.0 0.002817 351.31155 351.54263
359.0 0.002786 351.22339 351.39352
330.0 0.003030 351.13480 351.29608
348.0 0.002874 351.04575 351.20181
323.0 0.003096 350.95624 351.10742
364.0 0.002747 350.86633 351.01282
349.0 0.002865 350.77594 350.91818
314.0 0.003185 350.68521 350.82346
334.0 0.002994 350.59399 350.72852
364.0 0.002747 350.50241 350.60724
349.0 0.002865 350.41043 350.51123
335.0 0.002985 350.31805 350.41656
372.0 0.002688 350.22528 350.32162
356.0 0.002809 350.13211 350.22659
350.0 0.002857 350.03860 350.13141
358.0 0.002793 349.94473 350.03601
322.0 0.003106 349.85049 349.94040
349.0 0.002865 349.75592 349.84476
338.0 0.002959 349.66098 349.74893
343.0 0.002915 349.56570 349.65292
352.0 0.002841 349.47015 349.55688
354.0 0.002825 349.37424 349.46078
341.0 0.002933 349.27802 349.36462
351.0 0.002849 349.18149 349.26837
313.0 0.003195 349.08466 349.17224
333.0 0.003003 348.98758 349.07626
332.0 0.003012 348.89017 348.94794
338.0 0.002959 348.79254 348.85373
335.0 0.002985 348.69461 348.76062
307.0 0.003257 348.59641 348.66959
345.0 0.002899 348.49802 348.58212
366.0 0.002732 348.39932 348.50043
366.0 0.002732 348.30045 348.42728
357.0 0.002801 348.20132 348.36560
365.0 0.002740 348.10196 348.30222
352.0 0.002841 348.00244 348.27051
344.0 0.002907 347.90268 348.25262
344.0 0.002907 347.80276 348.24353
328.0 0.003049 347.70264 348.23477
343.0 0.002915 347.60233 348.21469
335.0 0.002985 347.50189 348.17087
372.0 0.002688 347.40125 348.09543
354.0 0.002825 347.30051 347.99078
356.0 0.002809 347.19955 347.86893
348.0 0.002874 347.09854 347.74551
325.0 0.003077 346.99738 347.63489
314.0 0.003185 346.89609 347.54819
345.0 0.002899 346.79471 347.49402
326.0 0.003067 346.69321 347.47949
324.0 0.003086 346.59161 347.51193
353.0 0.002833 346.48996 347.59897
319.0 0.003135 346.38821 347.74420
376.0 0.002660 346.28641 347.94049
291.0 0.003436 346.18454 348.18213
310.0 0.003226 346.08261 348.40164
349.0 0.002865 345.98068 348.56750
326.0 0.003067 345.87869 348.63654
332.0 0.003012 345.77670 348.59357
369.0 0.002710 345.67465 348.46640
367.0 0.002725 345.57260 348.30997
379.0 0.002639 345.47058 348.17545
337.0 0.002967 345.36853 348.09839
383.0 0.002611 345.26654 348.06082
320.0 0.003125 345.16455 348.03821
368.0 0.002717 345.06259 347.98074
375.0 0.002667 344.96069 347.84216
362.0 0.002762 344.85880 347.62854
365.0 0.002740 344.75702 347.29831
374.0 0.002674 344.65527 346.92111
362.0 0.002762 344.55359 346.53436
347.0 0.002882 344.45200 346.17657
336.0 0.002976 344.35049 345.86417
310.0 0.003226 344.24911 345.59552
374.0 0.002674 344.14780 345.35507
349.0 0.002865 344.04660 345.13779
329.0 0.003040 343.94556 344.90488
371.0 0.002695 343.84460 344.66916
343.0 0.002915 343.74380 344.43887
354.0 0.002825 343.64313 344.21735
351.0 0.002849 343.54260 344.01260
351.0 0.002849 343.44223 343.82797
318.0 0.003145 343.34204 343.66394
347.0 0.002882 343.24200 343.51862
364.0 0.002747 343.14215 343.38867
322.0 0.003106 343.04248 343.27032
324.0 0.003086 342.94302 343.16016
346.0 0.002890 342.84372 343.05551
344.0 0.002907 342.74466 342.95456
324.0 0.003086 342.64578 342.85593
342.0 0.002924 342.54715 342.75925
333.0 0.003003 342.44873 342.66400
326.0 0.003067 342.35052 342.56995
351.0 0.002849 342.25259 342.47708
356.0 0.002809 342.15488 342.38538
346.0 0.002890 342.05740 342.29486
326.0 0.003067 341.96024 342.20551
362.0 0.002762 341.86325 342.11731
357.0 0.002801 341.76660 342.03052
356.0 0.002809 341.67020 341.94498
280.0 0.00357 341.57404 341.86099
343.0 0.002915 341.47824 341.77850
350.0 0.002857 341.38266 341.69775
332.0 0.003012 341.28741 341.61887
348.0 0.002874 341.19244 341.54202
339.0 0.002950 341.09781 341.46750
334.0 0.002994 341.00345 341.39545
335.0 0.002985 340.90942 341.32629
310.0 0.003226 340.81573 341.26035
320.0 0.003125 340.72232 341.19809
336.0 0.002976 340.62927 341.14008
340.0 0.002941 340.53656 341.08722
353.0 0.002833 340.44415 341.04050
327.0 0.003058 340.35211 341.00162
332.0 0.003012 340.26041 340.97379
342.0 0.002924 340.16904 340.96246
348.0 0.002874 340.07806 340.97781
317.0 0.003155 339.98737 341.03735
315.0 0.003175 339.89709 341.17236
334.0 0.002994 339.80716 341.42569
325.0 0.003077 339.71762 341.86237
331.0 0.003021 339.62839 342.56091
349.0 0.002865 339.53958 343.60507
337.0 0.002967 339.45111 345.06085
364.0 0.002747 339.36304 346.95239
379.0 0.002639 339.27536 349.23114
325.0 0.003077 339.18802 351.75842
394.0 0.002538 339.10110 354.30075
353.0 0.002833 339.01453 356.54663
392.0 0.002551 338.92838 358.16922
357.0 0.002801 338.84259 358.95898
352.0 0.002841 338.75723 358.98141
335.0 0.002985 338.67221 358.58591
363.0 0.002755 338.58759 358.24582
287.0 0.003484 338.50339 358.40274
357.0 0.002801 338.41959 359.36005
349.0 0.002865 338.33615 361.23914
353.0 0.002833 338.25311 363.96063
351.0 0.002849 338.17050 367.27432
371.0 0.002695 338.08826 370.83548
395.0 0.002532 338.00641 374.23135
380.0 0.002632 337.92496 376.96558
408.0 0.002451 337.84390 378.51550
401.0 0.002494 337.76328 378.54022
397.0 0.002519 337.68301 377.10632
374.0 0.002674 337.60312 374.65955
380.0 0.002632 337.52365 371.77341
341.0 0.002933 337.44458 368.92499
352.0 0.002841 337.36591 366.37982
384.0 0.002604 337.28760 364.14417
371.0 0.002695 337.20966 362.01431
395.0 0.002532 337.13214 359.72723
364.0 0.002747 337.05499 357.13553
351.0 0.002849 336.97824 354.30301
359.0 0.002786 336.90186 351.33456
366.0 0.002732 336.82587 348.44528
342.0 0.002924 336.75024 345.83417
336.0 0.002976 336.67499 343.56866
347.0 0.002882 336.60010 341.72949
339.0 0.002950 336.52557 340.30917
324.0 0.003086 336.45142 339.25812
310.0 0.003226 336.37766 338.50375
314.0 0.003185 336.30420 337.98218
315.0 0.003175 336.23114 337.60193
355.0 0.002817 336.15842 337.33551
338.0 0.002959 336.08600 337.16629
352.0 0.002841 336.01398 336.99228
349.0 0.002865 335.94226 336.84329
323.0 0.003096 335.87091 336.71060
340.0 0.002941 335.79987 336.58917
359.0 0.002786 335.72913 336.47617
341.0 0.002933 335.65875 336.36996
340.0 0.002941 335.58865 336.26932
316.0 0.003165 335.51889 336.17365
323.0 0.003096 335.44940 336.10544
301.0 0.003322 335.38022 336.01868
311.0 0.003215 335.31134 335.93588
309.0 0.003236 335.24274 335.85645
360.0 0.002778 335.17444 335.78088
337.0 0.002967 335.10638 335.70944
358.0 0.002793 335.03860 335.64340
345.0 0.002899 334.97110 335.58463
343.0 0.002915 334.90381 335.53610
332.0 0.003012 334.83682 335.50266
343.0 0.002915 334.77005 335.49026
329.0 0.003040 334.70352 335.50595
341.0 0.002933 334.63721 335.55627
335.0 0.002985 334.57114 335.64526
312.0 0.003205 334.50525 335.77246
369.0 0.002710 334.43958 335.93027
306.0 0.003268 334.37411 336.10397
367.0 0.002725 334.30881 336.26883
308.0 0.003247 334.24371 336.39673
348.0 0.002874 334.17877 336.45966
306.0 0.003268 334.11404 336.44235
356.0 0.002809 334.04941 336.35202
337.0 0.002967 333.98495 336.21356
338.0 0.002959 333.92065 336.05713
320.0 0.003125 333.85648 335.90579
358.0 0.002793 333.79239 335.77081
353.0 0.002833 333.72842 335.65045
350.0 0.002857 333.66461 335.53488
333.0 0.003003 333.60083 335.41171
337.0 0.002967 333.53717 335.27536
328.0 0.003049 333.47357 335.12936
358.0 0.002793 333.41006 334.96756
365.0 0.002740 333.34659 334.83240
306.0 0.003268 333.28317 334.71655
306.0 0.003268 333.21982 334.62631
365.0 0.002740 333.15646 334.56497
354.0 0.002825 333.09311 334.53354
321.0 0.003115 333.02979 334.53198
324.0 0.003086 332.96643 334.56049
296.0 0.003378 332.90311 334.64334
355.0 0.002817 332.83975 334.74557
354.0 0.002825 332.77634 334.90500
327.0 0.003058 332.71289 335.15289
352.0 0.002841 332.64941 335.54279
325.0 0.003077 332.58585 336.13116
337.0 0.002967 332.52219 337.09637
310.0 0.003226 332.45847 338.57129
329.0 0.003040 332.39465 340.75620
325.0 0.003077 332.33072 343.82449
332.0 0.003012 332.26666 347.93744
292.0 0.003425 332.20248 353.15402
324.0 0.003086 332.13815 359.38965
362.0 0.002762 332.07367 366.31705
353.0 0.002833 332.00903 373.47949
429.0 0.002331 331.94421 380.19675
374.0 0.002674 331.87918 385.79144
383.0 0.002611 331.81400 389.80902
368.0 0.002717 331.74860 392.19067
375.0 0.002667 331.68292 393.30927
388.0 0.002577 331.61707 393.88214
392.0 0.002551 331.55096 394.75192
367.0 0.002725 331.48459 396.53226
367.0 0.002725 331.41794 399.39542
447.0 0.002237 331.35101 402.98990
454.0 0.002203 331.28381 406.54437
425.0 0.002353 331.21631 409.06586
432.0 0.002315 331.14847 409.57657
429.0 0.002331 331.08032 407.47031
510.0 0.001961 331.01184 402.85861
476.0 0.002101 330.94299 396.55490
461.0 0.002169 330.87381 389.64313
404.0 0.002475 330.80423 383.05322
395.0 0.002532 330.73428 377.33908
378.0 0.002646 330.66394 372.62347
373.0 0.002681 330.59317 368.66016
355.0 0.002817 330.52197 364.98901
356.0 0.002809 330.45038 361.20370
383.0 0.002611 330.37833 357.15637
379.0 0.002639 330.30582 352.95175
356.0 0.002809 330.23285 348.81488
358.0 0.002793 330.15942 344.96985
344.0 0.002907 330.08545 341.59235
366.0 0.002732 330.01105 338.78378
335.0 0.002985 329.93610 336.56442
320.0 0.003125 329.86060 334.89102
350.0 0.002857 329.78461 333.67517
334.0 0.002994 329.70807 332.81342
315.0 0.003175 329.63098 332.20624
366.0 0.002732 329.55328 331.77139
320.0 0.003125 329.47507 331.44830
334.0 0.002994 329.39621 331.19577
323.0 0.003096 329.31677 330.98831
354.0 0.002825 329.23672 330.81149
348.0 0.002874 329.15604 330.65775
322.0 0.003106 329.07477 330.52448
336.0 0.002976 328.99280 330.41095
308.0 0.003247 328.91019 330.32184
361.0 0.002770 328.82693 330.25894
354.0 0.002825 328.74298 330.22519
318.0 0.003145 328.65839 330.22156
339.0 0.002950 328.57306 330.24612
336.0 0.002976 328.48703 330.34824
305.0 0.003279 328.40033 330.40747
325.0 0.003077 328.31284 330.46255
333.0 0.003003 328.22467 330.49677
331.0 0.003021 328.13574 330.49332
315.0 0.003175 328.04602 330.44479
330.0 0.003030 327.95560 330.35782
335.0 0.002985 327.86438 330.24976
342.0 0.002924 327.77237 330.14056
328.0 0.003049 327.67960 330.07483
337.0 0.002967 327.58597 330.01031
351.0 0.002849 327.49161 329.98325
350.0 0.002857 327.39639 330.00482
351.0 0.002849 327.30038 330.09735
336.0 0.002976 327.20349 330.30579
325.0 0.003077 327.10577 330.70798
334.0 0.002994 327.00723 331.41785
329.0 0.003040 326.90784 332.58258
337.0 0.002967 326.80759 334.36697
339.0 0.002950 326.70642 336.92844
304.0 0.003289 326.60440 340.37253
365.0 0.002740 326.50153 344.70401
364.0 0.002747 326.39771 349.78613
409.0 0.002445 326.29303 355.30634
424.0 0.002358 326.18741 360.78299
398.0 0.002513 326.08090 365.59109
430.0 0.002326 325.97348 369.06940
421.0 0.002375 325.86511 370.74533
397.0 0.002519 325.75586 370.59576
375.0 0.002667 325.64563 369.10004
418.0 0.002392 325.53448 366.96896
389.0 0.002571 325.42239 364.93958
400.0 0.002500 325.30930 363.41693
359.0 0.002786 325.19531 362.61023
373.0 0.002681 325.08032 362.34546
364.0 0.002747 324.96442 362.25110
351.0 0.002849 324.84750 361.89645
402.0 0.002488 324.72964 360.96985
401.0 0.002494 324.61078 359.30457
402.0 0.002488 324.49097 356.91327
362.0 0.002762 324.37012 353.89957
367.0 0.002725 324.24829 350.46881
345.0 0.002899 324.12552 347.08301
361.0 0.002770 324.00171 343.98874
329.0 0.003040 323.87695 341.37051
359.0 0.002786 323.75113 339.27545
338.0 0.002959 323.62436 337.62732
342.0 0.002924 323.49655 336.25778
321.0 0.003115 323.36777 334.98239
370.0 0.002703 323.23795 333.66675
357.0 0.002801 323.10712 332.25040
331.0 0.003021 322.97534 330.81732
310.0 0.003226 322.84250 329.41211
322.0 0.003106 322.70868 328.10336
341.0 0.002933 322.57382 326.94223
314.0 0.003185 322.43793 325.95859
324.0 0.003086 322.30112 325.15866
324.0 0.003086 322.16321 324.52859
334.0 0.002994 322.02435 324.04285
324.0 0.003086 321.88446 323.67010
323.0 0.003096 321.74353 323.38101
280.0 0.00357 321.60165 323.15094
310.0 0.003226 321.45874 322.96115
321.0 0.003115 321.31488 322.79932
306.0 0.003268 321.16995 322.65768
310.0 0.003226 321.02402 322.53210
317.0 0.003155 320.87717 322.42038
304.0 0.003289 320.72925 322.32239
330.0 0.003030 320.58041 322.23871
350.0 0.002857 320.43054 322.17123
332.0 0.003012 320.27966 322.12335
325.0 0.003077 320.12790 322.10117
328.0 0.003049 319.97507 322.11536
333.0 0.003003 319.82135 322.18546
342.0 0.002924 319.66663 322.34567
341.0 0.002933 319.51089 322.65442
315.0 0.003175 319.35431 323.20496
334.0 0.002994 319.19672 324.13815
313.0 0.003195 319.03821 325.64771
305.0 0.003279 318.87872 327.97861
333.0 0.003003 318.71829 331.40170
342.0 0.002924 318.55701 336.16614
338.0 0.002959 318.39478 342.44656
360.0 0.002778 318.23163 350.20651
339.0 0.002950 318.06757 359.20981
337.0 0.002967 317.90259 368.91843
341.0 0.002933 317.73679 378.50589
378.0 0.002646 317.57004 386.91605
376.0 0.002660 317.40250 393.00873
361.0 0.002770 317.23401 395.92188
415.0 0.002410 317.06467 395.49136
368.0 0.002717 316.89453 392.37732
352.0 0.002841 316.72351 387.70630
347.0 0.002882 316.55173 382.56094
359.0 0.002786 316.37903 377.70914
284.0 0.00352 316.20563 373.47253
371.0 0.002695 316.03134 369.73746
361.0 0.002770 315.85632 366.06680
323.0 0.003096 315.68045 361.95532
359.0 0.002786 315.50385 357.12021
332.0 0.003012 315.32651 351.63626
304.0 0.003289 315.14838 345.82257
303.0 0.003300 314.96957 340.06079
316.0 0.003165 314.78998 334.69336
334.0 0.002994 314.60974 329.96484
306.0 0.003268 314.42877 326.01239
321.0 0.003115 314.24713 322.86496
333.0 0.003003 314.06476 320.46109
288.0 0.003472 313.88174 318.68658
301.0 0.003322 313.69812 317.40390
319.0 0.003135 313.51379 316.48163
305.0 0.003279 313.32892 315.81067
337.0 0.002967 313.14337 315.30969
290.0 0.003448 312.95728 314.92627
340.0 0.002941 312.77057 314.63055
333.0 0.003003 312.58325 314.41187
298.0 0.003356 312.39545 314.24182
313.0 0.003195 312.20706 314.20541
290.0 0.003448 312.01822 314.24854
286.0 0.003497 311.82877 314.39365
323.0 0.003096 311.63885 314.63885
312.0 0.003205 311.44852 314.96204
285.0 0.00351 311.25763 315.33054
306.0 0.003268 311.06635 315.69247
332.0 0.003012 310.87460 315.98303
301.0 0.003322 310.68243 316.11908
316.0 0.003165 310.48990 316.07843
320.0 0.003125 310.29694 315.84616
286.0 0.003497 310.10364 315.43350
338.0 0.002959 309.90994 314.93951
310.0 0.003226 309.71591 314.41684
298.0 0.003356 309.52164 313.91312
308.0 0.003247 309.32697 313.44849
318.0 0.003145 309.13208 313.01779
333.0 0.003003 308.93686 312.59549
329.0 0.003040 308.74139 312.15063
326.0 0.003067 308.54575 311.66415
364.0 0.002747 308.34982 311.13181
286.0 0.003497 308.15378 310.58292
316.0 0.003165 307.95746 310.03461
307.0 0.003257 307.76099 309.50815
285.0 0.00351 307.56442 309.01956
298.0 0.003356 307.36768 308.57834
304.0 0.003289 307.17087 308.18771
321.0 0.003115 306.97391 307.84491
276.0 0.00362 306.77689 307.54385
300.0 0.003333 306.57986 307.27664
330.0 0.003030 306.38272 307.03503
303.0 0.003300 306.18564 306.81232
280.0 0.00357 305.98849 306.60306
321.0 0.003115 305.79135 306.40356
299.0 0.003344 305.59433 306.21194
297.0 0.003367 305.39728 306.02676
322.0 0.003106 305.20038 305.84851
305.0 0.003279 305.00351 305.67834
281.0 0.00356 304.80679 305.51929
333.0 0.003003 304.61017 305.37686
305.0 0.003279 304.41367 305.26062
302.0 0.003311 304.21741 305.18607
283.0 0.00353 304.02127 305.17688
316.0 0.003165 303.82541 305.26654
337.0 0.002967 303.62970 305.49835
313.0 0.003195 303.43430 305.92337
315.0 0.003175 303.23911 306.59314
306.0 0.003268 303.04425 307.54990
311.0 0.003215 302.84964 308.81131
314.0 0.003185 302.65533 310.35596
310.0 0.003226 302.46143 312.11453
314.0 0.003185 302.26782 313.96136
324.0 0.003086 302.07468 315.72067
320.0 0.003125 301.88184 317.17770
324.0 0.003086 301.68948 318.11954
309.0 0.003236 301.49750 318.40665
308.0 0.003247 301.30603 318.04459
315.0 0.003175 301.11496 317.18536
320.0 0.003125 300.92438 316.05142
312.0 0.003205 300.73438 314.84875
291.0 0.003436 300.54486 313.71698
318.0 0.003145 300.35590 312.65875
302.0 0.003311 300.16748 311.76028
326.0 0.003067 299.97961 310.88107
278.0 0.00360 299.79245 309.92218
328.0 0.003049 299.60580 308.82333
308.0 0.003247 299.41986 307.59235
317.0 0.003155 299.23450 306.28580
324.0 0.003086 299.04984 304.97891
313.0 0.003195 298.86591 303.74109
279.0 0.00358 298.68265 302.59830
284.0 0.00352 298.50015 301.64005
285.0 0.00351 298.31833 300.85272
294.0 0.003401 298.13727 300.23492
297.0 0.003367 297.95706 299.77664
288.0 0.003472 297.77759 299.46689
291.0 0.003436 297.59897 299.30307
304.0 0.003289 297.42114 299.29715
319.0 0.003135 297.24411 299.47986
295.0 0.003390 297.06805 299.90106
326.0 0.003067 296.89276 300.62543
301.0 0.003322 296.71848 301.72095
318.0 0.003145 296.54501 303.24426
286.0 0.003497 296.37244 305.21860
278.0 0.00360 296.20090 307.61362
365.0 0.002740 296.03027 310.33136
316.0 0.003165 295.86066 313.19458
331.0 0.003021 295.69196 315.95428
328.0 0.003049 295.52426 318.30493
351.0 0.002849 295.35767 319.94000
358.0 0.002793 295.19202 320.64987
348.0 0.002874 295.02747 320.41638
376.0 0.002660 294.86392 319.42068
333.0 0.003003 294.70145 317.95306
308.0 0.003247 294.54013 316.30518
337.0 0.002967 294.37982 314.69620
320.0 0.003125 294.22070 313.23917
340.0 0.002941 294.06268 311.93060
314.0 0.003185 293.90576 310.67068
308.0 0.003247 293.75006 309.33325
320.0 0.003125 293.59546 307.81683
313.0 0.003195 293.44208 306.10706
331.0 0.003021 293.28986 304.26108
311.0 0.003215 293.13885 302.37375
292.0 0.003425 292.98904 300.54446
332.0 0.003012 292.84048 298.85703
323.0 0.003096 292.69308 297.37097
317.0 0.003155 292.54697 296.11346
270.0 0.00370 292.40213 295.09036
303.0 0.003300 292.25851 294.28033
264.0 0.00379 292.11621 293.65057
305.0 0.003279 291.97513 293.16357
288.0 0.003472 291.83539 292.78314
292.0 0.003425 291.69693 292.47836
331.0 0.003021 291.55978 292.22522
310.0 0.003226 291.42395 292.00626
281.0 0.00356 291.28943 291.80991
288.0 0.003472 291.15625 291.62848
262.0 0.00382 291.02438 291.45737
281.0 0.00356 290.89392 291.29385
319.0 0.003135 290.76477 291.13626
283.0 0.00353 290.63702 290.98373
294.0 0.003401 290.51059 290.83548
274.0 0.00365 290.38550 290.69131
293.0 0.003413 290.26187 290.55118
273.0 0.00366 290.13959 290.41504
295.0 0.003390 290.01871 290.28329
323.0 0.003096 289.89920 290.15594
286.0 0.003497 289.78107 290.03360
283.0 0.00353 289.66440 289.91669
299.0 0.003344 289.54910 289.81012
308.0 0.003247 289.43524 289.70538
278.0 0.00360 289.32275 289.60458
302.0 0.003311 289.21167 289.50754
249.0 0.00402 289.10208 289.41257
302.0 0.003311 288.99387 289.31778
287.0 0.003484 288.88708 289.22079
274.0 0.00365 288.78171 289.11945
312.0 0.003205 288.67776 289.01270
275.0 0.00364 288.57526 288.90106
317.0 0.003155 288.47415 288.78879
257.0 0.00389 288.37454 288.67416
281.0 0.00356 288.27631 288.56021
291.0 0.003436 288.17950 288.44897
323.0 0.003096 288.08414 288.32861
271.0 0.00369 287.99017 288.22342
295.0 0.003390 287.89767 288.12006
276.0 0.00362 287.80658 288.01736
271.0 0.00369 287.71689 287.91476
283.0 0.00353 287.62869 287.81223
295.0 0.003390 287.54184 287.71039
276.0 0.00362 287.45642 287.60995
316.0 0.003165 287.37244 287.51163
280.0 0.00357 287.28983 287.41006
282.0 0.00355 287.20865 287.31772
274.0 0.00365 287.12888 287.22864
290.0 0.003448 287.05051 287.14276
288.0 0.003472 286.97351 287.05988
284.0 0.00352 286.89789 286.97971
280.0 0.00357 286.82370 286.90213
296.0 0.003378 286.75085 286.82669
309.0 0.003236 286.67938 286.75311
298.0 0.003356 286.60925 286.68149
289.0 0.003460 286.54053 286.61154
265.0 0.00377 286.47314 286.54303
300.0 0.003333 286.40710 286.47610
250.0 0.00400 286.34241 286.41077
299.0 0.003344 286.27902 286.34674
313.0 0.003195 286.21698 286.28430
301.0 0.003322 286.15625 286.22318
303.0 0.003300 286.09683 286.16357
263.0 0.00380 286.03873 286.10529
280.0 0.00357 285.98190 286.04846
287.0 0.003484 285.92633 285.99298
297.0 0.003367 285.87204 285.93893
248.0 0.00403 285.81903 285.88632
302.0 0.003311 285.76727 285.83502
308.0 0.003247 285.71677 285.78506
276.0 0.00362 285.66745 285.73657
267.0 0.00375 285.61938 285.67209
265.0 0.00377 285.57254 285.62662
297.0 0.003367 285.52689 285.58066
280.0 0.00357 285.48239 285.53790
289.0 0.003460 285.43909 285.49661
309.0 0.003236 285.39697 285.45663
281.0 0.00356 285.35599 285.41797
292.0 0.003425 285.31613 285.38071
303.0 0.003300 285.27740 285.34482
301.0 0.003322 285.23981 285.30167
257.0 0.00389 285.20331 285.26883
308.0 0.003247 285.16791 285.23740
289.0 0.003460 285.13358 285.20651
307.0 0.003257 285.10028 285.17813
260.0 0.00385 285.06805 285.15131
279.0 0.00358 285.03687 285.12607
273.0 0.00366 285.00668 285.10251
314.0 0.003185 284.97751 285.08081
294.0 0.003401 284.94934 285.06104
271.0 0.00369 284.92212 285.04337
291.0 0.003436 284.89587 285.02817
300.0 0.003333 284.87057 285.01596
277.0 0.00361 284.84622 285.00751
276.0 0.00362 284.82275 285.00439
274.0 0.00365 284.80020 285.00900
269.0 0.00372 284.77853 285.02551
284.0 0.00352 284.75775 285.05984
293.0 0.003413 284.73779 285.12137
297.0 0.003367 284.71869 285.22250
294.0 0.003401 284.70038 285.37921
309.0 0.003236 284.68292 285.60983
295.0 0.003390 284.66620 285.93356
295.0 0.003390 284.65030 286.36615
284.0 0.00352 284.63510 286.91635
301.0 0.003322 284.62067 287.58072
299.0 0.003344 284.60696 288.33942
293.0 0.003413 284.59396 289.15475
296.0 0.003378 284.58167 289.97000
297.0 0.003367 284.57001 290.71344
294.0 0.003401 284.55899 291.30499
312.0 0.003205 284.54865 291.67441
283.0 0.00353 284.53891 291.78653
286.0 0.003497 284.52979 291.65839
261.0 0.00383 284.52124 291.35229
286.0 0.003497 284.51324 290.94904
302.0 0.003311 284.50583 290.52216
272.0 0.00368 284.49893 290.12228
309.0 0.003236 284.49255 289.77197
298.0 0.003356 284.48666 289.46536
297.0 0.003367 284.48126 289.17514
288.0 0.003472 284.47632 288.86441
270.0 0.00370 284.47183 288.50470
293.0 0.003413 284.46777 288.08908
289.0 0.003460 284.46411 287.63089
320.0 0.003125 284.46088 287.15533
308.0 0.003247 284.45798 286.68857
286.0 0.003497 284.45544 286.25391
299.0 0.003344 284.45328 285.86859
273.0 0.00366 284.45145 285.54257
253.0 0.00395 284.44989 285.27847
293.0 0.003413 284.44864 285.07330
269.0 0.00372 284.44766 284.91968
269.0 0.00372 284.44693 284.80850
277.0 0.00361 284.44647 284.72992
285.0 0.00351 284.44620 284.67523
283.0 0.00353 284.44617 284.63733
284.0 0.00352 284.44632 284.61072
295.0 0.003390 284.44662 284.59140
295.0 0.003390 284.44708 284.57697
302.0 0.003311 284.44769 284.56763
275.0 0.00364 284.44843 284.55859
263.0 0.00380 284.44928 284.55112
299.0 0.003344 284.45020 284.54477
293.0 0.003413 284.45120 284.53937
249.0 0.00402 284.45227 284.53470
298.0 0.003356 284.45340 284.53073
270.0 0.00370 284.45453 284.52725
304.0 0.003289 284.45569 284.52429
283.0 0.00353 284.45685 284.52164
278.0 0.00360 284.45798 284.52026
292.0 0.003425 284.45908 284.51816
298.0 0.003356 284.46014 284.51639
304.0 0.003289 284.46115 284.51474
274.0 0.00365 284.46207 284.51328
304.0 0.003289 284.46289 284.51196
274.0 0.00365 284.46362 284.51065
276.0 0.00362 284.46423 284.50937
308.0 0.003247 284.46472 284.50818
294.0 0.003401 284.46503 284.50693
280.0 0.00357 284.46521 284.50565
313.0 0.003195 284.46521 284.50427
281.0 0.00356 284.46503 284.50287
256.0 0.00391 284.46466 284.50128
293.0 0.003413 284.46408 284.49960
261.0 0.00383 284.46326 284.49792
275.0 0.00364 284.46219 284.49600
258.0 0.00388 284.46091 284.49387
287.0 0.003484 284.45935 284.49164
300.0 0.003333 284.45755 284.48911
327.0 0.003058 284.45544 284.48639
274.0 0.00365 284.45306 284.48343
271.0 0.00369 284.45035 284.48019
283.0 0.00353 284.44736 284.47681
281.0 0.00356 284.44403 284.47308
272.0 0.00368 284.44037 284.46912
295.0 0.003390 284.43634 284.46481
309.0 0.003236 284.43198 284.46027
305.0 0.003279 284.42728 284.45535
288.0 0.003472 284.42218 284.45016
280.0 0.00357 284.41672 284.44458
263.0 0.00380 284.41086 284.43872
275.0 0.00364 284.40460 284.43256
264.0 0.00379 284.39792 284.42603
277.0 0.00361 284.39087 284.43002
310.0 0.003226 284.38336 284.42294
308.0 0.003247 284.37546 284.41565
270.0 0.00370 284.36710 284.40796
290.0 0.003448 284.35831 284.39981
279.0 0.00358 284.34906 284.39139
255.0 0.00392 284.33939 284.38272
309.0 0.003236 284.32922 284.37357
275.0 0.00364 284.31860 284.36417
265.0 0.00377 284.30753 284.35437
268.0 0.00373 284.29596 284.34964
279.0 0.00358 284.28391 284.34402
268.0 0.00373 284.27139 284.33368
277.0 0.00361 284.25836 284.32309
301.0 0.003322 284.24487 284.31259
293.0 0.003413 284.23087 284.30225
290.0 0.003448 284.21634 284.28763
268.0 0.00373 284.20132 284.27777
278.0 0.00360 284.18582 284.27255
257.0 0.00389 284.16977 284.26776
249.0 0.00402 284.15323 284.26620
272.0 0.00368 284.13617 284.26910
266.0 0.00376 284.11859 284.28436
279.0 0.00358 284.10052 284.29788
261.0 0.00383 284.08191 284.31732
298.0 0.003356 284.06277 284.34244
278.0 0.00360 284.04312 284.36969
269.0 0.00372 284.02292 284.40161
271.0 0.00369 284.00223 284.43500
266.0 0.00376 283.98102 284.46652
266.0 0.00376 283.95926 284.49460
283.0 0.00353 283.93701 284.51868
272.0 0.00368 283.91422 284.54153
276.0 0.00362 283.89087 284.56760
336.0 0.002976 283.86703 284.60391
261.0 0.00383 283.84268 284.65790
272.0 0.00368 283.81781 284.73624
287.0 0.003484 283.79242 284.84357
257.0 0.00389 283.76648 284.98096
295.0 0.003390 283.74008 285.14505
276.0 0.00362 283.71313 285.32657
292.0 0.003425 283.68570 285.51163
270.0 0.00370 283.65775 285.68246
301.0 0.003322 283.62930 285.81918
266.0 0.00376 283.60034 285.90253
305.0 0.003279 283.57089 285.91992
320.0 0.003125 283.54092 285.87030
315.0 0.003175 283.51050 285.76566
294.0 0.003401 283.47958 285.62561
290.0 0.003448 283.44818 285.47122
274.0 0.00365 283.41626 285.31918
282.0 0.00355 283.38391 285.17957
285.0 0.00351 283.35107 285.05511
307.0 0.003257 283.31778 284.94208
333.0 0.003003 283.28403 284.83167
322.0 0.003106 283.24982 284.71408
302.0 0.003311 283.21515 284.58249
292.0 0.003425 283.18005 284.43600
312.0 0.003205 283.14447 284.27853
285.0 0.00351 283.10849 284.11667
322.0 0.003106 283.07205 283.95752
296.0 0.003378 283.03522 283.80698
295.0 0.003390 282.99796 283.66977
247.0 0.00405 282.96030 283.54816
308.0 0.003247 282.92221 283.44342
286.0 0.003497 282.88370 283.35507
297.0 0.003367 282.84482 283.28174
301.0 0.003322 282.80554 283.22174
263.0 0.00380 282.76590 283.17343
272.0 0.00368 282.72586 283.13571
290.0 0.003448 282.68546 283.10849
268.0 0.00373 282.64468 283.09280
306.0 0.003268 282.60355 283.09171
297.0 0.003367 282.56207 283.11108
280.0 0.00357 282.52023 283.15994
270.0 0.00370 282.47806 283.25156
275.0 0.00364 282.43555 283.40408
302.0 0.003311 282.39273 283.63983
284.0 0.00352 282.34955 283.98532
278.0 0.00360 282.30609 284.46655
291.0 0.003436 282.26233 285.10693
281.0 0.00356 282.21823 285.92062
271.0 0.00369 282.17389 286.90598
294.0 0.003401 282.12921 288.04211
282.0 0.00355 282.08426 289.28329
313.0 0.003195 282.03903 290.56003
304.0 0.003289 281.99353 291.77905
322.0 0.003106 281.94778 292.83133
288.0 0.003472 281.90176 293.60754
306.0 0.003268 281.85550 294.02399
280.0 0.00357 281.80899 294.05637
330.0 0.003030 281.76224 293.75729
256.0 0.00391 281.71524 293.21655
290.0 0.003448 281.66803 292.55634
288.0 0.003472 281.62061 291.87949
303.0 0.003300 281.57291 291.25854
286.0 0.003497 281.52505 290.73053
292.0 0.003425 281.47696 290.29803
263.0 0.00380 281.42868 289.93478
294.0 0.003401 281.38022 289.61322
284.0 0.00352 281.33151 289.28433
284.0 0.00352 281.28265 288.96555
284.0 0.00352 281.23361 288.67459
313.0 0.003195 281.18439 288.46378
311.0 0.003215 281.13501 288.38782
266.0 0.00376 281.08542 288.48761
286.0 0.003497 281.03568 288.78409
314.0 0.003185 280.98578 289.27289
273.0 0.00366 280.93573 289.92090
283.0 0.00353 280.88550 290.66629
295.0 0.003390 280.83514 291.43173
316.0 0.003165 280.78461 292.11673
321.0 0.003115 280.73395 292.65161
345.0 0.002899 280.68314 292.97433
284.0 0.00352 280.63217 293.06076
281.0 0.00356 280.58109 292.90994
291.0 0.003436 280.52985 292.55038
278.0 0.00360 280.47849 292.03848
321.0 0.003115 280.42697 291.44302
288.0 0.003472 280.37534 290.82422
307.0 0.003257 280.32358 290.21854
285.0 0.00351 280.27170 289.63751
279.0 0.00358 280.21964 289.07257
297.0 0.003367 280.16748 288.50433
319.0 0.003135 280.11517 287.91098
305.0 0.003279 280.06274 287.27298
288.0 0.003472 280.01022 286.57974
279.0 0.00358 279.95752 285.83691
288.0 0.003472 279.90472 285.06601
273.0 0.00366 279.85175 284.29782
312.0 0.003205 279.79868 283.56274
313.0 0.003195 279.74542 282.88544
261.0 0.00383 279.69208 282.28244
296.0 0.003378 279.63858 281.76114
288.0 0.003472 279.58490 281.31982
249.0 0.00402 279.53113 280.95584
245.0 0.00408 279.47717 280.65726
266.0 0.00376 279.42310 280.41241
288.0 0.003472 279.36884 280.21008
272.0 0.00368 279.31445 280.04047
280.0 0.00357 279.25986 279.89569
253.0 0.00395 279.20511 279.76965
280.0 0.00357 279.15021 279.65781
308.0 0.003247 279.09512 279.55685
266.0 0.00376 279.03989 279.46378
252.0 0.00397 278.98441 279.37851
272.0 0.00368 278.92874 279.29965
261.0 0.00383 278.87292 279.22491
290.0 0.003448 278.81686 279.15408
288.0 0.003472 278.76062 279.08646
288.0 0.003472 278.70413 279.02121
291.0 0.003436 278.64743 278.95798
297.0 0.003367 278.59052 278.89651
287.0 0.003484 278.53336 278.83627
280.0 0.00357 278.47595 278.77744
315.0 0.003175 278.41827 278.71985
269.0 0.00372 278.36032 278.66351
278.0 0.00360 278.30215 278.60880
290.0 0.003448 278.24368 278.55563
299.0 0.003344 278.18494 278.50427
258.0 0.00388 278.12589 278.45505
293.0 0.003413 278.06650 278.40820
249.0 0.00402 278.00684 278.36377
299.0 0.003344 277.94684 278.32169
303.0 0.003300 277.88654 278.28195
295.0 0.003390 277.82587 278.24374
276.0 0.00362 277.76486 278.20663
259.0 0.00386 277.70349 278.16956
282.0 0.00355 277.64172 278.13162
284.0 0.00352 277.57959 278.09189
287.0 0.003484 277.51706 278.04987
282.0 0.00355 277.45413 278.00552
309.0 0.003236 277.39081 277.95963
273.0 0.00366 277.32700 277.91385
277.0 0.00361 277.26282 277.86996
301.0 0.003322 277.19815 277.82983
271.0 0.00369 277.13303 277.79596
255.0 0.00392 277.06744 277.77084
252.0 0.00397 277.00137 277.75137
297.0 0.003367 276.93481 277.75699
247.0 0.00405 276.86774 277.78766
251.0 0.00398 276.80014 277.85342
269.0 0.00372 276.73203 277.96753
285.0 0.00351 276.66336 278.14679
261.0 0.00383 276.59415 278.41010
286.0 0.003497 276.52435 278.77814
292.0 0.003425 276.45398 279.27094
303.0 0.003300 276.38303 279.90555
259.0 0.00386 276.31149 280.69574
291.0 0.003436 276.23932 281.64319
316.0 0.003165 276.16650 282.76297
300.0 0.003333 276.09308 284.04050
276.0 0.00362 276.01898 285.46539
259.0 0.00386 275.94424 287.02026
292.0 0.003425 275.86884 288.68265
293.0 0.003413 275.79272 290.43610
294.0 0.003401 275.71591 292.27478
282.0 0.00355 275.63843 294.20050
292.0 0.003425 275.56018 296.20612
324.0 0.003086 275.48120 298.25052
293.0 0.003413 275.40152 300.24619
307.0 0.003257 275.32101 302.05740
299.0 0.003344 275.23981 303.51855
292.0 0.003425 275.15781 304.47018
303.0 0.003300 275.07501 304.79922
323.0 0.003096 274.99142 304.47400
295.0 0.003390 274.90704 303.55249
303.0 0.003300 274.82181 302.17099
295.0 0.003390 274.73578 300.50690
302.0 0.003311 274.64893 298.73749
292.0 0.003425 274.56119 296.99969
267.0 0.00375 274.47260 295.37296
271.0 0.00369 274.38318 293.87473
262.0 0.00382 274.29285 292.46982
291.0 0.003436 274.20166 291.09546
309.0 0.003236 274.10956 289.68753
301.0 0.003322 274.01657 288.20566
286.0 0.003497 273.92273 286.64301
283.0 0.00353 273.82791 285.02469
292.0 0.003425 273.73221 283.39355
267.0 0.00375 273.63556 281.81259
275.0 0.00364 273.53799 280.32712
295.0 0.003390 273.43951 278.97681
245.0 0.00408 273.34006 277.78616
274.0 0.00365 273.23969 276.76654
293.0 0.003413 273.13837 275.92194
264.0 0.00379 273.03604 275.22452
257.0 0.00389 272.93283 274.66501
266.0 0.00376 272.82861 274.21811
304.0 0.003289 272.72348 273.86035
281.0 0.00356 272.61731 273.56561
256.0 0.00391 272.51022 273.32587
295.0 0.003390 272.40216 273.12186
274.0 0.00365 272.29312 272.94296
265.0 0.00377 272.18314 272.78183
280.0 0.00357 272.07214 272.63364
261.0 0.00383 271.96021 272.49930
265.0 0.00377 271.84732 272.37109
272.0 0.00368 271.73343 272.25189
224.0 0.00446 271.61862 272.14200
255.0 0.00392 271.50281 272.04172
273.0 0.00366 271.38605 271.95163
252.0 0.00397 271.26837 271.87115
289.0 0.003460 271.14972 271.79922
280.0 0.00357 271.03015 271.73361
264.0 0.00379 270.90961 271.67111
276.0 0.00362 270.78815 271.60742
281.0 0.00356 270.66574 271.53726
292.0 0.003425 270.54242 271.45541
268.0 0.00373 270.41833 271.35727
315.0 0.003175 270.29312 271.24002
233.0 0.00429 270.16718 271.10376
222.0 0.00450 270.04022 270.95200
236.0 0.00424 269.91245 270.78998
274.0 0.00365 269.78394 270.62350
282.0 0.00355 269.65442 270.45633
244.0 0.00410 269.52414 270.29230
277.0 0.00361 269.39294 270.13223
278.0 0.00360 269.26099 269.97595
279.0 0.00358 269.12836 269.82205
301.0 0.003322 268.99478 269.66806
252.0 0.00397 268.86050 269.51230
260.0 0.00385 268.72540 269.35352
272.0 0.00368 268.58960 269.19305
294.0 0.003401 268.45322 269.03384
286.0 0.003497 268.31595 268.87952
286.0 0.003497 268.17807 268.73532
271.0 0.00369 268.03946 268.60748
298.0 0.003356 267.90024 268.50330
264.0 0.00379 267.76053 268.43143
269.0 0.00372 267.62003 268.40073
259.0 0.00386 267.47903 268.42078
245.0 0.00408 267.33740 268.50031
284.0 0.00352 267.19522 268.64542
268.0 0.00373 267.05273 268.85809
257.0 0.00389 266.90948 269.13596
251.0 0.00398 266.76590 269.46793
266.0 0.00376 266.62177 269.83649
302.0 0.003311 266.47726 270.21490
275.0 0.00364 266.33249 270.56995
266.0 0.00376 266.18713 270.86432
289.0 0.003460 266.04153 271.05838
325.0 0.003077 265.89554 271.12149
279.0 0.00358 265.74927 271.03992
287.0 0.003484 265.60287 270.82373
287.0 0.003484 265.45605 270.50238
299.0 0.003344 265.30911 270.11618
309.0 0.003236 265.16190 269.70319
276.0 0.00362 265.01456 269.29453
272.0 0.00368 264.86725 268.90976
266.0 0.00376 264.71964 268.55518
267.0 0.00375 264.57208 268.22653
288.0 0.003472 264.42432 267.90881
300.0 0.003333 264.27667 267.58411
304.0 0.003289 264.12912 267.23566
259.0 0.00386 263.98148 266.85498
269.0 0.00372 263.83405 266.44458
274.0 0.00365 263.68652 266.01331
289.0 0.003460 263.53928 265.57474
251.0 0.00398 263.39227 265.13672
276.0 0.00362 263.24536 264.72098
259.0 0.00386 263.09882 264.33200
267.0 0.00375 262.95236 263.97498
250.0 0.00400 262.80627 263.65311
251.0 0.00398 262.66064 263.36658
267.0 0.00375 262.51523 263.11273
262.0 0.00382 262.37033 262.88852
250.0 0.00400 262.22574 262.67941
264.0 0.00379 262.08163 262.50201
292.0 0.003425 261.93817 262.33545
278.0 0.00360 261.79498 262.19086
244.0 0.00410 261.65256 262.06665
263.0 0.00380 261.51059 261.96204
284.0 0.00352 261.36923 261.88242
281.0 0.00356 261.22873 261.83548
263.0 0.00380 261.08862 261.83148
283.0 0.00353 260.94940 261.88351
237.0 0.00422 260.81082 262.00589
275.0 0.00364 260.67300 262.20804
240.0 0.00417 260.53616 262.51205
253.0 0.00395 260.39996 262.91736
262.0 0.00382 260.26468 263.43100
262.0 0.00382 260.13022 264.04004
277.0 0.00361 259.99667 264.72189
245.0 0.00408 259.86423 265.44196
269.0 0.00372 259.73254 266.15543
262.0 0.00382 259.60193 266.80450
280.0 0.00357 259.47226 267.32889
277.0 0.00361 259.34369 267.67026
242.0 0.00413 259.21628 267.79480
273.0 0.00366 259.08978 267.68555
273.0 0.00366 258.96448 267.37680
263.0 0.00380 258.84021 266.92291
217.0 0.00461 258.71713 266.38828
295.0 0.003390 258.59537 265.83105
270.0 0.00370 258.47464 265.29312
276.0 0.00362 258.35516 264.80096
268.0 0.00373 258.23685 264.35934
288.0 0.003472 258.11981 263.95737
286.0 0.003497 258.00415 263.57034
244.0 0.00410 257.88962 263.16840
228.0 0.00439 257.77646 262.73145
299.0 0.003344 257.66449 262.24426
274.0 0.00365 257.55389 261.71597
267.0 0.00375 257.44473 261.16339
268.0 0.00373 257.33676 260.60599
248.0 0.00403 257.23019 260.06494
260.0 0.00385 257.12491 259.55621
270.0 0.00370 257.02103 259.09277
254.0 0.00394 256.91861 258.68152
224.0 0.00446 256.81741 258.32318
244.0 0.00410 256.71765 258.01553
259.0 0.00386 256.61920 257.75162
254.0 0.00394 256.52219 257.52338
270.0 0.00370 256.42657 257.32193
225.0 0.00444 256.33224 257.14078
268.0 0.00373 256.23938 256.97501
266.0 0.00376 256.14774 256.82089
272.0 0.00368 256.05756 256.67719
266.0 0.00376 255.96878 256.54257
263.0 0.00380 255.88123 256.41595
236.0 0.00424 255.79510 256.29663
226.0 0.00442 255.71022 256.18307
236.0 0.00424 255.62668 256.07401
254.0 0.00394 255.54449 255.96777
243.0 0.00412 255.46349 255.86226
263.0 0.00380 255.38385 255.75716
275.0 0.00364 255.30539 255.65158
268.0 0.00373 255.22818 255.54591
213.0 0.00469 255.15224 255.44093
259.0 0.00386 255.07741 255.33736
258.0 0.00388 255.00381 255.23634
284.0 0.00352 254.93132 255.13837
238.0 0.00420 254.85995 255.04417
253.0 0.00395 254.78975 254.95401
248.0 0.00403 254.72049 254.86772
236.0 0.00424 254.65237 254.78560
263.0 0.00380 254.58519 254.70700
262.0 0.00382 254.51900 254.63184
250.0 0.00400 254.45383 254.55960
239.0 0.00418 254.38950 254.48985
269.0 0.00372 254.32607 254.42224
253.0 0.00395 254.26343 254.35641
246.0 0.00407 254.20161 254.29218
272.0 0.00368 254.14064 254.22929
235.0 0.00426 254.08031 254.16754
222.0 0.00450 254.02071 254.10295
252.0 0.00397 253.96170 254.04324
259.0 0.00386 253.90332 253.98444
230.0 0.00435 253.84557 253.92648
276.0 0.00362 253.78825 253.86917
237.0 0.00422 253.73145 253.81259
230.0 0.00435 253.67503 253.75661
240.0 0.00417 253.61902 253.70126
294.0 0.003401 253.56340 253.64655
258.0 0.00388 253.50800 253.59225
257.0 0.00389 253.45287 253.53850
283.0 0.00353 253.39789 253.48514
244.0 0.00410 253.34308 253.43030
269.0 0.00372 253.28844 253.37785
233.0 0.00429 253.23373 253.32567
280.0 0.00357 253.17908 253.27391
249.0 0.00402 253.12434 253.22238
272.0 0.00368 253.06950 253.17126
245.0 0.00408 253.01459 253.12044
245.0 0.00408 252.95938 253.06985
271.0 0.00369 252.90395 253.01971
270.0 0.00370 252.84819 252.96989
248.0 0.00403 252.79208 252.92062
266.0 0.00376 252.73566 252.87219
254.0 0.00394 252.67867 252.82455
254.0 0.00394 252.62123 252.77858
241.0 0.00415 252.56322 252.73499
248.0 0.00403 252.50461 252.69508
254.0 0.00394 252.44543 252.66086
250.0 0.00400 252.38548 252.63918
280.0 0.00357 252.32486 252.62624
254.0 0.00394 252.26338 252.63127
253.0 0.00395 252.20114 252.66122
246.0 0.00407 252.13806 252.72426
243.0 0.00412 252.07401 252.82983
279.0 0.00358 252.00909 252.98729
266.0 0.00376 251.94308 253.20551
265.0 0.00377 251.87614 253.49068
241.0 0.00415 251.80817 253.84467
275.0 0.00364 251.73904 254.26509
260.0 0.00385 251.66885 254.74255
247.0 0.00405 251.59744 255.25658
268.0 0.00373 251.52490 255.78467
237.0 0.00422 251.45120 256.28998
251.0 0.00398 251.37621 256.73773
252.0 0.00397 251.30003 257.08737
263.0 0.00380 251.22250 257.30505
257.0 0.00389 251.14375 257.36316
261.0 0.00383 251.06377 257.27618
249.0 0.00402 250.98235 257.05954
256.0 0.00391 250.89970 256.75040
280.0 0.00357 250.81566 256.38895
267.0 0.00375 250.73033 256.01190
231.0 0.00433 250.64375 255.64728
258.0 0.00388 250.55573 255.30785
241.0 0.00415 250.46648 254.99873
291.0 0.003436 250.37582 254.71167
287.0 0.003484 250.28394 254.43121
232.0 0.00431 250.19086 254.13472
266.0 0.00376 250.09637 253.81178
247.0 0.00405 250.00072 253.45128
254.0 0.00394 249.90379 253.05424
263.0 0.00380 249.80571 252.63046
261.0 0.00383 249.70660 252.19350
243.0 0.00412 249.60623 251.75627
239.0 0.00418 249.50485 251.33229
234.0 0.00427 249.40239 250.93111
265.0 0.00377 249.29898 250.56023
250.0 0.00400 249.19476 250.22394
245.0 0.00408 249.08952 249.92258
254.0 0.00394 248.98355 249.65549
247.0 0.00405 248.87677 249.41924
236.0 0.00424 248.76933 249.20966
249.0 0.00402 248.66142 249.02315
277.0 0.00361 248.55283 248.85434
265.0 0.00377 248.44388 248.70245
233.0 0.00429 248.33449 248.55849
252.0 0.00397 248.22485 248.42253
236.0 0.00424 248.11517 248.29268
291.0 0.003436 248.00523 248.16714
282.0 0.00355 247.89542 248.04507
262.0 0.00382 247.78563 247.92570
247.0 0.00405 247.67613 247.80852
264.0 0.00379 247.56706 247.69333
254.0 0.00394 247.45833 247.57993
253.0 0.00395 247.35023 247.46841
228.0 0.00439 247.24277 247.35870
222.0 0.00450 247.13617 247.25235
221.0 0.00452 247.03064 247.14687
238.0 0.00420 246.92607 247.04349
219.0 0.00457 246.82278 246.94275
265.0 0.00377 246.72079 246.84450
226.0 0.00442 246.62039 246.74910
225.0 0.00444 246.52167 246.65784
226.0 0.00442 246.42467 246.56798
267.0 0.00375 246.32970 246.48080
265.0 0.00377 246.23671 246.39940
258.0 0.00388 246.14607 246.31685
236.0 0.00424 246.05786 246.23618
258.0 0.00388 245.97217 246.15688
249.0 0.00402 245.88927 246.07896
250.0 0.00400 245.80917 246.00217
233.0 0.00429 245.73215 245.92700
256.0 0.00391 245.65839 245.85393
270.0 0.00370 245.58794 245.78349
253.0 0.00395 245.52107 245.71651
249.0 0.00402 245.45786 245.65363
248.0 0.00403 245.39848 245.59544
227.0 0.00441 245.34317 245.54242
245.0 0.00408 245.29199 245.49484
250.0 0.00400 245.24518 245.45320
242.0 0.00413 245.20280 245.41772
237.0 0.00422 245.16507 245.38904
235.0 0.00426 245.13217 245.36806
263.0 0.00380 245.10413 245.35623
221.0 0.00452 245.08119 245.35571
260.0 0.00385 245.06345 245.36958
240.0 0.00417 245.05106 245.40195
266.0 0.00376 245.04413 245.45750
236.0 0.00424 245.04280 245.54254
267.0 0.00375 245.04716 245.66333
261.0 0.00383 245.05739 245.82716
240.0 0.00417 245.07353 246.04016
251.0 0.00398 245.09567 246.30733
265.0 0.00377 245.12396 246.63222
258.0 0.00388 245.15842 247.01372
232.0 0.00431 245.19917 247.44783
269.0 0.00372 245.24626 247.92487
243.0 0.00412 245.29967 248.43047
264.0 0.00379 245.35959 248.94725
225.0 0.00444 245.42592 249.45183
260.0 0.00385 245.49878 249.92059
219.0 0.00457 245.57811 250.32957
237.0 0.00422 245.66385 250.66098
248.0 0.00403 245.75616 250.90924
235.0 0.00426 245.85486 251.08125
240.0 0.00417 245.96002 251.19640
286.0 0.003497 246.07149 251.27887
245.0 0.00408 246.18909 251.35146
246.0 0.00407 246.31305 251.43130
279.0 0.00358 246.44296 251.52641
246.0 0.00407 246.57893 251.63600
240.0 0.00417 246.72066 251.75035
247.0 0.00405 246.86787 251.85332
271.0 0.00369 247.02078 251.92667
262.0 0.00382 247.17886 251.95462
244.0 0.00410 247.34213 251.92937
279.0 0.00358 247.51018 251.85333
230.0 0.00435 247.68263 251.73767
261.0 0.00383 247.85966 251.59850
221.0 0.00452 248.04059 251.45345
263.0 0.00380 248.22536 251.31241
242.0 0.00413 248.41345 251.19748
234.0 0.00427 248.60440 251.11055
249.0 0.00402 248.79828 251.05392
238.0 0.00420 248.99422 251.02643
256.0 0.00391 249.19231 251.02405
261.0 0.00383 249.39160 251.04184
231.0 0.00433 249.59183 251.07631
251.0 0.00398 249.79274 251.12546
222.0 0.00450 249.99345 251.18918
273.0 0.00366 250.19395 251.26891
259.0 0.00386 250.39319 251.36671
274.0 0.00365 250.59077 251.48325
255.0 0.00392 250.78641 251.62662
268.0 0.00373 250.97908 251.79782
272.0 0.00368 251.16862 252.00060
261.0 0.00383 251.35413 252.23753
275.0 0.00364 251.53490 252.51031
244.0 0.00410 251.71060 252.81972
236.0 0.00424 251.88023 253.16321
246.0 0.00407 252.04347 253.53697
247.0 0.00405 252.19942 253.93324
237.0 0.00422 252.34726 254.34181
245.0 0.00408 252.48672 254.74969
273.0 0.00366 252.61671 255.14056
259.0 0.00386 252.73682 255.49777
252.0 0.00397 252.84619 255.80295
275.0 0.00364 252.94408 256.04074
275.0 0.00364 253.03008 256.20218
256.0 0.00391 253.10324 256.28601
264.0 0.00379 253.16309 256.30130
254.0 0.00394 253.20891 256.26398
260.0 0.00385 253.24008 256.19266
225.0 0.00444 253.25609 256.10626
273.0 0.00366 253.25632 256.02124
282.0 0.00355 253.24023 255.95042
263.0 0.00380 253.20740 255.90181
260.0 0.00385 253.15741 255.87943
259.0 0.00386 253.08975 255.88269
261.0 0.00383 253.00424 255.90715
259.0 0.00386 252.90047 255.94586
231.0 0.00433 252.77835 255.99103
244.0 0.00410 252.63789 256.03531
277.0 0.00361 252.47874 256.07153
255.0 0.00392 252.30124 256.09180
250.0 0.00400 252.10532 256.08566
268.0 0.00373 251.89145 256.04059
250.0 0.00400 251.66025 255.94168
250.0 0.00400 251.41162 255.77336
244.0 0.00410 251.14677 255.52391
267.0 0.00375 250.86617 255.18839
254.0 0.00394 250.57104 254.77235
249.0 0.00402 250.26286 254.29106
267.0 0.00375 249.94215 253.76357
275.0 0.00364 249.61121 253.21236
234.0 0.00427 249.27130 252.65556
273.0 0.00366 248.92477 252.10828
249.0 0.00402 248.57422 251.58006
230.0 0.00435 248.22122 251.07346
273.0 0.00366 247.86938 250.58846
241.0 0.00415 247.52133 250.11900
222.0 0.00450 247.18085 249.65836
274.0 0.00365 246.85190 249.20010
254.0 0.00394 246.53786 248.73999
259.0 0.00386 246.24390 248.28101
244.0 0.00410 245.97456 247.82979
246.0 0.00407 245.73557 247.39767
220.0 0.00455 245.53258 246.99731
227.0 0.00441 245.37166 246.64130
235.0 0.00426 245.25993 246.34348
275.0 0.00364 245.20450 246.11562
240.0 0.00417 245.21342 245.96976
261.0 0.00383 245.29507 245.91643
241.0 0.00415 245.45880 245.96541
240.0 0.00417 245.71402 246.12584
251.0 0.00398 246.07176 246.40704
264.0 0.00379 246.54292 246.81776
246.0 . . .
loop_
_refln_index_h
_refln_index_k
_refln_index_l
_pd_refln_wavelength_id
_refln_observed_status
_refln_F_squared_meas
_refln_F_squared_calc
_refln_phase_calc
_refln_d_spacing
_gsas_i100_meas
0 0 1 1 o 410.392 420.007 0.00 7.40789 32.97
0 0 1 2 o 403.641 420.007 0.00 7.40789 16.15
1 0 1 1 o 162.504 160.757 180.00 4.78447 30.41
1 0 1 2 o 164.045 160.757 180.00 4.78447 15.27
1 1 0 1 o 97.170 84.712 180.00 4.43135 7.25
1 1 0 2 o 94.064 84.712 180.00 4.43135 3.48
1 1 1 1 o 923.627 916.151 0.00 3.80288 100.00
1 1 1 2 o 939.595 916.151 0.00 3.80288 50.56
0 0 2 1 o 687.289 603.798 0.00 3.70395 12.84
0 0 2 2 o 614.562 603.798 0.00 3.70395 5.74
1 0 2 1 o 61.140 60.118 180.00 3.18865 3.91
1 0 2 2 o 69.457 60.118 180.00 3.18865 2.21
2 0 0 1 o 2349.739 2250.871 180.00 3.13344 59.50
2 0 0 2 o 2264.359 2250.871 180.00 3.13344 28.55
2 0 1 1 o 274.771 257.265 180.00 2.88589 19.80
2 0 1 2 o 246.833 257.265 180.00 2.88589 8.91
1 1 2 1 o 363.263 349.772 0.00 2.84193 17.59
1 1 2 2 o 366.694 349.772 0.00 2.84193 8.82
2 1 1 1 o 23.894 35.742 0.00 2.62130 2.37
2 1 1 2 o 21.406 35.742 0.00 2.62130 1.06
0 0 3 1 o 695.303 382.723 0.00 2.46930 5.26
0 0 3 2 o 610.220 382.723 0.00 2.46930 2.30
2 0 2 1 o 241.785 260.636 180.00 2.39224 10.74
2 0 2 2 o 220.086 260.636 180.00 2.39224 4.89
1 0 3 1 o 24.850 11.041 180.00 2.29739 0.73
1 0 3 2 o 25.837 11.041 180.00 2.29739 0.38
2 1 2 2 o 53.841 53.310 0.00 2.23494 1.71
2 1 2 1 o 58.073 53.310 0.00 2.23494 3.71
2 2 0 1 o 792.333 850.948 0.00 2.21567 14.69
2 2 0 2 o 736.872 850.948 0.00 2.21567 6.81
1 1 3 1 o 96.148 124.405 0.00 2.15701 2.67
1 1 3 2 o 90.442 124.405 0.00 2.15701 1.26
2 2 1 1 o 231.286 162.186 0.00 2.12276 7.85
2 2 1 2 o 211.473 162.186 0.00 2.12276 3.59
3 0 1 1 o -0.161 9.655 0.00 2.01055 0.00
3 0 1 2 o -0.161 9.655 0.00 2.01055 0.00
3 1 0 1 o 15.167 0.136 0.00 1.98176 0.28
3 1 0 2 o 13.854 0.136 0.00 1.98176 0.13
2 0 3 1 o 224.577 176.463 180.00 1.93945 5.09
2 0 3 2 o 228.443 176.463 180.00 1.93945 2.57
3 1 1 1 o 124.810 127.256 180.00 1.91444 5.73
3 1 1 2 o 112.486 127.256 180.00 1.91444 2.59
2 2 2 1 o 145.822 125.744 0.00 1.90144 3.40
2 2 2 2 o 148.539 125.744 0.00 1.90144 1.72
2 1 3 1 o -0.075 3.195 0.00 1.85276 0.00
0 0 4 1 o -2.932 13.463 0.00 1.85197 0.00
2 1 3 2 o 0.036 3.195 0.00 1.85276 0.00
0 0 4 2 o 2.390 13.463 0.00 1.85197 0.01
3 0 2 1 o 12.816 38.389 0.00 1.81953 0.32
3 0 2 2 o 21.681 38.389 0.00 1.81953 0.27
1 0 4 1 o 3.978 3.152 180.00 1.77604 0.06
1 0 4 2 o 4.238 3.152 180.00 1.77604 0.03
3 1 2 1 o 109.786 82.041 180.00 1.74737 4.63
3 1 2 2 o 106.626 82.041 180.00 1.74737 2.24
1 1 4 1 o 221.226 220.441 0.00 1.70875 3.33
1 1 4 2 o 197.662 220.441 0.00 1.70875 1.49
3 2 1 1 o 5.188 1.218 180.00 1.69216 0.18
3 2 1 2 o 4.147 1.218 180.00 1.69216 0.07
2 2 3 1 o 78.636 88.420 0.00 1.64912 1.14
2 2 3 2 o 84.530 88.420 0.00 1.64912 0.60
3 0 3 1 o 0.959 1.207 0.00 1.59482 0.02
2 0 4 1 o 4.690 5.424 180.00 1.59432 0.08
3 0 3 2 o 0.265 1.207 0.00 1.59482 0.00
2 0 4 2 o -0.447 5.424 180.00 1.59432 0.01
3 2 2 1 o 4.723 32.797 180.00 1.57348 0.16
3 2 2 2 o 18.964 32.797 180.00 1.57348 0.29
4 0 0 1 o 195.420 204.582 0.00 1.56672 1.01
4 0 0 2 o 194.762 204.582 0.00 1.56672 0.50
3 1 3 1 o 68.672 37.064 180.00 1.54556 1.96
2 1 4 1 o 5.054 2.818 0.00 1.54511 0.12
3 1 3 2 o 64.041 37.064 180.00 1.54556 0.91
2 1 4 2 o 4.714 2.818 0.00 1.54511 0.05
4 0 1 1 o 111.591 52.543 0.00 1.53281 1.37
4 0 1 2 o 114.461 52.543 0.00 1.53281 0.70
4 1 1 1 o -0.015 0.455 180.00 1.48892 0.00
4 1 1 2 o -0.015 0.455 180.00 1.48892 0.00
0 0 5 1 o -2.201 17.155 0.00 1.48158 0.00
0 0 5 2 o 67.095 17.155 0.00 1.48158 0.07
3 3 0 1 o 13.078 2.747 0.00 1.47712 0.09
3 3 0 2 o 7.985 2.747 0.00 1.47712 0.03
3 3 1 1 o 10.399 21.851 0.00 1.44860 0.16
3 3 1 2 o 10.154 21.851 0.00 1.44860 0.08
4 0 2 1 o 34.054 38.298 0.00 1.44294 0.49
1 0 5 1 o 8.312 8.675 180.00 1.44183 0.07
4 0 2 2 o 36.632 38.298 0.00 1.44294 0.26
1 0 5 2 o 5.669 8.675 180.00 1.44183 0.03
3 2 3 1 o 0.178 0.208 180.00 1.42132 0.00
2 2 4 1 o 2.066 2.032 0.00 1.42096 0.03
3 2 3 2 o 0.734 0.208 180.00 1.42132 0.01
2 2 4 2 o 8.882 2.032 0.00 1.42096 0.04
4 1 2 1 o 12.901 20.430 180.00 1.40615 0.31
1 1 5 1 o 44.114 54.017 0.00 1.40512 0.42
4 1 2 2 o 25.129 20.430 180.00 1.40615 0.29
1 1 5 2 o 77.908 54.017 0.00 1.40512 0.35
4 2 0 1 o 138.599 93.075 180.00 1.40131 1.30
4 2 0 2 o 142.624 93.075 180.00 1.40131 0.66
3 0 4 1 o 2.505 1.993 0.00 1.38579 0.03
3 0 4 2 o 6.735 1.993 0.00 1.38579 0.03
4 2 1 1 o 71.076 38.080 180.00 1.37690 1.40
4 2 1 2 o 59.557 38.080 180.00 1.37690 0.59
3 3 2 1 o 38.280 24.736 0.00 1.37204 0.44
3 3 2 2 o 32.993 24.736 0.00 1.37204 0.19
3 1 4 1 o 49.048 75.603 180.00 1.35310 0.96
3 1 4 2 o 27.656 75.603 180.00 1.35310 0.29
2 0 5 1 o -1.321 9.851 180.00 1.33940 0.00
2 0 5 2 o 18.335 9.851 180.00 1.33940 0.08
4 0 3 1 o 27.592 26.102 0.00 1.32291 0.33
4 0 3 2 o 18.032 26.102 0.00 1.32291 0.11
4 2 2 1 o 41.601 21.417 180.00 1.31065 0.82
2 1 5 1 o 5.627 3.058 0.00 1.30982 0.09
4 2 2 2 o 43.850 21.417 180.00 1.31065 0.43
2 1 5 2 o 6.460 3.058 0.00 1.30982 0.05
4 1 3 1 o -0.009 0.177 180.00 1.29438 0.00
4 1 3 2 o -0.009 0.177 180.00 1.29438 0.00
3 3 3 1 o 30.805 12.845 0.00 1.26763 0.27
3 2 4 1 o 3.709 1.788 180.00 1.26737 0.05
3 3 3 2 o 20.814 12.845 0.00 1.26763 0.09
3 2 4 2 o 2.547 1.788 180.00 1.26737 0.02
4 3 1 1 o -0.002 0.374 180.00 1.23581 0.00
5 0 1 1 o -0.003 0.047 180.00 1.23581 0.00
0 0 6 1 o -0.423 1.360 0.00 1.23465 0.00
5 0 1 2 o -0.003 0.047 180.00 1.23581 0.00
4 3 1 2 o -0.002 0.374 180.00 1.23581 0.00
0 0 6 2 o 3.251 1.360 0.00 1.23465 0.00
2 2 5 1 o 13.079 5.784 0.00 1.23160 0.09
5 1 0 1 o 2.617 0.102 0.00 1.22903 0.02
2 2 5 2 o 72.032 5.784 0.00 1.23160 0.24
5 1 0 2 o 2.146 0.102 0.00 1.22903 0.01
4 2 3 1 o 17.574 14.488 180.00 1.21874 0.30
4 2 3 2 o 13.629 14.488 180.00 1.21874 0.12
1 0 6 1 o 39.151 24.606 0.00 1.21136 0.23
5 1 1 2 o 14.433 8.590 0.00 1.21246 0.10
3 0 5 1 o 1.811 1.249 0.00 1.20849 0.01
1 0 6 2 o 34.555 24.606 0.00 1.21136 0.10
5 1 1 1 o 14.576 8.590 0.00 1.21246 0.20
3 0 5 2 o -0.020 1.249 0.00 1.20849 0.00
4 0 4 1 o 2.784 0.170 0.00 1.19612 0.02
4 0 4 2 o -0.178 0.170 0.00 1.19612 0.00
1 1 6 1 o 30.332 26.829 0.00 1.18935 0.19
5 0 2 1 o 8.406 8.915 180.00 1.18724 0.07
4 3 2 1 o 13.710 14.540 0.00 1.18724 0.22
3 1 5 1 o 15.156 17.374 180.00 1.18662 0.21
1 1 6 2 o 22.962 26.829 0.00 1.18935 0.07
5 0 2 2 o 6.268 8.915 180.00 1.18724 0.03
4 3 2 2 o 10.226 14.540 0.00 1.18724 0.08
3 1 5 2 o 11.373 17.374 180.00 1.18662 0.08
4 1 4 1 o -0.025 0.985 180.00 1.17491 0.00
4 1 4 2 o 6.903 0.985 180.00 1.17491 0.05
5 1 2 1 o 27.967 7.115 0.00 1.16649 0.43
5 1 2 2 o 29.419 7.115 0.00 1.16649 0.22
3 3 4 1 o 29.063 29.798 0.00 1.15479 0.19
3 3 4 2 o 31.841 29.798 0.00 1.15479 0.10
5 2 1 1 o 0.001 0.109 180.00 1.14963 0.00
2 0 6 1 o -0.313 1.262 180.00 1.14869 0.00
5 2 1 2 o 0.001 0.109 180.00 1.14963 0.00
2 0 6 2 o -0.313 1.262 180.00 1.14869 0.00
2 1 6 1 o 27.222 12.618 180.00 1.12987 0.31
3 2 5 1 o 0.559 0.264 180.00 1.12753 0.01
2 1 6 2 o 26.722 12.618 180.00 1.12987 0.15
3 2 5 2 o 2.389 0.264 180.00 1.12753 0.01
4 3 3 1 o 0.018 0.004 180.00 1.11764 0.00
5 0 3 1 o 0.590 0.115 180.00 1.11764 0.00
4 2 4 1 o 0.458 0.009 180.00 1.11747 0.01
4 3 3 2 o 0.005 0.004 180.00 1.11764 0.00
5 0 3 2 o 0.135 0.115 180.00 1.11764 0.00
4 2 4 2 o 0.010 0.009 180.00 1.11747 0.00
5 2 2 1 o 11.105 8.419 0.00 1.11022 0.15
4 4 0 1 o 11.442 11.603 0.00 1.10784 0.05
5 2 2 2 o 7.070 8.419 0.00 1.11022 0.05
4 4 0 2 o 21.654 11.603 0.00 1.10784 0.04
5 1 3 1 o 9.621 4.456 0.00 1.10028 0.15
5 1 3 2 o 7.068 4.456 0.00 1.10028 0.06
4 4 1 2 o 12.474 12.179 0.00 1.09565 0.05
4 4 1 1 o 16.368 12.179 0.00 1.09565 0.13
