#------------------------------------------------------------------------------
#$Date: 2016-02-14 16:26:36 +0200 (Sun, 14 Feb 2016) $
#$Revision: 176435 $
#$URL: svn://www.crystallography.net/cod/cif/1/51/62/1516209.cif $
#------------------------------------------------------------------------------
#
# This file is available in the Crystallography Open Database (COD),
# http://www.crystallography.net/
#
# All data on this site have been placed in the public domain by the
# contributors.
#
data_1516209
loop_
_publ_author_name
'Migliorati, Valentina'
'Ballirano, Paolo'
'Gontrani, Lorenzo'
'Russina, Olga'
'Caminiti, Ruggero'
_publ_section_title
;
 Crystal polymorphism of propylammonium chloride and structural properties
 of its mixture with water.
;
_journal_issue                   41
_journal_name_full               'The journal of physical chemistry. B'
_journal_page_first              11805
_journal_page_last               11815
_journal_paper_doi               10.1021/jp206831d
_journal_volume                  115
_journal_year                    2011
_chemical_formula_sum            'C3 Cl N'
_chemical_formula_weight         85.49
_chemical_name_systematic        ' ?'
_space_group_IT_number           129
_symmetry_cell_setting           tetragonal
_symmetry_space_group_name_Hall  '-P 4a 2a'
_symmetry_space_group_name_H-M   'P 4/n m m :2'
_audit_creation_date             2011-07-21T08:58
_audit_creation_method           'from EXP file using GSAS2CIF'
_audit_update_record
' 2011-07-21T08:58  Initial CIF as created by GSAS2CIF'
_cell_angle_alpha                90.0
_cell_angle_beta                 90.0
_cell_angle_gamma                90.0
_cell_formula_units_Z            2
_cell_length_a                   6.28727(7)
_cell_length_b                   6.28727
_cell_length_c                   7.43434(18)
_cell_volume                     293.878(8)
_computing_structure_refinement  GSAS
_diffrn_radiation_probe          x-ray
_exptl_absorpt_correction_T_max  0.81790
_exptl_absorpt_correction_T_min  0.81483
_exptl_absorpt_process_details
;   GSAS Absorption/surface roughness correction: function number 0
 Debye-Scherrer absorption correction
Term (= MU.r/wave) =     0.78580E-01
Correction is not refined.
;
_pd_block_id
2011-07-21T08:58|120|paolo|Bruker_AXS_D8_Advance
_pd_calc_method                  'Rietveld Refinement'
_pd_instr_location               ' ?'
_pd_meas_2theta_range_inc        0.022
_pd_meas_2theta_range_max        89.988
_pd_meas_2theta_range_min        3.0
_pd_meas_number_of_points        3955
_pd_phase_name                   'Propylammonium chloride'
_pd_proc_2theta_range_inc        0.022
_pd_proc_2theta_range_max        89.988
_pd_proc_2theta_range_min        3.0
_pd_proc_info_datetime           2011-07-21T08:58:59
_pd_proc_info_excluded_regions   ' ?'
_pd_proc_ls_background_function
;   GSAS Background function number 1 with 30 terms.
 Shifted Chebyshev function of 1st kind
      1:    524.408     2:   -326.556     3:    20.8540     4:    87.8057    
      5:   -78.8878     6:    1.07115     7:    70.4685     8:   -78.0542    
      9:    36.0532    10:    9.70185    11:   -30.1845    12:    24.5827    
     13:   -7.29604    14:   -8.78558    15:    3.04261    16:   0.995416    
     17:   -1.56683    18:   -1.27480    19:    1.88908    20:   0.489805    
     21:   -3.58321    22:    2.70230    23:  -0.189838    24:   -1.64840    
     25:    3.62059    26:   -2.15451    27:   -2.58148    28:    3.29694    
     29:   -2.95235    30:   0.710905    
;
_pd_proc_ls_peak_cutoff          0.00100
_pd_proc_ls_profile_function
;
 CW Profile function number 3 with  19 terms
 Pseudovoigt profile coefficients as parameterized in
 P. Thompson, D.E. Cox & J.B. Hastings (1987). J. Appl. Cryst.,20,79-83.
 Asymmetry correction of L.W. Finger, D.E. Cox & A. P. Jephcoat (1994).
 J. Appl. Cryst.,27,892-900.
 Peak tails are ignored  where the intensity is below 0.0010 times the peak
   Aniso. broadening axis   0.0   1.0   0.0
;
_pd_proc_ls_prof_R_factor        0.0428
_pd_proc_ls_prof_wR_expected     0.0406
_pd_proc_ls_prof_wR_factor       0.0558
_pd_proc_number_of_points        3955
_pd_spec_mounting                ' ?'
_refine_ls_goodness_of_fit_all   1.39
_refine_ls_matrix_type           full
_refine_ls_number_parameters     47
_refine_ls_number_restraints     8
_refine_ls_R_Fsqd_factor         0.14889
_refine_ls_shift/su_max          0.07
_refine_ls_shift/su_mean         0.00
_reflns_d_resolution_high        1.099
_reflns_d_resolution_low         7.434
_reflns_limit_h_max              5
_reflns_limit_h_min              0
_reflns_limit_k_max              4
_reflns_limit_k_min              0
_reflns_limit_l_max              6
_reflns_limit_l_min              0
_reflns_number_total             174
_cod_data_source_file            393K.cif
_cod_data_source_block           120_publ
_cod_depositor_comments
;
The following automatic conversions were performed:

'_geom_bond_publ_flag' value 'N' changed to 'n' according to
/usr/data/users/saulius/automatic-downloads/retrospective/ACS/lib/dictionaries/cif_core.dic
dictionary named 'cif_core.dic' version 2.4.2 from 2011-04-26 (24
times).

'_geom_angle_publ_flag' value 'N' changed to 'n' according
to
/usr/data/users/saulius/automatic-downloads/retrospective/ACS/lib/dictionaries/cif_core.dic
dictionary named 'cif_core.dic' version 2.4.2 from 2011-04-26 (68
times).

Automatic conversion script
Id: cif_fix_values 2281 2013-09-26 08:29:07Z andrius 
;
_cod_original_cell_volume        293.878(10)
_cod_original_sg_symbol_H-M      'p 4/n m m'
_cod_original_formula_sum        'C3.00 Cl N'
_cod_database_code               1516209
#BEGIN Tags that were not found in dictionaries:
_gsas_exptl_extinct_corr_t_min   1.00000
_gsas_exptl_extinct_corr_t_max   1.00000
#END Tags that were not found in dictionaries
loop_
_symmetry_equiv_pos_site_id
_symmetry_equiv_pos_as_xyz
1 +x,+y,+z
2 -y+1/2,+x,+z
3 -x+1/2,-y+1/2,+z
4 +y,-x+1/2,+z
5 -x+1/2,+y,+z
6 -y+1/2,-x+1/2,+z
7 +x,-y+1/2,+z
8 +y,+x,+z
-1 -x,-y,-z
-2 +y+1/2,-x,-z
-3 +x+1/2,+y+1/2,-z
-4 -y,+x+1/2,-z
-5 +x+1/2,-y,-z
-6 +y+1/2,+x+1/2,-z
-7 -x,+y+1/2,-z
-8 -y,-x,-z
loop_
_atom_site_type_symbol
_atom_site_label
_atom_site_fract_x
_atom_site_fract_y
_atom_site_fract_z
_atom_site_occupancy
_atom_site_thermal_displace_type
_atom_site_U_iso_or_equiv
_atom_site_symmetry_multiplicity
Cl CL1 0.25 -0.25 0.0 1.0 Uiso 0.1236(9) 2
C C(1) 0.25 0.3324(6) 0.28833(32) 0.25 Uiso 0.0841(17) 8
N N 0.25 0.25 0.10388(28) 1.0 Uiso 0.0841(17) 2
C C(2) 0.25 0.1483(5) 0.42554(27) 0.25 Uiso 0.0841(17) 8
C C(3) 0.25 0.25 0.6158(4) 1.0 Uiso 0.0841(17) 2
loop_
_atom_type_symbol
_atom_type_number_in_cell
_atom_type_scat_dispersion_real
_atom_type_scat_dispersion_imag
_atom_type_scat_Cromer_Mann_a1
_atom_type_scat_Cromer_Mann_a2
_atom_type_scat_Cromer_Mann_a3
_atom_type_scat_Cromer_Mann_a4
_atom_type_scat_Cromer_Mann_b1
_atom_type_scat_Cromer_Mann_b2
_atom_type_scat_Cromer_Mann_b3
_atom_type_scat_Cromer_Mann_b4
_atom_type_scat_Cromer_Mann_c
_atom_type_scat_source
Cl 2.0 0.000 0.000 11.4604 0.01040 7.19640 1.16620 6.25560 18.5194 1.64550
47.7784 -9.5574 International_Tables_Vol_C
C 6.0 0.000 0.000 2.31000 20.8439 1.02000 10.2075 1.58860 0.56870 0.86500
51.6512 0.21560 International_Tables_Vol_C
N 2.0 0.000 0.000 12.2126 0.00570 3.13220 9.89330 2.01250 28.9975 1.16630
0.58260 -11.529 International_Tables_Vol_C
loop_
_diffrn_radiation_wavelength
_diffrn_radiation_wavelength_wt
_diffrn_radiation_type
_diffrn_radiation_wavelength_id
1.540598 1.000 K\a~1~ 1
1.544390 0.500 K\a~2~ 2
loop_
_geom_angle_atom_site_label_1
_geom_angle_atom_site_label_2
_geom_angle_atom_site_label_3
_geom_angle
_geom_angle_site_symmetry_1
_geom_angle_site_symmetry_3
_geom_angle_publ_flag
C(1) C(1) C(1) 45.0 2_555 3_555 n
C(1) C(1) C(1) 90.0 2_555 4_555 n
C(1) C(1) N 75.53(9) 2_555 1_555 n
C(1) C(1) C(2) 57.96(8) 2_555 1_555 n
C(1) C(1) C(2) 93.76(15) 2_555 2_555 n
C(1) C(1) C(2) 94.80(19) 2_555 3_555 n
C(1) C(1) C(2) 51.35(14) 2_555 4_555 n
C(1) C(1) C(1) 45.0 3_555 4_555 n
C(1) C(1) N 69.30(14) 3_555 1_555 n
C(1) C(1) C(2) 41.38(15) 3_555 1_555 n
C(1) C(1) C(2) 66.72(15) 3_555 2_555 n
C(1) C(1) C(2) 96.79(27) 3_555 3_555 n
C(1) C(1) C(2) 66.72(15) 3_555 4_555 n
C(1) C(1) N 75.53(9) 4_555 1_555 n
C(1) C(1) C(2) 57.96(8) 4_555 1_555 n
C(1) C(1) C(2) 51.35(14) 4_555 2_555 n
C(1) C(1) C(2) 94.80(19) 4_555 3_555 n
C(1) C(1) C(2) 93.76(15) 4_555 4_555 n
N C(1) C(2) 110.68(24) 1_555 1_555 n
N C(1) C(2) 126.04(23) 1_555 2_555 n
N C(1) C(2) 166.1(4) 1_555 3_555 n
N C(1) C(2) 126.04(23) 1_555 4_555 n
C(2) C(1) C(2) 35.80(16) 1_555 2_555 n
C(2) C(1) C(2) 55.41(30) 1_555 3_555 n
C(2) C(1) C(2) 35.80(16) 1_555 4_555 n
C(2) C(1) C(2) 43.45(23) 2_555 3_555 n
C(2) C(1) C(2) 58.42(28) 2_555 4_555 n
C(2) C(1) C(2) 43.45(23) 3_555 4_555 n
C(1) N C(1) 28.95(19) 1_555 2_555 n
C(1) N C(1) 41.40(27) 1_555 3_555 n
C(1) N C(1) 28.95(19) 1_555 4_555 n
C(1) N C(1) 28.95(19) 2_555 3_555 n
C(1) N C(1) 41.40(27) 2_555 4_555 n
C(1) N C(1) 28.95(19) 3_555 4_555 n
C(1) C(2) C(1) 28.28(17) 1_555 2_555 n
C(1) C(2) C(1) 41.83(31) 1_555 3_555 n
C(1) C(2) C(1) 28.28(17) 1_555 4_555 n
C(1) C(2) C(2) 57.96(8) 1_555 2_555 n
C(1) C(2) C(2) 41.38(15) 1_555 3_555 n
C(1) C(2) C(2) 57.96(8) 1_555 4_555 n
C(1) C(2) C(3) 107.06(22) 1_555 1_555 n
C(1) C(2) C(1) 33.85(25) 2_555 3_555 n
C(1) C(2) C(1) 46.57(30) 2_555 4_555 n
C(1) C(2) C(2) 86.24(15) 2_555 2_555 n
C(1) C(2) C(2) 60.79(14) 2_555 3_555 n
C(1) C(2) C(2) 51.35(14) 2_555 4_555 n
C(1) C(2) C(3) 120.54(22) 2_555 1_555 n
C(1) C(2) C(1) 33.85(25) 3_555 4_555 n
C(1) C(2) C(2) 85.20(19) 3_555 2_555 n
C(1) C(2) C(2) 83.21(27) 3_555 3_555 n
C(1) C(2) C(2) 85.20(19) 3_555 4_555 n
C(1) C(2) C(3) 148.9(4) 3_555 1_555 n
C(1) C(2) C(2) 51.35(14) 4_555 2_555 n
C(1) C(2) C(2) 60.79(14) 4_555 3_555 n
C(1) C(2) C(2) 86.24(15) 4_555 4_555 n
C(1) C(2) C(3) 120.54(22) 4_555 1_555 n
C(2) C(2) C(2) 45.0 2_555 3_555 n
C(2) C(2) C(2) 90.0 2_555 4_555 n
C(2) C(2) C(3) 73.06(8) 2_555 1_555 n
C(2) C(2) C(2) 45.0 3_555 4_555 n
C(2) C(2) C(3) 65.67(12) 3_555 1_555 n
C(2) C(2) C(3) 73.06(8) 4_555 1_555 n
C(2) C(3) C(2) 33.87(16) 1_555 2_555 n
C(2) C(3) C(2) 48.65(24) 1_555 3_555 n
C(2) C(3) C(2) 33.87(16) 1_555 4_555 n
C(2) C(3) C(2) 33.87(16) 2_555 3_555 n
C(2) C(3) C(2) 48.65(24) 2_555 4_555 n
C(2) C(3) C(2) 33.87(16) 3_555 4_555 n
loop_
_geom_bond_atom_site_label_1
_geom_bond_atom_site_label_2
_geom_bond_distance
_geom_bond_site_symmetry_2
_geom_bond_publ_flag
C(1) C(1) 0.733(5) 2_555 n
C(1) C(1) 1.036(7) 3_555 n
C(1) C(1) 0.733(5) 4_555 n
C(1) N 1.4659(32) 1_555 n
C(1) C(2) 1.543(4) 1_555 n
C(1) C(2) 1.3108(32) 2_555 n
C(1) C(2) 1.0273(31) 3_555 n
C(1) C(2) 1.3108(32) 4_555 n
N C(1) 1.4659(32) 1_555 n
N C(1) 1.4659(32) 2_555 n
N C(1) 1.4659(32) 3_555 n
N C(1) 1.4659(32) 4_555 n
C(2) C(1) 1.543(4) 1_555 n
C(2) C(1) 1.3108(32) 2_555 n
C(2) C(1) 1.0273(31) 3_555 n
C(2) C(1) 1.3108(32) 4_555 n
C(2) C(2) 0.905(5) 2_555 n
C(2) C(2) 1.279(6) 3_555 n
C(2) C(2) 0.905(5) 4_555 n
C(2) C(3) 1.5527(33) 1_555 n
C(3) C(2) 1.5527(33) 1_555 n
C(3) C(2) 1.5527(33) 2_555 n
C(3) C(2) 1.5527(33) 3_555 n
C(3) C(2) 1.5527(33) 4_555 n
loop_
_pd_meas_counts_total
_pd_proc_ls_weight
_pd_proc_intensity_bkg_calc
_pd_calc_intensity_total
21417.0 0.0 -37961720.00000 .
20748.0 0.0 -37023480.00000 .
19890.0 0.0 -36106908.00000 .
19217.0 0.0 -35211492.00000 .
18556.0 0.0 -34336804.00000 .
17849.0 0.0 -33482380.00000 .
17304.0 0.0 -32647814.00000 .
16741.0 0.0 -31832650.00000 .
16061.0 0.0 -31036466.00000 .
15703.0 0.0 -30258872.00000 .
15321.0 0.0 -29499448.00000 .
14902.0 0.0 -28757786.00000 .
14157.0 0.0 -28033522.00000 .
13680.0 0.0 -27326280.00000 .
13470.0 0.0 -26635652.00000 .
13034.0 0.0 -25961308.00000 .
12535.0 0.0 -25302864.00000 .
12199.0 0.0 -24660024.00000 .
11884.0 0.0 -24032384.00000 .
11533.0 0.0 -23419634.00000 .
11389.0 0.0 -22821440.00000 .
10978.0 0.0 -22237482.00000 .
10475.0 0.0 -21667454.00000 .
10124.0 0.0 -21111028.00000 .
9823.0 0.0 -20567918.00000 .
9599.0 0.0 -20037830.00000 .
9453.0 0.0 -19520446.00000 .
9116.0 0.0 -19015514.00000 .
8910.0 0.0 -18522748.00000 .
8737.0 0.0 -18041870.00000 .
8441.0 0.0 -17572614.00000 .
8375.0 0.0 -17114710.00000 .
8145.0 0.0 -16667926.00000 .
7864.0 0.0 -16231994.00000 .
7819.0 0.0 -15806670.00000 .
7452.0 0.0 -15391721.00000 .
7319.0 0.0 -14986900.00000 .
7138.0 0.0 -14591986.00000 .
6954.0 0.0 -14206755.00000 .
6954.0 0.0 -13830982.00000 .
6810.0 0.0 -13464446.00000 .
6684.0 0.0 -13106949.00000 .
6624.0 0.0 -12758276.00000 .
6246.0 0.0 -12418225.00000 .
6141.0 0.0 -12086608.00000 .
5999.0 0.0 -11763213.00000 .
6027.0 0.0 -11447867.00000 .
5891.0 0.0 -11140375.00000 .
5781.0 0.0 -10840553.00000 .
5660.0 0.0 -10548232.00000 .
5643.0 0.0 -10263237.00000 .
5517.0 0.0 -9985385.00000 .
5271.0 0.0 -9714525.00000 .
5363.0 0.0 -9450496.00000 .
5243.0 0.0 -9193124.00000 .
5156.0 0.0 -8942254.00000 .
5096.0 0.0 -8697742.00000 .
5060.0 0.0 -8459446.00000 .
4900.0 0.0 -8227196.50000 .
4733.0 0.0 -8000870.50000 .
4792.0 0.0 -7780319.00000 .
4801.0 0.0 -7565414.00000 .
4557.0 0.0 -7356010.50000 .
4613.0 0.0 -7151984.00000 .
4413.0 0.0 -6953206.50000 .
4403.0 0.0 -6759556.00000 .
4313.0 0.0 -6570901.50000 .
4298.0 0.0 -6387130.00000 .
4325.0 0.0 -6208121.50000 .
4218.0 0.0 -6033769.00000 .
4216.0 0.0 -5863945.50000 .
4033.0 0.0 -5698554.00000 .
4067.0 0.0 -5537486.00000 .
3939.0 0.0 -5380639.50000 .
4113.0 0.0 -5227906.00000 .
3900.0 0.0 -5079185.00000 .
3916.0 0.0 -4934383.00000 .
3902.0 0.0 -4793404.50000 .
3788.0 0.0 -4656151.50000 .
3729.0 0.0 -4522539.00000 .
3681.0 0.0 -4392474.50000 .
3680.0 0.0 -4265871.00000 .
3743.0 0.0 -4142645.75000 .
3677.0 0.0 -4022711.00000 .
3473.0 0.0 -3905989.25000 .
3409.0 0.0 -3792401.00000 .
3624.0 0.0 -3681864.00000 .
3380.0 0.0 -3574310.50000 .
3397.0 0.0 -3469660.25000 .
3374.0 0.0 -3367841.00000 .
3359.0 0.0 -3268782.00000 .
3272.0 0.0 -3172414.50000 .
3264.0 0.0 -3078675.75000 .
3286.0 0.0 -2987496.00000 .
3246.0 0.0 -2898807.75000 .
3248.0 0.0 -2812550.25000 .
3084.0 0.0 -2728666.00000 .
3116.0 0.0 -2647087.50000 .
3100.0 0.0 -2567762.75000 .
3088.0 0.0 -2490633.75000 .
3071.0 0.0 -2415639.50000 .
2984.0 0.0 -2342730.00000 .
3004.0 0.0 -2271846.75000 .
3068.0 0.0 -2202946.25000 .
2961.0 0.0 -2135975.25000 .
2839.0 0.0 -2070874.37500 .
2942.0 0.0 -2007607.12500 .
2783.0 0.0 -1946117.75000 .
2796.0 0.0 -1886365.62500 .
2750.0 0.0 -1828305.62500 .
2892.0 0.0 -1771889.25000 .
2721.0 0.0 -1717079.00000 .
2724.0 0.0 -1663826.37500 .
2638.0 0.0 -1612096.12500 .
2735.0 0.0 -1561849.25000 .
2660.0 0.0 -1513039.12500 .
2620.0 0.0 -1465635.87500 .
2648.0 0.0 -1419596.25000 .
2681.0 0.0 -1374889.00000 .
2605.0 0.0 -1331478.37500 .
2553.0 0.0 -1289323.62500 .
2603.0 0.0 -1248398.75000 .
2516.0 0.0 -1208666.75000 .
2547.0 0.0 -1170096.87500 .
2533.0 0.0 -1132659.37500 .
2545.0 0.0 -1096319.50000 .
2435.0 0.0 -1061052.75000 .
2398.0 0.0 -1026825.43750 .
2408.0 0.0 -993612.18750 .
2328.0 0.0 -961387.31250 .
2392.0 0.0 -930118.50000 .
2314.0 0.0 -899784.81250 .
2344.0 0.0 -870356.18750 .
2355.0 0.0 -841811.25000 .
2239.0 0.0 -814126.25000 .
2303.0 0.0 -787273.50000 .
2351.0 0.0 -761233.56250 .
2315.0 0.0 -735981.50000 .
2206.0 0.0 -711497.37500 .
2262.0 0.0 -687760.43750 .
2280.0 0.0 -664746.62500 .
2196.0 0.0 -642438.75000 .
2187.0 0.0 -620813.93750 .
2106.0 0.0 -599856.06250 .
2174.0 0.0 -579546.62500 .
2213.0 0.0 -559863.93750 .
2238.0 0.0 -540793.93750 .
2121.0 0.0 -522316.06250 .
2091.0 0.0 -504415.12500 .
2077.0 0.0 -487075.87500 .
2003.0 0.0 -470279.09375 .
2061.0 0.0 -454012.31250 .
2038.0 0.0 -438257.71875 .
1967.0 0.0 -423002.87500 .
1980.0 0.0 -408232.71875 .
2049.0 0.0 -393931.40625 .
1965.0 0.0 -380087.31250 .
1994.0 0.0 -366686.00000 .
1873.0 0.0 -353715.75000 .
1940.0 0.0 -341163.43750 .
1887.0 0.0 -329015.87500 .
1921.0 0.0 -317262.40625 .
1883.0 0.0 -305890.34375 .
1902.0 0.0 -294888.93750 .
1912.0 0.0 -284248.12500 .
1859.0 0.0 -273955.03125 .
1820.0 0.0 -264001.25000 .
1861.0 0.0 -254375.20313 .
1752.0 0.0 -245067.78125 .
1784.0 0.0 -236070.01563 .
1702.0 0.0 -227371.31250 .
1785.0 0.0 -218963.35938 .
1806.0 0.0 -210836.79688 .
1729.0 0.0 -202983.68750 .
1684.0 0.0 -195395.75000 .
1747.0 0.0 -188063.95313 .
1725.0 0.0 -180981.18750 .
1720.0 0.0 -174139.59375 .
1690.0 0.0 -167531.59375 .
1668.0 0.0 -161150.64063 .
1670.0 0.0 -154988.42188 .
1617.0 0.0 -149039.32813 .
1662.0 0.0 -143295.75000 .
1613.0 0.0 -137751.87500 .
1615.0 0.0 -132401.54688 .
1679.0 0.0 -127237.83594 .
1611.0 0.0 -122255.75781 .
1584.0 0.0 -117448.71875 .
1574.0 0.0 -112811.86719 .
1533.0 0.0 -108339.55469 .
1584.0 0.0 -104026.10156 .
1570.0 0.0 -99866.85156 .
1544.0 0.0 -95856.54688 .
1530.0 0.0 -91990.70313 .
1490.0 0.0 -88264.59375 .
1549.0 0.0 -84673.16406 .
1498.0 0.0 -81212.54688 .
1571.0 0.0 -77878.06250 .
1504.0 0.0 -74665.90625 .
1498.0 0.0 -71572.11719 .
1452.0 0.0 -68592.24219 .
1470.0 0.0 -65722.99219 .
1547.0 0.0 -62960.35156 .
1470.0 0.0 -60300.89063 .
1388.0 0.0 -57741.35547 .
1380.0 0.0 -55277.98438 .
1439.0 0.0 -52907.85547 .
1424.0 0.0 -50627.53906 .
1347.0 0.0 -48434.16797 .
1436.0 0.0 -46324.80469 .
1429.0 0.0 -44296.26563 .
1392.0 0.0 -42346.09375 .
1420.0 0.0 -40471.40234 .
1267.0 0.0 -38669.62500 .
1311.0 0.0 -36938.30078 .
1342.0 0.0 -35274.79688 .
1379.0 0.0 -33676.90625 .
1346.0 0.0 -32142.12891 .
1277.0 0.0 -30668.39453 .
1322.0 0.0 -29253.58008 .
1206.0 0.0 -27895.36719 .
1262.0 0.0 -26591.93359 .
1228.0 0.0 -25341.17969 .
1270.0 0.0 -24141.27930 .
1311.0 0.0 -22990.39844 .
1271.0 0.0 -21886.69531 .
1306.0 0.0 -20828.50195 .
1211.0 0.0 -19814.06641 .
1210.0 0.0 -18841.88086 .
1214.0 0.0 -17910.42578 .
1203.0 0.0 -17017.98438 .
1186.0 0.0 -16163.30273 .
1201.0 0.0 -15344.84375 .
1069.0 0.0 -14561.29297 .
1129.0 0.0 -13811.39258 .
1102.0 0.0 -13093.71582 .
1130.0 0.0 -12407.17578 .
1113.0 0.0 -11750.47266 .
1109.0 0.0 -11122.56250 .
1063.0 0.0 -10522.27734 .
1116.0 0.0 -9948.53613 .
1117.0 0.0 -9400.34277 .
1080.0 0.0 -8876.61621 .
1123.0 0.0 -8376.48242 .
1073.0 0.0 -7899.00635 .
1076.0 0.0 -7443.19678 .
1089.0 0.0 -7008.28174 .
999.0 0.0 -6593.37158 .
1012.0 0.0 -6197.67383 .
1034.0 0.0 -5820.42090 .
1014.0 0.0 -5460.83984 .
999.0 0.0 -5118.23096 .
1019.0 0.0 -4791.85352 .
992.0 0.0 -4481.08105 .
1008.0 0.0 -4185.25342 .
1000.0 0.0 -3903.71973 .
940.0 0.0 -3635.89966 .
1005.0 0.0 -3381.20313 .
934.0 0.0 -3139.08154 .
969.0 0.0 -2909.01074 .
967.0 0.0 -2690.42456 .
929.0 0.0 -2482.87231 .
1035.0 0.0 -2285.84839 .
962.0 0.0 -2098.89575 .
950.0 0.0 -1921.58435 .
958.0 0.0 -1753.46924 .
955.0 0.0 -1594.15100 .
940.0 0.0 -1443.22070 .
902.0 0.0 -1300.31836 .
933.0 0.0 -1165.07288 .
943.0 0.0 -1037.12354 .
891.0 0.0 -916.14081 .
892.0 0.0 -801.80273 .
909.0 0.0 -693.79950 .
942.0 0.0 -591.84033 .
935.0 0.0 -495.61929 .
963.0 0.0 -404.88232 .
912.0 0.0 -319.35468 .
922.0 0.0 -238.78865 .
923.0 0.0 -162.94315 .
943.0 0.0 -91.58485 .
861.0 0.0 -24.49322 .
836.0 0.0 38.54980 .
913.0 0.0 97.74104 .
936.0 0.0 153.27330 .
833.0 0.0 205.34399 .
854.0 0.0 254.12114 .
941.0 0.0 299.78241 .
896.0 0.0 342.48792 .
872.0 0.0 382.39066 .
856.0 0.0 419.64874 .
871.0 0.0 454.39600 .
904.0 0.0 486.77368 .
889.0 0.0 516.90985 .
885.0 0.0 544.92761 .
884.0 0.0 570.94702 .
965.0 0.0 595.07916 .
944.0 0.0 617.43445 .
868.0 0.0 638.11218 .
888.0 0.0 657.20978 .
902.0 0.0 674.82361 .
873.0 0.0 691.03870 .
888.0 0.0 705.94122 .
851.0 0.0 719.61023 .
864.0 0.0 732.12177 .
867.0 0.0 743.54858 .
876.0 0.0 753.95862 .
874.0 0.0 763.41797 .
826.0 0.0 771.98712 .
821.0 0.0 779.72510 .
834.0 0.0 786.68781 .
897.0 0.0 792.92737 .
841.0 0.0 798.49390 .
884.0 0.0 803.43384 .
891.0 0.0 807.79156 .
847.0 0.0 811.61005 .
800.0 0.0 814.92792 .
813.0 0.0 817.78308 .
804.0 0.001244 820.21069 820.21051
831.0 0.001203 822.24384 822.24371
849.0 0.001178 823.91400 823.91388
879.0 0.001138 825.25043 825.25031
863.0 0.001159 826.28082 826.28076
828.0 0.001208 827.03101 827.03101
807.0 0.001239 827.52545 827.52545
814.0 0.001229 827.78687 827.78687
816.0 0.001225 827.83661 827.83661
793.0 0.001261 827.69458 827.69464
847.0 0.001181 827.37946 827.37952
857.0 0.001167 826.90863 826.90863
868.0 0.001152 826.29822 826.29822
800.0 0.001250 825.56335 825.56335
784.0 0.001276 824.71802 824.71802
835.0 0.001198 823.77515 823.77515
802.0 0.001247 822.74683 822.74683
771.0 0.001297 821.64417 821.64417
825.0 0.001212 820.47729 820.47729
830.0 0.001205 819.25586 819.25586
796.0 0.001256 817.98840 817.98840
749.0 0.001335 816.68298 816.68298
827.0 0.001209 815.34674 815.34674
819.0 0.001221 813.98633 813.98627
803.0 0.001245 812.60791 812.60791
812.0 0.001232 811.21674 811.21667
842.0 0.001188 809.81799 809.81793
782.0 0.001279 808.41595 808.41589
855.0 0.001170 807.01459 807.01447
763.0 0.001311 805.61743 805.61731
850.0 0.001176 804.22748 804.22736
748.0 0.001337 802.84778 802.84760
771.0 0.001297 801.48041 801.48029
831.0 0.001203 800.12744 800.12726
835.0 0.001198 798.79077 798.79059
800.0 0.001250 797.47174 797.47156
779.0 0.001284 796.17163 796.17145
763.0 0.001311 794.89124 794.89099
790.0 0.001266 793.63129 793.63104
819.0 0.001221 792.39252 792.39227
782.0 0.001279 791.17487 791.17462
791.0 0.001264 789.97894 789.97870
819.0 0.001221 788.80444 788.80414
814.0 0.001229 787.65125 787.65094
780.0 0.001282 786.51910 786.51880
747.0 0.001339 785.40765 785.40735
799.0 0.001252 784.31641 787.25354
797.0 0.001255 783.24481 786.33112
784.0 0.001276 782.19196 786.94952
782.0 0.001279 781.15741 786.16675
790.0 0.001266 780.14020 785.42194
759.0 0.001318 779.13953 784.71661
759.0 0.001318 778.15448 784.05231
734.0 0.001362 777.18408 783.43134
832.0 0.001202 776.22748 782.85626
741.0 0.001350 775.28351 782.32990
779.0 0.001284 774.35138 781.85632
807.0 0.001239 773.42999 781.43994
801.0 0.001248 772.51831 781.08624
763.0 0.001311 771.61536 780.80188
825.0 0.001212 770.72009 780.59509
759.0 0.001318 769.83160 780.47583
836.0 0.001196 768.94885 780.45648
822.0 0.001217 768.07080 780.55194
823.0 0.001215 767.19659 780.78125
878.0 0.001139 766.32538 781.16779
774.0 0.001292 765.45612 781.74115
847.0 0.001181 764.58807 782.53906
809.0 0.001236 763.72034 783.60999
822.0 0.001217 762.85211 785.01685
842.0 0.001188 761.98267 786.84314
832.0 0.001202 761.11127 789.20081
829.0 0.001206 760.23724 792.24377
867.0 0.001153 759.35980 796.18842
816.0 0.001225 758.47858 801.34753
872.0 0.001147 757.59277 808.19904
822.0 0.001217 756.70203 817.57257
880.0 0.001136 755.80573 831.36713
939.0 0.001065 754.90338 854.72601
976.0 0.001025 753.99475 899.84082
1015.0 0.000985 753.07928 987.81573
1153.0 0.000867 752.15674 1141.97888
1335.0 0.000749 751.22687 1380.95300
1518.0 0.000659 750.28931 1720.72949
1952.0 0.000512 749.34393 2196.29395
2777.0 0.000360 748.39050 2886.69507
3883.0 0.0002575 747.42896 3879.95361
4901.0 0.0002040 746.45911 5052.16357
5782.0 0.0001730 745.48096 5769.23486
5077.0 0.0001970 744.49451 5241.64746
3639.0 0.0002748 743.49969 3772.74634
2163.0 0.000462 742.49664 2321.34277
1401.0 0.000714 741.48535 1453.15637
1058.0 0.000945 740.46588 1080.03223
927.0 0.001079 739.43854 940.99384
854.0 0.001171 738.40332 880.89276
798.0 0.001253 737.36053 846.14996
774.0 0.001292 736.31036 822.46594
740.0 0.001351 735.25305 805.21484
763.0 0.001311 734.18890 792.14545
742.0 0.001348 733.11810 781.92468
737.0 0.001357 732.04108 773.71344
724.0 0.001381 730.95819 766.95898
715.0 0.001399 729.86969 761.28632
717.0 0.001395 728.77612 756.43457
773.0 0.001294 727.67773 752.21606
745.0 0.001342 726.57501 748.49463
744.0 0.001344 725.46832 745.16827
738.0 0.001355 724.35822 742.16003
693.0 0.001443 723.24506 739.41132
739.0 0.001353 722.12927 736.87585
711.0 0.001406 721.01154 734.51801
717.0 0.001395 719.89221 732.30902
734.0 0.001362 718.77173 730.22583
705.0 0.001418 717.65070 728.25012
719.0 0.001391 716.52960 726.36658
726.0 0.001377 715.40894 724.56323
723.0 0.001383 714.28931 722.82953
726.0 0.001377 713.17108 721.15723
718.0 0.001393 712.05493 719.53931
710.0 0.001408 710.94128 717.96967
768.0 0.001302 709.83075 716.44379
729.0 0.001372 708.72388 714.95728
696.0 0.001437 707.62103 713.50665
732.0 0.001366 706.52295 712.08911
724.0 0.001381 705.42993 710.70197
710.0 0.001408 704.34271 709.34344
729.0 0.001372 703.26172 708.01147
724.0 0.001381 702.18744 706.70471
714.0 0.001401 701.12036 702.61243
694.0 0.001441 700.06104 701.48206
682.0 0.001466 699.00995 699.00983
718.0 0.001393 697.96765 697.96747
664.0 0.001506 696.93439 696.93420
700.0 0.001429 695.91083 695.91071
716.0 0.001397 694.89740 694.89728
695.0 0.001439 693.89453 693.89435
691.0 0.001447 692.90271 692.90253
688.0 0.001453 691.92224 691.92206
705.0 0.001418 690.95361 690.95349
649.0 0.001541 689.99719 689.99707
693.0 0.001443 689.05353 689.05341
715.0 0.001399 688.12286 688.12274
688.0 0.001453 687.20551 687.20538
660.0 0.001515 686.30200 686.30188
682.0 0.001466 685.41254 685.41241
656.0 0.001524 684.53760 684.53748
695.0 0.001439 683.67737 683.67725
661.0 0.001513 682.83209 682.83197
719.0 0.001391 682.00226 682.00214
721.0 0.001387 681.18799 681.18793
680.0 0.001471 680.38971 680.38959
715.0 0.001399 679.60754 679.60742
724.0 0.001381 678.84174 678.84161
684.0 0.001462 678.09253 678.09247
708.0 0.001412 677.36011 677.36005
665.0 0.001504 676.64478 676.64465
651.0 0.001536 675.94666 675.94653
692.0 0.001445 675.26575 675.26569
651.0 0.001536 674.60248 674.60242
668.0 0.001497 673.95685 673.95679
691.0 0.001447 673.32904 673.32892
700.0 0.001429 672.71906 672.71899
689.0 0.001451 672.12714 672.12701
686.0 0.001458 671.55334 671.55322
660.0 0.001515 670.99762 670.99750
705.0 0.001418 670.46014 670.46002
721.0 0.001387 669.94098 669.94092
657.0 0.001522 669.44012 669.44000
702.0 0.001425 668.95758 668.95746
676.0 0.001479 668.49335 668.49329
659.0 0.001517 668.04755 668.04749
693.0 0.001443 667.62006 667.62000
672.0 0.001488 667.21082 667.21075
686.0 0.001458 666.81995 666.81989
659.0 0.001517 666.44727 666.44720
643.0 0.001555 666.09277 666.09271
670.0 0.001493 665.75641 665.75629
721.0 0.001387 665.43805 665.43793
659.0 0.001517 665.13763 665.13757
672.0 0.001488 664.85504 664.85498
665.0 0.001504 664.59027 664.59015
643.0 0.001555 664.34308 664.34302
679.0 0.001473 664.11340 664.11334
710.0 0.001408 663.90112 663.90100
654.0 0.001529 663.70605 663.70593
643.0 0.001555 663.52808 663.52795
713.0 0.001403 663.36700 663.36688
641.0 0.001560 663.22272 663.22266
675.0 0.001481 663.09503 663.09491
685.0 0.001460 662.98376 662.98364
680.0 0.001471 662.88873 662.88861
665.0 0.001504 662.80975 662.80963
666.0 0.001502 662.74658 662.74652
720.0 0.001389 662.69916 662.69904
683.0 0.001464 662.66711 662.66705
678.0 0.001475 662.65033 662.65021
694.0 0.001441 662.64856 662.64850
646.0 0.001548 662.66162 662.66156
626.0 0.001597 662.68927 662.68915
657.0 0.001522 662.73126 662.73114
630.0 0.001587 662.78741 662.78729
689.0 0.001451 662.85742 662.85730
675.0 0.001481 662.94110 662.94104
722.0 0.001385 663.03827 663.03815
648.0 0.001543 663.14856 663.14850
672.0 0.001488 663.27185 663.27179
648.0 0.001543 663.40784 663.40778
634.0 0.001577 663.55627 663.55621
674.0 0.001484 663.71698 663.71692
684.0 0.001462 663.88965 663.88959
673.0 0.001486 664.07404 664.07397
682.0 0.001466 664.26996 664.26984
663.0 0.001508 664.47711 664.47699
725.0 0.001379 664.69525 664.69513
674.0 0.001484 664.92413 664.92401
605.0 0.001653 665.16351 665.16345
685.0 0.001460 665.41321 665.41315
670.0 0.001493 665.67297 665.67285
648.0 0.001543 665.94244 665.94238
674.0 0.001484 666.22156 666.22150
642.0 0.001558 666.51001 666.50989
672.0 0.001488 666.80750 666.80737
673.0 0.001486 667.11383 667.11371
652.0 0.001534 667.42883 667.42871
628.0 0.001592 667.75232 667.75220
684.0 0.001462 668.08386 668.08380
670.0 0.001493 668.42346 668.42334
648.0 0.001543 668.77081 668.77075
649.0 0.001541 669.12567 669.12561
705.0 0.001418 669.48792 669.48779
685.0 0.001460 669.85724 669.85718
677.0 0.001477 670.23352 670.23346
672.0 0.001488 670.61658 670.61646
658.0 0.001520 671.00616 671.00604
668.0 0.001497 671.40204 671.40198
653.0 0.001531 671.80420 671.80408
696.0 0.001437 672.21228 672.21216
665.0 0.001504 672.62622 672.62610
658.0 0.001520 673.04578 673.04565
698.0 0.001433 673.47083 673.47070
678.0 0.001475 673.90118 673.90106
661.0 0.001513 674.33673 674.33661
652.0 0.001534 674.77734 674.77728
664.0 0.001506 675.22278 675.22272
630.0 0.001587 675.67303 675.67291
659.0 0.001517 676.12781 676.12775
687.0 0.001456 676.58710 676.58698
652.0 0.001534 677.05078 677.05066
693.0 0.001443 677.51862 677.51849
690.0 0.001449 677.99066 677.99060
678.0 0.001475 678.46667 678.46655
638.0 0.001567 678.94659 678.94653
659.0 0.001517 679.43042 679.43030
632.0 0.001582 679.91791 679.91779
655.0 0.001527 680.40906 680.40894
695.0 0.001439 680.90375 680.90369
677.0 0.001477 681.40198 681.40186
657.0 0.001522 681.90363 681.90350
633.0 0.001580 682.40863 682.40851
720.0 0.001389 682.91693 682.91681
722.0 0.001385 683.42847 683.42834
698.0 0.001433 683.94324 683.94312
670.0 0.001493 684.46118 684.46106
643.0 0.001555 684.98224 684.98212
718.0 0.001393 685.50641 685.50629
708.0 0.001412 686.03363 686.03351
651.0 0.001536 686.56390 686.56378
682.0 0.001466 687.09723 687.09717
657.0 0.001522 687.63354 687.63348
708.0 0.001412 688.17297 688.17285
609.0 0.001642 688.71533 688.71521
747.0 0.001339 689.26074 689.26062
667.0 0.001499 689.80927 689.80914
669.0 0.001495 690.36078 690.36066
701.0 0.001427 690.91534 690.91528
668.0 0.001497 691.47302 691.47296
677.0 0.001477 692.03381 692.03375
652.0 0.001534 692.59784 692.59772
675.0 0.001481 693.16498 693.16486
662.0 0.001511 693.73535 693.73523
669.0 0.001495 694.30902 694.30896
636.0 0.001572 694.88599 694.88593
689.0 0.001451 695.46637 695.46625
732.0 0.001366 696.05017 696.05005
663.0 0.001508 696.63751 696.63739
682.0 0.001466 697.22833 697.22827
666.0 0.001502 697.82281 697.82275
687.0 0.001456 698.42108 698.42096
682.0 0.001466 699.02301 699.02295
679.0 0.001473 699.62885 699.62878
701.0 0.001427 700.23865 700.23853
679.0 0.001473 700.85236 700.85223
672.0 0.001488 701.47028 701.47015
695.0 0.001439 702.09229 702.09222
689.0 0.001451 702.71863 702.71857
682.0 0.001466 703.34943 703.34930
712.0 0.001404 703.98456 703.98450
757.0 0.001321 704.62433 704.62421
693.0 0.001443 705.26874 705.26862
705.0 0.001418 705.91797 705.91785
694.0 0.001441 706.57202 706.57196
726.0 0.001377 707.23108 707.23102
749.0 0.001335 707.89526 707.89520
714.0 0.001401 708.56458 708.56451
678.0 0.001475 709.23932 709.23920
673.0 0.001486 709.91937 709.91931
777.0 0.001287 710.60498 710.60492
706.0 0.001416 711.29626 711.29620
753.0 0.001328 711.99329 711.99323
758.0 0.001319 712.69623 712.69617
750.0 0.001333 713.40509 713.40503
680.0 0.001471 714.12006 714.12000
694.0 0.001441 714.84131 714.84125
722.0 0.001385 715.56885 715.56879
740.0 0.001351 716.30298 716.30286
715.0 0.001399 717.04358 717.04346
705.0 0.001418 717.79083 717.79077
741.0 0.001350 718.54498 718.54492
718.0 0.001393 719.30603 719.30597
732.0 0.001366 720.07416 720.07410
757.0 0.001321 720.84943 720.84937
755.0 0.001325 721.63190 721.63184
725.0 0.001379 722.42188 722.42181
739.0 0.001353 723.21930 723.21918
721.0 0.001387 724.02435 724.02429
730.0 0.001370 724.83710 724.83704
753.0 0.001328 725.65765 725.65759
740.0 0.001351 726.48621 726.48615
732.0 0.001366 727.32281 727.32275
776.0 0.001289 728.16754 728.16748
758.0 0.001319 729.02057 729.02045
739.0 0.001353 729.88190 729.88184
728.0 0.001374 730.75177 730.75171
737.0 0.001357 731.63013 731.63007
769.0 0.001300 732.51721 732.51715
703.0 0.001422 733.41302 733.41296
713.0 0.001403 734.31769 734.31763
748.0 0.001337 735.23132 735.23126
728.0 0.001374 736.15393 736.15387
750.0 0.001333 737.08569 737.08563
787.0 0.001271 738.02661 738.02655
764.0 0.001309 738.97675 738.97668
709.0 0.001410 739.93628 739.93628
765.0 0.001307 740.90533 740.90527
670.0 0.001493 741.88385 744.77832
765.0 0.001307 742.87189 745.91187
725.0 0.001379 743.86951 748.50092
744.0 0.001344 744.87701 749.74957
738.0 0.001355 745.89410 751.02716
763.0 0.001311 746.92120 752.33612
745.0 0.001342 747.95801 753.67877
842.0 0.001188 749.00482 755.05804
797.0 0.001255 750.06165 756.47729
788.0 0.001269 751.12842 757.94000
779.0 0.001284 752.20532 759.45087
742.0 0.001348 753.29230 761.01440
774.0 0.001292 754.38934 762.63684
739.0 0.001353 755.49677 764.32520
792.0 0.001263 756.61420 766.08722
787.0 0.001271 757.74188 767.93292
775.0 0.001290 758.87982 769.87384
778.0 0.001285 760.02795 771.92383
795.0 0.001258 761.18658 774.10022
810.0 0.001235 762.35535 776.42346
872.0 0.001147 763.53448 778.91956
839.0 0.001192 764.72388 781.62018
810.0 0.001235 765.92352 784.56592
802.0 0.001247 767.13361 787.80835
857.0 0.001167 768.35382 791.41345
786.0 0.001272 769.58447 795.46857
834.0 0.001199 770.82526 800.08862
844.0 0.001185 772.07629 805.43036
833.0 0.001200 773.33765 811.70996
809.0 0.001236 774.60913 819.23199
870.0 0.001149 775.89075 828.44208
871.0 0.001148 777.18243 840.02289
903.0 0.001107 778.48444 855.17450
869.0 0.001151 779.79633 876.55359
975.0 0.001026 781.11823 911.06421
1045.0 0.000957 782.45020 975.86932
1130.0 0.000885 783.79193 1107.13562
1439.0 0.000695 785.14355 1367.73535
1956.0 0.000511 786.50507 1845.36938
2828.0 0.000354 787.87616 2624.11206
3539.0 0.0002826 789.25714 3677.29175
4552.0 0.0002197 790.64746 4713.34277
5050.0 0.0001980 792.04736 5177.43018
4996.0 0.0002002 793.45679 4753.70068
4145.0 0.0002413 794.87549 3791.97705
2923.0 0.0003421 796.30341 2703.64771
2006.0 0.000499 797.74054 1834.56934
1397.0 0.000716 799.18689 1318.33997
1062.0 0.000942 800.64209 1072.40649
916.0 0.001092 802.10620 969.21088
854.0 0.001171 803.57922 923.35675
867.0 0.001153 805.06079 898.10406
847.0 0.001181 806.55096 881.54999
830.0 0.001205 808.04974 869.87256
846.0 0.001182 809.55670 861.40479
760.0 0.001316 811.07202 855.18146
852.0 0.001174 812.59534 850.58051
854.0 0.001171 814.12665 847.18170
787.0 0.001271 815.66595 844.69312
831.0 0.001203 817.21283 842.90704
826.0 0.001211 818.76733 841.67194
826.0 0.001211 820.32941 840.87592
773.0 0.001294 821.89868 840.43384
810.0 0.001235 823.47510 840.28064
849.0 0.001178 825.05853 840.36609
769.0 0.001300 826.64899 840.65039
878.0 0.001139 828.24609 841.10181
817.0 0.001224 829.84973 841.69507
881.0 0.001135 831.45996 842.96393
799.0 0.001252 833.07629 843.81055
836.0 0.001196 834.69885 845.02228
785.0 0.001274 836.32727 846.05609
820.0 0.001220 837.96143 847.16266
825.0 0.001212 839.60138 848.33423
764.0 0.001309 841.24658 849.56421
842.0 0.001188 842.89709 850.84686
830.0 0.001205 844.55280 852.17847
855.0 0.001170 846.21332 853.55438
881.0 0.001135 847.87860 854.97235
862.0 0.001160 849.54846 856.42963
844.0 0.001185 851.22278 857.92468
836.0 0.001196 852.90125 859.45587
873.0 0.001145 854.58368 861.02283
831.0 0.001203 856.27008 859.79120
826.0 0.001211 857.96002 861.56061
850.0 0.001176 859.65356 861.94183
871.0 0.001148 861.35022 863.83600
827.0 0.001209 863.04999 865.76007
883.0 0.001133 864.75275 867.71893
811.0 0.001233 866.45813 869.71857
831.0 0.001203 868.16608 871.76697
807.0 0.001239 869.87622 873.87390
862.0 0.001160 871.58844 876.05261
883.0 0.001133 873.30261 878.32013
860.0 0.001163 875.01849 880.69940
922.0 0.001085 876.73602 883.22156
832.0 0.001202 878.45471 885.92975
863.0 0.001159 880.17456 888.88519
896.0 0.001116 881.89545 892.17822
894.0 0.001119 883.61688 895.94830
936.0 0.001068 885.33899 900.44977
908.0 0.001101 887.06122 906.26404
928.0 0.001078 888.78363 914.92145
884.0 0.001131 890.50604 930.22211
982.0 0.001018 892.22809 960.22955
1147.0 0.000872 893.94971 1018.99353
1216.0 0.000822 895.67053 1124.54797
1445.0 0.000692 897.39044 1288.10254
1751.0 0.000571 899.10919 1488.67957
1978.0 0.000506 900.82684 1654.08496
2186.0 0.000457 902.54285 1688.78418
2184.0 0.000458 904.25714 1582.44446
1727.0 0.000579 905.96948 1408.58154
1457.0 0.000686 907.67993 1224.94470
1207.0 0.000829 909.38788 1083.20081
976.0 0.001025 911.09344 999.79248
928.0 0.001078 912.79620 960.26050
892.0 0.001121 914.49603 944.12317
904.0 0.001106 916.19293 937.59790
879.0 0.001138 917.88635 934.60779
877.0 0.001140 919.57648 933.12128
919.0 0.001088 921.26276 932.47491
883.0 0.001133 922.94513 932.38153
912.0 0.001096 924.62347 932.67529
865.0 0.001156 926.29767 933.24927
883.0 0.001133 927.96729 934.02991
832.0 0.001202 929.63226 934.96643
934.0 0.001071 931.29242 936.02209
860.0 0.001163 932.94769 937.17023
896.0 0.001116 934.59766 938.39056
856.0 0.001168 936.24237 939.66803
906.0 0.001104 937.88135 940.99078
884.0 0.001131 939.51459 942.34967
906.0 0.001104 941.14191 943.73743
869.0 0.001151 942.76361 945.14868
915.0 0.001093 944.37842 946.57770
920.0 0.001087 945.98706 948.02148
924.0 0.001082 947.58887 949.47626
912.0 0.001096 949.18396 950.93976
921.0 0.001086 950.77258 952.41003
904.0 0.001106 952.35333 953.88409
921.0 0.001086 953.92737 955.36151
926.0 0.001080 955.49347 956.83978
924.0 0.001082 957.05231 958.31879
939.0 0.001065 958.60358 959.79700
901.0 0.001110 960.14648 961.27301
862.0 0.001160 961.68158 962.74670
887.0 0.001127 963.20825 964.21680
935.0 0.001070 964.72662 965.68317
944.0 0.001059 966.23688 967.14520
893.0 0.001120 967.73798 968.60156
942.0 0.001062 969.23053 969.52417
975.0 0.001026 970.71387 970.99335
976.0 0.001025 972.18823 972.18817
944.0 0.001059 973.65381 973.65375
959.0 0.001043 975.10938 975.10931
977.0 0.001024 976.55597 976.55591
964.0 0.001037 977.99261 977.99249
984.0 0.001016 979.41962 979.41949
1048.0 0.000954 980.83704 980.83698
1026.0 0.000975 982.24408 982.24402
1019.0 0.000981 983.64136 983.64124
981.0 0.001019 985.02814 985.02802
1028.0 0.000973 986.40472 986.40460
985.0 0.001015 987.77124 987.77112
1022.0 0.000978 989.12677 989.12665
995.0 0.001005 990.47186 990.47174
972.0 0.001029 991.80603 991.80591
1037.0 0.000964 993.12946 993.12933
1006.0 0.000994 994.44226 994.44220
1023.0 0.000978 995.74353 995.74341
954.0 0.001048 997.03412 997.03400
972.0 0.001029 998.31317 998.31305
1018.0 0.000982 999.58099 999.58087
968.0 0.001033 1000.83771 1000.83759
1026.0 0.000975 1002.08264 1002.08252
1020.0 0.000980 1003.31628 1003.31616
994.0 0.001006 1004.53809 1004.53796
1004.0 0.000996 1005.74835 1005.74823
978.0 0.001022 1006.94714 1006.94702
1015.0 0.000985 1008.13373 1008.13361
1035.0 0.000966 1009.30865 1009.30853
1015.0 0.000985 1010.47150 1010.47137
1009.0 0.000991 1011.62238 1011.62225
928.0 0.001078 1012.76154 1012.76141
952.0 0.001050 1013.88812 1013.88800
997.0 0.001003 1015.00293 1015.00281
989.0 0.001011 1016.10529 1016.10516
956.0 0.001046 1017.19550 1017.19537
1010.0 0.000990 1018.27362 1018.27350
956.0 0.001046 1019.33917 1019.33905
979.0 0.001021 1020.39258 1020.39240
989.0 0.001011 1021.43335 1021.43323
980.0 0.001020 1022.46185 1022.46173
969.0 0.001032 1023.47815 1023.47803
990.0 0.001010 1024.48169 1024.48157
1051.0 0.000951 1025.47290 1025.47278
1007.0 0.000993 1026.45142 1026.45129
1018.0 0.000982 1027.41748 1027.41736
962.0 0.001040 1028.37122 1028.37109
989.0 0.001011 1029.31213 1029.31201
976.0 0.001025 1030.24072 1030.24060
983.0 0.001017 1031.15649 1031.15637
1000.0 0.001000 1032.05981 1032.05969
1047.0 0.000955 1032.95081 1032.95056
1026.0 0.000975 1033.82886 1033.82874
1018.0 0.000982 1034.69470 1034.69446
1101.0 0.000908 1035.54761 1035.54736
1071.0 0.000934 1036.38806 1036.38794
1010.0 0.000990 1037.21631 1037.21619
1058.0 0.000945 1038.03162 1038.03149
995.0 0.001005 1038.83472 1038.83459
1056.0 0.000947 1039.62512 1039.62500
1072.0 0.000933 1040.40308 1040.40295
1083.0 0.000923 1041.16882 1041.16870
1128.0 0.000887 1041.92188 1041.92175
987.0 0.001013 1042.66272 1042.66260
1117.0 0.000895 1043.39099 1043.39087
1074.0 0.000931 1044.10706 1044.10693
1126.0 0.000888 1044.81091 1044.81079
1065.0 0.000939 1045.50232 1055.01904
1011.0 0.000989 1046.18164 1056.18103
1083.0 0.000923 1046.84863 1061.95972
1077.0 0.000929 1047.50354 1063.40564
1122.0 0.000891 1048.14648 1064.90356
1139.0 0.000878 1048.77722 1066.45984
1105.0 0.000905 1049.39600 1068.08337
1071.0 0.000934 1050.00269 1069.78271
1179.0 0.000848 1050.59766 1071.56897
1186.0 0.000843 1051.18079 1073.45508
1117.0 0.000895 1051.75195 1075.45398
1208.0 0.000828 1052.31152 1077.58362
1130.0 0.000885 1052.85925 1079.86218
1189.0 0.000841 1053.39539 1082.31384
1073.0 0.000932 1053.92004 1084.96594
1138.0 0.000879 1054.43323 1087.84949
1144.0 0.000874 1054.93494 1091.00476
1210.0 0.000826 1055.42517 1094.47717
1225.0 0.000816 1055.90417 1099.06140
1178.0 0.000849 1056.37207 1103.38416
1182.0 0.000846 1056.82874 1108.59497
1171.0 0.000854 1057.27429 1114.10510
1183.0 0.000845 1057.70874 1120.39148
1265.0 0.000791 1058.13232 1127.62927
1230.0 0.000813 1058.54517 1136.04443
1181.0 0.000847 1058.94702 1145.92493
1270.0 0.000787 1059.33838 1157.66675
1242.0 0.000805 1059.71887 1171.79297
1243.0 0.000805 1060.08899 1189.03650
1230.0 0.000813 1060.44861 1210.43176
1259.0 0.000794 1060.79785 1237.46960
1277.0 0.000783 1061.13684 1272.51221
1351.0 0.000740 1061.46558 1319.83496
1442.0 0.000693 1061.78418 1389.39624
1584.0 0.000631 1062.09277 1507.80920
1836.0 0.000545 1062.39136 1743.28589
2386.0 0.000419 1062.68018 2245.92285
3281.0 0.0003048 1062.95911 3274.01123
4841.0 0.0002066 1063.22839 5116.87500
7314.0 0.0001367 1063.48816 7822.15576
10347.0 0.0000966 1063.73840 10837.46484
12419.0 0.0000805 1063.97925 12938.69238
13509.0 0.0000740 1064.21069 13010.59961
12139.0 0.0000824 1064.43298 11382.38477
9142.0 0.0001094 1064.64624 9010.07324
6436.0 0.0001554 1064.85034 6426.71729
4292.0 0.0002330 1065.04553 4234.12109
2724.0 0.000367 1065.23181 2778.45728
1905.0 0.000525 1065.40942 1986.54626
1492.0 0.000670 1065.57849 1615.55359
1420.0 0.000704 1065.73889 1447.56323
1290.0 0.000775 1065.89087 1360.63489
1240.0 0.000806 1066.03442 1305.99121
1198.0 0.000835 1066.16968 1267.20996
1211.0 0.000826 1066.29688 1238.29712
1263.0 0.000792 1066.41602 1216.33411
1138.0 0.000879 1066.52710 1199.53772
1225.0 0.000816 1066.63037 1186.77893
1238.0 0.000808 1066.72583 1177.33618
1225.0 0.000816 1066.81372 1170.81665
1149.0 0.000870 1066.89392 1167.15100
1170.0 0.000855 1066.96655 1166.79138
1201.0 0.000833 1067.03186 1171.51648
1235.0 0.000810 1067.08997 1186.57971
1217.0 0.000822 1067.14087 1224.88623
1400.0 0.000714 1067.18457 1311.71667
1627.0 0.000615 1067.22131 1482.70557
2028.0 0.000493 1067.25122 1760.82751
2424.0 0.000413 1067.27429 2115.20752
2796.0 0.000358 1067.29065 2431.36523
2768.0 0.000361 1067.30029 2553.00049
2533.0 0.000395 1067.30347 2436.13208
2245.0 0.000445 1067.30017 2189.12915
1914.0 0.000522 1067.29065 1890.37207
1590.0 0.000629 1067.27478 1598.52368
1416.0 0.000706 1067.25281 1377.13660
1232.0 0.000812 1067.22473 1241.73315
1142.0 0.000876 1067.19080 1172.19653
1110.0 0.000901 1067.15088 1139.83362
1104.0 0.000906 1067.10522 1123.96912
1101.0 0.000908 1067.05383 1114.59546
1087.0 0.000920 1066.99683 1108.01514
1024.0 0.000977 1066.93433 1093.58142
1072.0 0.000933 1066.86646 1090.00378
1068.0 0.000936 1066.79309 1087.12939
1061.0 0.000943 1066.71460 1080.17749
1095.0 0.000913 1066.63086 1078.42725
1080.0 0.000926 1066.54199 1076.96387
1076.0 0.000929 1066.44824 1075.72278
1071.0 0.000934 1066.34937 1074.65637
1066.0 0.000938 1066.24585 1073.72937
1054.0 0.000949 1066.13745 1072.91431
1008.0 0.000992 1066.02441 1072.19031
1087.0 0.000920 1065.90674 1071.54089
1010.0 0.000990 1065.78455 1070.95276
1071.0 0.000934 1065.65796 1070.41602
1049.0 0.000953 1065.52698 1069.92151
1062.0 0.000942 1065.39160 1069.46326
1066.0 0.000938 1065.25208 1069.03491
1074.0 0.000931 1065.10828 1068.63196
1070.0 0.000935 1064.96057 1068.25110
1023.0 0.000978 1064.80872 1067.88831
1048.0 0.000954 1064.65308 1067.54126
1029.0 0.000972 1064.49341 1067.20776
973.0 0.001028 1064.32996 1066.88562
1084.0 0.000923 1064.16272 1066.57324
1076.0 0.000929 1063.99182 1066.26917
1066.0 0.000938 1063.81738 1065.97241
1061.0 0.000943 1063.63940 1065.68164
1013.0 0.000987 1063.45776 1065.39587
1023.0 0.000978 1063.27283 1065.11462
1035.0 0.000966 1063.08447 1063.72021
1000.0 0.001000 1062.89282 1063.49719
1047.0 0.000955 1062.69788 1063.27319
1027.0 0.000974 1062.49976 1062.49963
1058.0 0.000945 1062.29846 1062.29834
979.0 0.001021 1062.09399 1062.09387
1087.0 0.000920 1061.88660 1061.88647
1014.0 0.000986 1061.67615 1061.67603
1052.0 0.000951 1061.46265 1061.46252
985.0 0.001015 1061.24634 1061.24622
1077.0 0.000929 1061.02710 1061.02698
1036.0 0.000965 1060.80505 1060.80493
1047.0 0.000955 1060.58032 1060.58020
1045.0 0.000957 1060.35266 1060.35254
992.0 0.001008 1060.12256 1060.12244
1015.0 0.000985 1059.88953 1059.88940
1025.0 0.000976 1059.65405 1059.65393
1064.0 0.000940 1059.41602 1059.41589
1057.0 0.000946 1059.17529 1059.17517
1046.0 0.000956 1058.93213 1058.93201
1022.0 0.000978 1058.68640 1058.68628
1041.0 0.000961 1058.43835 1058.43823
1075.0 0.000930 1058.18774 1058.18762
1079.0 0.000927 1057.93469 1057.93457
1038.0 0.000963 1057.67944 1057.67932
989.0 0.001011 1057.42175 1057.42163
1104.0 0.000906 1057.16174 1057.16162
1011.0 0.000989 1056.89941 1056.89929
1039.0 0.000962 1056.63477 1056.63464
1009.0 0.000991 1056.36792 1056.36792
1108.0 0.000903 1056.09888 1056.09875
1078.0 0.000928 1055.82751 1055.82739
1079.0 0.000927 1055.55396 1055.55383
1039.0 0.000962 1055.27820 1055.27808
1100.0 0.000909 1055.00024 1055.00012
1055.0 0.000948 1054.72009 1054.72009
1050.0 0.000952 1054.43787 1054.43787
1099.0 0.000910 1054.15344 1054.15344
1044.0 0.000958 1053.86682 1053.86670
1068.0 0.000936 1053.57813 1053.57800
1022.0 0.000978 1053.28723 1053.28723
1092.0 0.000916 1052.99438 1052.99426
1104.0 0.000906 1052.69922 1052.69910
1076.0 0.000929 1052.40186 1052.40186
1081.0 0.000925 1052.10254 1052.10242
1079.0 0.000927 1051.80103 1051.80090
1066.0 0.000938 1051.49744 1051.49731
1046.0 0.000956 1051.19165 1051.19153
1035.0 0.000966 1050.88367 1050.88354
965.0 0.001036 1050.57361 1050.57349
992.0 0.001008 1050.26135 1050.26123
1020.0 0.000980 1049.94702 1049.94690
982.0 0.001018 1049.63037 1049.63037
1064.0 0.000940 1049.31152 1049.31152
990.0 0.001010 1048.99060 1048.99060
981.0 0.001019 1048.66748 1048.66736
981.0 0.001019 1048.34216 1048.34204
1006.0 0.000994 1048.01453 1048.01453
1059.0 0.000944 1047.68457 1047.68445
1004.0 0.000996 1047.35242 1047.35242
1048.0 0.000954 1047.01794 1047.01794
1008.0 0.000992 1046.68127 1046.68127
1012.0 0.000988 1046.34216 1046.34216
1082.0 0.000924 1046.00073 1046.00061
1009.0 0.000991 1045.65686 1045.65686
976.0 0.001025 1045.31067 1045.31067
1056.0 0.000947 1044.96204 1044.96204
1072.0 0.000933 1044.61096 1044.61096
1051.0 0.000951 1044.25732 1044.25732
1027.0 0.000974 1043.90137 1043.90125
1042.0 0.000960 1043.54272 1043.54260
1018.0 0.000982 1043.18152 1043.18152
1014.0 0.000986 1042.81787 1042.81787
1073.0 0.000932 1042.45142 1042.45142
1045.0 0.000957 1042.08252 1042.08240
1041.0 0.000961 1041.71069 1041.71069
1024.0 0.000977 1041.33630 1041.33630
1015.0 0.000985 1040.95923 1040.95911
990.0 0.001010 1040.57922 1040.57910
1046.0 0.000956 1040.19653 1040.19641
1000.0 0.001000 1039.81079 1039.81079
1011.0 0.000989 1039.42236 1039.42236
1008.0 0.000992 1039.03101 1039.03088
988.0 0.001012 1038.63647 1038.63647
1046.0 0.000956 1038.23914 1038.23901
1021.0 0.000979 1037.83862 1037.83850
1052.0 0.000951 1037.43506 1037.67310
986.0 0.001014 1037.02844 1037.27600
1074.0 0.000931 1036.61853 1036.87622
1036.0 0.000965 1036.20557 1036.59167
1002.0 0.000998 1035.78918 1036.19128
1004.0 0.000996 1035.36963 1035.78894
978.0 0.001022 1034.94678 1035.38428
1013.0 0.000987 1034.52051 1034.97729
1031.0 0.000970 1034.09082 1034.56848
1002.0 0.000998 1033.65759 1034.15759
1015.0 0.000985 1033.22095 1033.74463
988.0 0.001012 1032.78076 1033.33008
982.0 0.001018 1032.33679 1032.91357
998.0 0.001002 1031.88940 1032.49573
1063.0 0.000941 1031.43823 1032.07642
1026.0 0.000975 1030.98340 1031.65613
1025.0 0.000976 1030.52466 1031.23474
979.0 0.001021 1030.06213 1030.81274
1082.0 0.000924 1029.59583 1030.39075
1049.0 0.000953 1029.12537 1029.96838
1124.0 0.000890 1028.65125 1029.54688
1064.0 0.000940 1028.17297 1029.12646
985.0 0.001015 1027.69055 1028.70776
1064.0 0.000940 1027.20410 1031.94385
1024.0 0.000977 1026.71338 1031.67651
1012.0 0.000988 1026.21875 1031.42249
1081.0 0.000925 1025.71960 1032.98499
1045.0 0.000957 1025.21606 1032.83557
1006.0 0.000994 1024.70850 1032.71082
1111.0 0.000900 1024.19629 1032.61450
1062.0 0.000942 1023.67975 1032.55103
1101.0 0.000908 1023.15875 1032.52576
1094.0 0.000914 1022.63306 1032.54468
1072.0 0.000933 1022.10297 1032.61560
1034.0 0.000967 1021.56805 1032.74792
1038.0 0.000963 1021.02863 1032.95410
1082.0 0.000924 1020.48438 1033.24878
1120.0 0.000893 1019.93530 1033.65210
1013.0 0.000987 1019.38153 1034.18933
1067.0 0.000937 1018.82275 1034.89624
1048.0 0.000954 1018.25928 1035.82068
1083.0 0.000923 1017.69073 1037.03394
1078.0 0.000928 1017.11700 1038.65234
1050.0 0.000952 1016.53845 1040.91272
1086.0 0.000921 1015.95465 1044.42102
1143.0 0.000875 1015.36584 1050.79236
1099.0 0.000910 1014.77185 1063.86890
1186.0 0.000843 1014.17242 1090.93408
1187.0 0.000842 1013.56793 1141.65564
1216.0 0.000822 1012.95801 1221.66772
1373.0 0.000728 1012.34283 1321.51453
1471.0 0.000680 1011.72223 1411.43811
1552.0 0.000644 1011.09607 1452.07617
1534.0 0.000652 1010.46454 1431.96667
1502.0 0.000666 1009.82733 1378.75696
1273.0 0.000786 1009.18481 1312.54431
1237.0 0.000808 1008.53650 1239.46240
1265.0 0.000791 1007.88245 1173.10132
1168.0 0.000856 1007.22290 1125.68176
1190.0 0.000840 1006.55750 1099.12488
1149.0 0.000870 1005.88647 1088.83215
1092.0 0.000916 1005.20959 1088.70996
1165.0 0.000858 1004.52667 1094.54468
1104.0 0.000906 1003.83807 1104.61401
1193.0 0.000838 1003.14349 1118.94983
1215.0 0.000823 1002.44312 1138.80676
1168.0 0.000856 1001.73663 1167.35168
1271.0 0.000787 1001.02411 1212.98682
1398.0 0.000715 1000.30560 1298.48108
1593.0 0.000628 999.58087 1478.80786
1907.0 0.000524 998.85028 1859.57300
2605.0 0.000384 998.11346 2585.16357
3808.0 0.0002626 997.37024 3748.32104
5484.0 0.0001823 996.62109 5227.18262
6654.0 0.0001503 995.86560 6596.62646
6532.0 0.0001531 995.10394 7264.80273
6582.0 0.0001519 994.33594 7008.41797
6679.0 0.0001497 993.56146 6215.82373
4931.0 0.0002028 992.78082 5216.73877
3631.0 0.0002754 991.99377 4091.02637
2972.0 0.0003365 991.20044 3015.37134
2206.0 0.000453 990.40063 2187.59277
1646.0 0.000608 989.59430 1659.92212
1270.0 0.000787 988.78168 1374.11060
1231.0 0.000812 987.96240 1234.97351
1095.0 0.000913 987.13690 1166.70093
1088.0 0.000919 986.30463 1128.11731
1060.0 0.000943 985.46582 1102.22095
1048.0 0.000954 984.62067 1082.88757
1051.0 0.000951 983.76880 1067.70508
1021.0 0.000979 982.91046 1055.46301
1101.0 0.000908 982.04547 1045.39368
1045.0 0.000957 981.17371 1036.97168
938.0 0.001066 980.29559 1029.82568
968.0 0.001033 979.41071 1023.67712
1004.0 0.000996 978.51935 1018.32379
990.0 0.001010 977.62122 1013.60889
1002.0 0.000998 976.71625 1009.41296
1048.0 0.000954 975.80499 1005.64557
920.0 0.001087 974.88678 1002.23090
965.0 0.001036 973.96216 999.11261
1031.0 0.000970 973.03058 996.24207
966.0 0.001035 972.09235 993.58142
937.0 0.001067 971.14758 990.86261
994.0 0.001006 970.19598 988.54333
930.0 0.001075 969.23792 986.35559
967.0 0.001034 968.27301 984.16156
984.0 0.001016 967.30115 982.18878
974.0 0.001027 966.32300 980.30194
964.0 0.001037 965.33795 978.48865
990.0 0.001010 964.34644 976.74072
943.0 0.001060 963.34814 975.04932
990.0 0.001010 962.34296 973.40753
948.0 0.001055 961.33148 971.81030
1013.0 0.000987 960.31305 970.25128
924.0 0.001082 959.28821 968.72675
958.0 0.001044 958.25665 967.23230
957.0 0.001045 957.21832 965.76416
964.0 0.001037 956.17365 964.32001
930.0 0.001075 955.12225 962.89642
931.0 0.001074 954.06439 961.49139
983.0 0.001017 952.99988 960.10248
960.0 0.001042 951.92859 958.72742
952.0 0.001050 950.85107 957.36548
979.0 0.001021 949.76691 956.01422
968.0 0.001033 948.67645 954.67273
969.0 0.001032 947.57935 949.66333
938.0 0.001066 946.47559 948.47583
952.0 0.001050 945.36584 947.28729
958.0 0.001044 944.24933 946.09656
906.0 0.001104 943.12671 943.12665
886.0 0.001129 941.99768 941.99762
952.0 0.001050 940.86212 940.86200
953.0 0.001049 939.72046 939.72040
981.0 0.001019 938.57245 938.57239
914.0 0.001094 937.41840 937.41827
876.0 0.001142 936.25793 937.51563
904.0 0.001106 935.09106 936.39862
898.0 0.001114 933.91846 935.27887
948.0 0.001055 932.73950 934.15619
947.0 0.001056 931.55463 933.66840
929.0 0.001076 930.36371 932.56659
938.0 0.001066 929.16638 931.46411
962.0 0.001040 927.96368 930.36249
933.0 0.001072 926.75458 929.26141
929.0 0.001076 925.53992 928.16205
958.0 0.001044 924.31934 927.06506
982.0 0.001018 923.09265 925.97101
925.0 0.001081 921.86053 924.88116
946.0 0.001057 920.62250 923.79639
910.0 0.001099 919.37897 922.71796
938.0 0.001066 918.12970 921.64709
976.0 0.001025 916.87451 920.58508
933.0 0.001072 915.61420 919.53418
865.0 0.001156 914.34814 918.49591
948.0 0.001055 913.07690 917.47278
913.0 0.001095 911.80011 916.46710
961.0 0.001041 910.51764 915.48169
970.0 0.001031 909.23041 915.58783
921.0 0.001086 907.93744 914.69678
931.0 0.001074 906.63965 913.84137
933.0 0.001072 905.33661 913.02698
956.0 0.001046 904.02820 912.79999
924.0 0.001082 902.71509 912.11139
945.0 0.001058 901.39667 911.49017
941.0 0.001063 900.07373 910.94836
974.0 0.001027 898.74573 910.50067
938.0 0.001066 897.41254 910.16467
949.0 0.001054 896.07507 909.96326
902.0 0.001109 894.73260 909.92419
901.0 0.001110 893.38580 910.08282
867.0 0.001153 892.03424 910.48480
904.0 0.001106 890.67786 911.18909
928.0 0.001078 889.31744 912.27350
943.0 0.001060 887.95239 913.84326
985.0 0.001015 886.58325 916.04071
968.0 0.001033 885.20966 919.06750
956.0 0.001046 883.83167 923.22089
941.0 0.001063 882.44989 928.98914
927.0 0.001079 881.06366 937.38696
1012.0 0.000988 879.67389 950.97968
1026.0 0.000975 878.27991 976.62781
1075.0 0.000930 876.88165 1030.70203
1125.0 0.000889 875.48010 1144.48669
1361.0 0.000735 874.07458 1361.10571
1839.0 0.000544 872.66559 1710.75879
2216.0 0.000451 871.25287 2165.98438
2760.0 0.000362 869.83618 2609.48022
2972.0 0.0003365 868.41656 2865.16748
3024.0 0.0003307 866.99335 2838.92578
2770.0 0.000361 865.56696 2628.53564
2364.0 0.000423 864.13721 2355.22778
1978.0 0.000506 862.70398 2041.61609
1608.0 0.000622 861.26807 1704.90137
1386.0 0.000722 859.82867 1406.32202
1196.0 0.000836 858.38684 1188.58533
1060.0 0.000943 856.94183 1054.95703
962.0 0.001040 855.49365 984.57574
969.0 0.001032 854.04321 951.34412
895.0 0.001117 852.58978 936.36017
949.0 0.001054 851.13403 930.10645
960.0 0.001042 849.67566 929.32532
938.0 0.001066 848.21442 934.60754
925.0 0.001081 846.75128 950.93616
1037.0 0.000964 845.28558 991.36444
1083.0 0.000923 843.81793 1081.29578
1242.0 0.000805 842.34796 1256.04590
1623.0 0.000616 840.87567 1541.23962
2035.0 0.000491 839.40179 1916.01147
2384.0 0.000419 837.92560 2286.30762
2528.0 0.000396 836.44800 2507.20947
2572.0 0.000389 834.96832 2494.85156
2625.0 0.000381 833.48682 2324.42700
2239.0 0.000447 832.00403 2100.55176
1768.0 0.000566 830.51947 1844.71667
1484.0 0.000674 829.03369 1564.87439
1377.0 0.000726 827.54639 1308.91101
1116.0 0.000896 826.05743 1115.97986
958.0 0.001044 824.56769 993.10248
921.0 0.001086 823.07660 925.11816
857.0 0.001167 821.58466 890.38580
841.0 0.001189 820.09161 871.99774
865.0 0.001156 818.59723 860.70752
865.0 0.001156 817.10266 852.56396
821.0 0.001218 815.60681 846.07172
802.0 0.001247 814.11084 840.63800
837.0 0.001195 812.61383 835.95929
810.0 0.001235 811.11615 831.84766
813.0 0.001230 809.61841 828.17419
839.0 0.001192 808.12006 824.84235
791.0 0.001264 806.62164 821.78351
784.0 0.001276 805.12286 818.94385
833.0 0.001200 803.62360 816.28284
763.0 0.001311 802.12476 813.77045
766.0 0.001305 800.62567 811.38074
803.0 0.001245 799.12695 809.09497
809.0 0.001236 797.62823 806.89667
797.0 0.001255 796.12946 804.77277
791.0 0.001264 794.63153 802.71405
787.0 0.001271 793.13367 800.71069
826.0 0.001211 791.63641 797.51611
784.0 0.001276 790.13965 795.65009
793.0 0.001261 788.64331 793.81885
738.0 0.001355 787.14795 791.38861
726.0 0.001377 785.65332 789.63947
785.0 0.001274 784.15955 787.91351
759.0 0.001318 782.66669 786.20813
844.0 0.001185 781.17456 784.52106
782.0 0.001279 779.68402 782.85132
759.0 0.001318 778.19409 781.19623
742.0 0.001348 776.70593 779.55548
746.0 0.001340 775.21881 777.92706
742.0 0.001348 773.73248 776.30975
745.0 0.001342 772.24841 774.70398
781.0 0.001280 770.76532 773.10767
787.0 0.001271 769.28430 771.52106
764.0 0.001309 767.80475 769.94281
764.0 0.001309 766.32635 768.37213
788.0 0.001269 764.85052 766.80994
732.0 0.001366 763.37604 765.25446
769.0 0.001300 761.90399 763.70630
755.0 0.001325 760.43365 762.16443
745.0 0.001342 758.96521 759.57184
782.0 0.001279 757.49908 758.08154
750.0 0.001333 756.03497 756.59467
737.0 0.001357 754.57361 754.57355
752.0 0.001330 753.11432 753.11426
738.0 0.001355 751.65717 751.65717
735.0 0.001361 750.20276 750.20276
701.0 0.001427 748.75092 748.75085
745.0 0.001342 747.30164 747.30157
743.0 0.001346 745.85504 745.85498
777.0 0.001287 744.41089 744.41083
753.0 0.001328 742.96979 742.96979
706.0 0.001416 741.53156 741.53156
792.0 0.001263 740.09625 740.09619
717.0 0.001395 738.66388 738.66388
702.0 0.001425 737.23438 737.23431
704.0 0.001420 735.80835 735.80835
733.0 0.001364 734.38507 734.38507
699.0 0.001431 732.96552 732.96552
690.0 0.001449 731.54871 731.54865
734.0 0.001362 730.13519 730.38672
718.0 0.001393 728.72559 728.98718
651.0 0.001536 727.31897 727.59119
689.0 0.001451 725.91632 726.19989
688.0 0.001453 724.51697 724.93811
697.0 0.001435 723.12079 723.55975
740.0 0.001351 721.72894 722.18695
746.0 0.001340 720.34039 720.81860
739.0 0.001353 718.95605 719.45593
693.0 0.001443 717.57532 718.09833
749.0 0.001335 716.19800 716.74579
701.0 0.001427 714.82526 715.39966
730.0 0.001370 713.45605 714.05896
717.0 0.001395 712.09137 712.72510
685.0 0.001460 710.73047 711.39740
711.0 0.001406 709.37347 710.07623
688.0 0.001453 708.02094 708.76245
741.0 0.001350 706.67255 707.45624
744.0 0.001344 705.32843 706.15790
761.0 0.001314 703.98865 704.86810
653.0 0.001531 702.65295 703.58704
716.0 0.001397 701.32190 702.31592
713.0 0.001403 699.99530 701.05511
671.0 0.001490 698.67316 699.80560
685.0 0.001460 697.35553 698.56824
706.0 0.001416 696.04224 697.34424
693.0 0.001443 694.73401 696.13538
674.0 0.001484 693.42993 694.94263
714.0 0.001401 692.13080 693.76855
710.0 0.001408 690.83630 692.61542
684.0 0.001462 689.54645 691.48596
713.0 0.001403 688.26178 690.38446
686.0 0.001458 686.98151 689.31445
712.0 0.001404 685.70648 688.28271
652.0 0.001534 684.43616 687.29578
699.0 0.001431 683.17035 686.36292
761.0 0.001314 681.91010 685.49713
665.0 0.001504 680.65448 684.71387
660.0 0.001515 679.40424 684.03577
703.0 0.001422 678.15887 683.49243
672.0 0.001488 676.91815 683.12714
683.0 0.001464 675.68323 683.00916
725.0 0.001379 674.45294 683.26929
650.0 0.001538 673.22827 684.22241
696.0 0.001437 672.00854 686.69659
695.0 0.001439 670.79388 692.72064
676.0 0.001479 669.58466 706.41687
715.0 0.001399 668.38068 734.19153
763.0 0.001311 667.18201 782.42523
792.0 0.001263 665.98859 851.93805
894.0 0.001119 664.80035 931.33582
963.0 0.001038 663.61768 995.88129
1006.0 0.000994 662.44037 1019.79480
954.0 0.001048 661.26843 1000.37750
908.0 0.001101 660.10193 960.41815
939.0 0.001065 658.94061 915.46552
811.0 0.001233 657.78522 865.13434
767.0 0.001304 656.63483 809.48798
742.0 0.001348 655.49011 757.56256
668.0 0.001497 654.35095 717.07825
635.0 0.001575 653.21704 690.03082
647.0 0.001546 652.08911 674.12854
641.0 0.001560 650.96631 665.38086
641.0 0.001560 649.84937 660.38104
670.0 0.001493 648.73785 657.08783
638.0 0.001567 647.63153 654.55469
625.0 0.001600 646.53131 652.40729
657.0 0.001522 645.43640 650.49567
647.0 0.001546 644.34735 648.75140
616.0 0.001623 643.26379 647.13275
682.0 0.001466 642.18542 645.61145
633.0 0.001580 641.11328 644.16864
652.0 0.001534 640.04639 642.78821
672.0 0.001488 638.98547 641.45996
656.0 0.001524 637.92999 640.17450
629.0 0.001590 636.87994 638.92511
635.0 0.001575 635.83582 637.70715
719.0 0.001391 634.79706 636.51593
657.0 0.001522 633.76434 635.34869
666.0 0.001502 632.73706 634.20203
657.0 0.001522 631.71527 633.07397
678.0 0.001475 630.69934 631.96289
664.0 0.001506 629.68896 630.86713
605.0 0.001653 628.68427 629.78534
608.0 0.001645 627.68524 628.71655
656.0 0.001524 626.69165 627.65967
620.0 0.001613 625.70392 626.61438
637.0 0.001570 624.72174 625.57953
642.0 0.001558 623.74518 624.55475
586.0 0.001706 622.77429 623.53967
613.0 0.001631 621.80884 622.53351
612.0 0.001634 620.84930 621.53644
641.0 0.001560 619.89502 620.54749
604.0 0.001656 618.94672 619.56702
600.0 0.001667 618.00372 618.59424
605.0 0.001653 617.06610 617.62891
614.0 0.001629 616.13446 616.67145
608.0 0.001645 615.20807 615.72101
605.0 0.001653 614.28748 614.98804
616.0 0.001623 613.37231 614.06012
599.0 0.001669 612.46234 613.13940
636.0 0.001572 611.55835 612.22632
604.0 0.001656 610.65955 611.42395
657.0 0.001522 609.76648 610.27838
601.0 0.001664 608.87878 609.40039
600.0 0.001667 607.99634 608.52911
631.0 0.001585 607.11951 607.66498
671.0 0.001490 606.24792 606.68304
625.0 0.001600 605.38202 605.83771
587.0 0.001704 604.52142 604.99908
573.0 0.001745 603.66602 604.16730
628.0 0.001592 602.81610 603.34283
649.0 0.001541 601.97150 602.52576
536.0 0.001866 601.13220 601.71613
612.0 0.001634 600.29822 600.91425
629.0 0.001590 599.46942 600.12024
593.0 0.001686 598.64594 599.33472
616.0 0.001623 597.82776 598.55780
590.0 0.001695 597.01477 597.78986
585.0 0.001709 596.20691 597.03149
601.0 0.001664 595.40417 596.28308
598.0 0.001672 594.60681 595.54559
569.0 0.001757 593.81427 594.81934
575.0 0.001739 593.02716 594.10571
568.0 0.001761 592.24487 593.40527
561.0 0.001783 591.46759 592.71960
596.0 0.001678 590.69568 592.05048
569.0 0.001757 589.92841 591.39935
580.0 0.001724 589.16644 590.76910
583.0 0.001715 588.40930 590.16217
573.0 0.001745 587.65686 589.58215
559.0 0.001789 586.90967 589.03406
593.0 0.001686 586.16711 588.52325
585.0 0.001709 585.42969 588.05762
613.0 0.001631 584.69696 587.64655
568.0 0.001761 583.96875 587.30292
584.0 0.001712 583.24573 587.04456
605.0 0.001653 582.52722 586.89526
589.0 0.001698 581.81360 586.88989
610.0 0.001639 581.10461 587.08527
586.0 0.001706 580.40015 587.59491
583.0 0.001715 579.70044 588.69476
596.0 0.001678 579.00531 591.09619
596.0 0.001678 578.31482 596.46204
581.0 0.001721 577.62878 608.02124
693.0 0.001443 576.94720 630.54138
727.0 0.001376 576.27026 668.48987
869.0 0.001151 575.59772 722.11627
1005.0 0.000995 574.92963 782.94629
962.0 0.001040 574.26593 832.99500
1014.0 0.000986 573.60645 853.03912
951.0 0.001052 572.95154 840.25531
972.0 0.001029 572.30072 811.29254
945.0 0.001058 571.65430 780.28027
831.0 0.001203 571.01208 745.87805
738.0 0.001355 570.37402 706.26880
773.0 0.001294 569.74036 665.93939
691.0 0.001447 569.11053 631.67426
661.0 0.001513 568.48517 607.29736
634.0 0.001577 567.86365 591.68311
561.0 0.001783 567.24603 582.84528
558.0 0.001792 566.63275 578.02454
612.0 0.001634 566.02325 575.20947
542.0 0.001845 565.41791 573.31073
594.0 0.001684 564.81635 571.84430
595.0 0.001681 564.21851 570.61798
573.0 0.001745 563.62488 569.55206
561.0 0.001783 563.03479 568.60529
599.0 0.001669 562.44873 567.75317
613.0 0.001631 561.86627 566.97784
557.0 0.001795 561.28748 566.26733
576.0 0.001736 560.71252 565.61310
599.0 0.001669 560.14117 565.00861
579.0 0.001727 559.57349 564.44965
567.0 0.001764 559.00934 563.93372
609.0 0.001642 558.44867 563.45898
592.0 0.001689 557.89166 563.02539
563.0 0.001776 557.33813 562.63336
556.0 0.001799 556.78802 562.28473
543.0 0.001842 556.24139 561.98199
545.0 0.001835 555.69806 561.72900
536.0 0.001866 555.15826 561.53088
600.0 0.001667 554.62164 561.39392
617.0 0.001621 554.08838 561.32654
563.0 0.001776 553.55841 561.33917
546.0 0.001832 553.03156 561.44531
553.0 0.001808 552.50806 561.66174
583.0 0.001715 551.98755 562.01013
580.0 0.001724 551.47040 562.51825
561.0 0.001783 550.95624 563.22278
539.0 0.001855 550.44501 564.17163
574.0 0.001742 549.93707 565.42902
592.0 0.001689 549.43188 567.08386
581.0 0.001721 548.92993 569.26221
547.0 0.001828 548.43079 572.16614
594.0 0.001684 547.93439 576.18549
640.0 0.001563 547.44110 582.23755
571.0 0.001751 546.95056 592.66724
589.0 0.001698 546.46295 613.01318
615.0 0.001626 545.97803 654.34589
659.0 0.001517 545.49579 733.91327
861.0 0.001161 545.01642 869.72968
1047.0 0.000955 544.53955 1068.44836
1277.0 0.000783 544.06555 1306.99988
1435.0 0.000697 543.59412 1525.23132
1562.0 0.000640 543.12518 1644.89380
1522.0 0.000657 542.65894 1630.48926
1589.0 0.000629 542.19519 1531.23291
1391.0 0.000719 541.73395 1412.12708
1144.0 0.000874 541.27521 1289.87610
970.0 0.001031 540.81879 1149.68286
927.0 0.001079 540.36493 994.02679
864.0 0.001157 539.91339 848.59863
692.0 0.001445 539.46429 734.01300
640.0 0.001563 539.01746 656.29370
507.0 0.001972 538.57288 610.11206
538.0 0.001859 538.13074 585.14130
551.0 0.001815 537.69067 571.88922
532.0 0.001880 537.25299 564.27576
518.0 0.001931 536.81738 559.23712
500.0 0.002000 536.38385 555.46893
544.0 0.001838 535.95264 552.44678
537.0 0.001862 535.52344 549.93201
550.0 0.001818 535.09637 547.79510
515.0 0.001942 534.67139 545.94873
514.0 0.001946 534.24823 544.33099
569.0 0.001757 533.82727 542.91364
531.0 0.001883 533.40820 541.62769
492.0 0.002033 532.99121 540.46332
533.0 0.001876 532.57605 539.39886
529.0 0.001890 532.16278 538.41797
542.0 0.001845 531.75140 537.51636
538.0 0.001859 531.34180 536.66626
551.0 0.001815 530.93420 535.86743
530.0 0.001887 530.52832 535.11267
543.0 0.001842 530.12415 534.39594
500.0 0.002000 529.72174 533.71277
534.0 0.001873 529.32111 533.05884
555.0 0.001802 528.92224 532.43054
544.0 0.001838 528.52502 531.82532
539.0 0.001855 528.12933 531.24030
496.0 0.002016 527.73541 530.67371
559.0 0.001789 527.34308 530.12341
569.0 0.001757 526.95239 529.58801
489.0 0.002045 526.56323 529.06598
520.0 0.001923 526.17560 528.55615
526.0 0.001901 525.78961 528.05780
550.0 0.001818 525.40503 527.56970
541.0 0.001848 525.02203 527.09125
502.0 0.001992 524.64038 526.62152
569.0 0.001757 524.26019 526.15997
482.0 0.002075 523.88153 525.70636
574.0 0.001742 523.50415 525.26001
507.0 0.001972 523.12836 524.82074
513.0 0.001949 522.75378 524.38818
525.0 0.001905 522.38055 523.96185
486.0 0.002058 522.00879 523.54193
541.0 0.001848 521.63818 522.27979
572.0 0.001748 521.26904 521.90387
504.0 0.001984 520.90112 521.53253
522.0 0.001916 520.53436 521.16589
533.0 0.001876 520.16901 520.37689
542.0 0.001845 519.80481 520.03784
489.0 0.002045 519.44189 519.70490
490.0 0.002041 519.08014 519.37927
524.0 0.001908 518.71954 519.06281
511.0 0.001957 518.36017 518.75830
525.0 0.001905 518.00195 518.47028
494.0 0.002024 517.64484 518.20856
547.0 0.001828 517.28888 517.99707
524.0 0.001908 516.93402 517.89514
513.0 0.001949 516.58026 518.03265
543.0 0.001842 516.22760 518.64612
559.0 0.001789 515.87604 520.06122
520.0 0.001923 515.52551 522.56104
569.0 0.001757 515.17596 526.13013
565.0 0.001770 514.82764 530.18628
586.0 0.001706 514.48016 533.52740
592.0 0.001689 514.13373 535.06018
575.0 0.001739 513.78833 534.02942
568.0 0.001761 513.44385 531.74969
523.0 0.001912 513.10046 529.29242
554.0 0.001805 512.75793 526.82886
548.0 0.001825 512.41650 524.15497
527.0 0.001898 512.07593 521.05719
497.0 0.002012 511.73615 518.09741
498.0 0.002008 511.39752 515.65594
524.0 0.001908 511.05966 513.86499
518.0 0.001931 510.72281 512.65399
489.0 0.002045 510.38684 511.84912
512.0 0.001953 510.05161 511.27936
503.0 0.001988 509.71747 510.82861
531.0 0.001883 509.38409 510.43472
484.0 0.002066 509.05164 510.07043
467.0 0.002141 508.72003 509.72440
570.0 0.001754 508.38919 510.52255
496.0 0.002016 508.05927 510.24670
496.0 0.002016 507.73019 509.98370
511.0 0.001957 507.40192 509.73306
485.0 0.002062 507.07446 510.04166
496.0 0.002016 506.74780 509.83725
505.0 0.001980 506.42197 509.64719
558.0 0.001792 506.09698 509.47226
517.0 0.001934 505.77277 509.31369
517.0 0.001934 505.44934 509.17300
486.0 0.002058 505.12668 509.05200
528.0 0.001894 504.80490 508.95303
495.0 0.002020 504.48376 508.87869
500.0 0.002000 504.16348 508.83234
507.0 0.001972 503.84399 508.81808
530.0 0.001887 503.52518 508.84079
500.0 0.002000 503.20724 508.90665
536.0 0.001866 502.88998 509.02322
565.0 0.001770 502.57355 509.20010
510.0 0.001961 502.25784 509.44946
507.0 0.001972 501.94278 509.78732
497.0 0.002012 501.62863 510.23444
527.0 0.001898 501.31512 510.81943
514.0 0.001946 501.00244 511.58392
542.0 0.001845 500.69043 512.60010
501.0 0.001996 500.37909 514.01978
528.0 0.001894 500.06863 516.20764
540.0 0.001852 499.75882 520.03821
558.0 0.001792 499.44983 527.36047
528.0 0.001894 499.14154 541.40521
536.0 0.001866 498.83392 566.44812
617.0 0.001621 498.52707 605.93378
727.0 0.001376 498.22092 659.24915
778.0 0.001285 497.91559 718.43945
801.0 0.001248 497.61093 767.72778
820.0 0.001220 497.30695 790.07324
828.0 0.001208 497.00375 782.02533
765.0 0.001307 496.70129 757.94183
785.0 0.001274 496.39957 732.21936
666.0 0.001502 496.09857 707.73657
660.0 0.001515 495.79825 680.30719
657.0 0.001522 495.49869 648.99585
617.0 0.001621 495.19986 620.12970
642.0 0.001558 494.90179 601.20953
574.0 0.001742 494.60446 599.55713
604.0 0.001656 494.30777 624.86041
610.0 0.001639 494.01196 691.32507
711.0 0.001406 493.71674 816.67883
1047.0 0.000955 493.42239 1012.23712
1263.0 0.000792 493.12872 1267.53577
1473.0 0.000679 492.83569 1536.81458
1466.0 0.000682 492.54355 1740.97180
1538.0 0.000650 492.25208 1807.64978
1791.0 0.000558 491.96143 1740.19641
1549.0 0.000646 491.67148 1612.96021
1393.0 0.000718 491.38217 1483.78760
1056.0 0.000947 491.09378 1356.11694
1013.0 0.000987 490.80603 1207.29492
975.0 0.001026 490.51917 1037.95544
841.0 0.001189 490.23300 874.67773
712.0 0.001404 489.94751 740.85394
605.0 0.001653 489.66287 645.85962
551.0 0.001815 489.37894 586.51044
516.0 0.001938 489.09589 552.97589
547.0 0.001828 488.81354 534.85181
534.0 0.001873 488.53192 524.67480
532.0 0.001880 488.25113 518.27832
527.0 0.001898 487.97113 513.71289
493.0 0.002028 487.69189 510.15942
511.0 0.001957 487.41345 507.26187
525.0 0.001905 487.13580 504.84219
502.0 0.001992 486.85889 502.78925
487.0 0.002053 486.58289 501.02731
514.0 0.001946 486.30756 499.78467
487.0 0.002053 486.03311 498.45715
506.0 0.001976 485.75946 497.28909
508.0 0.001969 485.48657 496.25485
493.0 0.002028 485.21454 495.33508
519.0 0.001927 484.94333 494.65668
502.0 0.001992 484.67285 493.92804
507.0 0.001972 484.40326 493.27817
545.0 0.001835 484.13449 492.70020
499.0 0.002004 483.86652 492.18976
534.0 0.001873 483.59943 491.74408
491.0 0.002037 483.33307 491.36234
525.0 0.001905 483.06769 491.04578
509.0 0.001965 482.80301 490.55820
489.0 0.002045 482.53931 490.39304
526.0 0.001901 482.27631 490.31027
478.0 0.002092 482.01419 490.32306
525.0 0.001905 481.75302 490.45023
509.0 0.001965 481.49258 490.60233
487.0 0.002053 481.23309 491.06488
525.0 0.001905 480.97440 491.80667
524.0 0.001908 480.71655 493.03851
469.0 0.002132 480.45966 495.27493
519.0 0.001927 480.20355 499.68512
497.0 0.002012 479.94839 508.54315
484.0 0.002066 479.69403 525.42072
536.0 0.001866 479.44052 554.38647
592.0 0.001689 479.18799 597.73181
634.0 0.001577 478.93625 652.81982
691.0 0.001447 478.68549 709.57776
664.0 0.001506 478.43552 750.31024
659.0 0.001517 478.18649 762.80359
694.0 0.001441 477.93835 747.55426
640.0 0.001563 477.69110 720.31537
623.0 0.001605 477.44470 693.21301
552.0 0.001812 477.19922 666.53772
556.0 0.001799 476.95465 636.33356
579.0 0.001727 476.71097 601.19312
575.0 0.001739 476.46820 566.27509
502.0 0.001992 476.22638 536.80890
513.0 0.001949 475.98541 515.24902
526.0 0.001901 475.74530 501.40305
489.0 0.002045 475.50623 493.43750
484.0 0.002066 475.26794 489.16791
486.0 0.002058 475.03064 486.90958
496.0 0.002016 474.79422 485.66397
506.0 0.001976 474.55869 484.94977
492.0 0.002033 474.32416 484.56876
518.0 0.001931 474.09045 484.45090
522.0 0.001916 473.85773 484.58197
525.0 0.001905 473.62589 484.97775
527.0 0.001898 473.39490 485.68411
509.0 0.001965 473.16498 486.80157
546.0 0.001832 472.93585 488.56720
466.0 0.002146 472.70773 491.56567
520.0 0.001923 472.48047 497.17966
551.0 0.001815 472.25409 508.27634
530.0 0.001887 472.02875 529.77576
613.0 0.001631 471.80423 568.19739
675.0 0.001481 471.58069 629.02472
814.0 0.001229 471.35803 712.12323
1007.0 0.000993 471.13629 806.91254
1080.0 0.000926 470.91550 890.71899
1114.0 0.000898 470.69562 935.80981
1140.0 0.000877 470.47665 930.26831
1090.0 0.000917 470.25854 891.64606
991.0 0.001009 470.04138 845.79102
943.0 0.001060 469.82520 803.55408
830.0 0.001205 469.60986 759.62170
737.0 0.001357 469.39545 706.71649
721.0 0.001387 469.18195 648.31250
670.0 0.001493 468.96933 593.86078
501.0 0.001996 468.75766 550.22491
507.0 0.001972 468.54684 519.63672
495.0 0.002020 468.33698 500.59528
507.0 0.001972 468.12796 489.72952
455.0 0.002198 467.91986 483.71786
482.0 0.002075 467.71271 480.22385
469.0 0.002132 467.50638 477.94376
448.0 0.002232 467.30099 476.26480
471.0 0.002123 467.09644 474.92181
454.0 0.002203 466.89273 473.79877
498.0 0.002008 466.69000 472.83633
476.0 0.002101 466.48810 471.99738
505.0 0.001980 466.28711 471.25659
477.0 0.002096 466.08691 470.59451
470.0 0.002128 465.88763 469.99680
479.0 0.002088 465.68924 469.45233
499.0 0.002004 465.49164 468.95193
459.0 0.002179 465.29498 468.48880
499.0 0.002004 465.09909 468.05698
460.0 0.002174 464.90411 467.65213
472.0 0.002119 464.70993 467.27045
454.0 0.002203 464.51657 466.90866
433.0 0.002309 464.32413 466.39899
474.0 0.002110 464.13242 466.07501
481.0 0.002079 463.94159 465.76434
445.0 0.002247 463.75156 465.46539
477.0 0.002096 463.56235 465.09216
483.0 0.002070 463.37393 464.81558
473.0 0.002114 463.18634 464.54721
429.0 0.002331 462.99951 464.28625
477.0 0.002096 462.81351 464.03204
473.0 0.002114 462.62827 463.78384
448.0 0.002232 462.44382 463.54123
483.0 0.002070 462.26013 463.30368
487.0 0.002053 462.07721 463.07074
423.0 0.002364 461.89508 462.84216
444.0 0.002252 461.71365 462.61743
454.0 0.002203 461.53305 462.39639
470.0 0.002128 461.35309 462.17877
446.0 0.002242 461.17389 461.96423
484.0 0.002066 460.99548 461.75275
453.0 0.002208 460.81775 461.55695
474.0 0.002110 460.64075 461.35120
441.0 0.002268 460.46442 461.14786
450.0 0.002222 460.28879 460.94681
436.0 0.002294 460.11389 460.74805
443.0 0.002257 459.93964 460.55768
425.0 0.002353 459.76611 460.36313
450.0 0.002222 459.59320 460.17041
432.0 0.002315 459.42096 459.97946
447.0 0.002237 459.24939 459.79031
467.0 0.002141 459.07843 459.60272
443.0 0.002257 458.90817 459.41678
428.0 0.002336 458.73846 459.23230
445.0 0.002247 458.56946 458.76520
449.0 0.002227 458.40100 458.59235
457.0 0.002188 458.23315 458.42038
431.0 0.002320 458.06592 458.24945
442.0 0.002262 457.89926 458.07938
456.0 0.002193 457.73315 457.76889
437.0 0.002288 457.56763 457.60495
444.0 0.002252 457.40268 457.44168
431.0 0.002320 457.23828 457.27908
516.0 0.001938 457.07440 457.11716
470.0 0.002128 456.91104 456.95584
396.0 0.002525 456.74823 456.79529
478.0 0.002092 456.58591 456.63535
444.0 0.002252 456.42413 456.47617
447.0 0.002237 456.26279 456.31763
478.0 0.002092 456.10193 456.15979
437.0 0.002288 455.94159 456.00275
421.0 0.002375 455.78168 455.84644
435.0 0.002299 455.62225 455.69150
437.0 0.002288 455.46323 455.53674
473.0 0.002114 455.30463 455.38290
449.0 0.002227 455.14651 455.22995
442.0 0.002262 454.98874 455.07791
421.0 0.002375 454.83145 454.92691
429.0 0.002331 454.67447 454.77734
457.0 0.002188 454.51788 454.62860
442.0 0.002262 454.36172 454.48129
465.0 0.002151 454.20584 454.33524
432.0 0.002315 454.05042 454.19101
435.0 0.002299 453.89523 454.04858
441.0 0.002268 453.74042 453.90826
454.0 0.002203 453.58591 453.77051
436.0 0.002294 453.43173 453.63565
437.0 0.002288 453.27783 453.50430
435.0 0.002299 453.12421 453.37726
404.0 0.002475 452.97089 453.25543
446.0 0.002242 452.81781 453.14020
437.0 0.002288 452.66501 453.03339
438.0 0.002283 452.51245 452.93796
470.0 0.002128 452.36011 452.85962
436.0 0.002294 452.20795 452.81100
441.0 0.002268 452.05606 452.82245
430.0 0.002326 451.90433 452.96176
417.0 0.002398 451.75281 453.36172
404.0 0.002475 451.60147 454.23636
483.0 0.002070 451.45026 455.84680
423.0 0.002364 451.29926 458.38440
475.0 0.002105 451.14835 461.79123
452.0 0.002212 450.99762 465.59357
465.0 0.002151 450.84698 468.85690
475.0 0.002105 450.69644 470.44492
455.0 0.002198 450.54605 469.93161
467.0 0.002141 450.39569 468.11414
467.0 0.002141 450.24545 466.07074
451.0 0.002217 450.09525 464.28772
426.0 0.002347 449.94510 462.56354
466.0 0.002146 449.79504 460.47806
435.0 0.002299 449.64496 458.02985
440.0 0.002273 449.49496 455.58020
469.0 0.002132 449.34491 453.46039
460.0 0.002174 449.19492 451.83759
445.0 0.002247 449.04489 450.71396
448.0 0.002232 448.89484 449.98322
471.0 0.002123 448.74475 449.50912
459.0 0.002179 448.59460 449.17917
452.0 0.002212 448.44443 448.92233
439.0 0.002278 448.29419 448.91281
397.0 0.002519 448.14389 448.71756
441.0 0.002268 447.99347 448.53412
426.0 0.002347 447.84299 448.35910
448.0 0.002232 447.69235 448.19073
444.0 0.002252 447.54169 448.13181
440.0 0.002273 447.39081 447.97885
451.0 0.002217 447.23981 447.83401
440.0 0.002273 447.08868 447.70163
434.0 0.002304 446.93738 447.58987
490.0 0.002041 446.78595 447.50980
472.0 0.002119 446.63428 447.47110
526.0 0.001901 446.48248 447.47562
506.0 0.001976 446.33041 447.50879
495.0 0.002020 446.17816 447.53592
515.0 0.001942 446.02573 447.50690
518.0 0.001931 445.87302 447.38596
521.0 0.001919 445.72012 447.19083
547.0 0.001828 445.56693 446.97083
480.0 0.002083 445.41348 446.76028
492.0 0.002033 445.25983 446.56183
482.0 0.002075 445.10583 446.35675
470.0 0.002128 444.95160 446.13425
483.0 0.002070 444.79703 445.90527
431.0 0.002320 444.64218 445.68692
466.0 0.002146 444.48700 445.49057
466.0 0.002146 444.33148 445.32007
495.0 0.002020 444.17569 445.17328
442.0 0.002262 444.01950 445.04471
450.0 0.002222 443.86298 445.22775
437.0 0.002288 443.70612 445.13107
414.0 0.002415 443.54889 445.04236
414.0 0.002415 443.39127 444.96115
470.0 0.002128 443.23328 444.88766
428.0 0.002336 443.07486 444.82260
407.0 0.002457 442.91608 444.91751
431.0 0.002320 442.75690 444.87744
445.0 0.002247 442.59732 444.84982
457.0 0.002188 442.43729 444.83643
453.0 0.002208 442.27679 444.83939
454.0 0.002203 442.11594 444.86151
467.0 0.002141 441.95456 444.90588
470.0 0.002128 441.79279 444.97668
461.0 0.002169 441.63052 445.07867
468.0 0.002137 441.46777 445.21820
473.0 0.002114 441.30460 445.57037
446.0 0.002242 441.14090 445.81586
448.0 0.002232 440.97678 446.11667
470.0 0.002128 440.81210 446.51614
448.0 0.002232 440.64691 447.02417
449.0 0.002227 440.48129 447.67502
453.0 0.002208 440.31509 448.61227
465.0 0.002151 440.14844 449.78506
461.0 0.002169 439.98117 451.56906
452.0 0.002212 439.81345 454.59998
462.0 0.002165 439.64517 460.21396
452.0 0.002212 439.47632 470.79727
490.0 0.002041 439.30698 489.78186
493.0 0.002028 439.13702 520.79547
560.0 0.001786 438.96655 565.63617
634.0 0.001577 438.79553 621.73871
773.0 0.001294 438.62393 680.39032
832.0 0.001202 438.45175 726.73163
734.0 0.001362 438.27899 745.52106
734.0 0.001362 438.10565 734.57330
813.0 0.001230 437.93173 707.61017
728.0 0.001374 437.75723 679.43805
680.0 0.001471 437.58215 655.89667
641.0 0.001560 437.40646 633.37207
613.0 0.001631 437.23013 605.48291
559.0 0.001789 437.05328 571.87750
575.0 0.001739 436.87576 537.59308
529.0 0.001890 436.69769 507.62863
523.0 0.001912 436.51895 484.71295
462.0 0.002165 436.33960 469.23471
452.0 0.002212 436.15970 459.90036
451.0 0.002217 435.97910 454.79153
432.0 0.002315 435.79794 452.21906
410.0 0.002439 435.61609 451.05325
439.0 0.002278 435.43362 450.69223
443.0 0.002257 435.25061 450.88358
461.0 0.002169 435.06686 451.59277
470.0 0.002128 434.88260 452.97937
414.0 0.002415 434.69760 455.52527
451.0 0.002217 434.51196 460.35162
483.0 0.002070 434.32578 469.70197
501.0 0.001996 434.13889 487.34741
510.0 0.001961 433.95145 518.29041
544.0 0.001838 433.76328 567.16302
612.0 0.001634 433.57449 635.12500
714.0 0.001401 433.38510 716.52362
811.0 0.001233 433.19504 796.99164
867.0 0.001153 433.00436 854.63330
769.0 0.001300 432.81299 870.86346
831.0 0.001203 432.62103 848.50854
843.0 0.001186 432.42847 808.92017
803.0 0.001245 432.23523 770.78473
785.0 0.001274 432.04135 739.59589
664.0 0.001506 431.84686 708.86792
672.0 0.001488 431.65170 670.67126
562.0 0.001779 431.45596 626.77991
630.0 0.001587 431.25955 586.18182
580.0 0.001724 431.06253 557.99915
536.0 0.001866 430.86487 548.42493
553.0 0.001808 430.66656 559.40417
628.0 0.001592 430.46771 587.77924
668.0 0.001497 430.26816 625.28931
710.0 0.001408 430.06805 659.33972
715.0 0.001399 429.86728 676.38208
711.0 0.001406 429.66589 670.88635
801.0 0.001248 429.46396 650.56750
699.0 0.001431 429.26135 627.21057
594.0 0.001684 429.05820 607.30402
574.0 0.001742 428.85440 589.96436
560.0 0.001786 428.64999 570.11786
592.0 0.001689 428.44507 545.31604
575.0 0.001739 428.23947 518.24396
485.0 0.002062 428.03339 492.99802
480.0 0.002083 427.82660 472.37543
452.0 0.002212 427.61932 457.40121
464.0 0.002155 427.41147 447.58084
425.0 0.002353 427.20303 441.59558
422.0 0.002370 426.99402 438.04309
458.0 0.002183 426.78445 435.84946
420.0 0.002381 426.57434 434.35880
425.0 0.002353 426.36371 433.22897
421.0 0.002375 426.15250 432.09247
425.0 0.002353 425.94077 431.29718
382.0 0.002618 425.72852 430.59305
444.0 0.002252 425.51569 429.95947
418.0 0.002392 425.30243 429.38263
410.0 0.002439 425.08856 428.74698
427.0 0.002342 424.87424 428.25778
422.0 0.002370 424.65942 427.80035
417.0 0.002398 424.44406 427.36975
434.0 0.002304 424.22830 426.96216
438.0 0.002283 424.01196 426.57401
412.0 0.002427 423.79523 426.20264
408.0 0.002451 423.57797 425.84595
408.0 0.002451 423.36023 425.50192
446.0 0.002242 423.14215 425.16931
442.0 0.002262 422.92352 424.84647
433.0 0.002309 422.70453 424.53265
400.0 0.002500 422.48502 424.22659
393.0 0.002545 422.26511 423.92770
422.0 0.002370 422.04486 423.63544
397.0 0.002519 421.82413 423.34900
387.0 0.002584 421.60306 423.06821
419.0 0.002387 421.38153 422.79251
423.0 0.002364 421.15964 422.56894
454.0 0.002203 420.93741 422.30457
454.0 0.002203 420.71475 422.04504
447.0 0.002237 420.49182 421.79053
416.0 0.002404 420.26843 421.54111
391.0 0.002558 420.04477 421.29727
434.0 0.002304 419.82080 421.08322
430.0 0.002326 419.59647 420.55606
406.0 0.002463 419.37186 420.34622
409.0 0.002445 419.14691 420.15207
415.0 0.002410 418.92166 419.98697
377.0 0.002653 418.69614 419.87985
395.0 0.002532 418.47037 419.73419
405.0 0.002469 418.24432 419.94510
427.0 0.002342 418.01801 420.47037
414.0 0.002415 417.79141 421.41162
379.0 0.002639 417.56467 422.79315
430.0 0.002326 417.33762 424.49142
443.0 0.002257 417.11041 426.18970
420.0 0.002381 416.88293 427.40762
426.0 0.002347 416.65527 427.71014
420.0 0.002381 416.42749 427.07993
447.0 0.002237 416.19946 425.77548
459.0 0.002179 415.97134 424.59775
393.0 0.002545 415.74298 423.57874
384.0 0.002604 415.51447 422.63416
402.0 0.002488 415.28592 421.55548
412.0 0.002427 415.05716 420.26868
399.0 0.002506 414.82837 418.81290
419.0 0.002387 414.59940 417.52298
402.0 0.002488 414.37039 416.43106
413.0 0.002421 414.14130 415.57965
411.0 0.002433 413.91208 414.94882
400.0 0.002500 413.68289 414.48499
376.0 0.002660 413.45355 414.12949
412.0 0.002427 413.22427 413.83676
407.0 0.002457 412.99493 413.57806
428.0 0.002336 412.76559 413.33810
397.0 0.002519 412.53622 413.10983
438.0 0.002283 412.30688 412.89029
411.0 0.002433 412.07751 412.67834
440.0 0.002273 411.84824 412.47382
366.0 0.002732 411.61899 412.27686
409.0 0.002445 411.38980 412.08817
405.0 0.002469 411.16068 411.90857
409.0 0.002445 410.93161 411.73950
430.0 0.002326 410.70270 411.58279
388.0 0.002577 410.47379 411.44089
391.0 0.002558 410.24509 411.31717
382.0 0.002618 410.01642 411.21634
390.0 0.002564 409.78790 411.14581
405.0 0.002469 409.55960 411.11926
432.0 0.002315 409.33139 411.16544
420.0 0.002381 409.10342 411.34915
418.0 0.002392 408.87555 411.81061
401.0 0.002494 408.64789 412.82327
418.0 0.002392 408.42050 414.84460
386.0 0.002591 408.19324 418.50116
392.0 0.002551 407.96631 424.42181
418.0 0.002392 407.73953 432.91403
440.0 0.002273 407.51300 443.52429
445.0 0.002247 407.28680 454.77631
471.0 0.002123 407.06082 464.14255
420.0 0.002381 406.83521 468.77170
453.0 0.002208 406.60980 467.60300
459.0 0.002179 406.38474 462.56744
409.0 0.002445 406.16000 456.59509
443.0 0.002257 405.93558 451.46609
387.0 0.002584 405.71152 447.23505
418.0 0.002392 405.48779 442.71582
432.0 0.002315 405.26443 436.93271
401.0 0.002494 405.04150 430.18243
442.0 0.002262 404.81894 423.44446
404.0 0.002475 404.59677 417.56595
420.0 0.002381 404.37500 412.99026
438.0 0.002283 404.15366 409.76514
401.0 0.002494 403.93280 407.65771
382.0 0.002618 403.71231 406.32834
383.0 0.002611 403.49231 405.47128
378.0 0.002646 403.27280 404.87201
410.0 0.002439 403.05371 404.40588
395.0 0.002532 402.83521 404.00961
417.0 0.002398 402.61713 403.64926
422.0 0.002370 402.39963 403.31561
444.0 0.002252 402.18259 403.00519
381.0 0.002625 401.96609 402.70972
405.0 0.002469 401.75021 402.42661
380.0 0.002632 401.53479 402.15344
442.0 0.002262 401.32004 401.88678
405.0 0.002469 401.10577 401.62726
385.0 0.002597 400.89212 401.37592
423.0 0.002364 400.67911 401.12994
384.0 0.002604 400.46664 400.88855
377.0 0.002653 400.25488 400.65140
400.0 0.002500 400.04367 400.41782
426.0 0.002347 399.83313 400.18768
395.0 0.002532 399.62326 399.96066
415.0 0.002410 399.41403 399.73654
424.0 0.002358 399.20551 399.51514
421.0 0.002375 398.99759 399.29623
373.0 0.002681 398.79041 399.25467
420.0 0.002381 398.58392 399.04648
403.0 0.002481 398.37817 398.84103
391.0 0.002558 398.17313 398.63849
414.0 0.002415 397.96881 398.43890
375.0 0.002667 397.76517 398.24237
393.0 0.002545 397.56238 398.04941
407.0 0.002457 397.36029 397.94913
415.0 0.002410 397.15897 397.76718
403.0 0.002481 396.95844 397.59073
408.0 0.002451 396.75867 397.42145
362.0 0.002762 396.55975 397.26337
398.0 0.002513 396.36154 397.12482
385.0 0.002597 396.16425 397.02365
381.0 0.002625 395.96768 396.99307
409.0 0.002445 395.77197 397.08685
379.0 0.002639 395.57715 397.37509
390.0 0.002564 395.38309 397.92502
400.0 0.002500 395.18997 398.76263
412.0 0.002427 394.99765 399.83105
419.0 0.002387 394.80618 400.95966
447.0 0.002237 394.61566 401.86627
420.0 0.002381 394.42596 402.24048
422.0 0.002370 394.23721 401.96814
424.0 0.002358 394.04929 401.25961
429.0 0.002331 393.86234 400.44083
365.0 0.002740 393.67627 399.67303
360.0 0.002778 393.49112 399.07343
416.0 0.002404 393.30695 398.47049
372.0 0.002688 393.12363 397.73718
424.0 0.002358 392.94131 396.87976
389.0 0.002571 392.75992 396.00085
397.0 0.002519 392.57950 395.17874
409.0 0.002445 392.40002 394.52274
429.0 0.002331 392.22156 394.02600
420.0 0.002381 392.04398 393.67096
430.0 0.002326 391.86743 393.42325
399.0 0.002506 391.69189 393.24811
400.0 0.002500 391.51733 393.11960
382.0 0.002618 391.34375 393.02243
424.0 0.002358 391.17117 392.94928
371.0 0.002695 390.99963 392.89795
411.0 0.002433 390.82907 392.86917
369.0 0.002710 390.65958 392.86511
406.0 0.002463 390.49106 392.88940
402.0 0.002488 390.32358 392.94672
417.0 0.002398 390.15717 393.04340
393.0 0.002545 389.99173 393.18747
371.0 0.002695 389.82742 393.38968
397.0 0.002519 389.66406 393.66492
395.0 0.002532 389.50180 394.03577
423.0 0.002364 389.34064 394.54147
380.0 0.002632 389.18045 395.26242
402.0 0.002488 389.02139 396.37329
401.0 0.002494 388.86337 398.25046
403.0 0.002481 388.70645 401.63492
424.0 0.002358 388.55057 407.80704
413.0 0.002421 388.39575 418.63474
433.0 0.002309 388.24210 436.41974
451.0 0.002217 388.08945 462.38919
555.0 0.001802 387.93790 496.49103
606.0 0.001650 387.78745 535.59247
629.0 0.001590 387.63809 573.16351
710.0 0.001408 387.48984 599.96112
685.0 0.001460 387.34268 608.32013
669.0 0.001495 387.19659 598.59662
627.0 0.001595 387.05161 579.46301
581.0 0.001721 386.90775 559.83679
570.0 0.001754 386.76498 544.04572
579.0 0.001727 386.62335 531.06207
483.0 0.002070 386.48279 516.56720
528.0 0.001894 386.34335 497.59070
522.0 0.001916 386.20502 475.29941
451.0 0.002217 386.06781 452.93604
425.0 0.002353 385.93170 433.27817
399.0 0.002506 385.79669 417.87045
420.0 0.002381 385.66281 406.97644
384.0 0.002604 385.53003 399.91986
402.0 0.002488 385.39841 395.63083
419.0 0.002387 385.26785 393.08197
371.0 0.002695 385.13843 391.51959
366.0 0.002732 385.01013 390.48157
377.0 0.002653 384.88293 389.72037
426.0 0.002347 384.75687 389.11642
394.0 0.002538 384.63187 388.61533
393.0 0.002545 384.50800 388.17889
419.0 0.002387 384.38528 387.80511
370.0 0.002703 384.26364 387.47757
372.0 0.002688 384.14316 387.18912
423.0 0.002364 384.02371 386.93411
387.0 0.002584 383.90543 386.70847
336.0 0.002976 383.78824 386.50745
376.0 0.002660 383.67215 386.33200
372.0 0.002688 383.55716 386.17896
374.0 0.002674 383.44327 386.04721
405.0 0.002469 383.33047 385.93622
391.0 0.002558 383.21881 385.84616
378.0 0.002646 383.10822 385.77740
377.0 0.002653 382.99872 385.73120
391.0 0.002558 382.89032 385.70908
391.0 0.002558 382.78299 385.71341
378.0 0.002646 382.67679 385.74741
416.0 0.002404 382.57159 385.81525
422.0 0.002370 382.46753 385.92242
394.0 0.002538 382.36456 386.07611
405.0 0.002469 382.26260 386.28604
394.0 0.002538 382.16177 386.56549
395.0 0.002532 382.06198 386.93478
433.0 0.002309 381.96329 387.42960
381.0 0.002625 381.86563 388.12192
406.0 0.002463 381.76898 389.16708
414.0 0.002415 381.67346 390.89413
365.0 0.002740 381.57895 393.94870
418.0 0.002392 381.48550 399.44345
426.0 0.002347 381.39307 409.01511
409.0 0.002445 381.30167 424.57813
431.0 0.002320 381.21133 447.64670
475.0 0.002105 381.12198 478.32394
519.0 0.001927 381.03369 514.24933
553.0 0.001808 380.94641 550.09808
562.0 0.001779 380.86011 577.88245
581.0 0.001721 380.77484 589.80737
551.0 0.001815 380.69058 584.25781
564.0 0.001773 380.60730 567.72784
519.0 0.001927 380.52502 548.85510
481.0 0.002079 380.44370 532.99640
468.0 0.002137 380.36340 520.72626
475.0 0.002105 380.28406 508.57645
463.0 0.002160 380.20566 493.12454
492.0 0.002033 380.12827 473.66800
441.0 0.002268 380.05179 452.67947
397.0 0.002519 379.97629 433.04062
425.0 0.002353 379.90170 416.71289
380.0 0.002632 379.82809 404.41602
407.0 0.002457 379.75540 396.10681
405.0 0.002469 379.68362 390.87158
380.0 0.002632 379.61276 387.73111
404.0 0.002475 379.54282 385.86044
386.0 0.002591 379.47382 384.70374
395.0 0.002532 379.40564 383.94421
383.0 0.002611 379.33841 383.43124
402.0 0.002488 379.27203 383.10699
377.0 0.002653 379.20654 382.95413
397.0 0.002519 379.14197 382.96075
377.0 0.002653 379.07819 383.09555
398.0 0.002513 379.01529 383.29419
417.0 0.002398 378.95325 383.45712
366.0 0.002732 378.89203 383.47006
395.0 0.002532 378.83170 383.27017
382.0 0.002618 378.77213 382.90396
397.0 0.002519 378.71341 382.48169
394.0 0.002538 378.65549 382.09238
393.0 0.002545 378.59836 381.76694
399.0 0.002506 378.54208 381.54800
396.0 0.002525 378.48654 381.24429
372.0 0.002688 378.43179 380.89236
387.0 0.002584 378.37781 380.50940
412.0 0.002427 378.32458 380.13284
406.0 0.002463 378.27213 379.79449
404.0 0.002475 378.22040 379.51160
390.0 0.002564 378.16943 379.32153
413.0 0.002421 378.11917 379.14844
361.0 0.002770 378.06964 379.01315
367.0 0.002725 378.02084 378.90335
350.0 0.002857 377.97272 378.80957
353.0 0.002833 377.92529 378.72586
363.0 0.002755 377.87860 378.64880
407.0 0.002457 377.83255 378.57675
355.0 0.002817 377.78717 378.50861
409.0 0.002445 377.74246 378.44394
358.0 0.002793 377.69839 378.38242
384.0 0.002604 377.65497 378.32391
397.0 0.002519 377.61218 378.26807
395.0 0.002532 377.57004 378.21494
366.0 0.002732 377.52850 378.16418
362.0 0.002762 377.48755 378.11600
364.0 0.002747 377.44724 378.07019
395.0 0.002532 377.40750 378.02664
407.0 0.002457 377.36835 377.98547
390.0 0.002564 377.32974 377.94669
373.0 0.002681 377.29172 377.91028
400.0 0.002500 377.25427 377.87622
403.0 0.002481 377.21732 377.84470
388.0 0.002577 377.18094 377.81577
393.0 0.002545 377.14508 377.61649
360.0 0.002778 377.10974 377.59842
361.0 0.002770 377.07489 377.58307
387.0 0.002584 377.04059 377.57080
381.0 0.002625 377.00671 377.56186
383.0 0.002611 376.97336 377.55652
340.0 0.002941 376.94046 377.46796
375.0 0.002667 376.90802 377.47394
364.0 0.002747 376.87604 377.48502
422.0 0.002370 376.84451 377.50183
371.0 0.002695 376.81342 377.52527
377.0 0.002653 376.78271 377.55640
360.0 0.002778 376.75247 377.59656
390.0 0.002564 376.72263 377.64746
385.0 0.002597 376.69318 377.71103
370.0 0.002703 376.66409 377.79001
371.0 0.002695 376.63541 377.88782
373.0 0.002681 376.60709 378.00903
381.0 0.002625 376.57910 378.16071
366.0 0.002732 376.55151 378.35458
421.0 0.002375 376.52423 378.61392
404.0 0.002475 376.49731 378.98734
386.0 0.002591 376.47070 379.57642
388.0 0.002577 376.44440 380.57980
406.0 0.002463 376.41840 382.34351
361.0 0.002770 376.39270 385.39160
408.0 0.002451 376.36728 390.37253
392.0 0.002551 376.34216 397.88889
391.0 0.002558 376.31729 408.17929
431.0 0.002320 376.29269 420.76535
418.0 0.002392 376.26831 434.21988
440.0 0.002273 376.24420 446.11893
381.0 0.002625 376.22031 453.52545
454.0 0.002203 376.19666 454.57944
438.0 0.002283 376.17319 450.21207
452.0 0.002212 376.14996 443.34909
416.0 0.002404 376.12692 436.67938
432.0 0.002315 376.10406 431.46634
391.0 0.002558 376.08136 427.38922
387.0 0.002584 376.05887 423.06512
402.0 0.002488 376.03650 417.30063
420.0 0.002381 376.01431 410.14648
370.0 0.002703 375.99225 402.53973
399.0 0.002506 375.97034 395.46167
398.0 0.002513 375.94855 389.57599
373.0 0.002681 375.92688 385.14529
391.0 0.002558 375.90530 382.09512
390.0 0.002564 375.88385 380.14389
376.0 0.002660 375.86246 378.95255
356.0 0.002809 375.84119 378.23114
357.0 0.002801 375.81998 377.77582
352.0 0.002841 375.79883 377.46951
363.0 0.002755 375.77774 377.23663
351.0 0.002849 375.75668 377.04950
372.0 0.002688 375.73569 376.89236
380.0 0.002632 375.71475 376.75681
395.0 0.002532 375.69382 376.63797
372.0 0.002688 375.67288 376.53265
372.0 0.002688 375.65201 376.44089
390.0 0.002564 375.63110 376.35593
366.0 0.002732 375.61020 376.27863
402.0 0.002488 375.58926 376.20782
393.0 0.002545 375.56836 376.14267
382.0 0.002618 375.54739 376.08212
390.0 0.002564 375.52640 376.02576
404.0 0.002475 375.50534 375.97284
409.0 0.002445 375.48425 375.92303
386.0 0.002591 375.46310 375.87589
376.0 0.002660 375.44189 375.83105
364.0 0.002747 375.42059 375.78824
373.0 0.002681 375.39923 375.74728
377.0 0.002653 375.37778 375.70789
365.0 0.002740 375.35623 375.66995
361.0 0.002770 375.33459 375.63321
372.0 0.002688 375.31284 375.59756
365.0 0.002740 375.29099 375.56296
391.0 0.002558 375.26898 375.52917
360.0 0.002778 375.24689 375.49619
366.0 0.002732 375.22464 375.46393
402.0 0.002488 375.20224 375.43222
340.0 0.002941 375.17972 375.40112
352.0 0.002841 375.15701 375.37054
360.0 0.002778 375.13419 375.34033
392.0 0.002551 375.11118 375.31058
403.0 0.002481 375.08798 375.28113
364.0 0.002747 375.06461 375.25201
371.0 0.002695 375.04108 375.22318
364.0 0.002747 375.01733 375.19464
337.0 0.002967 374.99341 375.16626
375.0 0.002667 374.96927 375.13815
358.0 0.002793 374.94492 375.14664
381.0 0.002625 374.92038 375.11984
376.0 0.002660 374.89560 375.09323
390.0 0.002564 374.87061 375.06680
376.0 0.002660 374.84540 375.04059
393.0 0.002545 374.81995 374.94431
382.0 0.002618 374.79422 374.92068
353.0 0.002833 374.76828 374.91528
368.0 0.002717 374.74210 374.89240
352.0 0.002841 374.71567 374.86972
363.0 0.002755 374.68896 374.84720
364.0 0.002747 374.66199 374.82507
380.0 0.002632 374.63474 374.80869
335.0 0.002985 374.60724 374.78946
363.0 0.002755 374.57944 374.77060
385.0 0.002597 374.55139 374.75238
370.0 0.002703 374.52301 374.73489
349.0 0.002865 374.49438 374.71829
382.0 0.002618 374.46542 374.70285
378.0 0.002646 374.43619 374.68872
394.0 0.002538 374.40665 374.69669
352.0 0.002841 374.37680 374.68701
401.0 0.002494 374.34665 374.68018
382.0 0.002618 374.31616 374.67743
385.0 0.002597 374.28537 374.68106
413.0 0.002421 374.25424 374.69568
383.0 0.002611 374.22281 374.73108
345.0 0.002899 374.19104 374.80530
403.0 0.002481 374.15894 374.94968
389.0 0.002571 374.12650 375.21078
369.0 0.002710 374.09372 375.64719
369.0 0.002710 374.06061 376.31433
344.0 0.002907 374.02713 377.23923
348.0 0.002874 373.99332 378.39120
367.0 0.002725 373.95917 379.65723
419.0 0.002387 373.92465 380.83719
364.0 0.002747 373.88980 381.66901
401.0 0.002494 373.85455 381.93854
394.0 0.002538 373.81897 381.64548
368.0 0.002717 373.78305 381.01517
376.0 0.002660 373.74673 380.32037
339.0 0.002950 373.71002 379.73669
358.0 0.002793 373.67297 379.30014
409.0 0.002445 373.63556 378.92258
430.0 0.002326 373.59778 378.46667
368.0 0.002717 373.55960 377.86166
367.0 0.002725 373.52103 377.14954
390.0 0.002564 373.48212 376.42407
365.0 0.002740 373.44281 375.76840
351.0 0.002849 373.40314 375.23465
383.0 0.002611 373.36307 374.83963
366.0 0.002732 373.32260 374.57275
420.0 0.002381 373.28174 374.45380
395.0 0.002532 373.24051 374.36691
368.0 0.002717 373.19891 374.32306
361.0 0.002770 373.15689 374.31036
391.0 0.002558 373.11450 374.31946
375.0 0.002667 373.07172 374.34625
397.0 0.002519 373.02853 374.39014
351.0 0.002849 372.98495 374.45242
388.0 0.002577 372.94098 374.56232
358.0 0.002793 372.89661 374.67511
372.0 0.002688 372.85187 374.82758
367.0 0.002725 372.80670 375.04373
383.0 0.002611 372.76117 375.37210
346.0 0.002890 372.71521 375.90802
361.0 0.002770 372.66888 376.82138
397.0 0.002519 372.62216 378.38068
364.0 0.002747 372.57504 380.95258
395.0 0.002532 372.52750 384.93680
362.0 0.002762 372.47958 390.63507
388.0 0.002577 372.43124 398.05270
418.0 0.002392 372.38254 406.71698
414.0 0.002415 372.33344 415.58182
401.0 0.002494 372.28394 423.05359
367.0 0.002725 372.23404 427.39536
416.0 0.002404 372.18375 427.73743
394.0 0.002538 372.13309 424.96417
434.0 0.002304 372.08200 420.98645
382.0 0.002618 372.03055 417.68619
406.0 0.002463 371.97867 416.19821
368.0 0.002717 371.92642 416.82745
398.0 0.002513 371.87381 419.18576
367.0 0.002725 371.82077 422.66275
394.0 0.002538 371.76736 426.91916
465.0 0.002151 371.71356 431.74133
484.0 0.002066 371.65936 436.40936
426.0 0.002347 371.60483 439.56854
434.0 0.002304 371.54987 439.67419
451.0 0.002217 371.49457 436.21970
464.0 0.002155 371.43884 430.37482
459.0 0.002179 371.38275 424.03461
447.0 0.002237 371.32629 418.62744
456.0 0.002193 371.26947 414.64398
403.0 0.002481 371.21228 411.63733
354.0 0.002825 371.15469 408.54996
391.0 0.002558 371.09674 404.48288
408.0 0.002451 371.03842 399.36261
411.0 0.002433 370.97974 393.76865
395.0 0.002532 370.92068 388.39490
382.0 0.002618 370.86130 383.75140
379.0 0.002639 370.80151 380.09915
393.0 0.002545 370.74139 377.45959
391.0 0.002558 370.68091 375.68442
341.0 0.002933 370.62009 374.55396
385.0 0.002597 370.55890 373.85373
353.0 0.002833 370.49738 373.41757
370.0 0.002703 370.43552 373.13635
391.0 0.002558 370.37329 372.94653
371.0 0.002695 370.31073 372.81577
380.0 0.002632 370.24783 372.72864
361.0 0.002770 370.18457 372.67941
385.0 0.002597 370.12103 372.66251
407.0 0.002457 370.05710 372.69193
389.0 0.002571 369.99289 372.77243
367.0 0.002725 369.92831 372.92603
392.0 0.002551 369.86343 373.19925
383.0 0.002611 369.79825 373.68610
354.0 0.002825 369.73273 374.56107
373.0 0.002681 369.66690 376.11163
390.0 0.002564 369.60074 378.76630
377.0 0.002653 369.53427 383.03860
341.0 0.002933 369.46753 389.40961
394.0 0.002538 369.40045 398.11536
468.0 0.002137 369.33313 408.88538
430.0 0.002326 369.26544 420.76471
487.0 0.002053 369.19751 432.03592
483.0 0.002070 369.12924 440.41525
513.0 0.001949 369.06070 443.87613
497.0 0.002012 368.99191 442.05939
476.0 0.002101 368.92279 436.68799
482.0 0.002075 368.85342 430.23209
431.0 0.002320 368.78378 424.53412
466.0 0.002146 368.71384 420.27988
387.0 0.002584 368.64365 417.00830
418.0 0.002392 368.57321 413.52417
364.0 0.002747 368.50247 408.81061
415.0 0.002410 368.43149 402.79645
431.0 0.002320 368.36026 396.17047
430.0 0.002326 368.28879 389.77084
383.0 0.002611 368.21704 384.23373
381.0 0.002625 368.14505 379.91583
382.0 0.002618 368.07285 376.91162
388.0 0.002577 368.00040 375.14865
372.0 0.002688 367.92770 374.51837
377.0 0.002653 367.85480 374.97763
369.0 0.002710 367.78162 376.58542
369.0 0.002710 367.70825 379.45367
409.0 0.002445 367.63464 383.63223
397.0 0.002519 367.56085 388.95883
430.0 0.002326 367.48682 394.94876
396.0 0.002525 367.41257 400.70355
469.0 0.002132 367.33813 405.12964
430.0 0.002326 367.26349 407.09320
486.0 0.002058 367.18863 406.28253
464.0 0.002155 367.11359 403.49304
487.0 0.002053 367.03836 400.00369
431.0 0.002320 366.96292 396.83105
459.0 0.002179 366.88733 394.39685
428.0 0.002336 366.81155 392.57977
365.0 0.002740 366.73557 390.77292
400.0 0.002500 366.65942 388.38577
382.0 0.002618 366.58310 385.27713
416.0 0.002404 366.50662 381.75223
421.0 0.002375 366.42999 378.20786
341.0 0.002933 366.35318 375.07602
392.0 0.002551 366.27621 372.52151
396.0 0.002525 366.19910 370.60004
384.0 0.002604 366.12183 369.24750
370.0 0.002703 366.04443 368.34000
339.0 0.002950 365.96689 367.74084
355.0 0.002817 365.88916 367.31628
344.0 0.002907 365.81134 367.02631
367.0 0.002725 365.73340 366.80054
383.0 0.002611 365.65530 366.61130
394.0 0.002538 365.57709 366.44379
376.0 0.002660 365.49875 366.29071
340.0 0.002941 365.42029 366.14813
386.0 0.002591 365.34174 366.01382
367.0 0.002725 365.26306 365.88611
344.0 0.002907 365.18427 365.76392
360.0 0.002778 365.10538 365.64874
377.0 0.002653 365.02640 365.53525
346.0 0.002890 364.94730 365.42514
402.0 0.002488 364.86813 365.31796
349.0 0.002865 364.78885 365.21326
348.0 0.002874 364.70947 365.11078
390.0 0.002564 364.63004 365.01022
370.0 0.002703 364.55051 364.91132
344.0 0.002907 364.47092 364.81519
374.0 0.002674 364.39124 364.71912
384.0 0.002604 364.31149 364.62433
394.0 0.002538 364.23166 364.53195
339.0 0.002950 364.15179 364.43915
346.0 0.002890 364.07184 364.34726
371.0 0.002695 363.99185 364.25613
374.0 0.002674 363.91177 364.16571
341.0 0.002933 363.83167 364.07587
388.0 0.002577 363.75153 363.98679
370.0 0.002703 363.67130 363.89801
324.0 0.003086 363.59106 363.81064
368.0 0.002717 363.51077 363.72284
326.0 0.003067 363.43045 363.63565
385.0 0.002597 363.35010 363.50201
337.0 0.002967 363.26971 363.41193
387.0 0.002584 363.18927 363.32709
365.0 0.002740 363.10883 363.24246
351.0 0.002849 363.02838 363.15817
337.0 0.002967 362.94788 363.07410
337.0 0.002967 362.86737 362.99020
367.0 0.002725 362.78683 362.90662
376.0 0.002660 362.70630 362.79791
369.0 0.002710 362.62579 362.71536
367.0 0.002725 362.54523 362.63297
322.0 0.003106 362.46466 362.55078
364.0 0.002747 362.38412 362.46887
366.0 0.002732 362.30356 362.38705
346.0 0.002890 362.22302 362.30542
356.0 0.002809 362.14246 362.22400
368.0 0.002717 362.06192 362.14273
356.0 0.002809 361.98138 362.06171
370.0 0.002703 361.90088 361.98090
350.0 0.002857 361.82037 361.90036
351.0 0.002849 361.73990 361.81998
380.0 0.002632 361.65942 361.73987
363.0 0.002755 361.57895 361.66016
339.0 0.002950 361.49854 361.58075
382.0 0.002618 361.41815 361.50177
377.0 0.002653 361.33780 361.42325
349.0 0.002865 361.25745 361.31857
349.0 0.002865 361.17715 361.24249
338.0 0.002959 361.09686 361.16812
364.0 0.002747 361.01663 361.09653
340.0 0.002941 360.93643 361.02960
358.0 0.002793 360.85626 360.97021
329.0 0.003040 360.77615 360.92172
356.0 0.002809 360.69604 360.87399
339.0 0.002950 360.61603 360.85641
336.0 0.002976 360.53601 360.85437
363.0 0.002755 360.45609 360.86304
379.0 0.002639 360.37619 360.87262
395.0 0.002532 360.29633 360.86926
353.0 0.002833 360.21655 360.83829
354.0 0.002825 360.13681 360.77225
365.0 0.002740 360.05713 360.67862
384.0 0.002604 359.97748 360.57547
356.0 0.002809 359.89789 360.48312
347.0 0.002882 359.81839 360.41916
377.0 0.002653 359.73892 360.39825
347.0 0.002882 359.65955 360.43314
354.0 0.002825 359.58020 360.53552
342.0 0.002924 359.50095 360.71686
329.0 0.003040 359.42172 360.98361
375.0 0.002667 359.34256 361.32663
323.0 0.003096 359.26349 361.72382
352.0 0.002841 359.18448 362.08496
320.0 0.003125 359.10553 362.33759
328.0 0.003049 359.02664 362.40646
408.0 0.002451 358.94785 362.27997
347.0 0.002882 358.86908 362.02872
344.0 0.002907 358.79044 361.75906
343.0 0.002915 358.71179 361.55850
373.0 0.002681 358.63327 361.47668
373.0 0.002681 358.55481 361.49084
386.0 0.002591 358.47641 361.55118
368.0 0.002717 358.39810 361.57867
349.0 0.002865 358.31985 361.50806
419.0 0.002387 358.24170 361.33148
352.0 0.002841 358.16357 361.00229
345.0 0.002899 358.08557 360.59088
353.0 0.002833 358.00760 360.15836
362.0 0.002762 357.92969 359.76678
391.0 0.002558 357.85190 359.44775
358.0 0.002793 357.77414 359.20255
366.0 0.002732 357.69650 359.00784
376.0 0.002660 357.61890 358.83978
360.0 0.002778 357.54135 358.64435
382.0 0.002618 357.46393 358.42731
363.0 0.002755 357.38654 358.19641
358.0 0.002793 357.30923 357.96915
336.0 0.002976 357.23199 357.75882
343.0 0.002915 357.15482 357.57336
380.0 0.002632 357.07773 357.41507
356.0 0.002809 357.00070 357.28149
363.0 0.002755 356.92377 357.16785
368.0 0.002717 356.84686 357.06857
359.0 0.002786 356.77005 356.97879
348.0 0.002874 356.69330 356.89499
340.0 0.002941 356.61664 356.81491
362.0 0.002762 356.54001 356.73706
389.0 0.002571 356.46347 356.66098
389.0 0.002571 356.38696 356.58609
352.0 0.002841 356.31055 356.51227
323.0 0.003096 356.23416 356.43945
334.0 0.002994 356.15787 356.36755
376.0 0.002660 356.08163 356.29657
320.0 0.003125 356.00546 356.22659
359.0 0.002786 355.92935 356.15753
345.0 0.002899 355.85327 356.08942
301.0 0.003322 355.77725 356.02237
323.0 0.003096 355.70129 355.95648
359.0 0.002786 355.62537 355.89163
342.0 0.002924 355.54953 355.82831
367.0 0.002725 355.47372 355.76627
362.0 0.002762 355.39798 355.70572
363.0 0.002755 355.32227 355.64697
337.0 0.002967 355.24658 355.59027
352.0 0.002841 355.17099 355.53574
325.0 0.003077 355.09540 355.48367
367.0 0.002725 355.01987 355.43460
394.0 0.002538 354.94437 355.38882
366.0 0.002732 354.86890 355.34702
365.0 0.002740 354.79349 355.30981
388.0 0.002577 354.71808 355.27832
366.0 0.002732 354.64273 355.25388
338.0 0.002959 354.56738 355.23877
355.0 0.002817 354.49210 355.23712
347.0 0.002882 354.41681 355.25830
367.0 0.002725 354.34155 355.31393
372.0 0.002688 354.26633 355.43344
342.0 0.002924 354.19110 355.66248
345.0 0.002899 354.11591 356.07047
344.0 0.002907 354.04071 356.74973
347.0 0.002882 353.96555 357.80356
362.0 0.002762 353.89038 359.31711
353.0 0.002833 353.81522 361.31900
349.0 0.002865 353.74008 363.73752
384.0 0.002604 353.66495 366.36911
391.0 0.002558 353.58975 368.87872
371.0 0.002695 353.51465 370.82935
394.0 0.002538 353.43945 371.82788
424.0 0.002358 353.36432 371.78101
385.0 0.002597 353.28912 371.02679
367.0 0.002725 353.21396 370.16055
404.0 0.002475 353.13876 369.75845
397.0 0.002519 353.06354 370.24771
390.0 0.002564 352.98831 371.84521
382.0 0.002618 352.91302 374.52307
401.0 0.002494 352.83774 378.03052
356.0 0.002809 352.76242 381.98062
384.0 0.002604 352.68707 385.91434
411.0 0.002433 352.61169 389.24069
359.0 0.002786 352.53629 391.22928
404.0 0.002475 352.46078 391.29501
413.0 0.002421 352.38525 389.44547
423.0 0.002364 352.30972 386.33984
386.0 0.002591 352.23410 382.88065
382.0 0.002618 352.15845 379.79474
374.0 0.002674 352.08273 377.42929
355.0 0.002817 352.00696 375.71631
323.0 0.003096 351.93109 374.24966
387.0 0.002584 351.85519 372.51947
366.0 0.002732 351.77921 370.23434
346.0 0.002890 351.70316 367.46991
336.0 0.002976 351.62704 364.46643
359.0 0.002786 351.55081 361.56808
326.0 0.003067 351.47452 358.98157
361.0 0.002770 351.39813 356.86166
343.0 0.002915 351.32166 355.23947
363.0 0.002755 351.24512 354.06784
387.0 0.002584 351.16846 353.25522
374.0 0.002674 351.09167 352.71027
361.0 0.002770 351.01483 352.32745
372.0 0.002688 350.93784 352.05936
352.0 0.002841 350.86078 351.84521
356.0 0.002809 350.78357 351.70386
335.0 0.002985 350.70624 351.54959
370.0 0.002703 350.62881 351.40985
353.0 0.002833 350.55124 351.28027
362.0 0.002762 350.47354 351.15860
357.0 0.002801 350.39569 351.04318
316.0 0.003165 350.31772 350.93314
325.0 0.003077 350.23962 350.82770
332.0 0.003012 350.16138 350.74408
349.0 0.002865 350.08301 350.64664
338.0 0.002959 350.00443 350.55246
319.0 0.003135 349.92572 350.46124
359.0 0.002786 349.84686 350.37289
347.0 0.002882 349.76782 350.28757
341.0 0.002933 349.68863 350.20554
333.0 0.003003 349.60925 350.12769
353.0 0.002833 349.52969 350.05597
355.0 0.002817 349.44998 349.99393
340.0 0.002941 349.37009 349.94733
323.0 0.003096 349.28998 349.92453
355.0 0.002817 349.20969 349.93658
326.0 0.003067 349.12921 349.99512
344.0 0.002907 349.04855 350.10892
381.0 0.002625 348.96765 350.27942
346.0 0.002890 348.88657 350.49615
330.0 0.003030 348.80527 350.73386
342.0 0.002924 348.72375 350.95151
331.0 0.003021 348.64203 351.09790
343.0 0.002915 348.56006 351.12671
360.0 0.002778 348.47787 351.02499
353.0 0.002833 348.39545 350.82581
382.0 0.002618 348.31284 350.58505
376.0 0.002660 348.22992 350.35257
348.0 0.002874 348.14682 350.15714
342.0 0.002924 348.06342 350.00266
363.0 0.002755 347.97983 349.87119
383.0 0.002611 347.89590 349.73306
359.0 0.002786 347.81177 349.56491
356.0 0.002809 347.72739 349.36569
324.0 0.003086 347.64270 349.14725
322.0 0.003106 347.55777 348.93109
346.0 0.002890 347.47253 348.72083
341.0 0.002933 347.38705 348.55441
321.0 0.003115 347.30124 348.42294
355.0 0.002817 347.21521 348.32639
352.0 0.002841 347.12881 348.26135
325.0 0.003077 347.04218 348.22430
376.0 0.002660 346.95523 348.21063
359.0 0.002786 346.86795 348.21991
324.0 0.003086 346.78040 348.24820
319.0 0.003135 346.69250 348.31726
374.0 0.002674 346.60431 348.43808
349.0 0.002865 346.51581 348.64493
350.0 0.002857 346.42697 348.97366
367.0 0.002725 346.33783 349.57449
348.0 0.002874 346.24832 350.56702
365.0 0.002740 346.15848 352.15186
344.0 0.002907 346.06833 354.54553
326.0 0.003067 345.97778 357.94406
350.0 0.002857 345.88696 362.44138
340.0 0.002941 345.79575 367.95044
395.0 0.002532 345.70416 374.14795
362.0 0.002762 345.61224 380.36636
378.0 0.002646 345.51996 385.77158
396.0 0.002525 345.42734 389.50690
382.0 0.002618 345.33429 391.10324
379.0 0.002639 345.24091 390.78516
400.0 0.002500 345.14716 389.44952
376.0 0.002660 345.05298 388.30115
383.0 0.002611 344.95847 388.39444
382.0 0.002618 344.86353 390.24005
374.0 0.002674 344.76822 393.76138
413.0 0.002421 344.67252 398.25653
429.0 0.002331 344.57639 402.63159
439.0 0.002278 344.47992 405.63904
395.0 0.002532 344.38297 406.24213
424.0 0.002358 344.28564 403.93289
459.0 0.002179 344.18793 399.10071
472.0 0.002119 344.08975 392.90128
440.0 0.002273 343.99118 386.65222
427.0 0.002342 343.89218 381.31143
367.0 0.002725 343.79276 377.29977
365.0 0.002740 343.69290 374.50455
365.0 0.002740 343.59262 372.36963
370.0 0.002703 343.49191 370.18735
406.0 0.002463 343.39072 367.45230
366.0 0.002732 343.28909 364.11047
366.0 0.002732 343.18707 360.44257
347.0 0.002882 343.08456 356.80988
356.0 0.002809 342.98163 353.51489
323.0 0.003096 342.87820 350.74466
361.0 0.002770 342.77435 348.56909
308.0 0.003247 342.67001 346.95688
308.0 0.003247 342.56525 345.81293
350.0 0.002857 342.45996 345.01999
359.0 0.002786 342.35422 344.46774
340.0 0.002941 342.24805 344.06952
340.0 0.002941 342.14136 343.76520
352.0 0.002841 342.03421 343.51743
350.0 0.002857 341.92654 343.30472
349.0 0.002865 341.81845 343.11591
311.0 0.003215 341.70984 342.94580
342.0 0.002924 341.60077 342.79388
366.0 0.002732 341.49118 342.66226
339.0 0.002950 341.38107 342.55432
346.0 0.002890 341.27051 342.48093
286.0 0.003497 341.15942 342.44873
369.0 0.002710 341.04788 342.46497
340.0 0.002941 340.93579 342.53201
363.0 0.002755 340.82324 342.64377
336.0 0.002976 340.71014 342.78351
354.0 0.002825 340.59653 342.92239
309.0 0.003236 340.48245 343.02118
328.0 0.003049 340.36780 343.04135
349.0 0.002865 340.25272 342.95981
357.0 0.002801 340.13702 342.78912
359.0 0.002786 340.02084 342.56998
364.0 0.002747 339.90421 342.34732
350.0 0.002857 339.78696 342.15390
365.0 0.002740 339.66925 342.00510
344.0 0.002907 339.55099 341.89871
358.0 0.002793 339.43219 341.82059
335.0 0.002985 339.31290 341.81384
333.0 0.003003 339.19305 341.76950
345.0 0.002899 339.07272 341.78107
371.0 0.002695 338.95181 341.92206
349.0 0.002865 338.83035 342.30438
352.0 0.002841 338.70840 343.07959
351.0 0.002849 338.58591 344.43381
335.0 0.002985 338.46289 346.56091
364.0 0.002747 338.33929 349.61642
336.0 0.002976 338.21518 353.67496
365.0 0.002740 338.09058 358.54587
389.0 0.002571 337.96536 363.89673
453.0 0.002208 337.83969 369.11783
451.0 0.002217 337.71341 373.40198
396.0 0.002525 337.58658 375.91986
401.0 0.002494 337.45926 376.22687
406.0 0.002463 337.33139 374.61221
403.0 0.002481 337.20297 371.93243
434.0 0.002304 337.07401 369.20117
402.0 0.002488 336.94449 367.11267
397.0 0.002519 336.81448 366.05103
386.0 0.002591 336.68387 365.93137
377.0 0.002653 336.55280 366.32666
387.0 0.002584 336.42108 366.62680
389.0 0.002571 336.28888 366.32327
396.0 0.002525 336.15616 365.18472
381.0 0.002625 336.02286 363.18069
377.0 0.002653 335.88907 360.43216
414.0 0.002415 335.75470 357.22116
359.0 0.002786 335.61984 353.90903
364.0 0.002747 335.48441 350.95450
329.0 0.003040 335.34842 348.55930
324.0 0.003086 335.21194 346.78961
337.0 0.002967 335.07489 345.55579
365.0 0.002740 334.93738 344.65750
342.0 0.002924 334.79926 343.84811
369.0 0.002710 334.66068 342.93781
372.0 0.002688 334.52148 341.85257
356.0 0.002809 334.38184 340.63269
312.0 0.003205 334.24164 339.41357
354.0 0.002825 334.10089 338.26971
348.0 0.002874 333.95969 337.26593
342.0 0.002924 333.81790 336.43442
325.0 0.003077 333.67566 335.77606
325.0 0.003077 333.53284 335.27026
343.0 0.002915 333.38956 334.88794
347.0 0.002882 333.24573 334.59091
348.0 0.002874 333.10144 334.35379
348.0 0.002874 332.95657 334.15588
334.0 0.002994 332.81122 333.98358
343.0 0.002915 332.66541 333.82904
330.0 0.003030 332.51907 333.68768
331.0 0.003021 332.37225 333.55774
359.0 0.002786 332.22491 333.43832
311.0 0.003215 332.07709 333.32974
358.0 0.002793 331.92883 333.23279
323.0 0.003096 331.78003 333.14871
331.0 0.003021 331.63080 333.07953
388.0 0.002577 331.48105 333.02814
327.0 0.003058 331.33081 332.99963
338.0 0.002959 331.18018 333.00281
349.0 0.002865 331.02899 333.05426
318.0 0.003145 330.87744 333.18469
342.0 0.002924 330.72534 333.45041
311.0 0.003215 330.57281 333.94803
333.0 0.003003 330.41986 334.83054
316.0 0.003165 330.26642 336.31900
304.0 0.003289 330.11261 338.69299
332.0 0.003012 329.95828 342.26218
300.0 0.003333 329.80353 347.28973
340.0 0.002941 329.64841 353.85397
312.0 0.003205 329.49280 361.79813
387.0 0.002584 329.33682 370.59589
361.0 0.002770 329.18039 379.34186
393.0 0.002545 329.02356 386.78320
361.0 0.002770 328.86636 391.55313
376.0 0.002660 328.70871 392.73401
366.0 0.002732 328.55072 390.46790
382.0 0.002618 328.39227 385.92892
349.0 0.002865 328.23346 380.61087
328.0 0.003049 328.07431 375.73285
359.0 0.002786 327.91473 371.95053
340.0 0.002941 327.75485 369.31516
338.0 0.002959 327.59457 367.33554
342.0 0.002924 327.43390 365.20648
324.0 0.003086 327.27295 362.22357
379.0 0.002639 327.11160 358.17538
334.0 0.002994 326.94998 353.35992
366.0 0.002732 326.78796 348.28491
327.0 0.003058 326.62561 343.43091
333.0 0.003003 326.46301 339.11395
290.0 0.003448 326.30005 335.58771
330.0 0.003030 326.13681 332.85956
342.0 0.002924 325.97324 330.85391
325.0 0.003077 325.80942 329.43362
312.0 0.003205 325.64529 328.44489
337.0 0.002967 325.48093 327.75031
306.0 0.003268 325.31619 327.24518
317.0 0.003155 325.15125 326.85889
328.0 0.003049 324.98608 326.53381
310.0 0.003226 324.82059 326.28293
334.0 0.002994 324.65494 326.08676
330.0 0.003030 324.48898 325.94272
308.0 0.003247 324.32288 325.89279
298.0 0.003356 324.15649 325.96457
327.0 0.003058 323.98993 326.15030
337.0 0.002967 323.82312 326.48047
322.0 0.003106 323.65613 326.94705
314.0 0.003185 323.48898 327.51813
338.0 0.002959 323.32162 328.12717
329.0 0.003040 323.15414 328.67545
310.0 0.003226 322.98642 329.03751
324.0 0.003086 322.81863 329.11774
306.0 0.003268 322.65060 328.88220
310.0 0.003226 322.48248 328.38055
341.0 0.002933 322.31424 327.74753
309.0 0.003236 322.14584 327.10568
313.0 0.003195 321.97742 326.54037
308.0 0.003247 321.80881 326.08386
325.0 0.003077 321.64011 325.71756
364.0 0.002747 321.47137 325.38245
345.0 0.002899 321.30249 325.00577
284.0 0.00352 321.13361 324.53989
324.0 0.003086 320.96463 323.98584
310.0 0.003226 320.79559 323.38019
308.0 0.003247 320.62656 322.76871
324.0 0.003086 320.45743 322.18988
334.0 0.002994 320.28836 321.66983
327.0 0.003058 320.11923 321.22043
301.0 0.003322 319.95007 320.84174
302.0 0.003311 319.78101 320.52512
308.0 0.003247 319.61188 320.25754
318.0 0.003145 319.44284 320.02579
316.0 0.003165 319.27380 319.81863
322.0 0.003106 319.10480 319.62769
284.0 0.00352 318.93591 319.44739
326.0 0.003067 318.76703 319.27444
329.0 0.003040 318.59827 319.10709
307.0 0.003257 318.42953 318.94443
325.0 0.003077 318.26093 318.78641
311.0 0.003215 318.09244 318.63327
320.0 0.003125 317.92407 318.48575
304.0 0.003289 317.75586 318.34540
317.0 0.003155 317.58771 318.21503
340.0 0.002941 317.41971 318.10007
327.0 0.003058 317.25195 318.01041
313.0 0.003195 317.08429 317.96295
341.0 0.002933 316.91687 317.98514
313.0 0.003195 316.74957 318.11765
318.0 0.003145 316.58246 318.41428
329.0 0.003040 316.41565 318.93753
302.0 0.003311 316.24899 319.68979
294.0 0.003401 316.08264 320.82489
332.0 0.003012 315.91644 322.27863
301.0 0.003322 315.75055 323.98114
325.0 0.003077 315.58490 325.78625
361.0 0.002770 315.41949 327.47296
354.0 0.002825 315.25446 328.76297
313.0 0.003195 315.08963 329.39319
316.0 0.003165 314.92520 329.24319
363.0 0.002755 314.76099 328.39777
335.0 0.002985 314.59720 327.19727
350.0 0.002857 314.43369 325.91702
336.0 0.002976 314.27057 324.78204
323.0 0.003096 314.10776 323.90085
300.0 0.003333 313.94531 323.26071
342.0 0.002924 313.78329 322.74496
309.0 0.003236 313.62164 322.18237
332.0 0.003012 313.46045 321.43091
318.0 0.003145 313.29959 320.45245
339.0 0.002950 313.13925 319.31131
295.0 0.003390 312.97925 318.11331
320.0 0.003125 312.81976 316.95987
312.0 0.003205 312.66068 315.92554
313.0 0.003195 312.50208 315.05359
330.0 0.003030 312.34399 314.35690
322.0 0.003106 312.18637 313.82425
312.0 0.003205 312.02927 313.43179
341.0 0.002933 311.87262 313.15305
285.0 0.00351 311.71652 312.96808
316.0 0.003165 311.56100 312.87097
343.0 0.002915 311.40598 312.87439
349.0 0.002865 311.25156 313.01462
317.0 0.003155 311.09763 313.35358
331.0 0.003021 310.94427 313.97760
290.0 0.003448 310.79160 314.98782
315.0 0.003175 310.63943 316.48102
299.0 0.003344 310.48792 318.51764
323.0 0.003096 310.33698 321.08298
338.0 0.002959 310.18665 324.07333
318.0 0.003145 310.03705 327.24515
349.0 0.002865 309.88800 330.23740
374.0 0.002674 309.73969 332.59433
362.0 0.002762 309.59198 333.88071
334.0 0.002994 309.44495 333.88007
352.0 0.002841 309.29865 332.74313
368.0 0.002717 309.15302 330.90244
340.0 0.002941 309.00812 328.85324
364.0 0.002747 308.86392 326.99237
357.0 0.002801 308.72040 325.52942
325.0 0.003077 308.57770 324.47827
331.0 0.003021 308.43567 323.67523
320.0 0.003125 308.29446 322.85043
330.0 0.003030 308.15396 321.75339
310.0 0.003226 308.01422 320.28159
289.0 0.003460 307.87534 318.50272
347.0 0.002882 307.73718 316.57581
334.0 0.002994 307.59988 314.67172
321.0 0.003115 307.46332 312.92630
316.0 0.003165 307.32761 311.42657
313.0 0.003195 307.19275 310.20755
320.0 0.003125 307.05869 309.26013
319.0 0.003135 306.92551 308.54700
323.0 0.003096 306.79315 308.01715
323.0 0.003096 306.66165 307.62021
281.0 0.00356 306.53104 307.31329
321.0 0.003115 306.40128 307.06403
308.0 0.003247 306.27243 306.85089
312.0 0.003205 306.14447 306.66006
317.0 0.003155 306.01743 306.48355
318.0 0.003145 305.89124 306.31656
316.0 0.003165 305.76602 306.15668
306.0 0.003268 305.64169 306.00220
289.0 0.003460 305.51828 305.85242
302.0 0.003311 305.39584 305.70660
293.0 0.003413 305.27432 305.56430
285.0 0.00351 305.15381 305.42517
323.0 0.003096 305.03418 305.28903
282.0 0.00355 304.91556 305.15570
296.0 0.003378 304.79788 305.02499
320.0 0.003125 304.68121 304.89725
308.0 0.003247 304.56549 304.77225
309.0 0.003236 304.45078 304.65039
292.0 0.003425 304.33707 304.53729
278.0 0.00360 304.22433 304.42221
305.0 0.003279 304.11264 304.31049
318.0 0.003145 304.00195 304.20157
312.0 0.003205 303.89227 304.09506
313.0 0.003195 303.78360 303.98962
312.0 0.003205 303.67596 303.88400
303.0 0.003300 303.56937 303.77682
298.0 0.003356 303.46381 303.66724
292.0 0.003425 303.35931 303.55536
317.0 0.003155 303.25583 303.44516
308.0 0.003247 303.15335 303.33267
307.0 0.003257 303.05200 303.22195
298.0 0.003356 302.95169 303.11365
304.0 0.003289 302.85245 302.99829
310.0 0.003226 302.75424 302.89514
303.0 0.003300 302.65710 302.79337
298.0 0.003356 302.56107 302.69241
301.0 0.003322 302.46609 302.59137
327.0 0.003058 302.37219 302.49069
275.0 0.00364 302.27936 302.39041
308.0 0.003247 302.18762 302.29123
325.0 0.003077 302.09698 302.19363
332.0 0.003012 302.00739 302.09796
292.0 0.003425 301.91891 301.99945
307.0 0.003257 301.83151 301.90793
368.0 0.002717 301.74521 301.81824
309.0 0.003236 301.66000 301.73047
317.0 0.003155 301.57587 301.64426
313.0 0.003195 301.49286 301.55960
317.0 0.003155 301.41089 301.47641
292.0 0.003425 301.33005 301.39447
313.0 0.003195 301.25034 301.31381
313.0 0.003195 301.17166 301.23434
300.0 0.003333 301.09412 301.15613
287.0 0.003484 301.01764 301.07910
289.0 0.003460 300.94226 301.00330
285.0 0.00351 300.86801 300.92865
311.0 0.003215 300.79480 300.85526
310.0 0.003226 300.72272 300.78296
291.0 0.003436 300.65170 300.71188
317.0 0.003155 300.58179 300.64194
304.0 0.003289 300.51294 300.57324
303.0 0.003300 300.44519 300.50577
280.0 0.00357 300.37854 300.43945
287.0 0.003484 300.31293 300.37424
287.0 0.003484 300.24841 300.31024
309.0 0.003236 300.18497 300.24750
289.0 0.003460 300.12259 300.18594
300.0 0.003333 300.06131 300.10983
277.0 0.00361 300.00104 300.05096
310.0 0.003226 299.94186 299.99203
300.0 0.003333 299.88376 299.93567
302.0 0.003311 299.82669 299.88055
279.0 0.00358 299.77066 299.82660
292.0 0.003425 299.71567 299.77393
301.0 0.003322 299.66171 299.72253
314.0 0.003185 299.60880 299.67242
275.0 0.00364 299.55692 299.62357
285.0 0.00351 299.50604 299.56836
321.0 0.003115 299.45621 299.52179
300.0 0.003333 299.40738 299.47723
319.0 0.003135 299.35953 299.43411
275.0 0.00364 299.31268 299.39255
290.0 0.003448 299.26685 299.35257
293.0 0.003413 299.22198 299.31421
328.0 0.003049 299.17810 299.27765
327.0 0.003058 299.13519 299.24295
279.0 0.00358 299.09323 299.21033
299.0 0.003344 299.05225 299.17993
270.0 0.00370 299.01221 299.15207
290.0 0.003448 298.97311 299.12714
288.0 0.003472 298.93497 299.10602
287.0 0.003484 298.89771 299.08990
293.0 0.003413 298.86136 299.08124
299.0 0.003344 298.82596 299.08398
308.0 0.003247 298.79141 299.10522
281.0 0.00356 298.75778 299.15604
282.0 0.00355 298.72504 299.25290
312.0 0.003205 298.69315 299.41809
300.0 0.003333 298.66211 299.67868
323.0 0.003096 298.63196 300.06259
313.0 0.003195 298.60263 300.59238
304.0 0.003289 298.57413 301.27710
288.0 0.003472 298.54645 302.10245
297.0 0.003367 298.51953 303.02481
326.0 0.003067 298.49347 303.96716
341.0 0.002933 298.46817 304.82138
294.0 0.003401 298.44366 305.46109
297.0 0.003367 298.41992 305.77521
300.0 0.003333 298.39691 305.72244
318.0 0.003145 298.37466 305.36053
309.0 0.003236 298.35312 304.81680
327.0 0.003058 298.33231 304.22852
285.0 0.00351 298.31223 303.70209
333.0 0.003003 298.29279 303.29529
323.0 0.003096 298.27405 303.01413
302.0 0.003311 298.25598 302.81772
286.0 0.003497 298.23859 302.63315
315.0 0.003175 298.22180 302.38455
297.0 0.003367 298.20566 302.02835
294.0 0.003401 298.19012 301.56967
301.0 0.003322 298.17520 301.04816
291.0 0.003436 298.16086 300.51257
297.0 0.003367 298.14709 300.00552
301.0 0.003322 298.13388 299.55746
304.0 0.003289 298.12119 299.18512
291.0 0.003436 298.10907 298.89233
294.0 0.003401 298.09744 298.67273
322.0 0.003106 298.08633 298.51422
285.0 0.00351 298.07571 298.40265
268.0 0.00373 298.06558 298.32462
291.0 0.003436 298.05588 298.26926
281.0 0.00356 298.04660 298.22861
304.0 0.003289 298.03778 298.19724
279.0 0.00358 298.02939 298.17181
310.0 0.003226 298.02136 298.15204
274.0 0.00365 298.01373 298.13312
297.0 0.003367 298.00647 298.11618
295.0 0.003390 297.99957 298.10095
306.0 0.003268 297.99301 298.08701
296.0 0.003378 297.98676 298.07422
291.0 0.003436 297.98080 298.06241
279.0 0.00358 297.97513 298.05161
286.0 0.003497 297.96976 298.04144
317.0 0.003155 297.96460 298.03207
292.0 0.003425 297.95972 298.02435
288.0 0.003472 297.95505 298.01620
299.0 0.003344 297.95059 298.00861
301.0 0.003322 297.94635 298.00150
293.0 0.003413 297.94223 297.99475
278.0 0.00360 297.93829 297.98843
301.0 0.003322 297.93451 297.98242
276.0 0.00362 297.93085 297.97675
311.0 0.003215 297.92731 297.97134
282.0 0.00355 297.92383 297.96619
264.0 0.00379 297.92044 297.96121
304.0 0.003289 297.91714 297.95645
312.0 0.003205 297.91385 297.95181
297.0 0.003367 297.91061 297.94733
300.0 0.003333 297.90735 297.94296
304.0 0.003289 297.90411 297.93866
310.0 0.003226 297.90085 297.93439
308.0 0.003247 297.89752 297.93024
306.0 0.003268 297.89417 297.92609
271.0 0.00369 297.89075 297.92191
299.0 0.003344 297.88721 297.91766
285.0 0.00351 297.88358 297.91339
317.0 0.003155 297.87982 297.90918
323.0 0.003096 297.87592 297.90475
290.0 0.003448 297.87189 297.90027
304.0 0.003289 297.86765 297.89566
304.0 0.003289 297.86325 297.89093
306.0 0.003268 297.85864 297.88599
295.0 0.003390 297.85382 297.88098
299.0 0.003344 297.84875 297.87567
320.0 0.003125 297.84344 297.87030
287.0 0.003484 297.83783 297.86453
300.0 0.003333 297.83197 297.85864
319.0 0.003135 297.82581 297.85248
268.0 0.00373 297.81931 297.84604
291.0 0.003436 297.81250 297.84753
307.0 0.003257 297.80536 297.84079
282.0 0.00355 297.79779 297.83362
328.0 0.003049 297.78992 297.82629
309.0 0.003236 297.78162 297.81851
293.0 0.003413 297.77292 297.81049
277.0 0.00361 297.76379 297.80212
282.0 0.00355 297.75421 297.79337
304.0 0.003289 297.74417 297.78427
300.0 0.003333 297.73370 297.77487
286.0 0.003497 297.72275 297.76913
317.0 0.003155 297.71127 297.75912
303.0 0.003300 297.69928 297.74872
309.0 0.003236 297.68680 297.73804
315.0 0.003175 297.67374 297.72693
320.0 0.003125 297.66016 297.71564
305.0 0.003279 297.64600 297.70432
302.0 0.003311 297.63126 297.68878
308.0 0.003247 297.61591 297.67648
274.0 0.00365 297.59998 297.66635
318.0 0.003145 297.58344 297.65765
312.0 0.003205 297.56622 297.65115
281.0 0.00356 297.54840 297.65222
313.0 0.003195 297.52991 297.65320
305.0 0.003279 297.51077 297.65924
309.0 0.003236 297.49091 297.67398
281.0 0.00356 297.47040 297.69025
295.0 0.003390 297.44916 297.70807
279.0 0.00358 297.42722 297.72855
312.0 0.003205 297.40451 297.74829
293.0 0.003413 297.38110 297.76343
282.0 0.00355 297.35693 297.77237
297.0 0.003367 297.33200 297.77890
285.0 0.00351 297.30634 297.78519
296.0 0.003378 297.27988 297.80368
289.0 0.003460 297.25259 297.84830
279.0 0.00358 297.22455 297.92700
325.0 0.003077 297.19568 298.05057
276.0 0.00362 297.16602 298.22232
307.0 0.003257 297.13550 298.43799
334.0 0.002994 297.10416 298.68417
287.0 0.003484 297.07199 298.93805
291.0 0.003436 297.03897 299.16870
303.0 0.003300 297.00510 299.34085
284.0 0.00352 296.97034 299.42236
324.0 0.003086 296.93472 299.39661
298.0 0.003356 296.89822 299.27432
289.0 0.003460 296.86084 299.08795
297.0 0.003367 296.82257 298.87836
289.0 0.003460 296.78339 298.67969
287.0 0.003484 296.74332 298.51401
300.0 0.003333 296.70233 298.38852
321.0 0.003115 296.66043 298.29639
310.0 0.003226 296.61761 298.21921
336.0 0.002976 296.57388 298.13263
307.0 0.003257 296.52921 298.01605
294.0 0.003401 296.48364 297.86176
283.0 0.00353 296.43710 297.67554
313.0 0.003195 296.38962 297.47189
308.0 0.003247 296.34122 297.26630
277.0 0.00361 296.29187 297.07111
315.0 0.003175 296.24158 296.89502
310.0 0.003226 296.19031 296.74194
294.0 0.003401 296.13812 296.61209
277.0 0.00361 296.08496 296.50256
307.0 0.003257 296.03085 296.40942
277.0 0.00361 295.97580 296.32855
287.0 0.003484 295.91977 296.25690
302.0 0.003311 295.86282 296.19229
294.0 0.003401 295.80487 296.13342
322.0 0.003106 295.74600 296.08002
300.0 0.003333 295.68619 296.03204
283.0 0.00353 295.62540 295.99063
284.0 0.00352 295.56366 295.95813
296.0 0.003378 295.50095 295.93893
282.0 0.00355 295.43735 295.94046
292.0 0.003425 295.37274 295.97443
331.0 0.003021 295.30725 296.05878
312.0 0.003205 295.24075 296.21756
289.0 0.003460 295.17337 296.48096
288.0 0.003472 295.10501 296.88223
308.0 0.003247 295.03574 297.45062
295.0 0.003390 294.96558 298.20526
306.0 0.003268 294.89444 299.14359
305.0 0.003279 294.82245 300.23383
322.0 0.003106 294.74948 301.40851
294.0 0.003401 294.67566 302.56308
316.0 0.003165 294.60089 303.56216
280.0 0.00357 294.52524 304.25650
300.0 0.003333 294.44873 304.52847
294.0 0.003401 294.37131 304.34961
325.0 0.003077 294.29303 303.80377
338.0 0.002959 294.21387 303.04593
318.0 0.003145 294.13385 302.23871
280.0 0.00357 294.05298 301.50931
329.0 0.003040 293.97125 300.93292
314.0 0.003185 293.88873 300.52805
331.0 0.003021 293.80533 300.26120
318.0 0.003145 293.72113 300.06027
291.0 0.003436 293.63614 299.84088
293.0 0.003413 293.55032 299.54514
295.0 0.003390 293.46375 299.17230
307.0 0.003257 293.37634 298.77667
307.0 0.003257 293.28821 298.43951
285.0 0.00351 293.19928 298.24820
272.0 0.00368 293.10962 298.24866
299.0 0.003344 293.01923 298.47797
297.0 0.003367 292.92810 298.92786
316.0 0.003165 292.83627 299.54785
294.0 0.003401 292.74371 300.24826
284.0 0.00352 292.65045 300.90936
301.0 0.003322 292.55658 301.40491
325.0 0.003077 292.46198 301.63678
307.0 0.003257 292.36676 301.57224
289.0 0.003460 292.27084 301.21390
312.0 0.003205 292.17432 300.65536
311.0 0.003215 292.07721 299.98096
301.0 0.003322 291.97946 299.30832
294.0 0.003401 291.88116 298.71591
266.0 0.00376 291.78226 298.23880
312.0 0.003205 291.68277 297.86630
302.0 0.003311 291.58279 297.55249
284.0 0.00352 291.48224 297.23325
315.0 0.003175 291.38123 296.85141
307.0 0.003257 291.27963 296.37692
303.0 0.003300 291.17755 295.79532
271.0 0.00369 291.07507 295.13843
274.0 0.00365 290.97208 294.44070
301.0 0.003322 290.86865 293.75220
289.0 0.003460 290.76480 293.11023
316.0 0.003165 290.66049 292.54007
306.0 0.003268 290.55585 292.05270
264.0 0.00379 290.45078 291.64807
294.0 0.003401 290.34537 291.31702
282.0 0.00355 290.23959 291.04346
301.0 0.003322 290.13351 290.81580
295.0 0.003390 290.02707 290.61819
313.0 0.003195 289.92032 290.44070
310.0 0.003226 289.81332 290.27689
275.0 0.00364 289.70602 290.12262
298.0 0.003356 289.59851 289.97565
285.0 0.00351 289.49072 289.83484
282.0 0.00355 289.38272 289.69949
311.0 0.003215 289.27451 289.56897
268.0 0.00373 289.16611 289.44196
315.0 0.003175 289.05753 289.31946
312.0 0.003205 288.94879 289.20004
261.0 0.00383 288.83994 289.08304
283.0 0.00353 288.73090 288.96799
298.0 0.003356 288.62183 288.85446
262.0 0.00382 288.51260 288.74225
258.0 0.00388 288.40335 288.63107
285.0 0.00351 288.29401 288.52075
291.0 0.003436 288.18466 288.41159
284.0 0.00352 288.07523 288.30347
290.0 0.003448 287.96579 288.19659
289.0 0.003460 287.85638 288.09146
318.0 0.003145 287.74698 287.98837
288.0 0.003472 287.63763 287.88785
285.0 0.00351 287.52829 287.79187
256.0 0.00391 287.41904 287.69937
261.0 0.00383 287.30991 287.61212
275.0 0.00364 287.20081 287.53049
273.0 0.00366 287.09189 287.45459
265.0 0.00377 286.98303 287.38358
295.0 0.003390 286.87430 287.31616
294.0 0.003401 286.76578 287.24963
309.0 0.003236 286.65741 287.18094
294.0 0.003401 286.54926 287.10660
298.0 0.003356 286.44125 287.02356
293.0 0.003413 286.33344 286.93127
293.0 0.003413 286.22589 286.83078
297.0 0.003367 286.11859 286.72647
302.0 0.003311 286.01154 286.62271
273.0 0.00366 285.90472 286.52380
292.0 0.003425 285.79816 286.43298
299.0 0.003344 285.69196 286.35251
277.0 0.00361 285.58600 286.28467
292.0 0.003425 285.48041 286.22372
256.0 0.00391 285.37509 286.19092
296.0 0.003378 285.27011 286.18570
283.0 0.00353 285.16553 286.22217
289.0 0.003460 285.06125 286.32004
293.0 0.003413 284.95740 286.50516
288.0 0.003472 284.85385 286.80624
316.0 0.003165 284.75073 287.25052
296.0 0.003378 284.64801 287.85837
267.0 0.00375 284.54568 288.63757
265.0 0.00377 284.44379 289.57755
319.0 0.003135 284.34232 290.64404
324.0 0.003086 284.24124 291.79462
310.0 0.003226 284.14066 292.95929
287.0 0.003484 284.04047 294.07108
292.0 0.003425 283.94080 295.07034
310.0 0.003226 283.84152 295.96460
289.0 0.003460 283.74274 296.83179
289.0 0.003460 283.64444 297.79517
334.0 0.002994 283.54663 298.96460
315.0 0.003175 283.44928 300.38309
300.0 0.003333 283.35242 302.00220
286.0 0.003497 283.25607 303.66867
309.0 0.003236 283.16022 305.15665
290.0 0.003448 283.06488 306.18655
316.0 0.003165 282.97000 306.52057
293.0 0.003413 282.87561 306.05725
292.0 0.003425 282.78180 304.86835
308.0 0.003247 282.68845 303.17786
285.0 0.00351 282.59564 301.27139
309.0 0.003236 282.50333 299.41101
290.0 0.003448 282.41156 297.77887
302.0 0.003311 282.32025 296.45959
274.0 0.00365 282.22949 295.43710
299.0 0.003344 282.13925 294.61856
304.0 0.003289 282.04947 293.85901
300.0 0.003333 281.96027 293.01828
294.0 0.003401 281.87152 292.01755
292.0 0.003425 281.78329 290.84735
261.0 0.00383 281.69556 289.55984
285.0 0.00351 281.60837 288.23550
285.0 0.00351 281.52161 286.95355
281.0 0.00356 281.43536 285.77777
270.0 0.00370 281.34961 284.75009
299.0 0.003344 281.26431 283.88867
309.0 0.003236 281.17953 283.19727
301.0 0.003322 281.09518 282.65045
285.0 0.00351 281.01129 282.22852
287.0 0.003484 280.92786 281.90451
292.0 0.003425 280.84485 281.65277
287.0 0.003484 280.76233 281.45206
302.0 0.003311 280.68021 281.28619
284.0 0.00352 280.59848 281.14346
277.0 0.00361 280.51721 281.01651
280.0 0.00357 280.43631 280.90015
270.0 0.00370 280.35580 280.79218
276.0 0.00362 280.27567 280.69138
280.0 0.00357 280.19592 280.59985
249.0 0.00402 280.11652 280.51425
265.0 0.00377 280.03745 280.43832
297.0 0.003367 279.95874 280.37439
263.0 0.00380 279.88031 280.32477
293.0 0.003413 279.80219 280.29193
271.0 0.00369 279.72440 280.27701
304.0 0.003289 279.64685 280.27969
292.0 0.003425 279.56958 280.29755
267.0 0.00375 279.49252 280.32513
269.0 0.00372 279.41571 280.35419
257.0 0.00389 279.33914 280.37363
302.0 0.003311 279.26276 280.37103
276.0 0.00362 279.18655 280.33496
284.0 0.00352 279.11050 280.25986
269.0 0.00372 279.03461 280.14883
257.0 0.00389 278.95886 280.01279
260.0 0.00385 278.88321 279.86557
292.0 0.003425 278.80768 279.71979
244.0 0.00410 278.73218 279.58447
300.0 0.003333 278.65674 279.46439
308.0 0.003247 278.58139 279.35965
268.0 0.00373 278.50604 279.26636
273.0 0.00366 278.43069 279.17725
258.0 0.00388 278.35532 279.08475
254.0 0.00394 278.27988 278.98233
277.0 0.00361 278.20441 278.86819
258.0 0.00388 278.12885 278.74445
286.0 0.003497 278.05325 278.61618
275.0 0.00364 277.97742 278.48880
292.0 0.003425 277.90152 278.36813
284.0 0.00352 277.82538 278.25906
270.0 0.00370 277.74911 278.16687
298.0 0.003356 277.67267 278.09702
264.0 0.00379 277.59592 278.05600
253.0 0.00395 277.51898 278.05194
282.0 0.00355 277.44168 278.09396
262.0 0.00382 277.36414 278.19144
281.0 0.00356 277.28635 278.35242
304.0 0.003289 277.20813 278.58167
277.0 0.00361 277.12958 278.87643
279.0 0.00358 277.05060 279.22552
293.0 0.003413 276.97122 279.60617
258.0 0.00388 276.89151 279.98410
312.0 0.003205 276.81125 280.31586
313.0 0.003195 276.73053 280.55124
314.0 0.003185 276.64929 280.64639
306.0 0.003268 276.56757 280.58017
284.0 0.00352 276.48538 280.35980
294.0 0.003401 276.40250 280.04388
322.0 0.003106 276.31909 279.68060
286.0 0.003497 276.23505 279.31992
313.0 0.003195 276.15036 278.99844
255.0 0.00392 276.06516 278.73547
293.0 0.003413 275.97913 278.53125
294.0 0.003401 275.89249 278.37128
262.0 0.00382 275.80508 278.21844
267.0 0.00375 275.71698 278.05914
313.0 0.003195 275.62817 277.84689
251.0 0.00398 275.53848 277.59308
291.0 0.003436 275.44809 277.29395
282.0 0.00355 275.35681 276.96619
257.0 0.00389 275.26474 276.62967
266.0 0.00376 275.17191 276.30212
261.0 0.00383 275.07806 275.99579
280.0 0.00357 274.98340 275.71964
273.0 0.00366 274.88779 275.47668
289.0 0.003460 274.79129 275.26215
284.0 0.00352 274.69391 275.08179
288.0 0.003472 274.59549 274.92188
278.0 0.00360 274.49619 274.78488
254.0 0.00394 274.39575 274.66187
310.0 0.003226 274.29443 274.54922
269.0 0.00372 274.19214 274.44424
269.0 0.00372 274.08871 274.34534
261.0 0.00383 273.98434 274.25262
274.0 0.00365 273.87878 274.16727
288.0 0.003472 273.77225 274.09274
261.0 0.00383 273.66470 274.03467
288.0 0.003472 273.55597 274.00113
244.0 0.00410 273.44623 274.00388
257.0 0.00389 273.33527 274.05737
260.0 0.00385 273.22324 274.17844
299.0 0.003344 273.11017 274.38370
283.0 0.00353 272.99588 274.68729
293.0 0.003413 272.88052 275.09525
274.0 0.00365 272.76395 275.60294
290.0 0.003448 272.64624 276.18936
269.0 0.00372 272.52756 276.81650
275.0 0.00364 272.40747 277.43030
260.0 0.00385 272.28641 277.95847
284.0 0.00352 272.16406 278.32681
295.0 0.003390 272.04059 278.46280
292.0 0.003425 271.91614 278.34171
278.0 0.00360 271.79028 277.98990
273.0 0.00366 271.66345 277.47955
277.0 0.00361 271.53534 276.89670
280.0 0.00357 271.40613 276.32053
294.0 0.003401 271.27591 275.80795
288.0 0.003472 271.14438 275.38760
260.0 0.00385 271.01181 275.06277
276.0 0.00362 270.87805 274.81027
304.0 0.003289 270.74323 274.58792
268.0 0.00373 270.60742 274.34549
277.0 0.00361 270.47031 274.03909
293.0 0.003413 270.33224 273.65057
281.0 0.00356 270.19302 273.18762
266.0 0.00376 270.05283 272.67651
278.0 0.00360 269.91168 272.14853
280.0 0.00357 269.76935 271.63055
253.0 0.00395 269.62610 271.14520
293.0 0.003413 269.48178 270.70557
246.0 0.00407 269.33652 270.31778
266.0 0.00376 269.19049 269.98114
279.0 0.00358 269.04330 269.68832
276.0 0.00362 268.89532 269.43222
244.0 0.00410 268.74637 269.20264
304.0 0.003289 268.59659 268.99194
254.0 0.00394 268.44617 268.79413
297.0 0.003367 268.29471 268.60477
251.0 0.00398 268.14258 268.42224
240.0 0.00417 267.98956 268.24460
262.0 0.00382 267.83591 268.07129
287.0 0.003484 267.68173 267.90161
279.0 0.00358 267.52667 267.73404
273.0 0.00366 267.37109 267.56821
245.0 0.00408 267.21478 267.40256
273.0 0.00366 267.05801 267.23636
283.0 0.00353 266.90085 267.06900
256.0 0.00391 266.74301 266.89984
288.0 0.003472 266.58484 266.72968
279.0 0.00358 266.42612 266.55853
275.0 0.00364 266.26712 266.38763
263.0 0.00380 266.10788 266.21701
275.0 0.00364 265.94818 266.04712
268.0 0.00373 265.78839 265.87848
253.0 0.00395 265.62817 265.70715
270.0 0.00370 265.46799 265.54086
277.0 0.00361 265.30774 265.37564
246.0 0.00407 265.14722 265.21115
267.0 0.00375 264.98688 265.04767
255.0 0.00392 264.82639 264.88467
260.0 0.00385 264.66602 264.72235
242.0 0.00413 264.50589 264.56055
278.0 0.00360 264.34573 264.39905
250.0 0.00400 264.18600 264.23828
271.0 0.00369 264.02637 264.07764
267.0 0.00375 263.86713 263.91586
267.0 0.00375 263.70837 263.75641
286.0 0.003497 263.54987 263.59747
267.0 0.00375 263.39200 263.43930
249.0 0.00402 263.23453 263.28156
257.0 0.00389 263.07770 263.12463
237.0 0.00422 262.92169 262.96860
258.0 0.00388 262.76608 262.81314
268.0 0.00373 262.61148 262.65881
241.0 0.00415 262.45752 262.50516
279.0 0.00358 262.30447 262.35272
273.0 0.00366 262.15253 262.20139
234.0 0.00427 262.00137 262.05096
231.0 0.00433 261.85135 261.90192
264.0 0.00379 261.70233 261.75397
225.0 0.00444 261.55453 261.60739
263.0 0.00380 261.40808 261.46240
284.0 0.00352 261.26273 261.31866
255.0 0.00392 261.11877 261.17664
289.0 0.003460 260.97614 261.03619
243.0 0.00412 260.83499 260.89743
264.0 0.00379 260.69550 260.76071
260.0 0.00385 260.55737 260.62567
250.0 0.00400 260.42099 260.49274
268.0 0.00373 260.28616 260.36188
259.0 0.00386 260.15314 260.23337
244.0 0.00410 260.02203 260.10751
262.0 0.00382 259.89261 259.98422
259.0 0.00386 259.76517 259.86401
242.0 0.00413 259.63959 259.74731
286.0 0.003497 259.51608 259.63516
261.0 0.00383 259.39478 259.53146
276.0 0.00362 259.27539 259.43298
270.0 0.00370 259.15829 259.34555
262.0 0.00382 259.04333 259.27356
275.0 0.00364 258.93069 259.22311
271.0 0.00369 258.82050 259.20166
249.0 0.00402 258.71252 259.21774
257.0 0.00389 258.60706 259.28018
254.0 0.00394 258.50397 259.39655
261.0 0.00383 258.40344 259.57098
255.0 0.00392 258.30560 259.80209
292.0 0.003425 258.21021 260.08337
289.0 0.003460 258.11755 260.39639
238.0 0.00420 258.02750 260.71484
263.0 0.00380 257.94022 261.00562
250.0 0.00400 257.85580 261.22946
293.0 0.003413 257.77408 261.34924
224.0 0.00446 257.69525 261.34018
246.0 0.00407 257.61923 261.19833
251.0 0.00398 257.54617 260.95996
263.0 0.00380 257.47607 260.66315
271.0 0.00369 257.40887 260.35117
280.0 0.00357 257.34476 260.06085
220.0 0.00455 257.28357 259.81595
257.0 0.00389 257.22546 259.62604
253.0 0.00395 257.17044 259.48795
263.0 0.00380 257.11847 259.38589
241.0 0.00415 257.06964 259.29593
265.0 0.00377 257.02386 259.19147
248.0 0.00403 256.98126 259.05164
242.0 0.00413 256.94180 258.86655
269.0 0.00372 256.90546 258.64572
273.0 0.00366 256.87231 258.40155
281.0 0.00356 256.84229 258.15030
266.0 0.00376 256.81546 257.90726
275.0 0.00364 256.79178 257.68445
253.0 0.00395 256.77124 257.48874
247.0 0.00405 256.75391 257.32455
255.0 0.00392 256.73965 257.19171
258.0 0.00388 256.72858 257.08792
252.0 0.00397 256.72061 257.00919
259.0 0.00386 256.71576 256.95111
281.0 0.00356 256.71399 256.90961
228.0 0.00439 256.71530 256.88135
277.0 0.00361 256.71967 256.86325
271.0 0.00369 256.72705 256.85556
266.0 0.00376 256.73743 256.85266
257.0 0.00389 256.75076 256.85547
273.0 0.00366 256.76703 256.86334
238.0 0.00420 256.78619 256.87576
254.0 0.00394 256.80820 256.89233
281.0 0.00356 256.83301 256.91290
273.0 0.00366 256.86060 256.93723
281.0 0.00356 256.89096 256.96490
260.0 0.00385 256.92392 256.99597
250.0 0.00400 256.95950 257.03043
237.0 0.00422 256.99771 257.06818
283.0 0.00353 257.03839 257.11032
277.0 0.00361 257.08154 257.15500
275.0 0.00364 257.12704 257.20337
268.0 0.00373 257.17487 257.25568
275.0 0.00364 257.22498 257.31241
232.0 0.00431 257.27722 257.37381
271.0 0.00369 257.33163 257.43985
280.0 0.00357 257.38806 257.51068
276.0 0.00362 257.44638 257.58569
229.0 0.00437 257.50665 257.66443
240.0 0.00417 257.56870 257.74820
300.0 0.003333 257.63251 257.83066
247.0 0.00405 257.69791 257.91251
281.0 0.00356 257.76477 257.99170
269.0 0.00372 257.83316 258.06717
226.0 0.00442 257.90289 258.13809
245.0 0.00408 257.97391 258.20511
260.0 0.00385 258.04608 258.26987
269.0 0.00372 258.11923 258.33420
266.0 0.00376 258.19348 258.39981
255.0 0.00392 258.26852 258.46799
278.0 0.00360 258.34439 258.53967
261.0 0.00383 258.42087 258.61594
245.0 0.00408 258.49786 258.69409
260.0 0.00385 258.57544 258.77457
239.0 0.00418 258.65323 258.85623
256.0 0.00391 258.73141 258.93799
259.0 0.00386 258.80960 259.01932
255.0 0.00392 258.88782 259.10034
246.0 0.00407 258.96603 259.18213
264.0 0.00379 259.04398 259.26648
282.0 0.00355 259.12170 259.35602
248.0 0.00403 259.19897 259.45380
241.0 0.00415 259.27570 259.56439
279.0 0.00358 259.35187 259.69333
269.0 0.00372 259.42722 259.84695
270.0 0.00370 259.50180 260.03265
287.0 0.003484 259.57538 260.25726
279.0 0.00358 259.64789 260.52637
260.0 0.00385 259.71930 260.84396
267.0 0.00375 259.78937 261.20801
220.0 0.00455 259.85815 261.61240
245.0 0.00408 259.92542 262.04349
270.0 0.00370 259.99106 262.48093
261.0 0.00383 260.05518 262.89954
257.0 0.00389 260.11743 263.26822
228.0 0.00439 260.17789 263.55823
238.0 0.00420 260.23639 263.74945
259.0 0.00386 260.29282 263.84155
266.0 0.00376 260.34720 263.85587
281.0 0.00356 260.39938 263.82687
268.0 0.00373 260.44931 263.79089
261.0 0.00383 260.49689 263.77698
278.0 0.00360 260.54199 263.80185
266.0 0.00376 260.58469 263.86847
253.0 0.00395 260.62479 263.96545
267.0 0.00375 260.66235 264.06970
267.0 0.00375 260.69724 264.14951
262.0 0.00382 260.72937 264.17380
277.0 0.00361 260.75882 264.12097
252.0 0.00397 260.78546 263.98706
293.0 0.003413 260.80930 263.78485
251.0 0.00398 260.83026 263.53882
251.0 0.00398 260.84830 263.27621
284.0 0.00352 260.86349 263.01758
266.0 0.00376 260.87579 262.78583
266.0 0.00376 260.88513 262.58722
269.0 0.00372 260.89157 262.42395
251.0 0.00398 260.89508 262.29092
234.0 0.00427 260.89572 262.17822
252.0 0.00397 260.89343 262.07480
259.0 0.00386 260.88828 261.97159
263.0 0.00380 260.88028 261.86465
258.0 0.00388 260.86951 261.75439
270.0 0.00370 260.85593 261.64386
265.0 0.00377 260.83966 261.53787
275.0 0.00364 260.82068 261.44006
260.0 0.00385 260.79910 261.35818
238.0 0.00420 260.77502 261.29593
251.0 0.00398 260.74841 261.25824
249.0 0.00402 260.71945 261.25012
296.0 0.003378 260.68811 261.27625
273.0 0.00366 260.65460 261.34073
298.0 0.003356 260.61896 261.44650
245.0 0.00408 260.58124 261.59460
250.0 0.00400 260.54160 261.78207
259.0 0.00386 260.50012 262.00241
262.0 0.00382 260.45691 262.24332
270.0 0.00370 260.41217 262.48737
277.0 0.00361 260.36584 262.71274
250.0 0.00400 260.31824 262.89313
240.0 0.00417 260.26932 263.00314
259.0 0.00386 260.21933 263.02390
250.0 0.00400 260.16840 262.95187
290.0 0.003448 260.11652 262.80090
243.0 0.00412 260.06396 262.59756
277.0 0.00361 260.01077 262.37216
261.0 0.00383 259.95709 262.15329
269.0 0.00372 259.90311 261.96295
254.0 0.00394 259.84882 261.81555
256.0 0.00391 259.79446 261.71854
272.0 0.00368 259.74005 261.67224
249.0 0.00402 259.68573 261.66946
289.0 0.003460 259.63165 261.70059
287.0 0.003484 259.57776 261.75421
276.0 0.00362 259.52426 261.82184
264.0 0.00379 259.47113 261.90048
270.0 0.00370 259.41849 261.99109
266.0 0.00376 259.36636 262.09485
280.0 0.00357 259.31467 262.20871
247.0 0.00405 259.26355 262.32251
263.0 0.00380 259.21286 262.41861
271.0 0.00369 259.16263 262.47427
259.0 0.00386 259.11282 262.46570
270.0 0.00370 259.06320 262.37708
278.0 0.00360 259.01379 262.20721
275.0 0.00364 258.96432 261.97253
266.0 0.00376 258.91467 261.70016
250.0 0.00400 258.86462 261.41895
256.0 0.00391 258.81381 261.15326
249.0 0.00402 258.76199 260.92078
273.0 0.00366 258.70874 260.72992
240.0 0.00417 258.65375 260.58081
229.0 0.00437 258.59650 260.46524
276.0 0.00362 258.53644 260.36731
230.0 0.00435 258.47302 260.26773
266.0 0.00376 258.40552 260.14697
249.0 0.00402 258.33328 259.99149
257.0 0.00389 258.25562 259.79669
278.0 0.00360 258.17142 259.56625
271.0 0.00369 258.07990 259.30997
264.0 0.00379 257.97989 259.03778
250.0 0.00400 257.87036 258.75940
264.0 0.00379 257.75015 258.48199
250.0 0.00400 257.61761 258.20947
268.0 0.00373 257.47159 257.94409
276.0 0.00362 257.31027 257.68475
256.0 0.00391 257.13211 257.42896
295.0 0.003390 256.93546 257.17270
271.0 0.00369 256.71783 256.91043
257.0 0.00389 256.47757 256.63739
257.0 0.00389 256.21207 256.34799
259.0 0.00386 255.91917 256.03772
244.0 0.00410 255.59651 255.70226
243.0 0.00412 255.24054 255.33655
259.0 0.00386 254.84898 254.93739
218.0 0.00459 254.41817 254.50037
247.0 0.00405 253.94528 254.02235
264.0 0.00379 253.42667 253.49931
230.0 0.00435 252.85774 252.92648
257.0 0.00389 252.23569 252.30095
290.0 0.003448 251.55461 251.61423
213.0 0.00469 250.81161 250.86845
239.0 0.00418 250.00146 250.05582
278.0 0.00360 249.11789 249.16994
260.0 0.00385 248.15729 248.20726
236.0 0.00424 247.11195 247.16002
270.0 0.00370 245.97723 246.02359
273.0 . . .
loop_
_refln_index_h
_refln_index_k
_refln_index_l
_pd_refln_wavelength_id
_refln_observed_status
_refln_F_squared_meas
_refln_F_squared_calc
_refln_phase_calc
_refln_d_spacing
_gsas_i100_meas
0 0 1 1 o 422.516 432.919 0.00 7.43434 34.88
0 0 1 2 o 416.310 432.919 0.00 7.43434 17.12
1 0 1 1 o 174.114 169.264 180.00 4.80068 33.51
1 0 1 2 o 177.251 169.264 180.00 4.80068 16.97
1 1 0 1 o 91.135 79.841 180.00 4.44577 6.98
1 1 0 2 o 88.789 79.841 180.00 4.44577 3.37
1 1 1 1 o 897.930 884.538 0.00 3.81557 100.00
1 1 1 2 o 909.242 884.538 0.00 3.81557 50.34
0 0 2 1 o 707.231 617.308 0.00 3.71717 13.58
0 0 2 2 o 603.597 617.308 0.00 3.71717 5.81
1 0 2 1 o 68.833 56.060 180.00 3.19977 4.52
1 0 2 2 o 67.363 56.060 180.00 3.19977 2.20
2 0 0 1 o 2163.812 2164.496 180.00 3.14364 56.43
2 0 0 2 o 2083.704 2164.496 180.00 3.14364 27.06
2 0 1 1 o 281.231 255.558 180.00 2.89542 20.79
2 0 1 2 o 265.702 255.558 180.00 2.89542 9.80
1 1 2 1 o 334.623 321.376 0.00 2.85171 16.69
1 1 2 2 o 318.744 321.376 0.00 2.85171 7.93
2 1 1 1 o 30.896 35.571 0.00 2.62994 3.14
2 1 1 2 o 30.683 35.571 0.00 2.62994 1.55
0 0 3 1 o 616.969 369.050 0.00 2.47811 4.81
0 0 3 2 o 628.182 369.050 0.00 2.47811 2.44
2 0 2 1 o 241.581 263.546 180.00 2.40034 11.03
2 0 2 2 o 222.449 263.546 180.00 2.40034 5.08
1 0 3 1 o 23.821 7.534 180.00 2.30549 0.72
1 0 3 2 o 12.127 7.534 180.00 2.30549 0.18
2 1 2 1 o 54.709 48.064 0.00 2.24247 3.60
2 1 2 2 o 49.358 48.064 0.00 2.24247 1.61
2 2 0 1 o 716.068 786.723 0.00 2.22289 13.68
2 2 0 2 o 680.844 786.723 0.00 2.22289 6.48
1 1 3 1 o 96.496 117.984 0.00 2.16456 2.74
1 1 3 2 o 90.568 117.984 0.00 2.16456 1.29
2 2 1 1 o 223.290 154.764 0.00 2.12972 7.79
2 2 1 2 o 191.894 154.764 0.00 2.12972 3.36
3 0 1 1 o -0.149 9.118 0.00 2.01714 0.00
3 0 1 2 o -0.149 9.118 0.00 2.01714 0.00
3 1 0 1 o 24.797 0.000 0.00 1.98821 0.47
3 1 0 2 o 17.403 0.000 0.00 1.98821 0.17
2 0 3 1 o 205.999 163.078 180.00 1.94614 4.81
2 0 3 2 o 199.985 163.078 180.00 1.94614 2.32
3 1 1 1 o 112.129 117.372 180.00 1.92071 5.31
3 1 1 2 o 115.389 117.372 180.00 1.92071 2.71
2 2 2 1 o 145.790 125.707 0.00 1.90779 3.49
2 2 2 2 o 136.188 125.707 0.00 1.90779 1.63
2 1 3 1 o -0.049 1.885 0.00 1.85912 0.00
0 0 4 1 o -2.942 14.956 0.00 1.85859 0.00
2 1 3 2 o -0.049 1.885 0.00 1.85912 0.00
0 0 4 2 o -2.942 14.956 0.00 1.85859 0.00
3 0 2 1 o 14.760 32.986 0.00 1.82559 0.38
3 0 2 2 o 16.892 32.986 0.00 1.82559 0.22
1 0 4 1 o 16.995 6.178 180.00 1.78234 0.27
1 0 4 2 o 11.259 6.178 180.00 1.78234 0.09
3 1 2 1 o 94.049 69.047 180.00 1.75318 4.09
3 1 2 2 o 82.413 69.047 180.00 1.75318 1.79
1 1 4 1 o 196.550 190.910 0.00 1.71477 3.04
1 1 4 2 o 178.892 190.910 0.00 1.71477 1.38
3 2 1 1 o 3.381 1.075 180.00 1.69770 0.12
3 2 1 2 o 6.380 1.075 180.00 1.69770 0.11
2 2 3 1 o 65.867 78.193 0.00 1.65472 0.99
2 2 3 2 o 46.397 78.193 0.00 1.65472 0.36
3 0 3 1 o 0.177 0.633 0.00 1.60023 0.00
2 0 4 1 o 1.521 6.682 180.00 1.59989 0.04
3 0 3 2 o 0.784 0.633 0.00 1.60023 0.01
2 0 4 2 o 9.334 6.682 180.00 1.59989 0.07
3 2 2 1 o 15.747 26.981 180.00 1.57870 0.49
3 2 2 2 o 17.044 26.981 180.00 1.57870 0.26
4 0 0 1 o 199.486 175.221 0.00 1.57182 1.05
4 0 0 2 o 197.554 175.221 0.00 1.57182 0.52
3 1 3 1 o 53.377 34.264 180.00 1.55078 1.59
2 1 4 1 o 7.147 4.655 0.00 1.55048 0.17
3 1 3 2 o 44.456 34.264 180.00 1.55078 0.66
2 1 4 2 o 5.983 4.655 0.00 1.55048 0.07
4 0 1 1 o 95.848 46.615 0.00 1.53782 1.21
4 0 1 2 o 83.409 46.615 0.00 1.53782 0.53
4 1 1 1 o -0.012 0.391 180.00 1.49379 0.00
4 1 1 2 o -0.012 0.391 180.00 1.49379 0.00
0 0 5 1 o -2.321 21.391 0.00 1.48687 0.00
0 0 5 2 o 43.702 21.391 0.00 1.48687 0.05
3 3 0 1 o 10.100 3.204 0.00 1.48192 0.08
3 3 0 2 o 19.687 3.204 0.00 1.48192 0.07
3 3 1 1 o 30.836 19.836 0.00 1.45333 0.44
3 3 1 2 o 27.240 19.836 0.00 1.45333 0.19
4 0 2 1 o 38.269 36.614 0.00 1.44771 0.56
1 0 5 1 o 6.521 6.729 180.00 1.44696 0.06
4 0 2 2 o 13.533 36.614 0.00 1.44771 0.11
1 0 5 2 o 3.022 6.729 180.00 1.44696 0.01
3 2 3 1 o -0.005 0.064 180.00 1.42609 0.00
2 2 4 1 o 0.329 2.955 0.00 1.42585 0.01
3 2 3 2 o 0.145 0.064 180.00 1.42609 0.00
2 2 4 2 o 5.416 2.955 0.00 1.42585 0.03
4 1 2 1 o 11.366 15.861 180.00 1.41079 0.28
1 1 5 1 o 30.414 39.473 0.00 1.41010 0.30
4 1 2 2 o 17.478 15.861 180.00 1.41079 0.21
1 1 5 2 o 49.048 39.473 0.00 1.41010 0.23
4 2 0 1 o 105.508 76.937 180.00 1.40588 1.02
4 2 0 2 o 76.283 76.937 180.00 1.40588 0.37
3 0 4 1 o 5.991 3.033 0.00 1.39054 0.06
3 0 4 2 o 11.024 3.033 0.00 1.39054 0.06
4 2 1 1 o 69.824 32.174 180.00 1.38139 1.40
4 2 1 2 o 62.911 32.174 180.00 1.38139 0.63
3 3 2 1 o 34.487 18.910 0.00 1.37656 0.41
3 3 2 2 o 38.170 18.910 0.00 1.37656 0.22
3 1 4 1 o 28.426 59.408 180.00 1.35773 0.59
3 1 4 2 o 20.621 59.408 180.00 1.35773 0.22
2 0 5 1 o -1.324 11.414 180.00 1.34411 0.00
2 0 5 2 o -1.324 11.414 180.00 1.34411 0.00
4 0 3 1 o 29.180 21.538 0.00 1.32733 0.35
4 0 3 2 o 30.921 21.538 0.00 1.32733 0.18
4 2 2 1 o 43.108 20.327 180.00 1.31497 0.87
2 1 5 1 o 4.646 2.236 0.00 1.31441 0.07
4 2 2 2 o 42.427 20.327 180.00 1.31497 0.42
2 1 5 2 o 4.887 2.236 0.00 1.31441 0.04
4 1 3 1 o 0.796 0.066 180.00 1.29871 0.02
4 1 3 2 o 2.465 0.066 180.00 1.29871 0.02
3 3 3 1 o 7.499 11.575 0.00 1.27186 0.07
3 2 4 1 o 1.629 2.396 180.00 1.27169 0.03
3 3 3 2 o -1.219 11.575 0.00 1.27186 0.00
3 2 4 2 o -0.054 2.396 180.00 1.27169 0.00
4 3 1 1 o -0.001 0.288 180.00 1.23984 0.00
5 0 1 1 o -0.002 0.041 180.00 1.23984 0.00
0 0 6 1 o -0.161 0.105 0.00 1.23906 0.00
4 3 1 2 o 0.489 0.288 180.00 1.23984 0.00
5 0 1 2 o 0.070 0.041 180.00 1.23984 0.00
0 0 6 2 o 0.408 0.105 0.00 1.23906 0.00
2 2 5 1 o 14.346 6.201 0.00 1.23588 0.10
5 1 0 1 o 2.071 0.249 0.00 1.23304 0.01
2 2 5 2 o 34.659 6.201 0.00 1.23588 0.12
5 1 0 2 o -0.197 0.249 0.00 1.23304 0.00
4 2 3 1 o 22.482 11.397 180.00 1.22280 0.39
4 2 3 2 o 20.004 11.397 180.00 1.22280 0.17
5 1 1 1 o 6.953 7.379 0.00 1.21642 0.10
1 0 6 1 o 14.317 14.017 0.00 1.21567 0.09
5 1 1 2 o 6.833 7.379 0.00 1.21642 0.05
1 0 6 2 o 13.968 14.017 0.00 1.21567 0.04
3 0 5 1 o 0.850 0.850 0.00 1.21267 0.01
3 0 5 2 o 4.976 0.850 0.00 1.21267 0.02
4 0 4 1 o 2.420 0.459 0.00 1.20017 0.02
4 0 4 2 o 0.603 0.459 0.00 1.20017 0.00
1 1 6 1 o 43.505 28.260 0.00 1.19357 0.27
5 0 2 1 o 5.663 6.176 180.00 1.19115 0.05
4 3 2 1 o 9.402 10.253 0.00 1.19115 0.16
3 1 5 1 o 10.648 12.465 180.00 1.19073 0.16
1 1 6 2 o 23.990 28.260 0.00 1.19357 0.08
5 0 2 2 o 5.909 6.176 180.00 1.19115 0.02
4 3 2 2 o 9.810 10.253 0.00 1.19115 0.08
3 1 5 2 o 13.974 12.465 180.00 1.19073 0.10
4 1 4 1 o -0.032 1.318 180.00 1.17888 0.00
4 1 4 2 o -0.032 1.318 180.00 1.17888 0.00
5 1 2 1 o 25.124 5.107 0.00 1.17033 0.39
5 1 2 2 o 9.307 5.107 0.00 1.17033 0.07
3 3 4 1 o 28.538 21.102 0.00 1.15869 0.19
3 3 4 2 o 38.389 21.102 0.00 1.15869 0.13
5 2 1 1 o 0.071 0.076 180.00 1.15338 0.00
2 0 6 1 o 0.223 0.250 180.00 1.15275 0.00
5 2 1 2 o 0.870 0.076 180.00 1.15338 0.01
2 0 6 2 o 6.829 0.250 180.00 1.15275 0.02
2 1 6 1 o 10.544 6.963 180.00 1.13385 0.13
3 2 5 1 o 0.348 0.164 180.00 1.13141 0.00
2 1 6 2 o 20.887 6.963 180.00 1.13385 0.12
3 2 5 2 o 2.700 0.164 180.00 1.13141 0.02
4 3 3 1 o 0.214 0.013 180.00 1.12135 0.00
5 0 3 1 o 0.913 0.050 180.00 1.12135 0.01
4 2 4 1 o 3.797 0.145 180.00 1.12124 0.05
4 3 3 2 o 0.001 0.013 180.00 1.12135 0.00
5 0 3 2 o -0.003 0.050 180.00 1.12135 0.00
4 2 4 2 o -0.105 0.145 180.00 1.12124 0.00
5 2 2 1 o 3.959 5.582 0.00 1.11387 0.06
4 4 0 1 o 16.241 8.752 0.00 1.11144 0.06
5 2 2 2 o 9.759 5.582 0.00 1.11387 0.07
4 4 0 2 o -0.730 8.752 0.00 1.11144 0.00
5 1 3 1 o 6.024 3.758 0.00 1.10393 0.10
5 1 3 2 o 14.499 3.758 0.00 1.10393 0.12
4 4 1 1 o 17.339 8.913 0.00 1.09923 0.14
4 4 1 2 o 16.856 8.913 0.00 1.09923 0.07
