#------------------------------------------------------------------------------
#$Date: 2016-02-14 16:26:36 +0200 (Sun, 14 Feb 2016) $
#$Revision: 176435 $
#$URL: svn://www.crystallography.net/cod/cif/1/51/62/1516202.cif $
#------------------------------------------------------------------------------
#
# This file is available in the Crystallography Open Database (COD),
# http://www.crystallography.net/
#
# All data on this site have been placed in the public domain by the
# contributors.
#
data_1516202
loop_
_publ_author_name
'Migliorati, Valentina'
'Ballirano, Paolo'
'Gontrani, Lorenzo'
'Russina, Olga'
'Caminiti, Ruggero'
_publ_section_title
;
 Crystal polymorphism of propylammonium chloride and structural properties
 of its mixture with water.
;
_journal_issue                   41
_journal_name_full               'The journal of physical chemistry. B'
_journal_page_first              11805
_journal_page_last               11815
_journal_paper_doi               10.1021/jp206831d
_journal_volume                  115
_journal_year                    2011
_chemical_formula_sum            'C3 Cl N'
_chemical_formula_weight         85.49
_chemical_name_systematic        ' ?'
_space_group_IT_number           129
_symmetry_cell_setting           tetragonal
_symmetry_space_group_name_Hall  '-P 4a 2a'
_symmetry_space_group_name_H-M   'P 4/n m m :2'
_audit_creation_date             2011-07-21T08:53
_audit_creation_method           'from EXP file using GSAS2CIF'
_audit_update_record
' 2011-07-21T08:53  Initial CIF as created by GSAS2CIF'
_cell_angle_alpha                90.0
_cell_angle_beta                 90.0
_cell_angle_gamma                90.0
_cell_formula_units_Z            2
_cell_length_a                   6.24761(7)
_cell_length_b                   6.24761
_cell_length_c                   7.38691(19)
_cell_volume                     288.331(8)
_computing_structure_refinement  GSAS
_diffrn_radiation_probe          x-ray
_exptl_absorpt_correction_T_max  0.81792
_exptl_absorpt_correction_T_min  0.81483
_exptl_absorpt_process_details
;   GSAS Absorption/surface roughness correction: function number 0
 Debye-Scherrer absorption correction
Term (= MU.r/wave) =     0.78580E-01
Correction is not refined.
;
_pd_block_id                     2011-07-21T08:53|40|paolo|Bruker_AXS_D8_Advance
_pd_calc_method                  'Rietveld Refinement'
_pd_instr_location               ' ?'
_pd_meas_2theta_range_inc        0.022
_pd_meas_2theta_range_max        89.988
_pd_meas_2theta_range_min        3.0
_pd_meas_number_of_points        3955
_pd_phase_name                   'Propylammonium chloride'
_pd_proc_2theta_range_inc        0.022
_pd_proc_2theta_range_max        89.988
_pd_proc_2theta_range_min        3.0
_pd_proc_info_datetime           2011-07-21T08:53:37
_pd_proc_info_excluded_regions   ' ?'
_pd_proc_ls_background_function
;   GSAS Background function number 1 with 30 terms.
 Shifted Chebyshev function of 1st kind
      1:    513.064     2:   -361.830     3:    55.9478     4:    75.6993    
      5:   -70.7120     6:    1.49968     7:    64.7717     8:   -73.9695    
      9:    35.6818    10:    9.05660    11:   -28.6830    12:    24.8318    
     13:   -5.83533    14:   -7.10397    15:    2.87521    16:    1.71616    
     17:   -2.06946    18:  -0.484722    19:    2.21370    20:    1.57201    
     21:   -4.98761    22:    4.03447    23:   -2.00353    24:   -1.82367    
     25:    2.65773    26:   -1.99646    27:   -1.80438    28:    2.18547    
     29:   -2.44827    30:  -0.757954    
;
_pd_proc_ls_peak_cutoff          0.00100
_pd_proc_ls_profile_function
;
 CW Profile function number 3 with  19 terms
 Pseudovoigt profile coefficients as parameterized in
 P. Thompson, D.E. Cox & J.B. Hastings (1987). J. Appl. Cryst.,20,79-83.
 Asymmetry correction of L.W. Finger, D.E. Cox & A. P. Jephcoat (1994).
 J. Appl. Cryst.,27,892-900.
 Peak tails are ignored  where the intensity is below 0.0010 times the peak
   Aniso. broadening axis   0.0   1.0   0.0
;
_pd_proc_ls_prof_R_factor        0.0449
_pd_proc_ls_prof_wR_expected     0.0413
_pd_proc_ls_prof_wR_factor       0.0604
_pd_proc_number_of_points        3955
_pd_spec_mounting                ' ?'
_refine_ls_goodness_of_fit_all   1.48
_refine_ls_matrix_type           full
_refine_ls_number_parameters     47
_refine_ls_number_restraints     8
_refine_ls_R_Fsqd_factor         0.15173
_refine_ls_shift/su_max          0.08
_refine_ls_shift/su_mean         0.01
_reflns_d_resolution_high        1.092
_reflns_d_resolution_low         7.387
_reflns_limit_h_max              5
_reflns_limit_h_min              0
_reflns_limit_k_max              4
_reflns_limit_k_min              0
_reflns_limit_l_max              6
_reflns_limit_l_min              0
_reflns_number_total             173
_cod_data_source_file            313K.cif
_cod_data_source_block           40_publ
_cod_depositor_comments
;
The following automatic conversions were performed:

'_geom_bond_publ_flag' value 'N' changed to 'n' according to
/usr/data/users/saulius/automatic-downloads/retrospective/ACS/lib/dictionaries/cif_core.dic
dictionary named 'cif_core.dic' version 2.4.2 from 2011-04-26 (24
times).

'_geom_angle_publ_flag' value 'N' changed to 'n' according
to
/usr/data/users/saulius/automatic-downloads/retrospective/ACS/lib/dictionaries/cif_core.dic
dictionary named 'cif_core.dic' version 2.4.2 from 2011-04-26 (68
times).

Automatic conversion script
Id: cif_fix_values 2281 2013-09-26 08:29:07Z andrius 
;
_cod_original_cell_volume        288.330(10)
_cod_original_sg_symbol_H-M      'p 4/n m m'
_cod_original_formula_sum        'C3.00 Cl N'
_cod_database_code               1516202
#BEGIN Tags that were not found in dictionaries:
_gsas_exptl_extinct_corr_t_min   1.00000
_gsas_exptl_extinct_corr_t_max   1.00000
#END Tags that were not found in dictionaries
loop_
_symmetry_equiv_pos_site_id
_symmetry_equiv_pos_as_xyz
1 +x,+y,+z
2 -y+1/2,+x,+z
3 -x+1/2,-y+1/2,+z
4 +y,-x+1/2,+z
5 -x+1/2,+y,+z
6 -y+1/2,-x+1/2,+z
7 +x,-y+1/2,+z
8 +y,+x,+z
-1 -x,-y,-z
-2 +y+1/2,-x,-z
-3 +x+1/2,+y+1/2,-z
-4 -y,+x+1/2,-z
-5 +x+1/2,-y,-z
-6 +y+1/2,+x+1/2,-z
-7 -x,+y+1/2,-z
-8 -y,-x,-z
loop_
_atom_site_type_symbol
_atom_site_label
_atom_site_fract_x
_atom_site_fract_y
_atom_site_fract_z
_atom_site_occupancy
_atom_site_thermal_displace_type
_atom_site_U_iso_or_equiv
_atom_site_symmetry_multiplicity
Cl CL1 0.25 -0.25 0.0 1.0 Uiso 0.1081(9) 2
C C(1) 0.25 0.3342(6) 0.29935(34) 0.25 Uiso 0.0620(16) 8
N N 0.25 0.25 0.11382(29) 1.0 Uiso 0.0620(16) 2
C C(2) 0.25 0.1493(5) 0.43772(29) 0.25 Uiso 0.0620(16) 8
C C(3) 0.25 0.25 0.6299(4) 1.0 Uiso 0.0620(16) 2
loop_
_atom_type_symbol
_atom_type_number_in_cell
_atom_type_scat_dispersion_real
_atom_type_scat_dispersion_imag
_atom_type_scat_Cromer_Mann_a1
_atom_type_scat_Cromer_Mann_a2
_atom_type_scat_Cromer_Mann_a3
_atom_type_scat_Cromer_Mann_a4
_atom_type_scat_Cromer_Mann_b1
_atom_type_scat_Cromer_Mann_b2
_atom_type_scat_Cromer_Mann_b3
_atom_type_scat_Cromer_Mann_b4
_atom_type_scat_Cromer_Mann_c
_atom_type_scat_source
Cl 2.0 0.000 0.000 11.4604 0.01040 7.19640 1.16620 6.25560 18.5194 1.64550
47.7784 -9.5574 International_Tables_Vol_C
C 6.0 0.000 0.000 2.31000 20.8439 1.02000 10.2075 1.58860 0.56870 0.86500
51.6512 0.21560 International_Tables_Vol_C
N 2.0 0.000 0.000 12.2126 0.00570 3.13220 9.89330 2.01250 28.9975 1.16630
0.58260 -11.529 International_Tables_Vol_C
loop_
_diffrn_radiation_wavelength
_diffrn_radiation_wavelength_wt
_diffrn_radiation_type
_diffrn_radiation_wavelength_id
1.540598 1.000 K\a~1~ 1
1.544390 0.500 K\a~2~ 2
loop_
_geom_angle_atom_site_label_1
_geom_angle_atom_site_label_2
_geom_angle_atom_site_label_3
_geom_angle
_geom_angle_site_symmetry_1
_geom_angle_site_symmetry_3
_geom_angle_publ_flag
C(1) C(1) C(1) 45.0 2_555 3_555 n
C(1) C(1) C(1) 90.0 2_555 4_555 n
C(1) C(1) N 75.33(10) 2_555 1_555 n
C(1) C(1) C(2) 58.03(8) 2_555 1_555 n
C(1) C(1) C(2) 93.19(16) 2_555 2_555 n
C(1) C(1) C(2) 94.07(20) 2_555 3_555 n
C(1) C(1) C(2) 51.45(15) 2_555 4_555 n
C(1) C(1) C(1) 45.0 3_555 4_555 n
C(1) C(1) N 69.01(14) 3_555 1_555 n
C(1) C(1) C(2) 41.51(15) 3_555 1_555 n
C(1) C(1) C(2) 66.34(16) 3_555 2_555 n
C(1) C(1) C(2) 95.76(28) 3_555 3_555 n
C(1) C(1) C(2) 66.34(16) 3_555 4_555 n
C(1) C(1) N 75.33(10) 4_555 1_555 n
C(1) C(1) C(2) 58.03(8) 4_555 1_555 n
C(1) C(1) C(2) 51.45(15) 4_555 2_555 n
C(1) C(1) C(2) 94.07(20) 4_555 3_555 n
C(1) C(1) C(2) 93.19(16) 4_555 4_555 n
N C(1) C(2) 110.52(25) 1_555 1_555 n
N C(1) C(2) 125.77(24) 1_555 2_555 n
N C(1) C(2) 164.8(4) 1_555 3_555 n
N C(1) C(2) 125.77(24) 1_555 4_555 n
C(2) C(1) C(2) 35.17(17) 1_555 2_555 n
C(2) C(1) C(2) 54.26(32) 1_555 3_555 n
C(2) C(1) C(2) 35.17(17) 1_555 4_555 n
C(2) C(1) C(2) 42.63(24) 2_555 3_555 n
C(2) C(1) C(2) 57.38(30) 2_555 4_555 n
C(2) C(1) C(2) 42.63(24) 3_555 4_555 n
C(1) N C(1) 29.35(19) 1_555 2_555 n
C(1) N C(1) 41.98(28) 1_555 3_555 n
C(1) N C(1) 29.35(19) 1_555 4_555 n
C(1) N C(1) 29.35(19) 2_555 3_555 n
C(1) N C(1) 41.98(28) 2_555 4_555 n
C(1) N C(1) 29.35(19) 3_555 4_555 n
C(1) C(2) C(1) 28.78(18) 1_555 2_555 n
C(1) C(2) C(1) 42.73(32) 1_555 3_555 n
C(1) C(2) C(1) 28.78(18) 1_555 4_555 n
C(1) C(2) C(2) 58.03(8) 1_555 2_555 n
C(1) C(2) C(2) 41.51(15) 1_555 3_555 n
C(1) C(2) C(2) 58.03(8) 1_555 4_555 n
C(1) C(2) C(3) 107.62(23) 1_555 1_555 n
C(1) C(2) C(1) 34.48(26) 2_555 3_555 n
C(1) C(2) C(1) 47.32(32) 2_555 4_555 n
C(1) C(2) C(2) 86.81(16) 2_555 2_555 n
C(1) C(2) C(2) 61.31(15) 2_555 3_555 n
C(1) C(2) C(2) 51.45(15) 2_555 4_555 n
C(1) C(2) C(3) 121.25(23) 2_555 1_555 n
C(1) C(2) C(1) 34.48(26) 3_555 4_555 n
C(1) C(2) C(2) 85.93(20) 3_555 2_555 n
C(1) C(2) C(2) 84.24(28) 3_555 3_555 n
C(1) C(2) C(2) 85.93(20) 3_555 4_555 n
C(1) C(2) C(3) 150.3(4) 3_555 1_555 n
C(1) C(2) C(2) 51.45(15) 4_555 2_555 n
C(1) C(2) C(2) 61.31(15) 4_555 3_555 n
C(1) C(2) C(2) 86.81(16) 4_555 4_555 n
C(1) C(2) C(3) 121.25(23) 4_555 1_555 n
C(2) C(2) C(2) 45.0 2_555 3_555 n
C(2) C(2) C(2) 90.0 2_555 4_555 n
C(2) C(2) C(3) 73.36(9) 2_555 1_555 n
C(2) C(2) C(2) 45.0 3_555 4_555 n
C(2) C(2) C(3) 66.11(13) 3_555 1_555 n
C(2) C(2) C(3) 73.36(9) 4_555 1_555 n
C(2) C(3) C(2) 33.29(17) 1_555 2_555 n
C(2) C(3) C(2) 47.79(25) 1_555 3_555 n
C(2) C(3) C(2) 33.29(17) 1_555 4_555 n
C(2) C(3) C(2) 33.29(17) 2_555 3_555 n
C(2) C(3) C(2) 47.79(25) 2_555 4_555 n
C(2) C(3) C(2) 33.29(17) 3_555 4_555 n
loop_
_geom_bond_atom_site_label_1
_geom_bond_atom_site_label_2
_geom_bond_distance
_geom_bond_site_symmetry_2
_geom_bond_publ_flag
C(1) C(1) 0.744(5) 2_555 n
C(1) C(1) 1.052(7) 3_555 n
C(1) C(1) 0.744(5) 4_555 n
C(1) N 1.4679(33) 1_555 n
C(1) C(2) 1.542(4) 1_555 n
C(1) C(2) 1.3103(33) 2_555 n
C(1) C(2) 1.0273(33) 3_555 n
C(1) C(2) 1.3103(33) 4_555 n
N C(1) 1.4679(33) 1_555 n
N C(1) 1.4679(33) 2_555 n
N C(1) 1.4679(33) 3_555 n
N C(1) 1.4679(33) 4_555 n
C(2) C(1) 1.542(4) 1_555 n
C(2) C(1) 1.3103(33) 2_555 n
C(2) C(1) 1.0273(33) 3_555 n
C(2) C(1) 1.3103(33) 4_555 n
C(2) C(2) 0.890(5) 2_555 n
C(2) C(2) 1.258(7) 3_555 n
C(2) C(2) 0.890(5) 4_555 n
C(2) C(3) 1.5530(35) 1_555 n
C(3) C(2) 1.5530(35) 1_555 n
C(3) C(2) 1.5530(35) 2_555 n
C(3) C(2) 1.5530(35) 3_555 n
C(3) C(2) 1.5530(35) 4_555 n
loop_
_pd_meas_counts_total
_pd_proc_ls_weight
_pd_proc_intensity_bkg_calc
_pd_calc_intensity_total
21570.0 0.0 -14520110.00000 .
20592.0 0.0 -14174518.00000 .
19943.0 0.0 -13836586.00000 .
19081.0 0.0 -13506140.00000 .
18705.0 0.0 -13183032.00000 .
18093.0 0.0 -12867113.00000 .
17602.0 0.0 -12558239.00000 .
16708.0 0.0 -12256259.00000 .
16326.0 0.0 -11961026.00000 .
15721.0 0.0 -11672412.00000 .
15288.0 0.0 -11390271.00000 .
14909.0 0.0 -11114465.00000 .
14468.0 0.0 -10844869.00000 .
13771.0 0.0 -10581357.00000 .
13443.0 0.0 -10323786.00000 .
12971.0 0.0 -10072047.00000 .
12798.0 0.0 -9826006.00000 .
12347.0 0.0 -9585564.00000 .
12081.0 0.0 -9350580.00000 .
11515.0 0.0 -9120949.00000 .
11137.0 0.0 -8896556.00000 .
11051.0 0.0 -8677290.00000 .
10724.0 0.0 -8463046.00000 .
10448.0 0.0 -8253711.00000 .
10192.0 0.0 -8049187.50000 .
9903.0 0.0 -7849372.50000 .
9619.0 0.0 -7654156.00000 .
9203.0 0.0 -7463452.00000 .
9196.0 0.0 -7277160.00000 .
9114.0 0.0 -7095184.50000 .
8649.0 0.0 -6917433.50000 .
8467.0 0.0 -6743810.50000 .
8279.0 0.0 -6574238.00000 .
8023.0 0.0 -6408621.00000 .
7810.0 0.0 -6246875.00000 .
7726.0 0.0 -6088918.50000 .
7539.0 0.0 -5934665.50000 .
7299.0 0.0 -5784038.00000 .
7114.0 0.0 -5636957.00000 .
7005.0 0.0 -5493345.50000 .
6905.0 0.0 -5353124.50000 .
6657.0 0.0 -5216225.00000 .
6531.0 0.0 -5082572.00000 .
6403.0 0.0 -4952093.00000 .
6336.0 0.0 -4824722.50000 .
6170.0 0.0 -4700385.50000 .
6056.0 0.0 -4579021.50000 .
5941.0 0.0 -4460561.00000 .
6019.0 0.0 -4344939.00000 .
5759.0 0.0 -4232096.00000 .
5882.0 0.0 -4121969.75000 .
5581.0 0.0 -4014494.50000 .
5411.0 0.0 -3909618.00000 .
5359.0 0.0 -3807282.00000 .
5359.0 0.0 -3707425.00000 .
5195.0 0.0 -3609991.25000 .
5221.0 0.0 -3514929.75000 .
5121.0 0.0 -3422190.50000 .
5067.0 0.0 -3331711.25000 .
5045.0 0.0 -3243449.25000 .
4751.0 0.0 -3157350.25000 .
4972.0 0.0 -3073369.25000 .
4737.0 0.0 -2991453.50000 .
4563.0 0.0 -2911558.50000 .
4671.0 0.0 -2833638.25000 .
4515.0 0.0 -2757648.50000 .
4473.0 0.0 -2683542.50000 .
4589.0 0.0 -2611279.25000 .
4367.0 0.0 -2540814.75000 .
4351.0 0.0 -2472111.75000 .
4350.0 0.0 -2405122.50000 .
4185.0 0.0 -2339813.00000 .
4151.0 0.0 -2276143.75000 .
4205.0 0.0 -2214077.50000 .
4112.0 0.0 -2153575.00000 .
4025.0 0.0 -2094598.87500 .
3951.0 0.0 -2037116.12500 .
3925.0 0.0 -1981091.25000 .
3889.0 0.0 -1926488.50000 .
3883.0 0.0 -1873277.00000 .
3794.0 0.0 -1821423.12500 .
3854.0 0.0 -1770894.25000 .
3782.0 0.0 -1721660.87500 .
3646.0 0.0 -1673690.12500 .
3681.0 0.0 -1626953.62500 .
3571.0 0.0 -1581422.50000 .
3460.0 0.0 -1537065.87500 .
3545.0 0.0 -1493859.50000 .
3488.0 0.0 -1451773.12500 .
3405.0 0.0 -1410780.25000 .
3439.0 0.0 -1370854.62500 .
3362.0 0.0 -1331970.87500 .
3414.0 0.0 -1294105.87500 .
3365.0 0.0 -1257233.50000 .
3274.0 0.0 -1221328.75000 .
3263.0 0.0 -1186368.87500 .
3355.0 0.0 -1152332.87500 .
3265.0 0.0 -1119195.00000 .
3155.0 0.0 -1086936.25000 .
3219.0 0.0 -1055535.00000 .
3218.0 0.0 -1024968.18750 .
3114.0 0.0 -995217.25000 .
3144.0 0.0 -966260.06250 .
3249.0 0.0 -938080.56250 .
3116.0 0.0 -910658.62500 .
2976.0 0.0 -883971.81250 .
3076.0 0.0 -858006.56250 .
3059.0 0.0 -832741.62500 .
2801.0 0.0 -808162.00000 .
2874.0 0.0 -784250.37500 .
2877.0 0.0 -760988.50000 .
2909.0 0.0 -738362.18750 .
2822.0 0.0 -716353.00000 .
2745.0 0.0 -694947.56250 .
2819.0 0.0 -674131.25000 .
2929.0 0.0 -653886.00000 .
2727.0 0.0 -634200.68750 .
2780.0 0.0 -615058.62500 .
2735.0 0.0 -596448.06250 .
2684.0 0.0 -578355.43750 .
2607.0 0.0 -560764.81250 .
2717.0 0.0 -543666.56250 .
2442.0 0.0 -527046.31250 .
2597.0 0.0 -510892.28125 .
2531.0 0.0 -495193.18750 .
2508.0 0.0 -479935.46875 .
2568.0 0.0 -465109.81250 .
2524.0 0.0 -450703.15625 .
2619.0 0.0 -436705.71875 .
2457.0 0.0 -423107.68750 .
2546.0 0.0 -409896.37500 .
2444.0 0.0 -397063.84375 .
2488.0 0.0 -384598.28125 .
2433.0 0.0 -372491.50000 .
2373.0 0.0 -360734.31250 .
2344.0 0.0 -349315.75000 .
2283.0 0.0 -338228.40625 .
2310.0 0.0 -327462.50000 .
2287.0 0.0 -317010.21875 .
2277.0 0.0 -306863.59375 .
2385.0 0.0 -297013.00000 .
2280.0 0.0 -287451.81250 .
2295.0 0.0 -278171.00000 .
2265.0 0.0 -269164.28125 .
2234.0 0.0 -260424.46875 .
2231.0 0.0 -251942.81250 .
2165.0 0.0 -243713.93750 .
2243.0 0.0 -235729.60938 .
2201.0 0.0 -227983.92188 .
2281.0 0.0 -220470.84375 .
2114.0 0.0 -213182.64063 .
2160.0 0.0 -206114.51563 .
2130.0 0.0 -199259.28125 .
2183.0 0.0 -192612.06250 .
2032.0 0.0 -186166.89063 .
2021.0 0.0 -179917.32813 .
2031.0 0.0 -173858.82813 .
1982.0 0.0 -167985.59375 .
2037.0 0.0 -162292.96875 .
2034.0 0.0 -156775.68750 .
1974.0 0.0 -151428.43750 .
2049.0 0.0 -146246.95313 .
1942.0 0.0 -141226.10938 .
1942.0 0.0 -136361.59375 .
1950.0 0.0 -131649.42188 .
1984.0 0.0 -127084.25781 .
1898.0 0.0 -122662.83594 .
1951.0 0.0 -118380.38281 .
1888.0 0.0 -114233.24219 .
1825.0 0.0 -110217.80469 .
1928.0 0.0 -106329.72656 .
1807.0 0.0 -102565.64063 .
1916.0 0.0 -98921.72656 .
1767.0 0.0 -95394.76563 .
1911.0 0.0 -91981.38281 .
1803.0 0.0 -88677.85156 .
1776.0 0.0 -85481.28125 .
1707.0 0.0 -82388.46094 .
1689.0 0.0 -79396.26563 .
1720.0 0.0 -76502.03125 .
1753.0 0.0 -73702.27344 .
1729.0 0.0 -70994.75781 .
1738.0 0.0 -68376.29688 .
1786.0 0.0 -65844.50000 .
1710.0 0.0 -63396.83594 .
1754.0 0.0 -61030.40625 .
1652.0 0.0 -58743.16406 .
1722.0 0.0 -56532.35156 .
1701.0 0.0 -54395.97266 .
1662.0 0.0 -52331.66797 .
1669.0 0.0 -50337.04688 .
1608.0 0.0 -48410.19141 .
1630.0 0.0 -46548.87891 .
1591.0 0.0 -44751.25391 .
1648.0 0.0 -43015.33203 .
1611.0 0.0 -41338.95703 .
1614.0 0.0 -39720.53906 .
1556.0 0.0 -38158.07813 .
1544.0 0.0 -36649.98828 .
1588.0 0.0 -35194.60547 .
1536.0 0.0 -33790.00781 .
1564.0 0.0 -32434.83008 .
1543.0 0.0 -31127.35547 .
1542.0 0.0 -29866.13086 .
1551.0 0.0 -28649.77930 .
1529.0 0.0 -27476.67969 .
1518.0 0.0 -26345.59961 .
1515.0 0.0 -25255.05859 .
1492.0 0.0 -24203.83789 .
1475.0 0.0 -23190.68164 .
1467.0 0.0 -22214.20117 .
1422.0 0.0 -21273.36133 .
1477.0 0.0 -20366.90625 .
1505.0 0.0 -19493.73242 .
1425.0 0.0 -18652.77539 .
1423.0 0.0 -17842.88867 .
1378.0 0.0 -17063.12695 .
1434.0 0.0 -16312.38867 .
1394.0 0.0 -15589.78320 .
1406.0 0.0 -14894.38965 .
1340.0 0.0 -14225.18164 .
1365.0 0.0 -13581.37305 .
1447.0 0.0 -12962.03613 .
1361.0 0.0 -12366.37598 .
1398.0 0.0 -11793.58398 .
1356.0 0.0 -11242.84668 .
1334.0 0.0 -10713.43164 .
1252.0 0.0 -10204.55957 .
1322.0 0.0 -9715.56836 .
1269.0 0.0 -9245.78809 .
1277.0 0.0 -8794.44043 .
1248.0 0.0 -8360.98242 .
1230.0 0.0 -7944.72021 .
1238.0 0.0 -7545.06982 .
1250.0 0.0 -7161.47119 .
1237.0 0.0 -6793.27539 .
1252.0 0.0 -6440.00293 .
1222.0 0.0 -6101.06250 .
1212.0 0.0 -5775.98926 .
1142.0 0.0 -5464.25195 .
1221.0 0.0 -5165.36035 .
1155.0 0.0 -4878.86621 .
1186.0 0.0 -4604.27051 .
1177.0 0.0 -4341.18311 .
1178.0 0.0 -4089.17700 .
1209.0 0.0 -3847.79053 .
1118.0 0.0 -3616.67896 .
1142.0 0.0 -3395.42822 .
1143.0 0.0 -3183.67603 .
1132.0 0.0 -2981.06787 .
1122.0 0.0 -2787.24561 .
1103.0 0.0 -2601.88721 .
1076.0 0.0 -2424.64453 .
1117.0 0.0 -2255.22974 .
1075.0 0.0 -2093.33496 .
1022.0 0.0 -1938.65320 .
1069.0 0.0 -1790.91431 .
1050.0 0.0 -1649.84033 .
1093.0 0.0 -1515.17383 .
1050.0 0.0 -1386.66846 .
1117.0 0.0 -1264.05200 .
1052.0 0.0 -1147.11536 .
1037.0 0.0 -1035.61548 .
1034.0 0.0 -929.33478 .
1099.0 0.0 -828.06934 .
1016.0 0.0 -731.60400 .
1099.0 0.0 -639.74762 .
1026.0 0.0 -552.30237 .
1016.0 0.0 -469.09583 .
1042.0 0.0 -389.94769 .
1021.0 0.0 -314.68164 .
1071.0 0.0 -243.13774 .
1038.0 0.0 -175.15886 .
996.0 0.0 -110.59319 .
1081.0 0.0 -49.29843 .
1003.0 0.0 8.87831 .
1026.0 0.0 64.06065 .
1036.0 0.0 116.38611 .
1030.0 0.0 165.97754 .
1019.0 0.0 212.95535 .
1021.0 0.0 257.43643 .
1046.0 0.0 299.53168 .
1008.0 0.0 339.35165 .
1001.0 0.0 376.99530 .
967.0 0.0 412.56024 .
996.0 0.0 446.14853 .
980.0 0.0 477.84470 .
967.0 0.0 507.74103 .
944.0 0.0 535.91968 .
982.0 0.0 562.45947 .
946.0 0.0 587.44373 .
1010.0 0.0 610.94110 .
969.0 0.0 633.02655 .
952.0 0.0 653.76709 .
1005.0 0.0 673.22760 .
966.0 0.0 691.47223 .
952.0 0.0 708.56012 .
968.0 0.0 724.55060 .
995.0 0.0 739.49695 .
928.0 0.0 753.45166 .
898.0 0.0 766.46790 .
988.0 0.0 778.59143 .
959.0 0.0 789.87012 .
995.0 0.0 800.34747 .
964.0 0.0 810.06567 .
1019.0 0.0 819.06555 .
919.0 0.0 827.38519 .
915.0 0.0 835.06232 .
949.0 0.0 842.13092 .
940.0 0.0 848.62500 .
914.0 0.0 854.57684 .
996.0 0.0 860.01678 .
990.0 0.0 864.97412 .
900.0 0.0 869.47607 .
940.0 0.0 873.54895 .
883.0 0.0 877.21881 .
938.0 0.0 880.50861 .
1009.0 0.0 883.44159 .
896.0 0.001116 886.03912 886.03992
932.0 0.001073 888.32190 888.32251
865.0 0.001156 890.30951 890.31000
868.0 0.001152 892.02032 892.02075
913.0 0.001095 893.47223 893.47247
924.0 0.001082 894.68152 894.68170
896.0 0.001116 895.66437 895.66443
911.0 0.001098 896.43561 896.43561
913.0 0.001095 897.00952 897.00946
908.0 0.001101 897.39954 897.39941
925.0 0.001081 897.61841 897.61816
881.0 0.001135 897.67810 897.67780
927.0 0.001079 897.59009 897.58972
912.0 0.001096 897.36505 897.36462
913.0 0.001095 897.01318 897.01270
832.0 0.001202 896.54395 896.54346
872.0 0.001147 895.96649 895.96594
868.0 0.001152 895.28925 895.28864
873.0 0.001145 894.52014 894.51947
850.0 0.001176 893.66681 893.66614
925.0 0.001081 892.73627 892.73553
838.0 0.001193 891.73517 891.73444
853.0 0.001172 890.66968 890.66895
854.0 0.001171 889.54553 889.54480
821.0 0.001218 888.36853 888.36774
909.0 0.001100 887.14337 887.14258
849.0 0.001178 885.87518 885.87439
858.0 0.001166 884.56830 884.56750
829.0 0.001206 883.22675 883.22595
914.0 0.001094 881.85455 881.85376
929.0 0.001076 880.45526 880.45447
894.0 0.001119 879.03223 879.03143
930.0 0.001075 877.58862 877.58783
873.0 0.001145 876.12714 876.12634
887.0 0.001127 874.65063 874.64990
871.0 0.001148 873.16150 873.16077
882.0 0.001134 871.66211 871.66132
923.0 0.001083 870.15424 870.15356
832.0 0.001202 868.64008 868.63934
913.0 0.001095 867.12134 867.12067
851.0 0.001175 865.59949 865.59882
872.0 0.001147 864.07623 864.07556
855.0 0.001170 862.55273 862.55206
882.0 0.001134 861.03015 861.02954
882.0 0.001134 859.50964 859.50909
859.0 0.001164 857.99225 857.99170
881.0 0.001135 856.47882 856.47827
902.0 0.001109 854.97021 854.96973
918.0 0.001089 853.46680 853.46631
864.0 0.001157 851.96967 851.96918
879.0 0.001138 850.47894 853.23932
871.0 0.001148 848.99548 853.24829
846.0 0.001182 847.51935 851.99451
838.0 0.001193 846.05103 850.76660
861.0 0.001161 844.59094 849.56671
826.0 0.001211 843.13898 848.39734
806.0 0.001241 841.69580 847.26141
786.0 0.001272 840.26123 846.16199
843.0 0.001186 838.83551 845.10254
846.0 0.001182 837.41864 844.08746
823.0 0.001215 836.01068 843.12128
821.0 0.001218 834.61182 842.20966
856.0 0.001168 833.22192 841.35907
854.0 0.001171 831.84082 840.57715
848.0 0.001179 830.46875 839.87317
810.0 0.001235 829.10547 839.25806
878.0 0.001139 827.75092 838.74518
864.0 0.001157 826.40509 838.35089
870.0 0.001149 825.06781 838.09509
828.0 0.001208 823.73901 838.00281
894.0 0.001119 822.41846 838.10522
845.0 0.001183 821.10620 838.44214
863.0 0.001159 819.80206 839.06476
851.0 0.001175 818.50574 840.03992
914.0 0.001094 817.21735 841.45630
881.0 0.001135 815.93665 843.43402
883.0 0.001133 814.66351 846.13904
888.0 0.001126 813.39789 849.80823
920.0 0.001087 812.13934 854.80243
932.0 0.001073 810.88818 861.76654
943.0 0.001060 809.64404 872.17865
882.0 0.001134 808.40680 889.79608
986.0 0.001014 807.17645 923.12518
1003.0 0.000997 805.95282 987.31891
1121.0 0.000892 804.73590 1102.17017
1245.0 0.000803 803.52539 1286.99133
1541.0 0.000649 802.32141 1560.29980
1883.0 0.000531 801.12384 1951.65405
2332.0 0.000429 799.93256 2514.70825
3202.0 0.0003123 798.74756 3300.94800
4182.0 0.0002391 797.56866 4237.88281
4782.0 0.0002091 796.39606 4972.57910
4717.0 0.0002120 795.22949 4960.63135
3939.0 0.0002539 794.06897 4074.23413
2768.0 0.000361 792.91461 2843.17041
1799.0 0.000556 791.76611 1849.77759
1180.0 0.000847 790.62384 1288.35132
1005.0 0.000995 789.48749 1040.27686
898.0 0.001114 788.35718 941.75848
827.0 0.001209 787.23297 897.59174
836.0 0.001196 786.11475 871.89178
858.0 0.001166 785.00269 854.06628
753.0 0.001328 783.89679 840.75330
795.0 0.001258 782.79694 830.42596
792.0 0.001263 781.70337 822.18591
757.0 0.001321 780.61603 815.45038
768.0 0.001302 779.53510 809.82849
832.0 0.001202 778.46051 805.04803
854.0 0.001171 777.39233 800.91589
778.0 0.001285 776.33075 797.29230
783.0 0.001277 775.27570 794.07263
810.0 0.001235 774.22742 791.17932
777.0 0.001287 773.18591 788.55212
755.0 0.001325 772.15118 786.14459
733.0 0.001364 771.12347 783.92053
795.0 0.001258 770.10278 781.85071
790.0 0.001266 769.08929 779.91235
785.0 0.001274 768.08301 778.08630
748.0 0.001337 767.08411 776.35754
744.0 0.001344 766.09265 774.71344
802.0 0.001247 765.10876 773.14343
816.0 0.001225 764.13257 771.63904
757.0 0.001321 763.16418 770.19305
738.0 0.001355 762.20361 768.79901
808.0 0.001238 761.25116 767.45197
765.0 0.001307 760.30676 766.14740
776.0 0.001289 759.37067 764.88171
798.0 0.001253 758.44287 763.65149
779.0 0.001284 757.52350 762.45392
770.0 0.001299 756.61273 761.28668
721.0 0.001387 755.71063 760.14764
750.0 0.001333 754.81738 759.03497
730.0 0.001370 753.93298 757.94714
765.0 0.001307 753.05756 754.38361
775.0 0.001290 752.19128 752.19110
758.0 0.001319 751.33417 751.33398
709.0 0.001410 750.48639 750.48621
765.0 0.001307 749.64807 749.64789
753.0 0.001328 748.81915 748.81897
765.0 0.001307 747.99994 747.99969
751.0 0.001332 747.19031 747.19006
733.0 0.001364 746.39050 746.39026
751.0 0.001332 745.60059 745.60034
709.0 0.001410 744.82056 744.82031
753.0 0.001328 744.05060 744.05029
739.0 0.001353 743.29071 743.29041
769.0 0.001300 742.54108 742.54071
791.0 0.001264 741.80164 741.80133
809.0 0.001236 741.07245 741.07208
760.0 0.001316 740.35370 740.35333
708.0 0.001412 739.64532 739.64490
753.0 0.001328 738.94745 738.94708
761.0 0.001314 738.26013 738.25970
749.0 0.001335 737.58337 737.58295
783.0 0.001277 736.91730 736.91681
705.0 0.001418 736.26178 736.26135
739.0 0.001353 735.61700 735.61658
764.0 0.001309 734.98303 734.98254
750.0 0.001333 734.35974 734.35925
769.0 0.001300 733.74725 733.74677
738.0 0.001355 733.14557 733.14508
757.0 0.001321 732.55475 732.55420
717.0 0.001395 731.97473 731.97418
705.0 0.001418 731.40552 731.40497
727.0 0.001376 730.84723 730.84668
704.0 0.001420 730.29974 730.29919
738.0 0.001355 729.76312 729.76251
789.0 0.001267 729.23737 729.23682
732.0 0.001366 728.72241 728.72180
738.0 0.001355 728.21832 728.21771
761.0 0.001314 727.72498 727.72437
720.0 0.001389 727.24249 727.24182
722.0 0.001385 726.77069 726.77008
760.0 0.001316 726.30963 726.30902
734.0 0.001362 725.85931 725.85870
719.0 0.001391 725.41968 725.41901
691.0 0.001447 724.99066 724.98999
762.0 0.001312 724.57227 724.57159
734.0 0.001362 724.16443 724.16370
742.0 0.001348 723.76709 723.76636
749.0 0.001335 723.38019 723.37946
731.0 0.001368 723.00372 723.00305
720.0 0.001389 722.63770 722.63696
716.0 0.001397 722.28186 722.28113
727.0 0.001376 721.93634 721.93561
715.0 0.001399 721.60101 721.60028
768.0 0.001302 721.27582 721.27509
742.0 0.001348 720.96069 720.95996
729.0 0.001372 720.65558 720.65485
697.0 0.001435 720.36041 720.35962
774.0 0.001292 720.07507 720.07434
754.0 0.001326 719.79956 719.79883
722.0 0.001385 719.53381 719.53302
754.0 0.001326 719.27765 719.27686
731.0 0.001368 719.03113 719.03033
732.0 0.001366 718.79413 718.79333
700.0 0.001429 718.56653 718.56573
692.0 0.001445 718.34827 718.34747
733.0 0.001364 718.13928 718.13849
766.0 0.001305 717.93951 717.93872
696.0 0.001437 717.74884 717.74805
705.0 0.001418 717.56726 717.56647
734.0 0.001362 717.39459 717.39380
730.0 0.001370 717.23083 717.22998
706.0 0.001416 717.07587 717.07501
754.0 0.001326 716.92957 716.92877
729.0 0.001372 716.79193 716.79114
646.0 0.001548 716.66290 716.66205
739.0 0.001353 716.54230 716.54144
753.0 0.001328 716.43011 716.42926
691.0 0.001447 716.32623 716.32538
703.0 0.001422 716.23053 716.22974
745.0 0.001342 716.14307 716.14227
685.0 0.001460 716.06366 716.06287
697.0 0.001435 715.99225 715.99146
736.0 0.001359 715.92877 715.92798
737.0 0.001357 715.87317 715.87231
674.0 0.001484 715.82532 715.82446
725.0 0.001379 715.78516 715.78436
694.0 0.001441 715.75262 715.75183
730.0 0.001370 715.72766 715.72687
692.0 0.001445 715.71021 715.70941
697.0 0.001435 715.70020 715.69940
677.0 0.001477 715.69745 715.69666
671.0 0.001490 715.70209 715.70129
717.0 0.001395 715.71393 715.71313
757.0 0.001321 715.73291 715.73212
682.0 0.001466 715.75897 715.75818
701.0 0.001427 715.79211 715.79138
785.0 0.001274 715.83221 715.83148
728.0 0.001374 715.87927 715.87854
702.0 0.001425 715.93323 715.93243
746.0 0.001340 715.99396 715.99323
715.0 0.001399 716.06152 716.06073
741.0 0.001350 716.13580 716.13501
746.0 0.001340 716.21674 716.21594
660.0 0.001515 716.30432 716.30359
715.0 0.001399 716.39850 716.39777
735.0 0.001361 716.49927 716.49854
737.0 0.001357 716.60651 716.60577
700.0 0.001429 716.72028 716.71954
683.0 0.001464 716.84045 716.83972
703.0 0.001422 716.96710 716.96637
699.0 0.001431 717.10016 717.09943
700.0 0.001429 717.23956 717.23883
704.0 0.001420 717.38531 717.38458
676.0 0.001479 717.53735 717.53668
674.0 0.001484 717.69574 717.69501
706.0 0.001416 717.86041 717.85968
726.0 0.001377 718.03131 718.03064
731.0 0.001368 718.20850 718.20782
695.0 0.001439 718.39191 718.39124
730.0 0.001370 718.58160 718.58093
718.0 0.001393 718.77753 718.77686
734.0 0.001362 718.97968 718.97900
722.0 0.001385 719.18805 719.18738
730.0 0.001370 719.40265 719.40198
713.0 0.001403 719.62347 719.62280
694.0 0.001441 719.85052 719.84991
671.0 0.001490 720.08386 720.08319
729.0 0.001372 720.32343 720.32275
745.0 0.001342 720.56927 720.56866
718.0 0.001393 720.82141 720.82074
734.0 0.001362 721.07977 721.07916
728.0 0.001374 721.34454 721.34387
693.0 0.001443 721.61560 721.61499
711.0 0.001406 721.89301 721.89240
666.0 0.001502 722.17676 722.17615
713.0 0.001403 722.46692 722.46631
699.0 0.001431 722.76355 722.76294
753.0 0.001328 723.06659 723.06604
692.0 0.001445 723.37616 723.37555
701.0 0.001427 723.69220 723.69159
744.0 0.001344 724.01483 724.01422
713.0 0.001403 724.34406 724.34344
719.0 0.001391 724.67987 724.67932
717.0 0.001395 725.02234 725.02179
708.0 0.001412 725.37152 725.37097
702.0 0.001425 725.72754 725.72693
736.0 0.001359 726.09021 726.08966
740.0 0.001351 726.45978 726.45923
726.0 0.001377 726.83618 726.83569
729.0 0.001372 727.21954 727.21899
693.0 0.001443 727.60986 727.60931
689.0 0.001451 728.00714 728.00665
720.0 0.001389 728.41156 728.41107
738.0 0.001355 728.82306 728.82257
696.0 0.001437 729.24176 729.24121
725.0 0.001379 729.66766 729.66718
711.0 0.001406 730.10083 730.10034
747.0 0.001339 730.54132 730.54083
736.0 0.001359 730.98920 730.98871
715.0 0.001399 731.44452 731.44403
732.0 0.001366 731.90735 731.90686
740.0 0.001351 732.37769 732.37720
728.0 0.001374 732.85565 732.85516
750.0 0.001333 733.34125 733.34076
738.0 0.001355 733.83459 733.83411
698.0 0.001433 734.33563 734.33521
708.0 0.001412 734.84454 734.84406
723.0 0.001383 735.36139 735.36090
755.0 0.001325 735.88617 735.88568
743.0 0.001346 736.41888 736.41846
738.0 0.001355 736.95978 736.95929
728.0 0.001374 737.50867 737.50818
751.0 0.001332 738.06580 738.06537
764.0 0.001309 738.63110 738.63068
759.0 0.001318 739.20477 739.20428
729.0 0.001372 739.78674 739.78632
703.0 0.001422 740.37708 740.37665
783.0 0.001277 740.97595 740.97546
765.0 0.001307 741.58325 741.58276
741.0 0.001350 742.19910 742.19861
762.0 0.001312 742.82355 742.82312
764.0 0.001309 743.45667 743.45624
742.0 0.001348 744.09857 744.09814
730.0 0.001370 744.74921 744.74878
803.0 0.001245 745.40863 745.40820
808.0 0.001238 746.07690 746.07648
766.0 0.001305 746.75409 746.75366
717.0 0.001395 747.44031 747.43988
742.0 0.001348 748.13544 748.13501
769.0 0.001300 748.83960 748.83923
764.0 0.001309 749.55298 749.55255
777.0 0.001287 750.27533 750.27496
775.0 0.001290 751.00696 751.00659
737.0 0.001357 751.74774 751.74731
707.0 0.001414 752.49774 752.49738
741.0 0.001350 753.25702 753.25665
725.0 0.001379 754.02570 754.02527
739.0 0.001353 754.80359 754.80322
711.0 0.001406 755.59088 755.59052
743.0 0.001346 756.38763 756.38721
787.0 0.001271 757.19379 757.19342
752.0 0.001330 758.00940 758.00897
808.0 0.001238 758.83447 758.83411
769.0 0.001300 759.66907 759.66864
752.0 0.001330 760.51312 760.51270
786.0 0.001272 761.36682 761.36639
773.0 0.001294 762.22992 762.22955
780.0 0.001282 763.10272 763.10236
776.0 0.001289 763.98499 763.98462
813.0 0.001230 764.87683 764.87646
716.0 0.001397 765.77832 765.77789
777.0 0.001287 766.68945 766.68903
767.0 0.001304 767.61011 767.60968
787.0 0.001271 768.54034 768.53992
760.0 0.001316 769.48016 769.47974
751.0 0.001332 770.42969 770.42932
798.0 0.001253 771.38867 771.38831
712.0 0.001404 772.35736 774.74683
748.0 0.001337 773.33551 775.84406
785.0 0.001274 774.32324 776.95996
745.0 0.001342 775.32056 779.33771
775.0 0.001290 776.32733 780.55719
781.0 0.001280 777.34369 781.80371
762.0 0.001312 778.36945 783.07874
795.0 0.001258 779.40466 784.38495
773.0 0.001294 780.44934 785.72473
758.0 0.001319 781.50336 787.10083
807.0 0.001239 782.56671 788.51672
877.0 0.001140 783.63947 789.97632
767.0 0.001304 784.72144 791.48425
848.0 0.001179 785.81274 793.04608
811.0 0.001233 786.91321 794.66791
842.0 0.001188 788.02289 796.35754
811.0 0.001233 789.14160 798.12384
849.0 0.001178 790.26935 799.97778
853.0 0.001172 791.40625 801.93286
831.0 0.001203 792.55200 804.00476
785.0 0.001274 793.70673 806.21399
887.0 0.001127 794.87024 808.58466
860.0 0.001163 796.04248 811.14819
837.0 0.001195 797.22351 813.94427
872.0 0.001147 798.41309 817.02307
829.0 0.001206 799.61133 820.45105
886.0 0.001129 800.81793 824.31512
859.0 0.001164 802.03320 828.73279
865.0 0.001156 803.25659 833.86487
885.0 0.001130 804.48834 839.93616
927.0 0.001079 805.72833 847.27148
914.0 0.001094 806.97632 856.35919
953.0 0.001049 808.23230 868.02771
885.0 0.001130 809.49640 884.03693
924.0 0.001082 810.76813 908.94354
1055.0 0.000948 812.04779 954.53436
1135.0 0.000881 813.33490 1047.12793
1213.0 0.000824 814.62964 1235.64380
1633.0 0.000612 815.93188 1593.80652
2309.0 0.000433 817.24133 2203.25464
3179.0 0.0003146 818.55804 3081.02783
3999.0 0.0002501 819.88190 4049.88281
4659.0 0.0002146 821.21289 4681.92871
4536.0 0.0002205 822.55066 4570.60498
4157.0 0.0002406 823.89526 3843.01270
3114.0 0.0003211 825.24658 2879.89917
2224.0 0.000450 826.60443 2007.38916
1467.0 0.000682 827.96869 1429.13391
1045.0 0.000957 829.33936 1128.89807
970.0 0.001031 830.71613 998.56299
933.0 0.001072 832.09912 944.49353
860.0 0.001163 833.48785 918.29443
826.0 0.001211 834.88245 902.44293
844.0 0.001185 836.28290 891.59021
880.0 0.001136 837.68866 883.82385
838.0 0.001193 839.09991 878.17242
814.0 0.001229 840.51654 874.03436
813.0 0.001230 841.93823 871.00830
847.0 0.001181 843.36487 868.81799
840.0 0.001190 844.79639 867.26886
869.0 0.001151 846.23279 866.21954
847.0 0.001181 847.67358 865.56592
834.0 0.001199 849.11884 865.22992
845.0 0.001183 850.56848 865.15179
846.0 0.001182 852.02216 865.28540
813.0 0.001230 853.47992 865.59467
852.0 0.001174 854.94141 866.05078
808.0 0.001238 856.40656 866.63080
860.0 0.001163 857.87537 867.31622
839.0 0.001192 859.34741 868.64252
776.0 0.001289 860.82269 869.52362
833.0 0.001200 862.30115 870.74469
854.0 0.001171 863.78241 871.76978
860.0 0.001163 865.26636 872.84998
860.0 0.001163 866.75299 873.97931
879.0 0.001138 868.24207 875.15308
902.0 0.001109 869.73334 876.36707
905.0 0.001105 871.22668 877.61823
864.0 0.001157 872.72217 878.90387
908.0 0.001101 874.21924 880.22192
876.0 0.001142 875.71808 881.57062
848.0 0.001179 877.21820 882.94885
905.0 0.001105 878.71967 884.35596
836.0 0.001196 880.22235 883.37299
871.0 0.001148 881.72583 884.95087
819.0 0.001221 883.23022 885.34167
846.0 0.001182 884.73517 887.02277
904.0 0.001106 886.24048 888.72742
862.0 0.001160 887.74615 890.45966
872.0 0.001147 889.25189 892.22443
878.0 0.001139 890.75775 894.02832
894.0 0.001119 892.26324 895.87915
851.0 0.001175 893.76837 897.78741
880.0 0.001136 895.27301 899.76678
876.0 0.001142 896.77686 901.83496
852.0 0.001174 898.27991 904.01611
879.0 0.001138 899.78180 906.34265
856.0 0.001168 901.28247 908.86041
965.0 0.001036 902.78186 911.63440
886.0 0.001129 904.27954 914.76056
874.0 0.001144 905.77570 918.39404
890.0 0.001124 907.26978 922.83362
903.0 0.001107 908.76178 928.81787
965.0 0.001036 910.25159 938.33673
963.0 0.001038 911.73914 956.27606
1017.0 0.000983 913.22400 992.74927
1132.0 0.000883 914.70618 1064.59534
1307.0 0.000765 916.18542 1191.57458
1586.0 0.000631 917.66180 1380.33630
1930.0 0.000518 919.13483 1596.06091
2291.0 0.000436 920.60461 1749.50696
2435.0 0.000411 922.07074 1749.16992
2152.0 0.000465 923.53320 1613.04028
1841.0 0.000543 924.99188 1418.92224
1416.0 0.000706 926.44653 1227.19495
1156.0 0.000865 927.89709 1087.75183
1076.0 0.000929 929.34320 1009.33667
972.0 0.001029 930.78491 973.62146
957.0 0.001045 932.22192 959.38702
938.0 0.001066 933.65430 953.55957
906.0 0.001104 935.08160 950.75824
887.0 0.001127 936.50391 949.26733
899.0 0.001112 937.92090 948.52716
902.0 0.001109 939.33270 948.28741
922.0 0.001085 940.73883 948.40027
935.0 0.001070 942.13947 948.76917
939.0 0.001065 943.53412 949.32764
931.0 0.001074 944.92285 950.02917
938.0 0.001066 946.30548 950.84009
895.0 0.001117 947.68219 951.73608
855.0 0.001170 949.05206 952.69800
918.0 0.001089 950.41571 953.71228
940.0 0.001064 951.77246 954.76776
986.0 0.001014 953.12256 955.85602
903.0 0.001107 954.46613 956.97058
865.0 0.001156 955.80206 958.10522
910.0 0.001099 957.13123 959.25647
879.0 0.001138 958.45270 960.41992
899.0 0.001112 959.76715 961.59326
901.0 0.001110 961.07410 962.77380
911.0 0.001098 962.37305 963.95905
935.0 0.001070 963.66449 965.14783
929.0 0.001076 964.94781 966.33807
862.0 0.001160 966.22314 967.52893
876.0 0.001142 967.49072 968.71948
915.0 0.001093 968.74963 969.90796
935.0 0.001070 970.00043 971.09424
950.0 0.001053 971.24255 972.27710
976.0 0.001025 972.47620 973.45618
906.0 0.001104 973.70148 974.63104
919.0 0.001088 974.91748 975.80048
916.0 0.001092 976.12500 976.42542
909.0 0.001100 977.32330 977.60883
856.0 0.001168 978.51257 978.78430
984.0 0.001016 979.69293 979.69269
994.0 0.001006 980.86371 980.86346
974.0 0.001027 982.02533 982.02515
1001.0 0.000999 983.17737 983.17712
982.0 0.001018 984.31995 984.31970
1088.0 0.000919 985.45319 985.45300
1062.0 0.000942 986.57642 986.57623
962.0 0.001040 987.69006 987.68982
1029.0 0.000972 988.79364 988.79346
992.0 0.001008 989.88745 989.88727
937.0 0.001067 990.97156 990.97131
1041.0 0.000961 992.04504 992.04486
1072.0 0.000933 993.10889 993.10864
1027.0 0.000974 994.16217 994.16199
1030.0 0.000971 995.20532 995.20514
985.0 0.001015 996.23840 996.23816
982.0 0.001018 997.26074 997.26056
1018.0 0.000982 998.27289 998.27271
981.0 0.001019 999.27429 999.27411
959.0 0.001043 1000.26526 1000.26508
982.0 0.001018 1001.24591 1001.24573
993.0 0.001007 1002.21558 1002.21539
957.0 0.001045 1003.17468 1003.17450
1021.0 0.000979 1004.12292 1004.12274
947.0 0.001056 1005.06042 1005.06024
968.0 0.001033 1005.98737 1005.98718
1008.0 0.000992 1006.90302 1006.90289
936.0 0.001068 1007.80817 1007.80798
995.0 0.001005 1008.70209 1008.70197
963.0 0.001038 1009.58514 1009.58502
995.0 0.001005 1010.45740 1010.45721
992.0 0.001008 1011.31836 1011.31824
970.0 0.001031 1012.16846 1012.16833
1014.0 0.000986 1013.00732 1013.00720
981.0 0.001019 1013.83521 1013.83508
1035.0 0.000966 1014.65222 1014.65204
1048.0 0.000954 1015.45776 1015.45764
944.0 0.001059 1016.25238 1016.25220
967.0 0.001034 1017.03564 1017.03552
961.0 0.001041 1017.80786 1017.80774
1005.0 0.000995 1018.56915 1018.56903
980.0 0.001020 1019.31891 1019.31879
1001.0 0.000999 1020.05774 1020.05762
970.0 0.001031 1020.78522 1020.78510
995.0 0.001005 1021.50159 1021.50146
1015.0 0.000985 1022.20691 1022.20679
1029.0 0.000972 1022.90088 1022.90076
953.0 0.001049 1023.58386 1023.58380
1005.0 0.000995 1024.25549 1024.25537
1051.0 0.000951 1024.91602 1024.91589
1014.0 0.000986 1025.56567 1025.56555
1021.0 0.000979 1026.20386 1026.20386
988.0 0.001012 1026.83118 1026.83118
1005.0 0.000995 1027.44727 1027.44714
1027.0 0.000974 1028.05237 1028.05225
973.0 0.001028 1028.64661 1028.64648
1013.0 0.000987 1029.22949 1029.22937
1065.0 0.000939 1029.80164 1029.80151
1013.0 0.000987 1030.36255 1030.36243
1032.0 0.000969 1030.91272 1030.91260
1034.0 0.000967 1031.45203 1031.45190
1061.0 0.000943 1031.98022 1031.98022
1084.0 0.000923 1032.49780 1032.49768
1117.0 0.000895 1033.00439 1033.00427
1036.0 0.000965 1033.50024 1033.50024
1047.0 0.000955 1033.98560 1033.98547
1084.0 0.000923 1034.45996 1034.45996
1059.0 0.000944 1034.92383 1043.67700
1034.0 0.000967 1035.37695 1044.56506
1096.0 0.000912 1035.81970 1045.47595
1124.0 0.000890 1036.25183 1050.83972
1094.0 0.000914 1036.67346 1052.02869
1088.0 0.000919 1037.08472 1053.26965
1102.0 0.000907 1037.48547 1054.56921
1082.0 0.000924 1037.87610 1055.93542
1163.0 0.000860 1038.25635 1057.37781
1131.0 0.000884 1038.62634 1058.90637
1161.0 0.000861 1038.98633 1060.53345
1148.0 0.000871 1039.33606 1062.27283
1070.0 0.000935 1039.67578 1064.14136
1148.0 0.000871 1040.00562 1066.15857
1138.0 0.000879 1040.32544 1068.34619
1226.0 0.000816 1040.63538 1070.73181
1135.0 0.000881 1040.93542 1073.34692
1157.0 0.000864 1041.22595 1076.23059
1113.0 0.000898 1041.50671 1079.42981
1158.0 0.000864 1041.77783 1082.99927
1152.0 0.000868 1042.03943 1087.01062
1146.0 0.000873 1042.29150 1091.54797
1152.0 0.000868 1042.53430 1096.72034
1136.0 0.000880 1042.76770 1102.66467
1209.0 0.000827 1042.99182 1109.55164
1214.0 0.000824 1043.20679 1117.61023
1187.0 0.000842 1043.41260 1127.13281
1227.0 0.000815 1043.60938 1138.51746
1203.0 0.000831 1043.79712 1152.30383
1246.0 0.000803 1043.97607 1170.17236
1230.0 0.000813 1044.14612 1191.34912
1338.0 0.000747 1044.30737 1218.27966
1284.0 0.000779 1044.46008 1253.90845
1398.0 0.000715 1044.60413 1301.95361
1442.0 0.000693 1044.73975 1374.12183
1621.0 0.000617 1044.86682 1501.97302
1839.0 0.000544 1044.98547 1768.63354
2400.0 0.000417 1045.09595 2358.65405
3445.0 0.0002903 1045.19824 3586.13599
5479.0 0.0001825 1045.29236 5778.43506
8303.0 0.0001204 1045.37854 8918.09766
11763.0 0.0000850 1045.45667 12218.23535
14097.0 0.0000709 1045.52686 14190.08008
14185.0 0.0000705 1045.58936 13798.45605
12618.0 0.0000793 1045.64417 11754.90234
9269.0 0.0001079 1045.69116 9056.71191
6234.0 0.0001604 1045.73083 6254.68018
4170.0 0.0002398 1045.76294 4000.56323
2515.0 0.000398 1045.78760 2580.72363
1746.0 0.000573 1045.80505 1854.43359
1416.0 0.000706 1045.81519 1533.38745
1271.0 0.000787 1045.81824 1391.24670
1175.0 0.000851 1045.81433 1315.76721
1236.0 0.000809 1045.80334 1266.65393
1144.0 0.000874 1045.78552 1231.17517
1201.0 0.000833 1045.76086 1204.47437
1159.0 0.000863 1045.72949 1184.02869
1136.0 0.000880 1045.69141 1168.24878
1204.0 0.000831 1045.64685 1156.10474
1166.0 0.000858 1045.59583 1146.94324
1221.0 0.000819 1045.53833 1140.38074
1123.0 0.000890 1045.47461 1136.31067
1121.0 0.000892 1045.40466 1135.03589
1176.0 0.000850 1045.32861 1137.90857
1169.0 0.000855 1045.24646 1149.21045
1267.0 0.000789 1045.15833 1180.21863
1355.0 0.000738 1045.06433 1254.62280
1480.0 0.000676 1044.96448 1408.62537
1801.0 0.000555 1044.85876 1670.59033
2245.0 0.000445 1044.74756 2016.16980
2570.0 0.000389 1044.63074 2334.64160
2398.0 0.000417 1044.50842 2466.45947
2386.0 0.000419 1044.38074 2359.20557
2306.0 0.000434 1044.24756 2121.79858
1782.0 0.000561 1044.10925 1834.97278
1547.0 0.000646 1043.96570 1551.68848
1354.0 0.000739 1043.81702 1334.79541
1253.0 0.000798 1043.66345 1202.89392
1174.0 0.000852 1043.50476 1136.77783
1108.0 0.000903 1043.34119 1107.19092
1109.0 0.000902 1043.17297 1093.14941
1063.0 0.000941 1042.99988 1084.91650
1032.0 0.000969 1042.82214 1079.09924
1101.0 0.000908 1042.63977 1065.70166
1077.0 0.000929 1042.45300 1062.50525
1098.0 0.000911 1042.26172 1059.91235
1048.0 0.000954 1042.06604 1053.40588
1006.0 0.000994 1041.86609 1051.79504
1004.0 0.000996 1041.66187 1050.42810
1000.0 0.001000 1041.45349 1049.25049
1057.0 0.000946 1041.24097 1048.22119
1064.0 0.000940 1041.02454 1047.31030
1010.0 0.000990 1040.80396 1046.49390
1018.0 0.000982 1040.57959 1045.75476
1069.0 0.000935 1040.35132 1045.07861
1009.0 0.000991 1040.11926 1044.45447
1097.0 0.000912 1039.88354 1043.87366
1027.0 0.000974 1039.64417 1043.32874
1013.0 0.000987 1039.40112 1042.81396
1023.0 0.000978 1039.15466 1042.32483
986.0 0.001014 1038.90454 1041.85706
1039.0 0.000962 1038.65112 1041.40771
1013.0 0.000987 1038.39429 1040.97388
1022.0 0.000978 1038.13416 1040.55310
1038.0 0.000963 1037.87073 1040.14380
1043.0 0.000959 1037.60413 1039.74402
1022.0 0.000978 1037.33447 1039.35229
988.0 0.001012 1037.06152 1038.96790
1008.0 0.000992 1036.78552 1038.58923
1093.0 0.000915 1036.50659 1038.21570
998.0 0.001002 1036.22473 1037.84656
973.0 0.001028 1035.93994 1037.48096
1020.0 0.000980 1035.65234 1036.18433
1042.0 0.000960 1035.36182 1035.86755
1006.0 0.000994 1035.06848 1035.54993
1020.0 0.000980 1034.77246 1034.77234
1005.0 0.000995 1034.47388 1034.47363
973.0 0.001028 1034.17249 1034.17236
1010.0 0.000990 1033.86853 1033.86829
1052.0 0.000951 1033.56201 1033.56177
983.0 0.001017 1033.25281 1033.25269
1031.0 0.000970 1032.94128 1032.94116
1046.0 0.000956 1032.62720 1032.62708
1019.0 0.000981 1032.31067 1032.31055
1041.0 0.000961 1031.99182 1031.99158
971.0 0.001030 1031.67053 1031.67029
973.0 0.001028 1031.34692 1031.34680
955.0 0.001047 1031.02100 1031.02087
1015.0 0.000985 1030.69263 1030.69250
1024.0 0.000977 1030.36230 1030.36206
983.0 0.001017 1030.02954 1030.02930
1040.0 0.000962 1029.69458 1029.69446
1046.0 0.000956 1029.35754 1029.35730
1035.0 0.000966 1029.01819 1029.01794
1014.0 0.000986 1028.67676 1028.67651
881.0 0.001135 1028.33313 1028.33289
1037.0 0.000964 1027.98755 1027.98730
968.0 0.001033 1027.63977 1027.63953
1076.0 0.000929 1027.28979 1027.28955
1055.0 0.000948 1026.93799 1026.93774
1040.0 0.000962 1026.58398 1026.58374
1082.0 0.000924 1026.22803 1026.22778
1002.0 0.000998 1025.87000 1025.86975
1029.0 0.000972 1025.50989 1025.50964
1026.0 0.000975 1025.14783 1025.14771
1028.0 0.000973 1024.78381 1024.78357
1049.0 0.000953 1024.41785 1024.41760
1054.0 0.000949 1024.04980 1024.04968
1005.0 0.000995 1023.67981 1023.67963
1009.0 0.000991 1023.30792 1023.30768
975.0 0.001026 1022.93396 1022.93372
1059.0 0.000944 1022.55811 1022.55786
1033.0 0.000968 1022.18024 1022.17999
988.0 0.001012 1021.80029 1021.80005
1045.0 0.000957 1021.41852 1021.41827
1042.0 0.000960 1021.03473 1021.03448
1008.0 0.000992 1020.64899 1020.64874
971.0 0.001030 1020.26123 1020.26099
1059.0 0.000944 1019.87140 1019.87115
966.0 0.001035 1019.47968 1019.47937
1016.0 0.000984 1019.08588 1019.08563
1019.0 0.000981 1018.69012 1018.68988
991.0 0.001009 1018.29242 1018.29211
1043.0 0.000959 1017.89246 1017.89221
1004.0 0.000996 1017.49066 1017.49036
1009.0 0.000991 1017.08667 1017.08636
999.0 0.001001 1016.68073 1016.68048
988.0 0.001012 1016.27258 1016.27234
990.0 0.001010 1015.86230 1015.86206
1021.0 0.000979 1015.45001 1015.44977
991.0 0.001009 1015.03558 1015.03528
1006.0 0.000994 1014.61896 1014.61865
979.0 0.001021 1014.20020 1014.19989
930.0 0.001075 1013.77905 1013.77881
984.0 0.001016 1013.35590 1013.35565
976.0 0.001025 1012.93042 1012.93011
1037.0 0.000964 1012.50275 1012.50244
988.0 0.001012 1012.07275 1012.07245
988.0 0.001012 1011.64032 1011.64008
992.0 0.001008 1011.20575 1011.20544
964.0 0.001037 1010.76868 1010.76837
977.0 0.001024 1010.32928 1010.32904
964.0 0.001037 1009.88751 1009.88727
1003.0 0.000997 1009.44318 1009.44287
993.0 0.001007 1008.99652 1008.99628
1023.0 0.000978 1008.54730 1008.54700
981.0 0.001019 1008.09558 1008.09528
964.0 0.001037 1007.64130 1007.64099
1023.0 0.000978 1007.18427 1007.18396
979.0 0.001021 1006.72479 1006.72449
968.0 0.001033 1006.26251 1006.26221
1002.0 0.000998 1005.79767 1005.79736
989.0 0.001011 1005.33014 1005.32983
981.0 0.001019 1004.85962 1004.85931
982.0 0.001018 1004.38660 1004.38623
970.0 0.001031 1003.91046 1003.91016
989.0 0.001011 1003.43164 1003.43134
966.0 0.001035 1002.94995 1002.94965
978.0 0.001022 1002.46521 1002.46490
938.0 0.001066 1001.97760 1001.97729
972.0 0.001029 1001.48682 1001.48651
1015.0 0.000985 1000.99316 1000.99286
1004.0 0.000996 1000.49640 1000.49603
976.0 0.001025 999.99628 999.99597
1003.0 0.000997 999.49323 999.49292
988.0 0.001012 998.98682 998.98651
1025.0 0.000976 998.47736 998.47699
987.0 0.001013 997.96448 997.96417
971.0 0.001030 997.44818 997.44788
1002.0 0.000998 996.92871 997.27271
1003.0 0.000997 996.40564 996.76672
996.0 0.001004 995.87927 996.25873
1027.0 0.000974 995.34937 995.74854
994.0 0.001006 994.81586 995.41443
943.0 0.001060 994.27887 994.90961
949.0 0.001054 993.73810 994.40369
1002.0 0.000998 993.19391 993.89728
984.0 0.001016 992.64587 993.39026
1060.0 0.000943 992.09393 992.88318
1038.0 0.000963 991.53839 992.37659
973.0 0.001028 990.97894 991.87085
1012.0 0.000988 990.41571 991.36658
1008.0 0.000992 989.84857 990.86450
948.0 0.001055 989.27722 990.36517
975.0 0.001026 988.70215 989.87000
986.0 0.001014 988.12280 989.37970
1050.0 0.000952 987.53955 988.89606
950.0 0.001053 986.95209 988.42053
985.0 0.001015 986.36035 987.95532
980.0 0.001020 985.76453 987.50305
1041.0 0.000961 985.16431 987.06665
1020.0 0.000980 984.55994 986.65045
1009.0 0.000991 983.95117 986.25928
972.0 0.001029 983.33777 991.16797
1033.0 0.000968 982.72021 991.11444
1011.0 0.000989 982.09802 991.13226
1015.0 0.000985 981.47144 993.82587
1089.0 0.000918 980.84027 994.17181
987.0 0.001013 980.20428 994.66779
1031.0 0.000970 979.56384 995.35571
1035.0 0.000966 978.91870 996.29669
1041.0 0.000961 978.26886 997.58301
1069.0 0.000935 977.61420 999.38678
945.0 0.001058 976.95465 1002.12476
1070.0 0.000935 976.29041 1006.97736
1079.0 0.000927 975.62109 1017.15271
1081.0 0.000925 974.94708 1039.80078
1092.0 0.000916 974.26794 1086.65637
1224.0 0.000817 973.58368 1168.69727
1412.0 0.000708 972.89459 1282.24963
1401.0 0.000714 972.20026 1396.83984
1557.0 0.000642 971.50092 1462.58691
1515.0 0.000660 970.79639 1452.22241
1462.0 0.000684 970.08649 1394.22839
1318.0 0.000759 969.37158 1320.53247
1267.0 0.000789 968.65131 1237.55640
1174.0 0.000852 967.92584 1156.83105
1160.0 0.000862 967.19495 1095.39209
1161.0 0.000861 966.45862 1059.01807
1101.0 0.000908 965.71704 1043.25427
1099.0 0.000910 964.96979 1040.17603
1050.0 0.000952 964.21735 1043.86084
1045.0 0.000957 963.45929 1051.67407
1133.0 0.000883 962.69543 1063.19128
1119.0 0.000894 961.92633 1079.18176
1138.0 0.000879 961.15155 1101.63281
1212.0 0.000825 960.37115 1135.51953
1304.0 0.000767 959.58514 1195.24670
1544.0 0.000648 958.79321 1320.93066
1623.0 0.000616 957.99579 1605.49182
2258.0 0.000443 957.19257 2210.20728
3453.0 0.0002896 956.38367 3304.59399
5047.0 0.0001981 955.56891 4884.46680
6743.0 0.0001483 954.74823 6574.32568
7127.0 0.0001403 953.92188 7673.88916
7285.0 0.0001373 953.08948 7683.52393
7271.0 0.0001375 952.25146 6906.06250
5908.0 0.0001693 951.40729 5860.62549
4194.0 0.0002384 950.55719 4670.11328
3166.0 0.0003159 949.70129 3440.39624
2515.0 0.000398 948.83936 2422.44678
1746.0 0.000573 947.97150 1746.48962
1284.0 0.000779 947.09760 1377.75610
1213.0 0.000824 946.21741 1204.42786
1050.0 0.000952 945.33148 1125.36487
1088.0 0.000919 944.43939 1083.93237
969.0 0.001032 943.54138 1057.30371
1015.0 0.000985 942.63715 1037.76257
1009.0 0.000991 941.72662 1022.55328
1009.0 0.000991 940.81036 1010.36737
984.0 0.001016 939.88770 1000.39063
996.0 0.001004 938.95917 992.07947
1012.0 0.000988 938.02423 984.68988
1010.0 0.000990 937.08313 978.66248
961.0 0.001041 936.13605 973.42194
984.0 0.001016 935.18268 968.80884
958.0 0.001044 934.22327 964.53693
978.0 0.001022 933.25757 960.85748
935.0 0.001070 932.28546 957.52063
901.0 0.001110 931.30750 954.47046
907.0 0.001103 930.32312 951.65912
907.0 0.001103 929.33276 949.05035
943.0 0.001060 928.33612 946.61279
923.0 0.001083 927.33301 944.32104
922.0 0.001085 926.32410 942.15576
974.0 0.001027 925.30872 940.09802
888.0 0.001126 924.28735 938.13428
944.0 0.001059 923.25970 936.25153
967.0 0.001034 922.22577 934.43927
966.0 0.001035 921.18585 932.68921
940.0 0.001064 920.13959 930.99286
907.0 0.001103 919.08734 929.34430
898.0 0.001114 918.02881 927.73730
897.0 0.001115 916.96387 926.16669
948.0 0.001055 915.89319 924.62891
942.0 0.001062 914.81622 917.88678
886.0 0.001129 913.73328 916.64807
906.0 0.001104 912.64410 915.41461
952.0 0.001050 911.54858 914.18524
893.0 0.001120 910.44745 910.44702
902.0 0.001109 909.33984 909.33948
923.0 0.001083 908.22656 908.22614
866.0 0.001155 907.10712 907.10669
848.0 0.001179 905.98145 905.98102
899.0 0.001112 904.85004 904.84961
947.0 0.001056 903.71259 903.71216
866.0 0.001155 902.56927 902.56885
933.0 0.001072 901.41998 901.41956
879.0 0.001138 900.26447 900.26404
915.0 0.001093 899.10345 899.10303
825.0 0.001212 897.93646 897.93604
910.0 0.001099 896.76373 896.76337
880.0 0.001136 895.58521 895.58478
895.0 0.001117 894.40051 894.40009
891.0 0.001122 893.21063 893.21021
874.0 0.001144 892.01465 892.01422
847.0 0.001181 890.81323 890.81281
886.0 0.001129 889.60608 889.60565
908.0 0.001101 888.39307 888.39264
854.0 0.001171 887.17480 887.17438
890.0 0.001124 885.95074 885.95032
869.0 0.001151 884.72144 884.72095
841.0 0.001189 883.48645 883.48602
901.0 0.001110 882.24573 882.24530
907.0 0.001103 881.00006 880.99963
875.0 0.001143 879.74878 879.74835
934.0 0.001071 878.49237 880.10815
855.0 0.001170 877.23053 878.92615
866.0 0.001155 875.96313 877.74463
869.0 0.001151 874.69104 876.56500
858.0 0.001166 873.41333 876.20825
890.0 0.001124 872.13086 875.07477
871.0 0.001148 870.84320 873.94843
869.0 0.001151 869.55023 872.83044
858.0 0.001166 868.25262 871.72296
822.0 0.001217 866.94977 870.62726
914.0 0.001094 865.64240 869.54620
869.0 0.001151 864.33002 868.48169
882.0 0.001134 863.01245 867.43640
900.0 0.001111 861.69055 866.41449
867.0 0.001153 860.36377 865.41931
931.0 0.001074 859.03253 864.45593
892.0 0.001121 857.69659 863.52948
864.0 0.001157 856.35571 862.64642
903.0 0.001107 855.01086 861.81531
882.0 0.001134 853.66132 861.04529
875.0 0.001143 852.30762 860.34845
898.0 0.001114 850.94940 859.73907
887.0 0.001127 849.58673 859.23517
828.0 0.001208 848.22015 860.54456
891.0 0.001122 846.84912 860.41040
841.0 0.001189 845.47443 860.47668
893.0 0.001120 844.09540 861.60571
883.0 0.001133 842.71210 862.27521
880.0 0.001136 841.32526 863.34766
852.0 0.001174 839.93439 864.94232
895.0 0.001117 838.53992 867.22394
966.0 0.001035 837.14154 870.43390
925.0 0.001081 835.73914 874.95313
900.0 0.001111 834.33362 881.51263
956.0 0.001046 832.92432 891.96851
916.0 0.001092 831.51172 911.64636
1006.0 0.000994 830.09558 954.80566
1035.0 0.000966 828.67578 1052.44897
1345.0 0.000743 827.25311 1253.52917
1632.0 0.000613 825.82678 1602.24768
2302.0 0.000434 824.39783 2083.09595
2774.0 0.000360 822.96552 2573.36719
2873.0 0.0003481 821.52972 2871.39941
2862.0 0.0003494 820.09155 2854.75537
2722.0 0.000367 818.65015 2629.46240
2334.0 0.000428 817.20618 2346.14624
1897.0 0.000527 815.75934 2030.38086
1612.0 0.000620 814.30945 1683.00891
1357.0 0.000737 812.85736 1366.20386
1137.0 0.000880 811.40253 1133.83984
991.0 0.001009 809.94543 994.50049
935.0 0.001070 808.48578 924.59198
916.0 0.001092 807.02356 893.60352
877.0 0.001140 805.55945 880.42877
889.0 0.001125 804.09271 875.13928
832.0 0.001202 802.62439 874.51062
910.0 0.001099 801.15363 878.69489
950.0 0.001053 799.68073 891.36151
861.0 0.001161 798.20630 923.74036
992.0 0.001008 796.72980 1002.00989
1170.0 0.000855 795.25177 1171.07458
1476.0 0.000678 793.77191 1478.92102
2041.0 0.000490 792.29010 1929.26685
2685.0 0.000372 790.80719 2426.95361
2818.0 0.000355 789.32257 2783.91187
2817.0 0.000355 787.83685 2841.10229
2913.0 0.0003433 786.34961 2652.08374
2703.0 0.000370 784.86078 2381.12671
2007.0 0.000498 783.37140 2083.73169
1575.0 0.000635 781.88043 1747.71704
1502.0 0.000666 780.38892 1417.18250
1196.0 0.000836 778.89606 1155.45898
1002.0 0.000998 777.40222 985.88007
847.0 0.001181 775.90802 893.84216
798.0 0.001253 774.41278 849.33252
837.0 0.001195 772.91711 827.56567
833.0 0.001200 771.42078 815.06177
797.0 0.001255 769.92358 806.33990
751.0 0.001332 768.42645 799.49579
747.0 0.001339 766.92877 793.81982
769.0 0.001300 765.43097 788.97229
778.0 0.001285 763.93292 784.74060
780.0 0.001282 762.43439 780.97876
717.0 0.001395 760.93640 775.90509
784.0 0.001276 759.43805 772.87885
826.0 0.001211 757.93994 770.08002
738.0 0.001355 756.44202 767.46484
759.0 0.001318 754.94409 764.18146
778.0 0.001285 753.44672 761.87946
752.0 0.001330 751.94977 759.67859
768.0 0.001302 750.45331 757.56317
796.0 0.001256 748.95740 755.51996
765.0 0.001307 747.46185 753.53790
722.0 0.001385 745.96753 751.60944
734.0 0.001362 744.47339 749.72614
711.0 0.001406 742.98071 747.88324
729.0 0.001372 741.48865 746.07495
676.0 0.001479 739.99707 744.29669
735.0 0.001361 738.50732 742.54663
727.0 0.001376 737.01825 740.81995
736.0 0.001359 735.53082 739.11554
706.0 0.001416 734.04449 737.43005
738.0 0.001355 732.55902 735.76172
734.0 0.001362 731.07568 734.10999
724.0 0.001381 729.59332 732.47217
675.0 0.001481 728.11310 730.84802
721.0 0.001387 726.63422 727.60547
718.0 0.001393 725.15686 726.07928
772.0 0.001295 723.68146 724.55872
753.0 0.001328 722.20770 722.20721
691.0 0.001447 720.73633 720.73590
736.0 0.001359 719.26672 719.26624
737.0 0.001357 717.79895 717.79846
749.0 0.001335 716.33350 716.33307
765.0 0.001307 714.87030 714.86981
704.0 0.001420 713.40930 713.40881
745.0 0.001342 711.95068 711.95020
682.0 0.001466 710.49414 710.49371
687.0 0.001456 709.04041 709.03992
666.0 0.001502 707.58917 707.58868
676.0 0.001479 706.14050 706.14001
698.0 0.001433 704.69446 704.69397
678.0 0.001475 703.25098 703.25049
690.0 0.001449 701.81073 701.81024
709.0 0.001410 700.37280 700.37231
755.0 0.001325 698.93835 698.93787
693.0 0.001443 697.50629 697.50586
695.0 0.001439 696.07733 696.07684
715.0 0.001399 694.65198 694.65149
694.0 0.001441 693.22925 693.22876
696.0 0.001437 691.81024 691.80975
690.0 0.001449 690.39429 690.39380
683.0 0.001464 688.98114 688.98065
695.0 0.001439 687.57214 687.57166
657.0 0.001522 686.16614 686.16565
697.0 0.001435 684.76410 684.76361
649.0 0.001541 683.36542 683.36493
647.0 0.001546 681.96985 682.17200
640.0 0.001563 680.57867 680.78888
641.0 0.001560 679.19073 679.40948
716.0 0.001397 677.80713 678.03497
684.0 0.001462 676.42706 676.76550
680.0 0.001471 675.05066 675.40344
640.0 0.001563 673.67853 674.04651
674.0 0.001484 672.31036 672.69458
720.0 0.001389 670.94617 671.34772
595.0 0.001681 669.58618 670.00623
628.0 0.001592 668.23004 668.66998
643.0 0.001555 666.87836 667.33960
742.0 0.001348 665.53094 666.01508
631.0 0.001585 664.18781 664.69659
641.0 0.001560 662.84900 663.38428
671.0 0.001490 661.51440 662.07837
695.0 0.001439 660.18469 660.77972
656.0 0.001524 658.85901 659.48767
628.0 0.001592 657.53809 658.20325
631.0 0.001585 656.22168 656.92688
610.0 0.001639 654.90973 655.65845
617.0 0.001621 653.60284 654.39941
630.0 0.001587 652.30023 653.14935
642.0 0.001558 651.00281 651.90979
684.0 0.001462 649.70996 650.68097
616.0 0.001623 648.42145 649.46350
668.0 0.001497 647.13849 648.25958
632.0 0.001582 645.85999 647.06958
613.0 0.001631 644.58685 645.89594
601.0 0.001664 643.31848 644.73969
648.0 0.001543 642.05463 643.60321
643.0 0.001555 640.79657 642.49030
632.0 0.001582 639.54309 641.40350
621.0 0.001610 638.29517 640.34808
612.0 0.001634 637.05219 639.32904
658.0 0.001520 635.81415 638.35400
694.0 0.001441 634.58154 637.43243
630.0 0.001587 633.35419 636.57715
690.0 0.001449 632.13208 635.80499
603.0 0.001658 630.91528 635.13922
623.0 0.001605 629.70361 634.61292
622.0 0.001608 628.49744 634.27570
662.0 0.001511 627.29675 634.21576
670.0 0.001493 626.10144 634.63232
685.0 0.001460 624.91156 636.07990
680.0 0.001471 623.72693 640.08820
638.0 0.001567 622.54822 650.26306
662.0 0.001511 621.37457 673.21216
682.0 0.001466 620.20667 717.14105
758.0 0.001319 619.04431 786.02509
896.0 0.001116 617.88733 870.84369
922.0 0.001085 616.73633 945.65381
896.0 0.001116 615.59058 978.80170
884.0 0.001131 614.45081 962.15149
845.0 0.001183 613.31653 920.53247
805.0 0.001242 612.18750 875.18494
710.0 0.001408 611.06476 826.31885
749.0 0.001335 609.94733 770.48578
702.0 0.001425 608.83600 715.67407
622.0 0.001608 607.73022 671.75372
597.0 0.001675 606.62976 642.47394
597.0 0.001675 605.53564 625.77820
579.0 0.001727 604.44696 617.06567
620.0 0.001613 603.36438 612.35382
637.0 0.001570 602.28741 609.34491
576.0 0.001736 601.21606 607.04144
616.0 0.001623 600.15076 605.07886
591.0 0.001692 599.09100 603.32239
579.0 0.001727 598.03748 601.71198
562.0 0.001779 596.98962 600.21082
595.0 0.001681 595.94739 598.79462
620.0 0.001613 594.91119 597.44641
600.0 0.001667 593.88086 596.15271
593.0 0.001686 592.85632 594.90405
574.0 0.001742 591.83771 593.69305
589.0 0.001698 590.82477 592.51361
598.0 0.001672 589.81787 591.36176
610.0 0.001639 588.81683 590.23376
598.0 0.001672 587.82166 589.12653
602.0 0.001661 586.83234 588.03815
583.0 0.001715 585.84875 586.96631
585.0 0.001709 584.87134 585.91003
562.0 0.001779 583.89941 584.86731
569.0 0.001757 582.93378 583.83783
583.0 0.001715 581.97369 582.82013
608.0 0.001645 581.01923 581.81335
553.0 0.001808 580.07111 580.81763
586.0 0.001706 579.12848 579.83154
588.0 0.001701 578.19202 578.85535
642.0 0.001558 577.26123 577.88800
605.0 0.001653 576.33594 576.92920
593.0 0.001686 575.41693 575.97925
577.0 0.001733 574.50342 575.03711
590.0 0.001695 573.59601 574.10339
618.0 0.001618 572.69427 573.17706
562.0 0.001779 571.79816 572.25812
584.0 0.001712 570.90790 571.34668
547.0 0.001828 570.02332 570.44232
589.0 0.001698 569.14471 569.54529
586.0 0.001706 568.27179 568.83093
520.0 0.001923 567.40436 567.95435
554.0 0.001805 566.54279 567.08514
537.0 0.001862 565.68695 566.22290
534.0 0.001873 564.83673 565.24951
578.0 0.001730 563.99225 564.41241
559.0 0.001789 563.15320 563.58209
580.0 0.001724 562.31995 562.75861
574.0 0.001742 561.49231 561.84015
611.0 0.001637 560.67029 561.03418
600.0 0.001667 559.85382 560.23486
549.0 0.001821 559.04279 559.44226
553.0 0.001808 558.23761 558.65698
546.0 0.001832 557.43762 557.87830
599.0 0.001669 556.64343 557.10718
556.0 0.001799 555.85443 556.34302
574.0 0.001742 555.07086 555.58643
581.0 0.001721 554.29309 554.83783
556.0 0.001799 553.52039 554.09698
559.0 0.001789 552.75336 553.36462
570.0 0.001754 551.99164 552.64075
562.0 0.001779 551.23492 551.92554
537.0 0.001862 550.48395 551.22015
542.0 0.001845 549.73804 550.52460
561.0 0.001783 548.99768 549.83978
592.0 0.001689 548.26239 549.16626
537.0 0.001862 547.53210 548.50476
521.0 0.001919 546.80743 547.85706
575.0 0.001739 546.08765 547.22375
569.0 0.001757 545.37323 546.60712
544.0 0.001838 544.66388 546.00842
589.0 0.001698 543.95947 545.43054
552.0 0.001812 543.26025 544.87640
529.0 0.001890 542.56610 544.35010
556.0 0.001799 541.87689 543.85614
541.0 0.001848 541.19275 543.40125
562.0 0.001779 540.51337 542.99353
524.0 0.001908 539.83911 542.64404
530.0 0.001887 539.16968 542.36780
563.0 0.001776 538.50519 542.18518
566.0 0.001767 537.84546 542.12561
552.0 0.001812 537.19049 542.23615
557.0 0.001795 536.54047 542.60815
588.0 0.001701 535.89502 543.47174
495.0 0.002020 535.25439 545.46576
584.0 0.001712 534.61841 550.23706
561.0 0.001783 533.98700 561.29633
637.0 0.001570 533.36041 584.28912
712.0 0.001404 532.73822 625.06946
841.0 0.001189 532.12079 684.53278
1031.0 0.000970 531.50775 752.75549
1049.0 0.000953 530.89905 808.01941
973.0 0.001028 530.29504 827.70673
920.0 0.001087 529.69531 810.51282
1030.0 0.000971 529.10016 777.27106
945.0 0.001058 528.50922 743.88068
731.0 0.001368 527.92249 708.20038
673.0 0.001486 527.34033 666.52661
649.0 0.001541 526.76215 623.41693
675.0 0.001481 526.18848 586.84247
572.0 0.001748 525.61884 561.32190
547.0 0.001828 525.05328 545.80396
531.0 0.001883 524.49194 537.55731
520.0 0.001923 523.93469 533.31702
525.0 0.001905 523.38147 530.91888
503.0 0.001988 522.83228 529.29730
533.0 0.001876 522.28699 528.02698
539.0 0.001855 521.74573 526.95288
535.0 0.001869 521.20837 526.01172
561.0 0.001783 520.67493 525.17053
497.0 0.002012 520.14526 524.40851
542.0 0.001845 519.61932 523.71082
543.0 0.001842 519.09735 523.06750
581.0 0.001721 518.57892 522.47058
574.0 0.001742 518.06433 521.91498
516.0 0.001938 517.55334 521.39685
514.0 0.001946 517.04590 520.91382
487.0 0.002053 516.54224 520.46423
516.0 0.001938 516.04193 520.04761
540.0 0.001852 515.54535 519.66437
544.0 0.001838 515.05212 519.31531
542.0 0.001845 514.56219 519.00220
527.0 0.001898 514.07599 518.72784
508.0 0.001969 513.59290 518.49579
510.0 0.001961 513.11334 518.31067
508.0 0.001969 512.63708 518.17853
521.0 0.001919 512.16388 518.10693
553.0 0.001808 511.69412 518.10571
507.0 0.001972 511.22745 518.18695
475.0 0.002105 510.76407 518.36658
555.0 0.001802 510.30374 518.66467
544.0 0.001838 509.84647 519.10760
496.0 0.002016 509.39230 519.72992
490.0 0.002041 508.94110 520.57819
515.0 0.001942 508.49301 521.71515
522.0 0.001916 508.04782 523.22955
519.0 0.001927 507.60550 525.25415
528.0 0.001894 507.16611 528.02130
537.0 0.001862 506.72955 532.06097
546.0 0.001832 506.29584 538.79388
544.0 0.001838 505.86490 552.03503
546.0 0.001832 505.43661 580.66339
625.0 0.001600 505.01114 641.08002
716.0 0.001397 504.58835 754.99060
928.0 0.001078 504.16818 937.90967
1188.0 0.000842 503.75067 1177.74780
1422.0 0.000703 503.33563 1420.06079
1384.0 0.000723 502.92328 1578.73486
1400.0 0.000714 502.51328 1595.00598
1585.0 0.000631 502.10593 1502.51196
1413.0 0.000708 501.70096 1379.84863
1060.0 0.000943 501.29825 1261.60217
905.0 0.001105 500.89813 1132.71143
876.0 0.001142 500.50024 981.75867
876.0 0.001142 500.10477 830.19244
653.0 0.001531 499.71155 704.82129
617.0 0.001621 499.32043 618.03375
556.0 0.001799 498.93173 566.91901
553.0 0.001808 498.54510 540.32788
533.0 0.001876 498.16077 527.15094
544.0 0.001838 497.77847 520.14313
489.0 0.002045 497.39825 515.75586
442.0 0.002262 497.02011 512.55945
508.0 0.001969 496.64398 510.01874
515.0 0.001942 496.26999 507.91492
495.0 0.002020 495.89789 506.13113
514.0 0.001946 495.52768 504.59253
492.0 0.002033 495.15945 503.24643
503.0 0.001988 494.79312 502.05286
486.0 0.002058 494.42865 501.00827
483.0 0.002070 494.06604 500.03940
499.0 0.002004 493.70514 499.15317
466.0 0.002146 493.34607 498.33615
482.0 0.002075 492.98877 497.58954
455.0 0.002198 492.63318 496.88013
508.0 0.001969 492.27930 496.21268
465.0 0.002151 491.92700 495.58124
490.0 0.002041 491.57648 494.98126
455.0 0.002198 491.22748 494.40848
500.0 0.002000 490.88016 493.85971
487.0 0.002053 490.53427 493.33191
515.0 0.001942 490.18997 492.82281
447.0 0.002237 489.84723 492.33054
491.0 0.002037 489.50592 491.85309
477.0 0.002096 489.16617 491.38925
476.0 0.002101 488.82776 490.93750
500.0 0.002000 488.49072 490.49673
506.0 0.001976 488.15518 490.06628
476.0 0.002101 487.82092 489.64505
454.0 0.002203 487.48813 489.23254
472.0 0.002119 487.15659 488.82791
480.0 0.002083 486.82623 488.43060
486.0 0.002058 486.49731 488.04050
464.0 0.002155 486.16953 487.65689
470.0 0.002128 485.84314 487.27969
464.0 0.002155 485.51785 486.90857
473.0 0.002114 485.19373 486.54321
480.0 0.002083 484.87079 486.18369
456.0 0.002193 484.54904 485.82993
462.0 0.002165 484.22839 484.81711
486.0 0.002058 483.90887 484.49979
479.0 0.002088 483.59036 484.18726
485.0 0.002062 483.27301 483.87994
480.0 0.002083 482.95670 483.24292
444.0 0.002252 482.64139 482.96078
440.0 0.002273 482.32712 482.68579
486.0 0.002058 482.01376 482.41946
440.0 0.002273 481.70154 482.16403
462.0 0.002165 481.39014 481.92227
466.0 0.002146 481.07974 481.69882
497.0 0.002012 480.77023 481.50137
503.0 0.001988 480.46161 481.34726
445.0 0.002247 480.15402 481.28244
432.0 0.002315 479.84714 481.42838
463.0 0.002160 479.54126 482.06656
477.0 0.002096 479.23618 483.72418
477.0 0.002096 478.93179 487.13342
515.0 0.001942 478.62842 492.88654
575.0 0.001739 478.32571 500.80768
604.0 0.001656 478.02390 509.36725
533.0 0.001876 477.72284 515.80017
555.0 0.001802 477.42242 517.80969
560.0 0.001786 477.12289 515.13104
578.0 0.001730 476.82404 510.59756
575.0 0.001739 476.52594 506.14203
535.0 0.001869 476.22855 501.74744
526.0 0.001901 475.93179 496.73779
525.0 0.001905 475.63577 491.05045
503.0 0.001988 475.34045 485.74280
528.0 0.001894 475.04575 481.56476
472.0 0.002119 474.75171 478.72638
495.0 0.002020 474.45831 476.99991
440.0 0.002273 474.16553 475.98837
477.0 0.002096 473.87341 475.35175
500.0 0.002000 473.58191 474.88654
493.0 0.002028 473.29099 474.49695
451.0 0.002217 473.00061 474.14496
492.0 0.002033 472.71094 473.81635
483.0 0.002070 472.42172 474.51202
429.0 0.002331 472.13315 474.25467
467.0 0.002141 471.84512 474.01169
505.0 0.001980 471.55759 473.78204
498.0 0.002008 471.27069 473.56528
470.0 0.002128 470.98428 473.86664
466.0 0.002146 470.69846 473.69562
497.0 0.002012 470.41312 473.53909
474.0 0.002110 470.12820 473.39813
491.0 0.002037 469.84393 473.27396
464.0 0.002155 469.56009 473.16803
502.0 0.001992 469.27686 473.08240
482.0 0.002075 468.99402 473.01941
452.0 0.002212 468.71161 472.98209
504.0 0.001984 468.42984 472.97406
478.0 0.002092 468.14844 472.99969
509.0 0.001965 467.86761 473.06470
453.0 0.002208 467.58719 473.17587
511.0 0.001957 467.30722 473.34198
500.0 0.002000 467.02774 473.57416
478.0 0.002092 466.74869 473.88687
465.0 0.002151 466.47015 474.29922
491.0 0.002037 466.19208 474.83694
492.0 0.002033 465.91434 475.53757
466.0 0.002146 465.63715 476.46255
470.0 0.002128 465.36038 477.74341
531.0 0.001883 465.08408 479.71225
480.0 0.002083 464.80820 483.23712
463.0 0.002160 464.53271 490.34470
550.0 0.001818 464.25772 504.92255
543.0 0.001842 463.98315 532.67926
572.0 0.001748 463.70901 578.96027
664.0 0.001506 463.43533 644.19409
797.0 0.001255 463.16202 718.97699
836.0 0.001196 462.88925 783.01056
816.0 0.001225 462.61679 813.63757
802.0 0.001247 462.34488 804.48309
816.0 0.001225 462.07333 773.15363
800.0 0.001250 461.80212 739.68127
745.0 0.001342 461.53149 709.44275
643.0 0.001555 461.26123 676.42700
620.0 0.001613 460.99146 637.52856
650.0 0.001538 460.72208 599.12341
583.0 0.001715 460.45303 570.49750
558.0 0.001792 460.18457 560.21472
580.0 0.001724 459.91644 578.39001
590.0 0.001695 459.64886 641.14136
610.0 0.001639 459.38168 771.29846
902.0 0.001109 459.11487 988.32483
1242.0 0.000805 458.84854 1286.94385
1670.0 0.000599 458.58261 1617.23853
1717.0 0.000582 458.31723 1883.92554
1567.0 0.000638 458.05225 1990.81201
1722.0 0.000581 457.78766 1924.50293
1849.0 0.000541 457.52356 1771.43970
1597.0 0.000626 457.25995 1614.53857
1249.0 0.000801 456.99673 1469.44519
993.0 0.001007 456.73401 1306.35852
963.0 0.001038 456.47174 1113.21143
926.0 0.001080 456.20990 917.39069
766.0 0.001305 455.94861 751.73267
610.0 0.001639 455.68768 632.86957
553.0 0.001808 455.42728 559.54041
511.0 0.001957 455.16736 519.57397
501.0 0.001996 454.90793 499.21475
509.0 0.001965 454.64896 488.57901
534.0 0.001873 454.39047 482.27994
506.0 0.001976 454.13242 477.92950
447.0 0.002237 453.87491 474.58685
462.0 0.002165 453.61792 471.87524
499.0 0.002004 453.36139 469.61722
532.0 0.001880 453.10538 467.70554
497.0 0.002012 452.84982 466.06705
476.0 0.002101 452.59485 464.64801
478.0 0.002092 452.34030 463.40723
473.0 0.002114 452.08640 462.31421
452.0 0.002212 451.83286 461.34451
465.0 0.002151 451.57990 460.47980
537.0 0.001862 451.32751 459.70578
441.0 0.002268 451.07559 459.01077
476.0 0.002101 450.82428 458.38657
495.0 0.002020 450.57343 457.82611
483.0 0.002070 450.32312 457.32513
471.0 0.002123 450.07343 456.88074
434.0 0.002304 449.82422 456.49118
466.0 0.002146 449.57562 456.51572
484.0 0.002066 449.32751 456.02795
511.0 0.001957 449.07996 455.83572
437.0 0.002288 448.83304 455.71173
476.0 0.002101 448.58661 455.66547
467.0 0.002141 448.34085 455.88934
491.0 0.002037 448.09558 455.94302
446.0 0.002242 447.85092 456.25406
469.0 0.002132 447.60687 456.75958
436.0 0.002294 447.36337 457.57324
462.0 0.002165 447.12048 458.98361
486.0 0.002058 446.87814 461.74063
438.0 0.002283 446.63644 467.59128
497.0 0.002012 446.39532 479.92719
467.0 0.002141 446.15482 503.89374
516.0 0.001938 445.91495 544.77759
538.0 0.001859 445.67566 604.25360
657.0 0.001522 445.43695 675.78796
663.0 0.001508 445.19894 741.63635
707.0 0.001414 444.96146 781.74475
635.0 0.001575 444.72467 782.62622
643.0 0.001555 444.48849 754.92603
695.0 0.001439 444.25290 719.57397
605.0 0.001653 444.01804 686.98608
573.0 0.001745 443.78372 655.32880
588.0 0.001701 443.55014 617.46881
576.0 0.001736 443.31711 574.51672
497.0 0.002012 443.08472 533.59644
454.0 0.002203 442.85306 500.71252
509.0 0.001965 442.62195 478.10046
457.0 0.002188 442.39160 464.61081
474.0 0.002110 442.16183 457.41949
441.0 0.002268 441.93271 453.80829
482.0 0.002075 441.70432 451.96075
436.0 0.002294 441.47653 450.93469
467.0 0.002141 441.24945 450.32840
455.0 0.002198 441.02301 449.99289
488.0 0.002049 440.79724 449.88120
462.0 0.002165 440.57214 449.98669
475.0 0.002105 440.34772 450.32733
455.0 0.002198 440.12399 450.94778
464.0 0.002155 439.90088 451.95120
488.0 0.002049 439.67847 453.59677
484.0 0.002066 439.45679 456.57013
496.0 0.002016 439.23572 462.57431
455.0 0.002198 439.01538 475.24365
543.0 0.001842 438.79568 500.89728
534.0 0.001873 438.57666 547.73907
615.0 0.001626 438.35837 622.05536
889.0 0.001125 438.14072 721.85217
1092.0 0.000916 437.92380 831.11115
1172.0 0.000853 437.70752 920.24060
1079.0 0.000927 437.49191 958.61810
1094.0 0.000914 437.27704 940.25024
1129.0 0.000886 437.06281 890.74811
1087.0 0.000920 436.84933 838.35608
837.0 0.001195 436.63644 791.78430
784.0 0.001276 436.42426 742.56549
749.0 0.001335 436.21283 682.85968
694.0 0.001441 436.00198 617.78772
609.0 0.001642 435.79193 558.26599
488.0 0.002049 435.58246 511.95288
511.0 0.001957 435.37369 480.91116
451.0 0.002217 435.16568 462.65445
468.0 0.002137 434.95825 452.86877
441.0 0.002268 434.75156 447.75015
458.0 0.002183 434.54550 444.86752
438.0 0.002283 434.34015 442.99091
446.0 0.002242 434.13547 441.59064
466.0 0.002146 433.93140 440.45529
397.0 0.002519 433.72809 439.49609
431.0 0.002320 433.52539 438.43839
425.0 0.002353 433.32336 437.71851
454.0 0.002203 433.12201 437.07831
442.0 0.002262 432.92133 436.50235
420.0 0.002381 432.72128 435.97891
422.0 0.002370 432.52188 435.38547
440.0 0.002273 432.32312 434.94537
438.0 0.002283 432.12503 434.53546
439.0 0.002278 431.92761 434.15091
426.0 0.002347 431.73080 433.78806
438.0 0.002283 431.53464 433.44388
403.0 0.002481 431.33908 433.11572
422.0 0.002370 431.14423 432.80167
428.0 0.002336 430.94992 432.49982
449.0 0.002227 430.75629 432.20883
441.0 0.002268 430.56323 431.92731
405.0 0.002469 430.37079 431.65427
435.0 0.002299 430.17902 431.38885
431.0 0.002320 429.98779 431.13016
427.0 0.002342 429.79721 430.87759
423.0 0.002364 429.60718 430.63052
414.0 0.002415 429.41776 430.38846
434.0 0.002304 429.22897 430.15100
425.0 0.002353 429.04068 429.91757
449.0 0.002227 428.85306 429.68811
473.0 0.002114 428.66592 429.46204
410.0 0.002439 428.47940 429.23923
408.0 0.002451 428.29343 429.01944
423.0 0.002364 428.10800 428.80240
436.0 0.002294 427.92316 428.58792
410.0 0.002439 427.73880 428.37579
399.0 0.002506 427.55502 428.16602
429.0 0.002331 427.37177 427.59381
430.0 0.002326 427.18903 427.40179
438.0 0.002283 427.00681 427.21088
466.0 0.002146 426.82510 427.02100
404.0 0.002475 426.64386 426.83206
419.0 0.002387 426.46317 426.46271
440.0 0.002273 426.28296 426.28250
397.0 0.002519 426.10324 426.10275
410.0 0.002439 425.92398 425.92352
404.0 0.002475 425.74515 425.74469
405.0 0.002469 425.56686 425.56641
420.0 0.002381 425.38898 425.40427
432.0 0.002315 425.21158 425.22748
436.0 0.002294 425.03458 425.05115
420.0 0.002381 424.85800 424.87524
387.0 0.002584 424.68192 424.69992
391.0 0.002558 424.50616 424.53271
444.0 0.002252 424.33090 424.35858
427.0 0.002342 424.15594 424.18488
393.0 0.002545 423.98141 424.01163
438.0 0.002283 423.80734 423.83896
410.0 0.002439 423.63354 423.66669
415.0 0.002410 423.46021 423.49493
424.0 0.002358 423.28714 423.32361
415.0 0.002410 423.11444 423.15274
436.0 0.002294 422.94214 422.98239
423.0 0.002364 422.77008 422.81253
404.0 0.002475 422.59845 422.64319
437.0 0.002288 422.42706 422.47433
403.0 0.002481 422.25598 422.30600
419.0 0.002387 422.08524 422.13824
394.0 0.002538 421.91476 421.97098
401.0 0.002494 421.74457 421.80435
399.0 0.002506 421.57462 421.63831
403.0 0.002481 421.40497 421.47293
414.0 0.002415 421.23557 421.30826
417.0 0.002398 421.06638 421.14435
414.0 0.002415 420.89746 420.98123
420.0 0.002381 420.72873 420.81903
414.0 0.002415 420.56021 420.65778
414.0 0.002415 420.39194 420.49771
398.0 0.002513 420.22382 420.33887
407.0 0.002457 420.05588 420.18152
404.0 0.002475 419.88812 420.02655
425.0 0.002353 419.72052 419.87286
410.0 0.002439 419.55313 419.72162
414.0 0.002415 419.38583 419.57321
385.0 0.002597 419.21872 419.42825
394.0 0.002538 419.05167 419.28793
415.0 0.002410 418.88474 419.15268
416.0 0.002404 418.71799 419.02469
414.0 0.002415 418.55127 418.90634
438.0 0.002283 418.38470 418.80347
456.0 0.002193 418.21814 418.72964
390.0 0.002564 418.05164 418.71881
392.0 0.002551 417.88525 418.84933
433.0 0.002309 417.71887 419.27643
406.0 0.002463 417.55258 420.24994
395.0 0.002532 417.38623 422.07260
397.0 0.002519 417.21997 424.95364
405.0 0.002469 417.05368 428.78671
415.0 0.002410 416.88742 432.97430
441.0 0.002268 416.72113 436.43750
425.0 0.002353 416.55478 438.02924
401.0 0.002494 416.38846 437.39938
457.0 0.002188 416.22208 435.38193
446.0 0.002242 416.05563 433.10236
420.0 0.002381 415.88913 431.09537
444.0 0.002252 415.72256 429.17831
424.0 0.002358 415.55588 426.92694
380.0 0.002632 415.38916 424.29514
399.0 0.002506 415.22229 421.62933
417.0 0.002398 415.05533 419.30518
407.0 0.002457 414.88824 417.52902
397.0 0.002519 414.72104 416.31363
397.0 0.002519 414.55371 415.53879
445.0 0.002247 414.38617 415.04654
383.0 0.002611 414.21857 414.70877
411.0 0.002433 414.05069 414.44571
368.0 0.002717 413.88266 414.21729
381.0 0.002625 413.71451 414.00577
389.0 0.002571 413.54608 413.80383
425.0 0.002353 413.37753 413.60852
433.0 0.002309 413.20871 413.41818
395.0 0.002532 413.03964 413.23227
439.0 0.002278 412.87042 413.05084
396.0 0.002525 412.70087 412.87549
419.0 0.002387 412.53116 412.71045
439.0 0.002278 412.36111 412.56354
423.0 0.002364 412.19083 412.44601
431.0 0.002320 412.02026 412.36890
430.0 0.002326 411.84940 412.60303
502.0 0.001992 411.67828 412.61099
482.0 0.002075 411.50681 412.61655
465.0 0.002151 411.33505 412.57187
439.0 0.002278 411.16296 412.44009
474.0 0.002110 410.99057 412.35867
443.0 0.002257 410.81784 412.11655
500.0 0.002000 410.64474 411.87772
442.0 0.002262 410.47128 411.65189
443.0 0.002257 410.29749 411.42514
428.0 0.002336 410.12332 411.18317
431.0 0.002320 409.94879 410.93066
405.0 0.002469 409.77390 410.68341
427.0 0.002342 409.59854 410.45505
388.0 0.002577 409.42285 410.25217
399.0 0.002506 409.24673 410.07343
418.0 0.002392 409.07025 409.91382
424.0 0.002358 408.89325 409.76730
421.0 0.002375 408.71588 409.62967
375.0 0.002667 408.53809 409.49857
450.0 0.002222 408.35983 409.37302
414.0 0.002415 408.18118 409.25323
412.0 0.002427 408.00201 409.13947
389.0 0.002571 407.82239 409.03241
418.0 0.002392 407.64236 408.91766
370.0 0.002703 407.46179 408.82770
398.0 0.002513 407.28085 408.74796
417.0 0.002398 407.09933 408.67987
400.0 0.002500 406.91736 408.62552
419.0 0.002387 406.73489 408.97333
409.0 0.002445 406.55191 408.96979
414.0 0.002415 406.36847 408.98975
389.0 0.002571 406.18445 409.03796
401.0 0.002494 405.99997 409.11996
401.0 0.002494 405.81497 409.24316
400.0 0.002500 405.62943 409.61554
411.0 0.002433 405.44336 409.85999
416.0 0.002404 405.25677 410.18420
403.0 0.002481 405.06961 410.61172
400.0 0.002500 404.88196 411.18097
463.0 0.002160 404.69376 411.96921
398.0 0.002513 404.50500 413.15695
423.0 0.002364 404.31567 415.18857
429.0 0.002331 404.12579 419.07819
447.0 0.002237 403.93539 426.85046
408.0 0.002451 403.74438 442.06192
468.0 0.002137 403.55289 468.70493
518.0 0.001931 403.36072 510.68167
602.0 0.001661 403.16803 568.16760
710.0 0.001408 402.97479 634.94519
848.0 0.001179 402.78094 697.57214
850.0 0.001176 402.58655 738.54761
788.0 0.001269 402.39154 746.00458
770.0 0.001299 402.19592 725.07660
761.0 0.001314 401.99982 692.45483
705.0 0.001418 401.80304 661.46710
653.0 0.001531 401.60574 635.03412
665.0 0.001504 401.40784 607.67590
569.0 0.001757 401.20929 574.06360
581.0 0.001721 401.01022 535.65845
503.0 0.001988 400.81052 498.11377
477.0 0.002096 400.61029 466.52240
465.0 0.002151 400.40939 443.36838
450.0 0.002222 400.20795 428.46863
429.0 0.002331 400.00592 419.94730
416.0 0.002404 399.80328 415.53873
433.0 0.002309 399.60007 413.44958
447.0 0.002237 399.39621 412.57956
402.0 0.002488 399.19180 412.38840
392.0 0.002551 398.98685 412.68057
377.0 0.002653 398.78125 413.48257
422.0 0.002370 398.57507 415.06927
432.0 0.002315 398.36832 418.19550
408.0 0.002451 398.16098 424.56888
418.0 0.002392 397.95306 437.48059
415.0 0.002410 397.74454 462.17014
441.0 0.002268 397.53546 505.01651
500.0 0.002000 397.32581 570.89563
675.0 0.001481 397.11554 658.86938
859.0 0.001164 396.90475 758.40997
932.0 0.001073 396.69336 848.83820
892.0 0.001121 396.48145 904.68347
845.0 0.001183 396.26889 911.02386
866.0 0.001155 396.05579 877.58362
890.0 0.001124 395.84219 829.02209
777.0 0.001287 395.62799 783.89685
729.0 0.001372 395.41330 745.73560
582.0 0.001718 395.19797 706.44537
561.0 0.001783 394.98209 658.78503
664.0 0.001506 394.76578 605.91461
543.0 0.001842 394.54883 557.87927
479.0 0.002088 394.33145 524.81519
489.0 0.002045 394.11343 513.27753
525.0 0.001905 393.89496 524.49847
600.0 0.001667 393.67596 553.76471
741.0 0.001350 393.45645 591.08252
732.0 0.001366 393.23642 623.03241
676.0 0.001479 393.01587 637.31055
703.0 0.001422 392.79486 630.33496
687.0 0.001456 392.57336 609.80853
693.0 0.001443 392.35135 586.49982
608.0 0.001645 392.12888 566.28796
619.0 0.001616 391.90594 548.30444
524.0 0.001908 391.68250 527.85663
514.0 0.001946 391.45865 503.32117
522.0 0.001916 391.23428 476.66766
459.0 0.002179 391.00952 451.73947
410.0 0.002439 390.78430 431.38843
428.0 0.002336 390.55862 416.73694
426.0 0.002347 390.33258 407.16757
394.0 0.002538 390.10605 401.57465
387.0 0.002584 389.87918 398.37741
413.0 0.002421 389.65182 396.48776
406.0 0.002463 389.42407 395.24152
406.0 0.002463 389.19601 394.30728
382.0 0.002618 388.96750 393.53638
368.0 0.002717 388.73868 392.86469
387.0 0.002584 388.50943 392.26215
390.0 0.002564 388.27982 391.71280
408.0 0.002451 388.04993 391.20633
380.0 0.002632 387.81961 390.73453
382.0 0.002618 387.58905 390.29184
391.0 0.002558 387.35809 389.87335
348.0 0.002874 387.12686 389.47549
404.0 0.002475 386.89532 389.09525
360.0 0.002778 386.66345 388.73001
385.0 0.002597 386.43137 388.37796
365.0 0.002740 386.19891 388.03723
379.0 0.002639 385.96625 387.70657
386.0 0.002591 385.73331 387.38489
368.0 0.002717 385.50012 387.07101
375.0 0.002667 385.26672 386.76431
371.0 0.002695 385.03308 386.46402
385.0 0.002597 384.79916 385.76974
396.0 0.002525 384.56509 385.49567
379.0 0.002639 384.33081 385.22589
404.0 0.002475 384.09634 384.96011
406.0 0.002463 383.86169 384.69815
339.0 0.002950 383.62686 384.43991
365.0 0.002740 383.39194 383.98944
397.0 0.002519 383.15677 383.74637
385.0 0.002597 382.92157 383.50720
367.0 0.002725 382.68613 383.27222
414.0 0.002415 382.45059 383.04208
362.0 0.002762 382.21503 382.81793
366.0 0.002732 381.97931 382.60117
421.0 0.002375 381.74356 382.39548
384.0 0.002604 381.50766 382.20877
414.0 0.002415 381.27173 382.06006
391.0 0.002558 381.03580 381.81024
376.0 0.002660 380.79977 381.98071
358.0 0.002793 380.56378 382.39090
389.0 0.002571 380.32770 383.29572
378.0 0.002646 380.09164 384.88031
373.0 0.002681 379.85562 387.12292
378.0 0.002646 379.61957 390.04736
402.0 0.002488 379.38364 393.11084
393.0 0.002545 379.14764 395.51041
409.0 0.002445 378.91174 396.55881
402.0 0.002488 378.67593 396.05566
424.0 0.002358 378.44019 394.50693
377.0 0.002653 378.20453 392.66165
414.0 0.002415 377.96896 390.98618
382.0 0.002618 377.73349 389.49600
370.0 0.002703 377.49820 387.91318
336.0 0.002976 377.26300 386.03156
375.0 0.002667 377.02798 383.93533
389.0 0.002571 376.79312 381.87384
373.0 0.002681 376.55838 380.07684
342.0 0.002924 376.32391 378.66663
381.0 0.002625 376.08954 377.64685
380.0 0.002632 375.85550 376.94250
333.0 0.003003 375.62155 376.45178
353.0 0.002833 375.38788 376.08710
359.0 0.002786 375.15451 375.78961
375.0 0.002667 374.92130 375.52634
367.0 0.002725 374.68848 375.28159
355.0 0.002817 374.45584 375.04846
364.0 0.002747 374.22348 374.82428
394.0 0.002538 373.99152 374.60831
361.0 0.002770 373.75980 374.40009
369.0 0.002710 373.52847 374.20020
364.0 0.002747 373.29742 374.00888
394.0 0.002538 373.06671 373.82745
358.0 0.002793 372.83646 373.65726
376.0 0.002660 372.60648 373.50018
380.0 0.002632 372.37698 373.35892
392.0 0.002551 372.14783 373.23709
358.0 0.002793 371.91910 373.14056
371.0 0.002695 371.69080 373.07935
346.0 0.002890 371.46292 373.07553
370.0 0.002703 371.23550 373.18036
370.0 0.002703 371.00851 373.51276
371.0 0.002695 370.78201 374.32364
396.0 0.002525 370.55600 376.07547
365.0 0.002740 370.33051 379.48572
389.0 0.002571 370.10550 385.42612
389.0 0.002571 369.88101 394.60516
381.0 0.002625 369.65701 407.03745
414.0 0.002415 369.43362 421.54578
416.0 0.002404 369.21069 435.60416
383.0 0.002611 368.98837 445.76688
377.0 0.002653 368.76663 449.22803
410.0 0.002439 368.54544 446.01349
452.0 0.002212 368.32492 439.03268
441.0 0.002268 368.10492 431.51782
405.0 0.002469 367.88562 425.09326
403.0 0.002481 367.66687 419.41245
397.0 0.002519 367.44873 413.07620
374.0 0.002674 367.23135 405.28622
400.0 0.002500 367.01453 396.61041
355.0 0.002817 366.79846 388.20789
370.0 0.002703 366.58301 381.05139
324.0 0.003086 366.36823 375.63406
358.0 0.002793 366.15424 371.93979
370.0 0.002703 365.94086 369.61115
384.0 0.002604 365.72830 368.20746
354.0 0.002825 365.51639 367.34341
338.0 0.002959 365.30524 366.76147
363.0 0.002755 365.09485 366.31860
371.0 0.002695 364.88519 365.94492
358.0 0.002793 364.67633 365.60938
330.0 0.003030 364.46820 365.29807
362.0 0.002762 364.26089 365.00446
377.0 0.002653 364.05441 364.72473
378.0 0.002646 363.84869 364.45624
361.0 0.002770 363.64380 364.19714
376.0 0.002660 363.43973 363.94586
327.0 0.003058 363.23645 363.70126
366.0 0.002732 363.03409 363.46249
364.0 0.002747 362.83252 363.22870
394.0 0.002538 362.63181 362.99939
365.0 0.002740 362.43198 362.77405
336.0 0.002976 362.23297 362.55212
339.0 0.002950 362.03494 362.33350
339.0 0.002950 361.83771 362.11761
351.0 0.002849 361.64145 361.90454
358.0 0.002793 361.44601 361.69385
374.0 0.002674 361.25150 361.48544
366.0 0.002732 361.05795 361.27927
348.0 0.002874 360.86530 361.07504
392.0 0.002551 360.67361 360.87289
350.0 0.002857 360.48279 360.67245
356.0 0.002809 360.29294 360.47382
332.0 0.003012 360.10410 360.27704
380.0 0.002632 359.91614 360.08185
320.0 0.003125 359.72922 359.88840
351.0 0.002849 359.54321 359.69656
380.0 0.002632 359.35818 359.50647
376.0 0.002660 359.17416 359.31824
343.0 0.002915 358.99109 359.13214
386.0 0.002591 358.80908 359.22409
366.0 0.002732 358.62799 359.05676
338.0 0.002959 358.44797 358.83054
360.0 0.002778 358.26892 358.68912
365.0 0.002740 358.09091 358.56894
380.0 0.002632 357.91391 358.47617
390.0 0.002564 357.73792 358.54779
331.0 0.003021 357.56293 358.51199
362.0 0.002762 357.38901 358.44760
363.0 0.002755 357.21613 358.39737
348.0 0.002874 357.04428 358.29993
371.0 0.002695 356.87347 358.14725
398.0 0.002513 356.70370 357.95752
351.0 0.002849 356.53503 357.75885
375.0 0.002667 356.36734 357.57025
347.0 0.002882 356.20078 357.39532
390.0 0.002564 356.03522 357.22473
369.0 0.002710 355.87073 357.04810
404.0 0.002475 355.70737 356.86511
379.0 0.002639 355.54498 356.68402
356.0 0.002809 355.38376 356.51456
380.0 0.002632 355.22354 356.36353
356.0 0.002809 355.06439 356.23410
367.0 0.002725 354.90637 356.12546
332.0 0.003012 354.74939 356.03531
331.0 0.003021 354.59354 355.96124
371.0 0.002695 354.43872 355.90189
364.0 0.002747 354.28497 355.85690
367.0 0.002725 354.13235 355.82733
397.0 0.002519 353.98077 355.81491
385.0 0.002597 353.83032 355.82208
357.0 0.002801 353.68094 355.85220
343.0 0.002915 353.53262 355.90927
374.0 0.002674 353.38541 355.99835
360.0 0.002778 353.23929 356.12595
361.0 0.002770 353.09427 356.30026
363.0 0.002755 352.95032 356.53232
356.0 0.002809 352.80743 356.83746
344.0 0.002907 352.66562 357.23993
425.0 0.002353 352.52493 357.78598
395.0 0.002532 352.38531 358.57608
356.0 0.002809 352.24680 359.84241
350.0 0.002857 352.10931 362.09735
354.0 0.002825 351.97296 366.36761
363.0 0.002755 351.83765 374.45419
413.0 0.002421 351.70343 389.00104
382.0 0.002618 351.57028 413.25244
413.0 0.002421 351.43817 449.21234
477.0 0.002096 351.30719 496.86691
592.0 0.001689 351.17722 552.00543
706.0 0.001416 351.04837 605.81573
712.0 0.001404 350.92053 646.31836
668.0 0.001497 350.79376 662.97699
664.0 0.001506 350.66806 654.56207
648.0 0.001543 350.54343 630.29193
702.0 0.001425 350.41983 602.24707
595.0 0.001681 350.29724 577.81482
544.0 0.001838 350.17572 557.62244
509.0 0.001965 350.05527 537.15344
476.0 0.002101 349.93582 511.83627
487.0 0.002053 349.81744 481.61444
484.0 0.002066 349.70004 449.99631
428.0 0.002336 349.58368 420.99991
403.0 0.002481 349.46832 397.41998
387.0 0.002584 349.35400 380.25876
374.0 0.002674 349.24066 368.97525
374.0 0.002674 349.12833 362.15149
354.0 0.002825 349.01700 358.24542
371.0 0.002695 348.90668 356.02548
378.0 0.002646 348.79733 354.69293
398.0 0.002513 348.68896 353.80594
389.0 0.002571 348.58160 353.14676
363.0 0.002755 348.47516 352.61691
364.0 0.002747 348.36972 352.17383
364.0 0.002747 348.26520 351.79135
373.0 0.002681 348.16168 351.45877
357.0 0.002801 348.05908 351.16754
356.0 0.002809 347.95740 350.91141
365.0 0.002740 347.85669 350.68579
360.0 0.002778 347.75687 350.48798
358.0 0.002793 347.65802 350.31354
360.0 0.002778 347.56003 350.16129
349.0 0.002865 347.46295 350.02997
364.0 0.002747 347.36679 349.91882
346.0 0.002890 347.27151 349.82742
350.0 0.002857 347.17712 349.75607
386.0 0.002591 347.08359 349.70514
374.0 0.002674 346.99094 349.67603
395.0 0.002532 346.89917 349.67035
360.0 0.002778 346.80820 349.69055
359.0 0.002786 346.71814 349.73993
369.0 0.002710 346.62888 349.82263
368.0 0.002717 346.54044 349.94443
358.0 0.002793 346.45285 350.11255
366.0 0.002732 346.36603 350.33740
335.0 0.002985 346.28006 350.63416
327.0 0.003058 346.19485 351.02972
349.0 0.002865 346.11044 351.57883
384.0 0.002604 346.02679 352.40414
339.0 0.002950 345.94394 353.78134
393.0 0.002545 345.86185 356.28595
369.0 0.002710 345.78049 360.99808
373.0 0.002681 345.69986 369.66714
354.0 0.002825 345.62000 384.36801
413.0 0.002421 345.54083 408.10730
407.0 0.002457 345.46237 441.97836
466.0 0.002146 345.38464 484.95486
530.0 0.001887 345.30762 532.51538
615.0 0.001626 345.23126 576.63373
554.0 0.001805 345.15558 607.37927
566.0 0.001767 345.08057 617.12848
533.0 0.001876 345.00620 606.93439
608.0 0.001645 344.93250 585.18866
570.0 0.001754 344.85944 561.40753
530.0 0.001887 344.78699 541.03278
509.0 0.001965 344.71518 524.13690
467.0 0.002141 344.64395 506.86603
453.0 0.002208 344.57330 485.51883
419.0 0.002387 344.50330 460.01303
397.0 0.002519 344.43384 433.15399
379.0 0.002639 344.36496 408.24982
394.0 0.002538 344.29663 387.67395
392.0 0.002551 344.22885 372.41476
386.0 0.002591 344.16159 362.16437
377.0 0.002653 344.09488 355.83356
337.0 0.002967 344.02869 352.15567
355.0 0.002817 343.96298 350.06848
356.0 0.002809 343.89777 348.85916
366.0 0.002732 343.83307 348.12579
374.0 0.002674 343.76883 347.67801
331.0 0.003021 343.70505 347.44373
390.0 0.002564 343.64172 347.39871
385.0 0.002597 343.57883 347.52097
379.0 0.002639 343.51639 347.76245
361.0 0.002770 343.45435 348.03864
352.0 0.002841 343.39276 348.23514
373.0 0.002681 343.33154 348.24228
333.0 0.003003 343.27069 348.01956
375.0 0.002667 343.21027 347.63025
374.0 0.002674 343.15018 347.18515
355.0 0.002817 343.09048 346.77008
363.0 0.002755 343.03110 346.41281
374.0 0.002674 342.97208 346.08566
363.0 0.002755 342.91336 345.79913
361.0 0.002770 342.85498 345.40640
350.0 0.002857 342.79691 344.98465
332.0 0.003012 342.73911 344.57062
334.0 0.002994 342.68161 344.19788
341.0 0.002933 342.62439 343.88635
330.0 0.003030 342.56744 343.63992
374.0 0.002674 342.51074 343.48108
345.0 0.002899 342.45425 343.33478
333.0 0.003003 342.39804 343.21661
363.0 0.002755 342.34204 343.11584
360.0 0.002778 342.28622 343.02533
356.0 0.002809 342.23065 342.94113
351.0 0.002849 342.17523 342.86124
334.0 0.002994 342.12003 342.78448
346.0 0.002890 342.06497 342.71054
336.0 0.002976 342.01010 342.63892
340.0 0.002941 341.95538 342.56958
324.0 0.003086 341.90079 342.50220
332.0 0.003012 341.84631 342.43683
332.0 0.003012 341.79196 342.37323
337.0 0.002967 341.73776 342.31131
354.0 0.002825 341.68362 342.25116
338.0 0.002959 341.62961 342.19263
348.0 0.002874 341.57565 342.13574
319.0 0.003135 341.52179 342.08044
354.0 0.002825 341.46796 342.02679
359.0 0.002786 341.41422 341.97488
328.0 0.003049 341.36050 341.92462
305.0 0.003279 341.30682 341.87616
329.0 0.003040 341.25317 341.66504
333.0 0.003003 341.19952 341.62552
341.0 0.002933 341.14590 341.58789
336.0 0.002976 341.09229 341.55240
347.0 0.002882 341.03864 341.51926
334.0 0.002994 340.98499 341.48871
332.0 0.003012 340.93130 341.37793
346.0 0.002890 340.87759 341.35626
343.0 0.002915 340.82379 341.33826
335.0 0.002985 340.76996 341.32452
355.0 0.002817 340.71609 341.31577
344.0 0.002907 340.66214 341.31287
336.0 0.002976 340.60809 341.31683
342.0 0.002924 340.55399 341.32895
356.0 0.002809 340.49976 341.35089
323.0 0.003096 340.44543 341.38470
345.0 0.002899 340.39099 341.43307
324.0 0.003086 340.33646 341.49973
328.0 0.003049 340.28174 341.59042
359.0 0.002786 340.22696 341.71591
388.0 0.002577 340.17200 341.89801
335.0 0.002985 340.11688 342.18530
325.0 0.003077 340.06161 342.68192
343.0 0.002915 340.00620 343.59552
348.0 0.002874 339.95056 345.29614
322.0 0.003106 339.89481 348.35663
324.0 0.003086 339.83884 353.52057
374.0 0.002674 339.78268 361.53207
349.0 0.002865 339.72632 372.80435
351.0 0.002849 339.66974 387.01352
401.0 0.002494 339.61298 402.80219
449.0 0.002227 339.55597 417.77451
452.0 0.002212 339.49878 428.87662
411.0 0.002433 339.44131 433.55853
401.0 0.002494 339.38361 431.47821
435.0 0.002299 339.32568 424.87109
460.0 0.002174 339.26752 416.80624
427.0 0.002342 339.20908 409.47293
423.0 0.002364 339.15039 403.49106
378.0 0.002646 339.09143 398.04736
378.0 0.002646 339.03220 391.77118
356.0 0.002809 338.97269 383.99255
380.0 0.002632 338.91293 375.18112
369.0 0.002710 338.85284 366.34244
382.0 0.002618 338.79248 358.42923
311.0 0.003215 338.73184 352.04880
330.0 0.003030 338.67090 347.37772
362.0 0.002762 338.60962 344.24448
323.0 0.003096 338.54807 342.28580
335.0 0.002985 338.48618 341.11414
336.0 0.002976 338.42398 340.41434
337.0 0.002967 338.36148 339.97339
344.0 0.002907 338.29865 339.66727
346.0 0.002890 338.23547 339.43103
354.0 0.002825 338.17197 339.23349
319.0 0.003135 338.10815 339.06000
326.0 0.003067 338.04398 338.90335
320.0 0.003125 337.97949 338.75964
318.0 0.003145 337.91464 338.62616
334.0 0.002994 337.84943 338.50104
339.0 0.002950 337.78391 338.38297
331.0 0.003021 337.71799 338.27063
341.0 0.002933 337.65173 338.16318
291.0 0.003436 337.58511 338.05984
339.0 0.002950 337.51813 337.96130
329.0 0.003040 337.45084 337.86813
336.0 0.002976 337.38312 337.77393
332.0 0.003012 337.31506 337.68188
333.0 0.003003 337.24664 337.59171
340.0 0.002941 337.17783 337.50308
328.0 0.003049 337.10870 337.41589
337.0 0.002967 337.03915 337.33051
329.0 0.003040 336.96927 337.24725
359.0 0.002786 336.89899 337.16312
334.0 0.002994 336.82834 337.07968
329.0 0.003040 336.75732 336.99692
360.0 0.002778 336.68591 336.91470
337.0 0.002967 336.61414 336.83298
362.0 0.002762 336.54199 336.75150
350.0 0.002857 336.46945 336.67044
361.0 0.002770 336.39655 336.58960
341.0 0.002933 336.32327 336.50891
327.0 0.003058 336.24960 336.42844
346.0 0.002890 336.17560 336.34802
314.0 0.003185 336.10117 336.26776
308.0 0.003247 336.02640 336.18750
317.0 0.003155 335.95126 336.10733
322.0 0.003106 335.87570 336.02713
334.0 0.002994 335.79980 335.94693
358.0 0.002793 335.72354 335.86661
345.0 0.002899 335.64688 335.78635
335.0 0.002985 335.56989 335.70599
323.0 0.003096 335.49249 335.62555
334.0 0.002994 335.41473 335.54507
335.0 0.002985 335.33661 335.46451
326.0 0.003067 335.25815 335.38388
309.0 0.003236 335.17929 335.24261
341.0 0.002933 335.10010 335.16376
355.0 0.002817 335.02054 335.08472
317.0 0.003155 334.94061 335.00555
318.0 0.003145 334.86035 334.92630
363.0 0.002755 334.77972 334.84702
357.0 0.002801 334.69876 334.76764
329.0 0.003040 334.61746 334.65836
305.0 0.003279 334.53580 334.63232
361.0 0.002770 334.45380 334.55566
341.0 0.002933 334.37146 334.47931
283.0 0.00353 334.28879 334.40317
326.0 0.003067 334.20578 334.32758
321.0 0.003115 334.12247 334.25241
302.0 0.003311 334.03879 334.17810
337.0 0.002967 333.95483 334.13062
340.0 0.002941 333.87054 334.05939
366.0 0.002732 333.78592 333.99020
319.0 0.003135 333.70099 333.92404
312.0 0.003205 333.61575 333.86328
307.0 0.003257 333.53021 333.86661
334.0 0.002994 333.44440 333.83847
376.0 0.002660 333.35825 333.84946
308.0 0.003247 333.27182 333.93033
330.0 0.003030 333.18515 334.12506
344.0 0.002907 333.09814 334.48648
342.0 0.002924 333.01089 335.06165
349.0 0.002865 332.92334 335.86951
323.0 0.003096 332.83551 336.90277
371.0 0.002695 332.74744 338.00299
367.0 0.002725 332.65906 339.02579
311.0 0.003215 332.57050 339.76306
354.0 0.002825 332.48163 340.04636
336.0 0.002976 332.39252 339.85004
323.0 0.003096 332.30322 339.31583
345.0 0.002899 332.21362 338.65207
362.0 0.002762 332.12384 338.02167
325.0 0.003077 332.03378 337.48804
354.0 0.002825 331.94351 337.01584
324.0 0.003086 331.85306 336.51471
340.0 0.002941 331.76239 335.91681
363.0 0.002755 331.67151 335.22754
327.0 0.003058 331.58041 334.50589
349.0 0.002865 331.48914 333.82251
296.0 0.003378 331.39767 333.23251
335.0 0.002985 331.30603 332.76404
347.0 0.002882 331.21420 332.41837
312.0 0.003205 331.12216 332.17770
334.0 0.002994 331.03000 332.01633
365.0 0.002740 330.93768 331.90955
325.0 0.003077 330.84521 331.83868
341.0 0.002933 330.75256 331.79199
301.0 0.003322 330.65979 331.76337
331.0 0.003021 330.56686 331.75095
343.0 0.002915 330.47382 331.75537
349.0 0.002865 330.38065 331.77963
370.0 0.002703 330.28735 331.83041
339.0 0.002950 330.19394 331.92114
336.0 0.002976 330.10040 332.08047
372.0 0.002688 330.00681 332.36829
354.0 0.002825 329.91309 332.90240
348.0 0.002874 329.81931 333.95401
326.0 0.003067 329.72540 335.73801
311.0 0.003215 329.63141 338.77478
335.0 0.002985 329.53738 343.58627
331.0 0.003021 329.44327 350.60294
303.0 0.003300 329.34912 359.92398
401.0 0.002494 329.25488 371.09625
335.0 0.002985 329.16061 383.00623
394.0 0.002538 329.06631 393.83347
405.0 0.002469 328.97195 401.57251
348.0 0.002874 328.87762 404.70691
368.0 0.002717 328.78320 403.27805
334.0 0.002994 328.68878 398.98596
322.0 0.003106 328.59436 394.14130
333.0 0.003003 328.49994 390.65042
377.0 0.002653 328.40552 389.56982
388.0 0.002577 328.31110 391.03027
343.0 0.002915 328.21667 394.49652
345.0 0.002899 328.12231 399.28424
365.0 0.002740 328.02792 404.83160
442.0 0.002262 327.93359 410.39996
466.0 0.002146 327.83932 414.77219
405.0 0.002469 327.74506 416.40417
397.0 0.002519 327.65088 414.21658
457.0 0.002188 327.55670 408.53519
462.0 0.002165 327.46265 401.02054
405.0 0.002469 327.36862 393.43402
414.0 0.002415 327.27466 386.98734
344.0 0.002907 327.18082 381.88867
374.0 0.002674 327.08701 377.46552
373.0 0.002681 326.99332 372.67224
384.0 0.002604 326.89972 366.85062
370.0 0.002703 326.80618 360.14355
389.0 0.002571 326.71283 353.14240
363.0 0.002755 326.61954 346.56091
317.0 0.003155 326.52637 340.94376
344.0 0.002907 326.43332 336.55341
309.0 0.003236 326.34039 333.39273
319.0 0.003135 326.24765 331.27493
317.0 0.003155 326.15497 329.93188
318.0 0.003145 326.06250 329.10550
344.0 0.002907 325.97015 328.59363
368.0 0.002717 325.87796 328.26550
314.0 0.003185 325.78592 328.04047
298.0 0.003356 325.69403 327.87717
319.0 0.003135 325.60236 327.75613
314.0 0.003185 325.51080 327.66971
359.0 0.002786 325.41946 327.61731
322.0 0.003106 325.32831 327.60434
348.0 0.002874 325.23734 327.64627
333.0 0.003003 325.14655 327.77783
343.0 0.002915 325.05597 328.07248
313.0 0.003195 324.96555 328.67056
338.0 0.002959 324.87537 329.81659
338.0 0.002959 324.78540 331.88968
328.0 0.003049 324.69565 335.39484
354.0 0.002825 324.60611 340.88980
347.0 0.002882 324.51678 348.80908
363.0 0.002755 324.42770 359.22150
357.0 0.002801 324.33884 371.60443
434.0 0.002304 324.25024 384.70715
452.0 0.002212 324.16183 396.64359
480.0 0.002083 324.07367 405.22031
459.0 0.002179 323.98581 408.74741
438.0 0.002283 323.89813 407.08231
462.0 0.002165 323.81073 401.78763
418.0 0.002392 323.72360 395.07092
444.0 0.002252 323.63669 388.68033
384.0 0.002604 323.55008 383.37985
423.0 0.002364 323.46371 378.89572
377.0 0.002653 323.37762 374.29248
408.0 0.002451 323.29181 368.71085
375.0 0.002667 323.20627 362.00659
392.0 0.002551 323.12097 354.64780
343.0 0.002915 323.03598 347.48743
358.0 0.002793 322.95129 341.14841
337.0 0.002967 322.86682 336.07678
330.0 0.003030 322.78268 332.47055
348.0 0.002874 322.69882 330.34106
365.0 0.002740 322.61526 329.63278
312.0 0.003205 322.53198 330.30606
342.0 0.002924 322.44901 332.47729
311.0 0.003215 322.36630 336.20810
339.0 0.002950 322.28394 341.48236
382.0 0.002618 322.20181 348.03461
379.0 0.002639 322.12003 355.23932
450.0 0.002222 322.03854 362.06592
436.0 0.002294 321.95734 367.41748
388.0 0.002577 321.87650 370.16519
429.0 0.002331 321.79590 369.93906
430.0 0.002326 321.71564 367.36017
407.0 0.002457 321.63565 363.61438
405.0 0.002469 321.55597 359.79404
407.0 0.002457 321.47665 356.48654
412.0 0.002427 321.39758 353.77753
366.0 0.002732 321.31888 351.21170
338.0 0.002959 321.24045 348.24152
365.0 0.002740 321.16232 344.61780
348.0 0.002874 321.08450 340.50870
329.0 0.003040 321.00702 336.29977
345.0 0.002899 320.92984 332.38852
310.0 0.003226 320.85294 329.06326
339.0 0.002950 320.77637 326.46152
337.0 0.002967 320.70013 324.57327
297.0 0.003367 320.62418 323.28586
347.0 0.002882 320.54852 322.44620
310.0 0.003226 320.47318 321.90601
317.0 0.003155 320.39816 321.54950
292.0 0.003425 320.32343 321.29813
326.0 0.003067 320.24902 321.10434
320.0 0.003125 320.17490 320.94226
306.0 0.003268 320.10107 320.79861
307.0 0.003257 320.02756 320.66675
310.0 0.003226 319.95435 320.54340
307.0 0.003257 319.88144 320.42667
303.0 0.003300 319.80881 320.31589
338.0 0.002959 319.73648 320.20923
332.0 0.003012 319.66443 320.10648
312.0 0.003205 319.59268 320.00711
317.0 0.003155 319.52124 319.91077
350.0 0.002857 319.45007 319.81705
337.0 0.002967 319.37918 319.72565
307.0 0.003257 319.30856 319.63635
332.0 0.003012 319.23825 319.54910
316.0 0.003165 319.16818 319.46332
313.0 0.003195 319.09842 319.37906
321.0 0.003115 319.02890 319.23615
295.0 0.003390 318.95966 319.15634
328.0 0.003049 318.89069 319.07764
308.0 0.003247 318.82196 318.99997
343.0 0.002915 318.75354 318.92480
291.0 0.003436 318.68533 318.84894
317.0 0.003155 318.61737 318.77383
329.0 0.003040 318.54971 318.66971
310.0 0.003226 318.48224 318.59656
294.0 0.003401 318.41507 318.52451
303.0 0.003300 318.34808 318.45297
318.0 0.003145 318.28137 318.38202
306.0 0.003268 318.21487 318.31238
338.0 0.002959 318.14862 318.24249
331.0 0.003021 318.08255 318.17432
313.0 0.003195 318.01672 318.10538
370.0 0.002703 317.95114 318.03683
303.0 0.003300 317.88574 317.96872
296.0 0.003378 317.82056 317.90097
305.0 0.003279 317.75555 317.83368
330.0 0.003030 317.69077 317.76666
346.0 0.002890 317.62619 317.70004
333.0 0.003003 317.56180 317.63440
335.0 0.002985 317.49756 317.56854
272.0 0.00368 317.43353 317.50299
311.0 0.003215 317.36966 317.40274
299.0 0.003344 317.30597 317.33881
318.0 0.003145 317.24246 317.27521
310.0 0.003226 317.17908 317.21179
335.0 0.002985 317.11588 317.14865
288.0 0.003472 317.05283 317.08582
314.0 0.003185 316.98990 317.02316
344.0 0.002907 316.92712 316.96078
294.0 0.003401 316.86450 316.88162
342.0 0.002924 316.80200 316.82040
287.0 0.003484 316.73962 316.75943
329.0 0.003040 316.67734 316.69870
306.0 0.003268 316.61520 316.63849
320.0 0.003125 316.55316 316.57874
299.0 0.003344 316.49124 316.51996
340.0 0.002941 316.42941 316.46252
340.0 0.002941 316.36765 316.40762
303.0 0.003300 316.30600 316.35696
329.0 0.003040 316.24442 316.31329
321.0 0.003115 316.18292 316.28006
293.0 0.003413 316.12146 316.26102
297.0 0.003367 316.06012 316.25922
321.0 0.003115 315.99878 316.27545
288.0 0.003472 315.93753 316.30667
342.0 0.002924 315.87631 316.34555
292.0 0.003425 315.81516 316.38007
326.0 0.003067 315.75400 316.39584
288.0 0.003472 315.69287 316.37988
306.0 0.003268 315.63177 316.32739
276.0 0.00362 315.57071 316.24588
306.0 0.003268 315.50964 316.15146
378.0 0.002646 315.44855 316.06171
315.0 0.003175 315.38751 315.99149
289.0 0.003460 315.32642 315.95187
317.0 0.003155 315.26535 315.94995
299.0 0.003344 315.20422 315.99075
336.0 0.002976 315.14307 316.07840
350.0 0.002857 315.08191 316.21466
330.0 0.003030 315.02069 316.39328
288.0 0.003472 314.95947 316.59494
289.0 0.003460 314.89813 316.78683
304.0 0.003289 314.83676 316.92816
335.0 0.002985 314.77536 316.98309
321.0 0.003115 314.71384 316.94238
270.0 0.00370 314.65228 316.83463
297.0 0.003367 314.59061 316.71225
320.0 0.003125 314.52887 316.62585
317.0 0.003155 314.46704 316.60590
323.0 0.003096 314.40509 316.65344
340.0 0.002941 314.34308 316.73972
295.0 0.003390 314.28091 316.81546
327.0 0.003058 314.21863 316.82913
334.0 0.002994 314.15625 316.74445
309.0 0.003236 314.09372 316.56815
346.0 0.002890 314.03104 316.28903
324.0 0.003086 313.96823 315.96829
316.0 0.003165 313.90527 315.65268
348.0 0.002874 313.84216 315.37430
325.0 0.003077 313.77890 315.14346
347.0 0.002882 313.71548 314.95108
326.0 0.003067 313.65189 314.77533
309.0 0.003236 313.58807 314.60291
302.0 0.003311 313.52414 314.40753
342.0 0.002924 313.45996 314.20074
309.0 0.003236 313.39563 313.99319
301.0 0.003322 313.33105 313.82291
345.0 0.002899 313.26630 313.64603
327.0 0.003058 313.20135 313.49603
285.0 0.00351 313.13617 313.36670
307.0 0.003257 313.07077 313.25787
311.0 0.003215 313.00513 313.16489
322.0 0.003106 312.93927 313.08298
305.0 0.003279 312.87317 313.00815
293.0 0.003413 312.80682 312.95065
298.0 0.003356 312.74023 312.88293
326.0 0.003067 312.67340 312.81812
302.0 0.003311 312.60629 312.75266
302.0 0.003311 312.53894 312.68777
304.0 0.003289 312.47128 312.62326
301.0 0.003322 312.40338 312.55920
315.0 0.003175 312.33521 312.49542
327.0 0.003058 312.26675 312.43204
289.0 0.003460 312.19800 312.36902
288.0 0.003472 312.12894 312.30643
332.0 0.003012 312.05960 312.24417
326.0 0.003067 311.98996 312.18243
288.0 0.003472 311.92001 312.12128
294.0 0.003401 311.84976 312.06073
301.0 0.003322 311.77921 312.00079
285.0 0.00351 311.70831 311.94183
347.0 0.002882 311.63708 311.88318
258.0 0.00388 311.56555 311.82611
283.0 0.00353 311.49371 311.77045
294.0 0.003401 311.42148 311.71628
330.0 0.003030 311.34897 311.66385
295.0 0.003390 311.27609 311.61356
293.0 0.003413 311.20288 311.56586
294.0 0.003401 311.12930 311.52115
307.0 0.003257 311.05542 311.48016
281.0 0.00356 310.98111 311.44458
291.0 0.003436 310.90649 311.41653
323.0 0.003096 310.83151 311.40057
336.0 0.002976 310.75613 311.40552
329.0 0.003040 310.68042 311.44833
328.0 0.003049 310.60431 311.55905
314.0 0.003185 310.52786 311.78558
305.0 0.003279 310.45102 312.20505
313.0 0.003195 310.37381 312.91290
321.0 0.003115 310.29620 314.01849
306.0 0.003268 310.21820 315.61679
319.0 0.003135 310.13986 317.75146
286.0 0.003497 310.06110 320.37152
309.0 0.003236 309.98196 323.30319
357.0 0.002801 309.90240 326.24826
336.0 0.002976 309.82251 328.81665
339.0 0.002950 309.74216 330.61002
351.0 0.002849 309.66144 331.38058
353.0 0.002833 309.58032 331.20398
363.0 0.002755 309.49878 330.48645
310.0 0.003226 309.41687 329.78952
339.0 0.002950 309.33456 329.64117
314.0 0.003185 309.25180 330.41794
301.0 0.003322 309.16867 332.27496
335.0 0.002985 309.08514 335.11938
343.0 0.002915 309.00119 338.64462
351.0 0.002849 308.91681 342.41522
375.0 0.002667 308.83203 345.92038
362.0 0.002762 308.74689 348.59140
381.0 0.002625 308.66129 349.87924
368.0 0.002717 308.57529 349.47119
381.0 0.002625 308.48886 347.50955
372.0 0.002688 308.40204 344.54190
349.0 0.002865 308.31482 341.24536
339.0 0.002950 308.22717 338.16376
308.0 0.003247 308.13913 335.56854
348.0 0.002874 308.05063 333.41974
326.0 0.003067 307.96173 331.44153
307.0 0.003257 307.87247 329.29504
339.0 0.002950 307.78275 326.78131
324.0 0.003086 307.69266 323.92596
316.0 0.003165 307.60214 320.90829
310.0 0.003226 307.51120 317.96298
303.0 0.003300 307.41986 315.29999
318.0 0.003145 307.32813 313.05688
327.0 0.003058 307.23599 311.28836
299.0 0.003344 307.14343 309.97141
274.0 0.00365 307.05045 309.03522
316.0 0.003165 306.95712 308.38861
335.0 0.002985 306.86334 307.94345
317.0 0.003155 306.76920 307.62863
301.0 0.003322 306.67465 307.39285
311.0 0.003215 306.57968 307.20306
300.0 0.003333 306.48434 307.06750
303.0 0.003300 306.38861 306.92017
306.0 0.003268 306.29251 306.81418
309.0 0.003236 306.19598 306.68353
287.0 0.003484 306.09909 306.55756
291.0 0.003436 306.00180 306.43530
307.0 0.003257 305.90411 306.31610
297.0 0.003367 305.80609 306.19958
300.0 0.003333 305.70767 306.08517
317.0 0.003155 305.60889 305.98703
297.0 0.003367 305.50974 305.87698
317.0 0.003155 305.41022 305.78503
319.0 0.003135 305.31030 305.72885
301.0 0.003322 305.21008 305.62735
319.0 0.003135 305.10947 305.52948
286.0 0.003497 305.00848 305.43719
296.0 0.003378 304.90717 305.35406
284.0 0.00352 304.80548 305.28500
303.0 0.003300 304.70349 305.23706
297.0 0.003367 304.60110 305.21829
300.0 0.003333 304.49841 305.23624
288.0 0.003472 304.39539 305.32068
304.0 0.003289 304.29202 305.42090
335.0 0.002985 304.18832 305.55133
297.0 0.003367 304.08429 305.69269
311.0 0.003215 303.97998 305.81729
312.0 0.003205 303.87527 305.89355
303.0 0.003300 303.77036 305.87814
302.0 0.003311 303.66504 305.79443
334.0 0.002994 303.55945 305.63855
289.0 0.003460 303.45358 305.44043
351.0 0.002849 303.34738 305.23080
272.0 0.00368 303.24094 305.03220
339.0 0.002950 303.13416 304.85376
291.0 0.003436 303.02707 304.69095
311.0 0.003215 302.91977 304.52280
274.0 0.00365 302.81216 304.35251
297.0 0.003367 302.70432 304.16614
278.0 0.00360 302.59616 303.96805
324.0 0.003086 302.48773 303.76849
285.0 0.00351 302.37912 303.55243
318.0 0.003145 302.27020 303.37973
299.0 0.003344 302.16107 303.23593
292.0 0.003425 302.05164 303.12021
304.0 0.003289 301.94202 303.03250
297.0 0.003367 301.83215 302.97104
264.0 0.00379 301.72205 302.93442
321.0 0.003115 301.61176 302.92334
320.0 0.003125 301.50119 302.93008
281.0 0.00356 301.39044 302.99512
294.0 0.003401 301.27948 303.13211
314.0 0.003185 301.16830 303.39651
311.0 0.003215 301.05698 303.87817
290.0 0.003448 300.94540 304.72092
290.0 0.003448 300.83365 306.13171
297.0 0.003367 300.72174 308.37717
325.0 0.003077 300.60965 311.75711
304.0 0.003289 300.49738 316.54156
298.0 0.003356 300.38492 322.88672
328.0 0.003049 300.27231 330.72839
323.0 0.003096 300.15958 339.70078
322.0 0.003106 300.04663 349.11542
317.0 0.003155 299.93359 358.00198
323.0 0.003096 299.82037 365.30475
339.0 0.002950 299.70703 370.19235
331.0 0.003021 299.59357 372.41583
354.0 0.002825 299.47995 372.47702
361.0 0.002770 299.36627 371.49850
358.0 0.002793 299.25241 370.81720
369.0 0.002710 299.13849 371.49561
331.0 0.003021 299.02441 373.97504
388.0 0.002577 298.91028 377.95221
405.0 0.002469 298.79602 382.46964
424.0 0.002358 298.68164 386.24832
457.0 0.002188 298.56726 387.87570
431.0 0.002320 298.45273 386.46060
368.0 0.002717 298.33817 381.82867
461.0 0.002169 298.22348 374.69357
401.0 0.002494 298.10880 366.33023
389.0 0.002571 297.99399 358.04370
378.0 0.002646 297.87918 350.76740
385.0 0.002597 297.76428 344.89011
370.0 0.002703 297.64932 340.29379
314.0 0.003185 297.53436 336.40228
306.0 0.003268 297.41934 332.60007
325.0 0.003077 297.30432 328.46310
352.0 0.002841 297.18924 323.94522
351.0 0.002849 297.07416 319.21762
314.0 0.003185 296.95901 314.60693
321.0 0.003115 296.84387 310.40775
332.0 0.003012 296.72876 306.82837
319.0 0.003135 296.61362 303.96426
303.0 0.003300 296.49850 301.80011
308.0 0.003247 296.38333 300.24139
323.0 0.003096 296.26819 299.15750
349.0 0.002865 296.15311 298.42416
301.0 0.003322 296.03796 297.90887
310.0 0.003226 295.92291 297.53625
275.0 0.00364 295.80783 297.24930
320.0 0.003125 295.69281 297.01273
301.0 0.003322 295.57785 296.80743
301.0 0.003322 295.46286 296.62219
264.0 0.00379 295.34796 296.45190
294.0 0.003401 295.23309 296.29428
275.0 0.00364 295.11826 296.14880
303.0 0.003300 295.00348 296.01596
283.0 0.00353 294.88876 295.89636
334.0 0.002994 294.77414 295.79044
296.0 0.003378 294.65952 295.69785
298.0 0.003356 294.54498 295.61655
284.0 0.00352 294.43054 295.54330
324.0 0.003086 294.31613 295.47299
319.0 0.003135 294.20184 295.40018
292.0 0.003425 294.08759 295.31921
304.0 0.003289 293.97342 295.22742
279.0 0.00358 293.85934 295.12628
296.0 0.003378 293.74536 295.02115
308.0 0.003247 293.63150 294.91913
316.0 0.003165 293.51767 294.82681
285.0 0.00351 293.40393 294.74991
260.0 0.00385 293.29034 294.69397
314.0 0.003185 293.17682 294.66727
282.0 0.00355 293.06342 294.68604
279.0 0.00358 292.95010 294.84381
289.0 0.003460 292.83688 295.07953
266.0 0.00376 292.72382 295.54919
310.0 0.003226 292.61078 296.36700
287.0 0.003484 292.49796 297.77686
328.0 0.003049 292.38516 299.93320
334.0 0.002994 292.27252 303.10632
340.0 0.002941 292.15997 307.39523
312.0 0.003205 292.04755 312.79056
318.0 0.003145 291.93527 319.10126
408.0 0.002451 291.82306 325.81253
402.0 0.002488 291.71103 332.27817
385.0 0.002597 291.59909 337.67419
399.0 0.002506 291.48730 341.26364
355.0 0.002817 291.37558 342.57724
419.0 0.002387 291.26404 341.75006
368.0 0.002717 291.15259 339.57239
388.0 0.002577 291.04126 336.92557
386.0 0.002591 290.93008 334.63422
378.0 0.002646 290.81900 333.21475
338.0 0.002959 290.70810 332.78455
357.0 0.002801 290.59726 333.07175
343.0 0.002915 290.48660 333.53616
352.0 0.002841 290.37601 333.59171
362.0 0.002762 290.26563 332.78485
378.0 0.002646 290.15530 330.95514
337.0 0.002967 290.04510 328.07233
359.0 0.002786 289.93509 324.35165
354.0 0.002825 289.82513 320.20416
353.0 0.002833 289.71533 316.11200
322.0 0.003106 289.60565 312.46500
300.0 0.003333 289.49606 309.47836
293.0 0.003413 289.38666 307.17337
332.0 0.003012 289.27731 305.40564
316.0 0.003165 289.16815 303.93216
308.0 0.003247 289.05905 302.50269
317.0 0.003155 288.95007 300.95978
282.0 0.00355 288.84125 299.27911
325.0 0.003077 288.73251 297.52161
291.0 0.003436 288.62390 295.79654
290.0 0.003448 288.51538 294.20593
296.0 0.003378 288.40698 292.82605
282.0 0.00355 288.29871 291.69571
282.0 0.00355 288.19049 290.81522
272.0 0.00368 288.08243 290.15771
273.0 0.00366 287.97443 289.68005
276.0 0.00362 287.86652 289.33820
299.0 0.003344 287.75876 289.08862
270.0 0.00370 287.65103 288.90103
298.0 0.003356 287.54346 288.75369
267.0 0.00375 287.43594 288.63263
282.0 0.00355 287.32849 288.52991
297.0 0.003367 287.22116 288.44138
282.0 0.00355 287.11389 288.36542
282.0 0.00355 287.00671 288.30145
287.0 0.003484 286.89960 288.25073
291.0 0.003436 286.79254 288.21494
285.0 0.00351 286.68558 288.19748
293.0 0.003413 286.57867 288.20496
276.0 0.00362 286.47183 288.24969
300.0 0.003333 286.36505 288.35562
304.0 0.003289 286.25830 288.56665
274.0 0.00365 286.15164 288.96027
319.0 0.003135 286.04498 289.66537
301.0 0.003322 285.93842 290.87854
287.0 0.003484 285.83185 292.87646
291.0 0.003436 285.72534 296.00696
279.0 0.00358 285.61890 300.64948
291.0 0.003436 285.51242 307.14197
278.0 0.00360 285.40604 315.66080
313.0 0.003195 285.29962 326.10928
322.0 0.003106 285.19327 338.00696
366.0 0.002732 285.08691 350.45886
366.0 0.002732 284.98056 362.21661
383.0 0.002611 284.87421 371.81564
374.0 0.002674 284.76785 377.91110
380.0 0.002632 284.66153 379.75232
385.0 0.002597 284.55515 377.55096
335.0 0.002985 284.44882 372.54358
339.0 0.002950 284.34244 366.17712
351.0 0.002849 284.23605 359.74646
343.0 0.002915 284.12961 354.05457
333.0 0.003003 284.02319 349.30359
346.0 0.002890 283.91669 345.15848
314.0 0.003185 283.81015 340.92749
326.0 0.003067 283.70361 335.97098
322.0 0.003106 283.59702 330.07993
306.0 0.003268 283.49039 323.41241
281.0 0.00356 283.38364 316.40646
303.0 0.003300 283.27689 309.55057
281.0 0.00356 283.17004 303.31931
272.0 0.00368 283.06314 297.99622
267.0 0.00375 282.95618 293.72397
292.0 0.003425 282.84912 290.47177
282.0 0.00355 282.74200 288.12082
305.0 0.003279 282.63477 286.48810
284.0 0.00352 282.52744 285.38486
292.0 0.003425 282.42007 284.64575
287.0 0.003484 282.31253 284.13489
265.0 0.00377 282.20496 283.78564
278.0 0.00360 282.09720 283.53659
279.0 0.00358 281.98938 283.36285
275.0 0.00364 281.88144 283.25781
234.0 0.00427 281.77335 283.22659
262.0 0.00382 281.66516 283.28015
288.0 0.003472 281.55682 283.42899
293.0 0.003413 281.44836 283.67676
282.0 0.00355 281.33978 284.01450
299.0 0.003344 281.23102 284.41675
269.0 0.00372 281.12213 284.83981
291.0 0.003436 281.01306 285.22571
266.0 0.00376 280.90384 285.50879
287.0 0.003484 280.79453 285.63126
257.0 0.00389 280.68497 285.56421
290.0 0.003448 280.57529 285.32361
290.0 0.003448 280.46539 284.96216
268.0 0.00373 280.35535 284.54584
296.0 0.003378 280.24515 284.13110
275.0 0.00364 280.13474 283.75180
261.0 0.00383 280.02417 283.43240
258.0 0.00388 279.91336 283.12643
277.0 0.00361 279.80237 282.81720
264.0 0.00379 279.69122 282.47809
258.0 0.00388 279.57983 282.09698
293.0 0.003413 279.46826 281.68103
276.0 0.00362 279.35645 281.24918
251.0 0.00398 279.24445 280.82385
255.0 0.00392 279.13226 280.42502
256.0 0.00391 279.01984 280.07452
266.0 0.00376 278.90720 279.76364
250.0 0.00400 278.79431 279.50082
312.0 0.003205 278.68124 279.27991
272.0 0.00368 278.56790 279.09363
278.0 0.00360 278.45435 278.93362
265.0 0.00377 278.34058 278.79233
268.0 0.00373 278.22656 278.66385
257.0 0.00389 278.11234 278.54401
264.0 0.00379 277.99780 278.43015
293.0 0.003413 277.88309 278.32086
266.0 0.00376 277.76813 278.21548
272.0 0.00368 277.65292 278.11435
282.0 0.00355 277.53745 278.01843
289.0 0.003460 277.42169 277.93015
294.0 0.003401 277.30576 277.85419
255.0 0.00392 277.18954 277.79904
274.0 0.00365 277.07312 277.77942
330.0 0.003030 276.95639 277.81891
277.0 0.00361 276.83945 277.95328
294.0 0.003401 276.72220 278.23203
235.0 0.00426 276.60477 278.71689
273.0 0.00366 276.48703 279.47565
270.0 0.00370 276.36902 280.50839
291.0 0.003436 276.25082 281.97391
264.0 0.00379 276.13232 283.80038
269.0 0.00372 276.01358 285.91397
256.0 0.00391 275.89456 288.17166
262.0 0.00382 275.77530 290.36313
329.0 0.003040 275.65582 292.23480
321.0 0.003115 275.53604 293.53439
303.0 0.003300 275.41608 294.08359
265.0 0.00377 275.29578 293.82968
292.0 0.003425 275.17526 292.98392
315.0 0.003175 275.05453 291.76740
272.0 0.00368 274.93350 290.43509
281.0 0.00356 274.81229 289.17776
291.0 0.003436 274.69077 288.08749
282.0 0.00355 274.56900 287.15546
304.0 0.003289 274.44708 286.29031
267.0 0.00375 274.32486 285.36728
285.0 0.00351 274.20242 284.29282
291.0 0.003436 274.07974 283.04575
264.0 0.00379 273.95682 281.67459
282.0 0.00355 273.83371 280.26358
274.0 0.00365 273.71033 278.90109
299.0 0.003344 273.58679 277.66312
304.0 0.003289 273.46298 276.59958
284.0 0.00352 273.33896 275.73392
280.0 0.00357 273.21478 275.06433
281.0 0.00356 273.09036 274.57333
303.0 0.003300 272.96576 274.23904
251.0 0.00398 272.84094 274.04514
297.0 0.003367 272.71591 273.99063
269.0 0.00372 272.59073 274.09540
300.0 0.003333 272.46536 274.40344
275.0 0.00364 272.33981 274.98077
251.0 0.00398 272.21408 275.90799
279.0 0.00358 272.08817 277.26382
280.0 0.00357 271.96213 279.10303
279.0 0.00358 271.83591 281.42822
282.0 0.00355 271.70959 284.17450
288.0 0.003472 271.58307 287.18149
331.0 0.003021 271.45642 290.20273
350.0 0.002857 271.32965 292.92432
355.0 0.002817 271.20273 295.01242
316.0 0.003165 271.07574 296.19077
358.0 0.002793 270.94861 296.34711
365.0 0.002740 270.82138 295.58804
331.0 0.003021 270.69406 294.18878
301.0 0.003322 270.56665 292.48468
327.0 0.003058 270.43912 290.76282
276.0 0.00362 270.31152 289.20486
293.0 0.003413 270.18390 287.86398
313.0 0.003195 270.05618 286.67316
320.0 0.003125 269.92844 285.48883
329.0 0.003040 269.80063 284.16522
295.0 0.003390 269.67282 282.62411
317.0 0.003155 269.54492 280.88055
280.0 0.00357 269.41705 279.01819
275.0 0.00364 269.28915 277.14764
278.0 0.00360 269.16125 275.37851
270.0 0.00370 269.03339 273.79556
251.0 0.00398 268.90552 272.45026
267.0 0.00375 268.77771 271.35873
276.0 0.00362 268.64990 270.50586
276.0 0.00362 268.52216 269.85794
249.0 0.00402 268.39447 269.37173
259.0 0.00386 268.26682 269.00470
274.0 0.00365 268.13928 268.72028
264.0 0.00379 268.01181 268.48993
259.0 0.00386 267.88446 268.29373
251.0 0.00398 267.75720 268.11823
283.0 0.00353 267.63004 267.95535
279.0 0.00358 267.50305 267.80038
296.0 0.003378 267.37619 267.65045
294.0 0.003401 267.24948 267.50418
266.0 0.00376 267.12292 267.36066
272.0 0.00368 266.99652 267.21964
262.0 0.00382 266.87036 267.08075
249.0 0.00402 266.74435 266.94421
266.0 0.00376 266.61859 266.81036
267.0 0.00375 266.49301 266.67950
239.0 0.00418 266.36768 266.55252
239.0 0.00418 266.24258 266.43039
255.0 0.00392 266.11774 266.31406
278.0 0.00360 265.99319 266.19193
292.0 0.003425 265.86887 266.08990
243.0 0.00412 265.74487 265.99457
282.0 0.00355 265.62119 265.90466
258.0 0.00388 265.49777 265.81763
261.0 0.00383 265.37476 265.73007
251.0 0.00398 265.25201 265.63773
254.0 0.00394 265.12967 265.53653
275.0 0.00364 265.00769 265.42334
259.0 0.00386 264.88605 265.29767
274.0 0.00365 264.76483 265.15549
273.0 0.00366 264.64401 265.01334
254.0 0.00394 264.52359 264.86896
269.0 0.00372 264.40363 264.72592
248.0 0.00403 264.28409 264.58606
235.0 0.00426 264.16501 264.45532
258.0 0.00388 264.04639 264.32141
254.0 0.00394 263.92822 264.18787
259.0 0.00386 263.81061 264.05289
279.0 0.00358 263.69345 263.91553
279.0 0.00358 263.57687 263.77628
256.0 0.00391 263.46075 263.63614
272.0 0.00368 263.34521 263.49670
253.0 0.00395 263.23022 263.35925
254.0 0.00394 263.11578 263.22754
285.0 0.00351 263.00198 263.09717
291.0 0.003436 262.88870 262.97055
269.0 0.00372 262.77609 262.84775
257.0 0.00389 262.66406 262.72821
271.0 0.00369 262.55270 262.61148
243.0 0.00412 262.44199 262.49701
274.0 0.00365 262.33191 262.38425
256.0 0.00391 262.22247 262.27295
268.0 0.00373 262.11377 262.16293
273.0 0.00366 262.00577 262.05383
250.0 0.00400 261.89844 261.94568
283.0 0.00353 261.79187 261.82257
279.0 0.00358 261.68600 261.71658
280.0 0.00357 261.58087 261.61005
246.0 0.00407 261.47653 261.50574
266.0 0.00376 261.37296 261.40231
260.0 0.00385 261.27014 261.29971
270.0 0.00370 261.16812 261.19797
269.0 0.00372 261.06693 261.09708
263.0 0.00380 260.96652 260.99713
254.0 0.00394 260.86697 260.89008
268.0 0.00373 260.76825 260.79208
258.0 0.00388 260.67038 260.69434
278.0 0.00360 260.57336 260.59830
254.0 0.00394 260.47723 260.50311
264.0 0.00379 260.38199 260.40897
277.0 0.00361 260.28763 260.31577
283.0 0.00353 260.19418 260.22363
246.0 0.00407 260.10165 260.13245
272.0 0.00368 260.01004 260.04236
277.0 0.00361 259.91940 259.95328
257.0 0.00389 259.82965 259.86530
252.0 0.00397 259.74091 259.77850
250.0 0.00400 259.65311 259.69275
282.0 0.00355 259.56628 259.60825
246.0 0.00407 259.48047 259.52487
282.0 0.00355 259.39560 259.44275
282.0 0.00355 259.31177 259.36194
248.0 0.00403 259.22894 259.28244
279.0 0.00358 259.14716 259.20428
279.0 0.00358 259.06641 259.12769
261.0 0.00383 258.98663 259.05240
261.0 0.00383 258.90793 258.97891
252.0 0.00397 258.83032 258.90704
265.0 0.00377 258.75372 258.83707
248.0 0.00403 258.67825 258.76920
253.0 0.00395 258.60379 258.70392
246.0 0.00407 258.53043 258.64194
249.0 0.00402 258.45819 258.58472
239.0 0.00418 258.38702 258.53461
252.0 0.00397 258.31699 258.49561
259.0 0.00386 258.24802 258.47430
238.0 0.00420 258.18015 258.48053
264.0 0.00379 258.11346 258.52838
257.0 0.00389 258.04785 258.63608
256.0 0.00391 257.98340 258.82535
255.0 0.00392 257.92004 259.11890
242.0 0.00413 257.85782 259.53629
267.0 0.00375 257.79678 260.08783
247.0 0.00405 257.73688 260.76895
238.0 0.00420 257.67813 261.55530
265.0 0.00377 257.62051 262.39990
265.0 0.00377 257.56406 263.23462
269.0 0.00372 257.50876 263.97623
284.0 0.00352 257.45462 264.53870
280.0 0.00357 257.40164 264.85138
294.0 0.003401 257.34985 264.88525
281.0 0.00356 257.29919 264.66608
318.0 0.003145 257.24973 264.26492
271.0 0.00369 257.20142 263.77014
296.0 0.003378 257.15430 263.26120
277.0 0.00361 257.10834 262.79242
282.0 0.00355 257.06354 262.38672
243.0 0.00412 257.01993 262.03568
273.0 0.00366 256.97748 261.70645
250.0 0.00400 256.93616 261.35748
291.0 0.003436 256.89606 260.95667
252.0 0.00397 256.85709 260.49451
257.0 0.00389 256.81931 259.98428
270.0 0.00370 256.78268 259.45187
245.0 0.00408 256.74722 258.92752
263.0 0.00380 256.71289 258.43826
243.0 0.00412 256.67972 258.00464
244.0 0.00410 256.64771 257.63840
268.0 0.00373 256.61685 257.34210
257.0 0.00389 256.58713 257.11148
252.0 0.00397 256.55853 256.93723
256.0 0.00391 256.53107 256.80811
242.0 0.00413 256.50476 256.71301
271.0 0.00369 256.47955 256.64206
239.0 0.00418 256.45547 256.58771
242.0 0.00413 256.43250 256.54437
266.0 0.00376 256.41064 256.50824
265.0 0.00377 256.38986 256.47702
281.0 0.00356 256.37018 256.44952
273.0 0.00366 256.35159 256.42432
253.0 0.00395 256.33408 256.40115
247.0 0.00405 256.31763 256.38031
252.0 0.00397 256.30225 256.36057
223.0 0.00448 256.28790 256.34238
234.0 0.00427 256.27463 256.32562
246.0 0.00407 256.26236 256.31027
259.0 0.00386 256.25110 256.29617
254.0 0.00394 256.24091 256.28339
254.0 0.00394 256.23169 256.27197
218.0 0.00459 256.22345 256.26157
239.0 0.00418 256.21622 256.25238
278.0 0.00360 256.20996 256.24612
237.0 0.00422 256.20465 256.23920
275.0 0.00364 256.20029 256.23340
233.0 0.00429 256.19687 256.22864
249.0 0.00402 256.19437 256.22482
252.0 0.00397 256.19281 256.22211
268.0 0.00373 256.19211 256.22040
209.0 0.00478 256.19232 256.21957
244.0 0.00410 256.19339 256.21979
275.0 0.00364 256.19534 256.22089
260.0 0.00385 256.19812 256.22296
258.0 0.00388 256.20172 256.22665
277.0 0.00361 256.20615 256.23047
253.0 0.00395 256.21140 256.23517
261.0 0.00383 256.21741 256.24063
266.0 0.00376 256.22421 256.24701
254.0 0.00394 256.23175 256.25412
243.0 0.00412 256.24005 256.26202
284.0 0.00352 256.24905 256.27075
260.0 0.00385 256.25879 256.28021
241.0 0.00415 256.26920 256.29028
245.0 0.00408 256.28030 256.30130
252.0 0.00397 256.29205 256.31287
259.0 0.00386 256.30441 256.32510
248.0 0.00403 256.31744 256.33807
234.0 0.00427 256.33105 256.35165
247.0 0.00405 256.34528 256.36581
259.0 0.00386 256.36005 256.38062
251.0 0.00398 256.37537 256.39600
240.0 0.00417 256.39124 256.41202
220.0 0.00455 256.40759 256.42859
247.0 0.00405 256.42447 256.44568
276.0 0.00362 256.44183 256.46329
284.0 0.00352 256.45966 256.48141
284.0 0.00352 256.47791 256.49454
245.0 0.00408 256.49655 256.51379
263.0 0.00380 256.51563 256.53357
232.0 0.00431 256.53506 256.55368
237.0 0.00422 256.55487 256.57434
241.0 0.00415 256.57504 256.59540
252.0 0.00397 256.59549 256.61685
255.0 0.00392 256.61627 256.63882
230.0 0.00435 256.63733 256.66110
269.0 0.00372 256.65863 256.68390
268.0 0.00373 256.68021 256.70459
296.0 0.003378 256.70197 256.73972
240.0 0.00417 256.72394 256.76474
268.0 0.00373 256.74606 256.79095
259.0 0.00386 256.76837 256.81876
259.0 0.00386 256.79083 256.84897
268.0 0.00373 256.81339 256.88269
270.0 0.00370 256.83603 256.92136
254.0 0.00394 256.85873 256.96677
254.0 0.00394 256.88150 257.02121
263.0 0.00380 256.90433 257.08673
250.0 0.00400 256.92712 257.16531
287.0 0.003484 256.94995 257.26373
242.0 0.00413 256.97269 257.37082
253.0 0.00395 256.99542 257.49063
253.0 0.00395 257.01807 257.61975
267.0 0.00375 257.04062 257.75330
260.0 0.00385 257.06305 257.88550
257.0 0.00389 257.08536 258.01056
235.0 0.00426 257.10748 258.12457
270.0 0.00370 257.12946 258.22696
260.0 0.00385 257.15125 258.32120
274.0 0.00365 257.17279 258.41479
280.0 0.00357 257.19409 258.51801
245.0 0.00408 257.21515 258.64694
275.0 0.00364 257.23590 258.79858
260.0 0.00385 257.25638 258.97980
244.0 0.00410 257.27652 259.19296
252.0 0.00397 257.29633 259.40823
253.0 0.00395 257.31580 259.61374
253.0 0.00395 257.33484 259.78665
243.0 0.00412 257.35352 259.90472
256.0 0.00391 257.37177 259.95279
266.0 0.00376 257.38959 259.92783
265.0 0.00377 257.40695 259.84375
237.0 0.00422 257.42383 259.71603
252.0 0.00397 257.44022 259.57068
264.0 0.00379 257.45609 259.43234
237.0 0.00422 257.47144 259.30585
275.0 0.00364 257.48627 259.20090
283.0 0.00353 257.50049 259.11462
256.0 0.00391 257.51413 259.03876
250.0 0.00400 257.52719 258.96201
248.0 0.00403 257.53961 258.87527
268.0 0.00373 257.55142 258.77460
288.0 0.003472 257.56256 258.66187
291.0 0.003436 257.57303 258.54230
275.0 0.00364 257.58282 258.42337
286.0 0.003497 257.59192 258.31158
214.0 0.00467 257.60031 258.21234
250.0 0.00400 257.60797 258.12906
266.0 0.00376 257.61487 258.06293
265.0 0.00377 257.62103 258.01392
280.0 0.00357 257.62640 257.97971
262.0 0.00382 257.63098 257.95859
262.0 0.00382 257.63477 257.94785
254.0 0.00394 257.63776 257.94611
260.0 0.00385 257.63992 257.95206
272.0 0.00368 257.64120 257.96603
249.0 0.00402 257.64166 257.98990
266.0 0.00376 257.64127 258.02759
259.0 0.00386 257.64001 258.08658
255.0 0.00392 257.63785 258.17807
260.0 0.00385 257.63480 258.31912
249.0 0.00402 257.63083 258.53284
268.0 0.00373 257.62595 258.84836
280.0 0.00357 257.62015 259.29965
234.0 0.00427 257.61340 259.92096
255.0 0.00392 257.60574 260.74234
260.0 0.00385 257.59711 261.77966
252.0 0.00397 257.58752 263.02896
268.0 0.00373 257.57697 264.45694
252.0 0.00397 257.56543 265.99799
258.0 0.00388 257.55292 267.55673
282.0 0.00355 257.53943 269.01151
283.0 0.00353 257.52493 270.23022
275.0 0.00364 257.50946 271.08972
282.0 0.00355 257.49295 271.50925
276.0 0.00362 257.47546 271.47980
280.0 0.00357 257.45697 271.07129
279.0 0.00358 257.43744 270.40585
289.0 0.003460 257.41690 269.61975
271.0 0.00369 257.39536 268.83197
261.0 0.00383 257.37277 268.12415
265.0 0.00377 257.34915 267.53583
274.0 0.00365 257.32452 267.06421
280.0 0.00357 257.29886 266.67654
258.0 0.00388 257.27219 266.32932
286.0 0.003497 257.24448 265.99484
258.0 0.00388 257.21573 265.68024
281.0 0.00356 257.18597 265.42960
282.0 0.00355 257.15518 265.30991
296.0 0.003378 257.12338 265.39139
251.0 0.00398 257.09055 265.72955
279.0 0.00358 257.05670 266.35040
267.0 0.00375 257.02185 267.24200
265.0 0.00377 256.98596 268.34760
300.0 0.003333 256.94910 269.56787
289.0 0.003460 256.91119 270.77512
267.0 0.00375 256.87234 271.82825
277.0 0.00361 256.83246 272.60275
281.0 0.00356 256.79163 273.01208
292.0 0.003425 256.74979 273.02393
288.0 0.003472 256.70697 272.66620
286.0 0.003497 256.66318 272.02039
256.0 0.00391 256.61847 271.19952
288.0 0.003472 256.57278 270.31583
256.0 0.00391 256.52615 269.45953
269.0 0.00372 256.47861 268.66446
283.0 0.00353 256.43011 267.94168
280.0 0.00357 256.38074 267.25980
262.0 0.00382 256.33044 266.57181
266.0 0.00376 256.27927 265.83084
256.0 0.00391 256.22720 265.00366
249.0 0.00402 256.17426 264.08316
277.0 0.00361 256.12042 263.08917
267.0 0.00375 256.06577 262.07684
265.0 0.00377 256.01031 261.07498
270.0 0.00370 255.95399 260.11972
274.0 0.00365 255.89688 259.25366
253.0 0.00395 255.83896 258.49957
266.0 0.00376 255.78024 257.86545
247.0 0.00405 255.72079 257.34772
221.0 0.00452 255.66057 256.93375
217.0 0.00461 255.59962 256.60660
271.0 0.00369 255.53793 256.34781
231.0 0.00433 255.47551 256.14047
254.0 0.00394 255.41245 255.97823
282.0 0.00355 255.34866 255.84099
261.0 0.00383 255.28426 255.71634
241.0 0.00415 255.21918 255.60463
247.0 0.00405 255.15344 255.50229
237.0 0.00422 255.08714 255.40691
252.0 0.00397 255.02023 255.31693
260.0 0.00385 254.95276 255.23114
251.0 0.00398 254.88470 255.14861
262.0 0.00382 254.81609 255.06860
250.0 0.00400 254.74699 254.99062
241.0 0.00415 254.67737 254.91405
285.0 0.00351 254.60727 254.83861
240.0 0.00417 254.53668 254.76398
255.0 0.00392 254.46565 254.69006
253.0 0.00395 254.39421 254.61685
248.0 0.00403 254.32231 254.54413
268.0 0.00373 254.25006 254.47211
241.0 0.00415 254.17740 254.40085
261.0 0.00383 254.10439 254.33052
255.0 0.00392 254.03107 254.26137
277.0 0.00361 253.95738 254.19353
231.0 0.00433 253.88344 254.12718
282.0 0.00355 253.80920 254.06248
234.0 0.00427 253.73470 253.99945
263.0 0.00380 253.65997 253.92653
242.0 0.00413 253.58499 253.86633
279.0 0.00358 253.50986 253.80688
264.0 0.00379 253.43449 253.74756
264.0 0.00379 253.35898 253.68770
238.0 0.00420 253.28334 253.62680
264.0 0.00379 253.20757 253.56454
261.0 0.00383 253.13168 253.50105
262.0 0.00382 253.05569 253.43677
264.0 0.00379 252.97968 253.37282
263.0 0.00380 252.90358 253.31052
245.0 0.00408 252.82747 253.24548
285.0 0.00351 252.75133 253.19087
250.0 0.00400 252.67519 253.14333
241.0 0.00415 252.59909 253.10594
272.0 0.00368 252.52303 253.08313
265.0 0.00377 252.44704 253.08141
236.0 0.00424 252.37109 253.10931
269.0 0.00372 252.29527 253.17844
273.0 0.00366 252.21954 253.30281
252.0 0.00397 252.14395 253.49849
232.0 0.00431 252.06850 253.78259
266.0 0.00376 251.99319 254.17165
254.0 0.00394 251.91809 254.67508
240.0 0.00417 251.84315 255.31612
256.0 0.00391 251.76845 256.09952
258.0 0.00388 251.69395 257.02716
261.0 0.00383 251.61971 258.12576
244.0 0.00410 251.54568 259.40161
278.0 0.00360 251.47194 260.87302
275.0 0.00364 251.39848 262.56302
251.0 0.00398 251.32530 264.50089
274.0 0.00365 251.25244 266.71347
245.0 0.00408 251.17989 269.21027
291.0 0.003436 251.10765 271.96933
249.0 0.00402 251.03578 274.90286
260.0 0.00385 250.96422 277.85959
272.0 0.00368 250.89305 280.64120
257.0 0.00389 250.82224 283.00287
305.0 0.003279 250.75182 284.70715
270.0 0.00370 250.68179 285.57605
300.0 0.003333 250.61214 285.54269
272.0 0.00368 250.54292 284.67386
296.0 0.003378 250.47409 283.15109
258.0 0.00388 250.40569 281.22659
271.0 0.00369 250.33772 279.13531
277.0 0.00361 250.27016 277.08347
251.0 0.00398 250.20308 275.19702
256.0 0.00391 250.13641 273.51495
280.0 0.00357 250.07019 271.99942
276.0 0.00362 250.00446 270.55930
275.0 0.00364 249.93913 269.08682
255.0 0.00392 249.87430 267.49857
278.0 0.00360 249.80989 265.75839
248.0 0.00403 249.74594 263.88397
305.0 0.003279 249.68248 261.93655
233.0 0.00429 249.61946 259.98627
236.0 0.00424 249.55693 258.11649
268.0 0.00373 249.49481 256.39499
233.0 0.00429 249.43317 254.87181
257.0 0.00389 249.37201 253.57442
245.0 0.00408 249.31126 252.50742
213.0 0.00469 249.25099 251.65814
245.0 0.00408 249.19115 251.00044
232.0 0.00431 249.13173 250.50204
294.0 0.003401 249.07278 250.12929
253.0 0.00395 249.01424 249.85089
237.0 0.00422 248.95615 249.64064
241.0 0.00415 248.89842 249.47772
259.0 0.00386 248.84113 249.34686
259.0 0.00386 248.78423 249.23741
228.0 0.00439 248.72771 249.14233
252.0 0.00397 248.67163 249.05739
259.0 0.00386 248.61583 248.97975
286.0 0.003497 248.56044 248.90840
271.0 0.00369 248.50536 248.84244
241.0 0.00415 248.45062 248.78191
240.0 0.00417 248.39626 248.73409
256.0 0.00391 248.34213 248.68398
247.0 0.00405 248.28835 248.63857
239.0 0.00418 248.23479 248.59705
261.0 0.00383 248.18152 248.55840
239.0 0.00418 248.12856 248.52109
229.0 0.00437 248.07576 248.48328
271.0 0.00369 248.02321 248.44318
248.0 0.00403 247.97081 248.39899
238.0 0.00420 247.91864 248.34944
246.0 0.00407 247.86667 248.29424
211.0 0.00474 247.81477 248.23763
252.0 0.00397 247.76305 248.17387
231.0 0.00433 247.71140 248.10831
249.0 0.00402 247.65984 248.04274
247.0 0.00405 247.60841 247.97852
252.0 0.00397 247.55695 247.91624
249.0 0.00402 247.50555 247.85638
262.0 0.00382 247.45413 247.79843
253.0 0.00395 247.40269 247.74187
280.0 0.00357 247.35129 247.68607
279.0 0.00358 247.29974 247.63069
236.0 0.00424 247.24815 247.57619
265.0 0.00377 247.19643 247.52383
251.0 0.00398 247.14458 247.47720
261.0 0.00383 247.09264 247.43794
266.0 0.00376 247.04042 247.41206
250.0 0.00400 246.98807 247.40694
222.0 0.00450 246.93546 247.43179
254.0 0.00394 246.88260 247.49321
217.0 0.00461 246.82953 247.61455
272.0 0.00368 246.77606 247.80544
251.0 0.00398 246.72234 248.07919
261.0 0.00383 246.66823 248.44693
225.0 0.00444 246.61377 248.91258
247.0 0.00405 246.55896 249.47133
222.0 0.00450 246.50366 250.10922
236.0 0.00424 246.44797 250.79572
256.0 0.00391 246.39172 251.47726
271.0 0.00369 246.33505 252.13409
263.0 0.00380 246.27788 252.68108
280.0 0.00357 246.22011 253.09627
246.0 0.00407 246.16182 253.32362
287.0 0.003484 246.10287 253.34766
286.0 0.003497 246.04337 253.18307
279.0 0.00358 245.98325 252.87119
295.0 0.003390 245.92242 252.46548
266.0 0.00376 245.86096 252.02097
266.0 0.00376 245.79872 251.58121
244.0 0.00410 245.73579 251.16812
274.0 0.00365 245.67216 250.80818
274.0 0.00365 245.60771 250.48087
252.0 0.00397 245.54251 250.17960
250.0 0.00400 245.47646 249.87146
257.0 0.00389 245.40958 249.53297
254.0 0.00394 245.34195 249.15071
279.0 0.00358 245.27332 248.72343
288.0 0.003472 245.20389 248.26297
233.0 0.00429 245.13351 247.78548
245.0 0.00408 245.06223 247.31059
232.0 0.00431 244.99010 246.85632
270.0 0.00370 244.91689 246.43614
245.0 0.00408 244.84282 246.06085
209.0 0.00478 244.76770 245.73463
234.0 0.00427 244.69162 245.45808
241.0 0.00415 244.61462 245.22797
233.0 0.00429 244.53651 245.03793
223.0 0.00448 244.45743 244.88203
249.0 0.00402 244.37727 244.75375
265.0 0.00377 244.29611 244.64836
246.0 0.00407 244.21399 244.56316
241.0 0.00415 244.13069 244.49789
242.0 0.00413 244.04642 244.45581
215.0 0.00465 243.96103 244.44363
237.0 0.00422 243.87460 244.47221
277.0 0.00361 243.78720 244.55612
248.0 0.00403 243.69862 244.71382
232.0 0.00431 243.60904 244.96567
271.0 0.00369 243.51834 245.33290
234.0 0.00427 243.42661 245.83270
252.0 0.00397 243.33392 246.47508
257.0 0.00389 243.24008 247.26062
244.0 0.00410 243.14525 248.17168
248.0 0.00403 243.04932 249.17630
249.0 0.00402 242.95241 250.22183
250.0 0.00400 242.85458 251.24086
267.0 0.00375 242.75565 252.15834
256.0 0.00391 242.65578 252.89207
250.0 0.00400 242.55486 253.37363
244.0 0.00410 242.45303 253.55904
247.0 0.00405 242.35037 253.44667
221.0 0.00452 242.24666 253.07680
289.0 0.003460 242.14214 252.52100
260.0 0.00385 242.03664 251.86012
235.0 0.00426 241.93034 251.17015
237.0 0.00422 241.82333 250.50899
210.0 0.00476 241.71538 249.90883
265.0 0.00377 241.60672 249.37976
232.0 0.00431 241.49725 248.90634
243.0 0.00412 241.38715 248.45856
240.0 0.00417 241.27640 248.00034
253.0 0.00395 241.16490 247.50166
230.0 0.00435 241.05290 246.95140
253.0 0.00395 240.94016 246.36099
251.0 0.00398 240.82701 245.73883
240.0 0.00417 240.71342 245.11728
252.0 0.00397 240.59924 244.52104
254.0 0.00394 240.48476 243.97276
267.0 0.00375 240.36980 243.48534
249.0 0.00402 240.25456 243.06454
215.0 0.00465 240.13911 242.70659
262.0 0.00382 240.02330 242.39998
215.0 0.00465 239.90744 242.13017
233.0 0.00429 239.79134 241.88113
246.0 0.00407 239.67519 241.64081
256.0 0.00391 239.55908 241.40543
224.0 0.00446 239.44287 241.16721
243.0 0.00412 239.32687 240.93219
238.0 0.00420 239.21089 240.69763
241.0 0.00415 239.09515 240.48071
223.0 0.00448 238.97978 240.27715
233.0 0.00429 238.86450 240.08652
233.0 0.00429 238.74979 239.90700
244.0 0.00410 238.63536 239.73380
245.0 0.00408 238.52148 239.56187
244.0 0.00410 238.40826 239.38638
255.0 0.00392 238.29553 239.20390
237.0 0.00422 238.18356 239.01402
251.0 0.00398 238.07225 238.81822
248.0 0.00403 237.96182 238.61649
256.0 0.00391 237.85237 238.41924
271.0 0.00369 237.74373 238.22612
258.0 0.00388 237.63618 238.04065
230.0 0.00435 237.52965 237.86481
224.0 0.00446 237.42430 237.70009
229.0 0.00437 237.32030 237.54703
232.0 0.00431 237.21744 237.40485
230.0 0.00435 237.11603 237.27293
248.0 0.00403 237.01596 237.14986
238.0 0.00420 236.91743 237.03436
218.0 0.00459 236.82057 236.92526
216.0 0.00463 236.72523 236.82115
251.0 0.00398 236.63165 236.72134
227.0 0.00441 236.53979 236.62505
251.0 0.00398 236.44981 236.53188
236.0 0.00424 236.36183 236.44162
240.0 0.00417 236.27570 236.35378
231.0 0.00433 236.19168 236.26852
227.0 0.00441 236.10973 236.18570
245.0 0.00408 236.02995 236.10535
223.0 0.00448 235.95251 236.02759
238.0 0.00420 235.87726 235.95227
244.0 0.00410 235.80443 235.87961
231.0 0.00433 235.73398 235.80952
241.0 0.00415 235.66602 235.74216
230.0 0.00435 235.60069 235.67767
261.0 0.00383 235.53786 235.61589
255.0 0.00392 235.47771 235.55707
244.0 0.00410 235.42026 235.50128
210.0 0.00476 235.36555 235.44844
249.0 0.00402 235.31372 235.39876
246.0 0.00407 235.26466 235.35217
238.0 0.00420 235.21855 235.30890
228.0 0.00439 235.17534 235.26894
204.0 0.00490 235.13515 235.23239
256.0 0.00391 235.09799 235.19939
217.0 0.00461 235.06384 235.16992
240.0 0.00417 235.03282 235.14433
261.0 0.00383 235.00488 235.12267
232.0 0.00431 234.98013 235.10530
227.0 0.00441 234.95856 235.09271
226.0 0.00442 234.94016 235.08571
230.0 0.00435 234.92499 235.08543
244.0 0.00410 234.91302 235.09383
232.0 0.00431 234.90433 235.11391
234.0 0.00427 234.89888 235.14981
253.0 0.00395 234.89670 235.20782
232.0 0.00431 234.89777 235.29614
229.0 0.00437 234.90208 235.41808
248.0 0.00403 234.90968 235.60155
241.0 0.00415 234.92050 235.85330
246.0 0.00407 234.93459 236.18907
246.0 0.00407 234.95186 236.62189
250.0 0.00400 234.97234 237.16251
226.0 0.00442 234.99600 237.81346
219.0 0.00457 235.02277 238.56824
257.0 0.00389 235.05270 239.41132
252.0 0.00397 235.08565 240.31116
244.0 0.00410 235.12167 241.22806
228.0 0.00439 235.16068 242.11005
225.0 0.00444 235.20258 242.89682
262.0 0.00382 235.24739 243.54628
227.0 0.00441 235.29500 243.99866
245.0 0.00408 235.34541 244.23415
242.0 0.00413 235.39847 244.25624
269.0 0.00372 235.45412 244.09760
268.0 0.00373 235.51234 243.80913
215.0 0.00465 235.57301 243.44887
227.0 0.00441 235.63609 243.06870
254.0 0.00394 235.70140 242.70943
248.0 0.00403 235.76884 242.39511
221.0 0.00452 235.83846 242.13162
230.0 0.00435 235.90999 241.91051
245.0 0.00408 235.98344 241.70804
232.0 0.00431 236.05862 241.49988
242.0 0.00413 236.13536 241.25722
233.0 0.00429 236.21371 240.96716
243.0 0.00412 236.29338 240.62912
262.0 0.00382 236.37437 240.25243
245.0 0.00408 236.45645 239.85449
253.0 0.00395 236.53943 239.45518
250.0 0.00400 236.62334 239.07268
261.0 0.00383 236.70789 238.72435
234.0 0.00427 236.79303 238.42163
219.0 0.00457 236.87852 238.17162
214.0 0.00467 236.96416 237.97842
240.0 0.00417 237.04997 237.83749
246.0 0.00407 237.13562 237.74509
229.0 0.00437 237.22107 237.69409
267.0 0.00375 237.30606 237.67703
245.0 0.00408 237.39034 237.68637
232.0 0.00431 237.47395 237.71552
250.0 0.00400 237.55655 237.75887
243.0 0.00412 237.63806 237.81197
254.0 0.00394 237.71819 237.87129
237.0 0.00422 237.79680 237.93452
249.0 0.00402 237.87381 237.99988
246.0 0.00407 237.94887 238.06595
242.0 0.00413 238.02197 238.13203
221.0 0.00452 238.09276 238.19727
251.0 0.00398 238.16112 238.26131
264.0 0.00379 238.22693 238.32384
227.0 0.00441 238.28989 238.38454
231.0 0.00433 238.34995 238.44328
217.0 0.00461 238.40683 238.49995
252.0 0.00397 238.46033 238.55432
246.0 0.00407 238.51039 238.60657
227.0 0.00441 238.55672 238.65927
237.0 0.00422 238.59924 238.70668
224.0 0.00446 238.63771 238.75133
221.0 0.00452 238.67197 238.79295
248.0 0.00403 238.70193 238.83127
243.0 0.00412 238.72736 238.86555
250.0 0.00400 238.74815 238.89542
208.0 0.00481 238.76413 238.91997
246.0 0.00407 238.77519 238.93863
256.0 0.00391 238.78117 238.95079
213.0 0.00469 238.78197 238.95590
220.0 0.00455 238.77745 238.95380
227.0 0.00441 238.76752 238.94449
244.0 0.00410 238.75208 238.92975
251.0 0.00398 238.73099 238.90721
241.0 0.00415 238.70424 238.87875
228.0 0.00439 238.67169 238.84483
249.0 0.00402 238.63333 238.80591
259.0 0.00386 238.58914 238.76213
236.0 0.00424 238.53897 238.71368
227.0 0.00441 238.48288 238.66068
240.0 0.00417 238.42081 238.60336
251.0 0.00398 238.35280 238.54581
280.0 0.00357 238.27890 238.48154
260.0 0.00385 238.19901 238.41559
224.0 0.00446 238.11330 238.35046
237.0 0.00422 238.02168 238.28955
264.0 0.00379 237.92439 238.23781
235.0 0.00426 237.82153 238.20140
245.0 0.00408 237.71300 238.18796
225.0 0.00444 237.59912 238.20634
233.0 0.00429 237.47987 238.26630
240.0 0.00417 237.35555 238.37704
231.0 0.00433 237.22641 238.54660
254.0 0.00394 237.09235 238.78050
247.0 0.00405 236.95386 239.08118
210.0 0.00476 236.81096 239.44057
255.0 0.00392 236.66408 239.84865
220.0 0.00455 236.51358 240.28705
237.0 0.00422 236.35941 240.73244
242.0 0.00413 236.20218 241.15494
225.0 0.00444 236.04202 241.52414
252.0 0.00397 235.87944 241.80969
243.0 0.00412 235.71495 241.98853
215.0 0.00465 235.54854 242.04994
254.0 0.00394 235.38095 241.99245
256.0 0.00391 235.21239 241.84877
244.0 0.00410 235.04350 241.64189
226.0 0.00442 234.87489 241.40271
227.0 0.00441 234.70660 241.15637
235.0 0.00426 234.53958 240.91995
226.0 0.00442 234.37396 240.69830
228.0 0.00439 234.21065 240.48599
265.0 0.00377 234.05016 240.26761
291.0 0.003436 233.89279 240.02188
271.0 0.00369 233.73949 239.72874
226.0 0.00442 233.59048 239.37335
250.0 0.00400 233.44678 238.94955
226.0 0.00442 233.30885 238.47182
231.0 0.00433 233.17719 237.95280
232.0 0.00431 233.05269 237.41502
242.0 0.00413 232.93578 236.87927
260.0 0.00385 232.82724 236.36525
229.0 0.00437 232.72778 235.88751
235.0 0.00426 232.63789 235.45380
246.0 0.00407 232.55841 235.06830
218.0 0.00459 232.48981 234.72871
217.0 0.00461 232.43285 234.43135
232.0 0.00431 232.38815 234.17148
245.0 0.00408 232.35622 233.94498
221.0 0.00452 232.33778 233.75108
247.0 0.00405 232.33331 233.59019
270.0 0.00370 232.34340 233.46529
261.0 0.00383 232.36850 233.38051
223.0 0.00448 232.40921 233.34123
218.0 0.00459 232.46579 233.35352
247.0 0.00405 232.53879 233.42386
234.0 0.00427 232.62846 233.55798
229.0 0.00437 232.73495 233.76050
240.0 0.00417 232.85878 234.03458
190.0 0.00526 232.99983 234.37975
244.0 0.00410 233.15837 234.79315
230.0 0.00435 233.33420 235.26683
236.0 0.00424 233.52705 235.78886
208.0 0.00481 233.73721 236.34474
273.0 0.00366 233.96390 236.91406
244.0 0.00410 234.20699 237.47641
247.0 0.00405 234.46567 238.00882
266.0 0.00376 234.73898 238.49123
250.0 0.00400 235.02676 238.91002
255.0 0.00392 235.32738 239.25865
236.0 0.00424 235.64005 239.54265
244.0 0.00410 235.96304 239.77618
242.0 0.00413 236.29457 239.97974
250.0 0.00400 236.63358 240.17627
240.0 0.00417 236.97736 240.38651
227.0 0.00441 237.32413 240.62805
230.0 0.00435 237.67096 240.91309
263.0 0.00380 238.01485 241.24809
205.0 0.00488 238.35347 241.63445
250.0 0.00400 238.68274 242.06679
241.0 0.00415 238.99936 242.53650
239.0 0.00418 239.29889 243.03096
258.0 0.00388 239.57671 243.53622
225.0 0.00444 239.82860 244.03986
205.0 0.00488 240.04875 244.52341
220.0 0.00455 240.23175 244.97011
238.0 0.00420 240.37122 245.35762
260.0 0.00385 240.46046 245.66124
287.0 0.003484 240.49251 245.85506
263.0 0.00380 240.45952 245.91290
242.0 0.00413 240.35313 245.81366
239.0 0.00418 240.16458 245.54483
261.0 0.00383 239.88440 245.10474
273.0 0.00366 239.50189 244.49953
270.0 0.00370 239.00699 243.74309
257.0 0.00389 238.38672 242.84465
224.0 0.00446 237.63011 241.81531
234.0 0.00427 236.72369 240.65639
210.0 0.00476 235.65198 239.36075
244.0 0.00410 234.40218 237.91762
250.0 0.00400 232.95576 236.30283
228.0 0.00439 231.29762 234.49113
208.0 . . .
loop_
_refln_index_h
_refln_index_k
_refln_index_l
_pd_refln_wavelength_id
_refln_observed_status
_refln_F_squared_meas
_refln_F_squared_calc
_refln_phase_calc
_refln_d_spacing
_gsas_i100_meas
0 0 1 1 o 382.885 398.795 0.00 7.38690 29.34
0 0 1 2 o 377.385 398.795 0.00 7.38690 14.40
1 0 1 1 o 159.490 153.719 180.00 4.77024 28.36
1 0 1 2 o 160.126 153.719 180.00 4.77024 14.17
1 1 0 1 o 104.392 85.919 180.00 4.41772 7.44
1 1 0 2 o 96.215 85.919 180.00 4.41772 3.39
1 1 1 1 o 972.742 955.809 0.00 3.79143 100.00
1 1 1 2 o 988.707 955.809 0.00 3.79143 50.52
0 0 2 1 o 633.008 583.159 0.00 3.69345 11.27
0 0 2 2 o 583.913 583.159 0.00 3.69345 5.19
1 0 2 1 o 80.180 62.402 180.00 3.17942 4.86
1 0 2 2 o 76.893 62.402 180.00 3.17942 2.32
2 0 0 1 o 2335.890 2310.467 180.00 3.12380 56.24
2 0 0 2 o 2249.247 2310.467 180.00 3.12380 26.96
2 0 1 1 o 280.880 256.428 180.00 2.87712 19.21
2 0 1 2 o 258.935 256.428 180.00 2.87712 8.86
1 1 2 1 o 400.908 384.677 0.00 2.83359 18.41
1 1 2 2 o 388.753 384.677 0.00 2.83359 8.89
2 1 1 1 o 26.941 35.229 0.00 2.61332 2.53
2 1 1 2 o 22.109 35.229 0.00 2.61332 1.04
0 0 3 1 o 741.710 382.108 0.00 2.46230 5.32
0 0 3 2 o 639.944 382.108 0.00 2.46230 2.29
2 0 2 1 o 223.999 254.112 180.00 2.38512 9.50
2 0 2 2 o 204.064 254.112 180.00 2.38512 4.33
1 0 3 1 o 23.480 14.302 180.00 2.29081 0.66
1 0 3 2 o 33.899 14.302 180.00 2.29081 0.47
2 1 2 1 o 65.986 57.159 0.00 2.22826 4.00
2 1 2 2 o 62.767 57.159 0.00 2.22826 1.89
2 2 0 1 o 821.055 897.432 0.00 2.20886 14.46
2 2 0 2 o 814.747 897.432 0.00 2.20886 7.14
1 1 3 1 o 106.675 139.354 0.00 2.15078 2.81
1 1 3 2 o 111.391 139.354 0.00 2.15078 1.45
2 2 1 1 o 239.053 168.789 0.00 2.11627 7.71
2 2 1 2 o 222.649 168.789 0.00 2.11627 3.58
3 0 1 1 o -0.167 9.811 0.00 2.00440 0.00
3 0 1 2 o -0.167 9.811 0.00 2.00440 0.00
3 1 0 1 o 25.451 0.162 0.00 1.97567 0.45
3 1 0 2 o 15.029 0.162 0.00 1.97567 0.13
2 0 3 1 o 235.378 182.061 180.00 1.93378 5.06
2 0 3 2 o 221.027 182.061 180.00 1.93378 2.37
3 1 1 1 o 133.808 138.577 180.00 1.90858 5.84
3 1 1 2 o 123.414 138.577 180.00 1.90858 2.69
2 2 2 1 o 160.852 123.786 0.00 1.89571 3.55
2 2 2 2 o 151.120 123.786 0.00 1.89571 1.66
2 1 3 1 o 3.668 4.528 0.00 1.84731 0.13
0 0 4 1 o 10.395 12.697 0.00 1.84673 0.05
2 1 3 2 o -0.099 4.528 0.00 1.84731 0.00
0 0 4 2 o -2.986 12.697 0.00 1.84673 0.00
3 0 2 1 o 16.058 42.629 0.00 1.81404 0.38
3 0 2 2 o 7.432 42.629 0.00 1.81404 0.09
1 0 4 1 o 4.236 0.580 180.00 1.77098 0.06
1 0 4 2 o 7.974 0.580 180.00 1.77098 0.06
3 1 2 1 o 123.822 98.275 180.00 1.74209 4.96
3 1 2 2 o 119.810 98.275 180.00 1.74209 2.39
1 1 4 1 o 253.203 249.974 0.00 1.70385 3.61
1 1 4 2 o 245.169 249.974 0.00 1.70385 1.74
3 2 1 1 o 6.068 1.246 180.00 1.68698 0.20
3 2 1 2 o 5.505 1.246 180.00 1.68698 0.09
2 2 3 1 o 75.111 94.415 0.00 1.64423 1.04
2 2 3 2 o 65.910 94.415 0.00 1.64423 0.46
3 0 3 1 o 2.239 1.830 0.00 1.59008 0.03
2 0 4 1 o 5.727 4.755 180.00 1.58971 0.09
3 0 3 2 o 2.266 1.830 0.00 1.59008 0.02
2 0 4 2 o 6.004 4.755 180.00 1.58971 0.04
3 2 2 1 o 19.668 37.651 180.00 1.56872 0.57
3 2 2 2 o 25.614 37.651 180.00 1.56872 0.36
4 0 0 1 o 253.397 229.099 0.00 1.56190 1.23
4 0 0 2 o 258.779 229.099 0.00 1.56190 0.62
3 1 3 1 o 67.564 43.161 180.00 1.54096 1.85
2 1 4 1 o 1.195 0.778 0.00 1.54062 0.03
3 1 3 2 o 67.221 43.161 180.00 1.54096 0.92
2 1 4 2 o 1.194 0.778 0.00 1.54062 0.01
4 0 1 1 o 118.033 58.499 0.00 1.52812 1.38
4 0 1 2 o 86.795 58.499 0.00 1.52812 0.51
4 1 1 1 o -0.016 0.481 180.00 1.48436 0.00
4 1 1 2 o 0.243 0.481 180.00 1.48436 0.00
0 0 5 1 o -2.097 13.627 0.00 1.47738 0.00
0 0 5 2 o 31.384 13.627 0.00 1.47738 0.03
3 3 0 1 o 17.144 3.113 0.00 1.47257 0.12
3 3 0 2 o 27.481 3.113 0.00 1.47257 0.09
3 3 1 1 o 17.875 24.469 0.00 1.44416 0.25
3 3 1 2 o 19.262 24.469 0.00 1.44416 0.13
4 0 2 1 o 40.920 39.017 0.00 1.43856 0.55
1 0 5 1 o 7.603 7.454 180.00 1.43773 0.06
4 0 2 2 o 24.463 39.017 0.00 1.43856 0.17
1 0 5 2 o 4.368 7.454 180.00 1.43773 0.02
3 2 3 1 o 0.723 0.408 180.00 1.41706 0.01
2 2 4 1 o 3.897 1.539 0.00 1.41680 0.04
3 2 3 2 o -0.017 0.408 180.00 1.41706 0.00
2 2 4 2 o -0.754 1.539 0.00 1.41680 0.00
4 1 2 1 o 12.720 24.348 180.00 1.40188 0.29
1 1 5 1 o 42.987 70.816 0.00 1.40111 0.39
4 1 2 2 o 27.447 24.348 180.00 1.40188 0.31
1 1 5 2 o 90.620 70.816 0.00 1.40111 0.39
4 2 0 1 o 146.447 106.908 180.00 1.39701 1.30
4 2 0 2 o 171.623 106.908 180.00 1.39701 0.76
3 0 4 1 o 2.856 0.611 0.00 1.38171 0.03
3 0 4 2 o -0.014 0.611 0.00 1.38171 0.00
4 2 1 1 o 90.515 44.254 180.00 1.37268 1.68
4 2 1 2 o 74.959 44.254 180.00 1.37268 0.70
3 3 2 1 o 53.833 32.519 0.00 1.36786 0.59
3 3 2 2 o 37.447 32.519 0.00 1.36786 0.21
3 1 4 1 o 71.903 92.506 180.00 1.34911 1.31
3 1 4 2 o 47.098 92.506 180.00 1.34911 0.44
2 0 5 1 o -1.348 8.748 180.00 1.33555 0.00
2 0 5 2 o -1.348 8.748 180.00 1.33555 0.00
4 0 3 1 o 18.788 29.556 0.00 1.31893 0.22
4 0 3 2 o 42.183 29.556 0.00 1.31893 0.23
4 2 2 1 o 53.786 21.887 180.00 1.30666 1.00
2 1 5 1 o 6.254 2.547 0.00 1.30604 0.09
4 2 2 2 o 48.098 21.887 180.00 1.30666 0.44
2 1 5 2 o 4.491 2.547 0.00 1.30604 0.03
4 1 3 1 o -0.014 0.318 180.00 1.29049 0.00
4 1 3 2 o 0.589 0.318 180.00 1.29049 0.01
3 3 3 1 o 32.615 15.534 0.00 1.26381 0.27
3 2 4 1 o 1.517 0.685 180.00 1.26362 0.02
3 3 3 2 o 2.858 15.534 0.00 1.26381 0.02
3 2 4 2 o -0.016 0.685 180.00 1.26362 0.00
4 3 1 1 o 1.445 0.465 180.00 1.23202 0.02
5 0 1 1 o 0.170 0.052 180.00 1.23202 0.00
0 0 6 1 o 14.614 7.368 0.00 1.23115 0.02
4 3 1 2 o -0.002 0.465 180.00 1.23202 0.00
5 0 1 2 o -0.003 0.052 180.00 1.23202 0.00
0 0 6 2 o -1.025 7.368 0.00 1.23115 0.00
2 2 5 1 o -0.878 5.768 0.00 1.22802 0.00
5 1 0 1 o 1.177 0.095 0.00 1.22526 0.01
2 2 5 2 o 34.855 5.768 0.00 1.22802 0.11
5 1 0 2 o 2.687 0.095 0.00 1.22526 0.01
4 2 3 1 o 24.377 17.020 180.00 1.21507 0.40
4 2 3 2 o 30.551 17.020 180.00 1.21507 0.24
5 1 1 1 o 17.309 10.203 0.00 1.20874 0.22
1 0 6 1 o 53.666 35.578 0.00 1.20792 0.30
5 1 1 2 o 11.432 10.203 0.00 1.20874 0.07
3 0 5 1 o 0.776 1.024 0.00 1.20496 0.01
1 0 6 2 o 26.666 35.578 0.00 1.20792 0.08
3 0 5 2 o -0.013 1.024 0.00 1.20496 0.00
4 0 4 1 o 3.312 0.062 0.00 1.19256 0.03
4 0 4 2 o 1.660 0.062 0.00 1.19256 0.01
1 1 6 1 o 22.849 20.105 0.00 1.18596 0.14
5 0 2 1 o 10.796 11.437 180.00 1.18362 0.08
4 3 2 1 o 17.520 18.559 0.00 1.18362 0.27
3 1 5 1 o 21.446 22.865 180.00 1.18316 0.29
1 1 6 2 o 18.844 20.105 0.00 1.18596 0.06
5 0 2 2 o 9.880 11.437 180.00 1.18362 0.04
4 3 2 2 o 16.035 18.559 0.00 1.18362 0.12
3 1 5 2 o 17.118 22.865 180.00 1.18316 0.12
4 1 4 1 o -0.009 0.337 180.00 1.17141 0.00
4 1 4 2 o 7.031 0.337 180.00 1.17141 0.05
5 1 2 1 o 30.258 10.173 0.00 1.16294 0.44
5 1 2 2 o 25.664 10.173 0.00 1.16294 0.19
3 3 4 1 o 32.903 39.475 0.00 1.15135 0.21
3 3 4 2 o 26.772 39.475 0.00 1.15135 0.09
5 2 1 1 o 0.072 0.140 180.00 1.14610 0.00
2 0 6 1 o 0.106 5.230 180.00 1.14540 0.00
5 2 1 2 o 0.465 0.140 180.00 1.14610 0.00
2 0 6 2 o 33.242 5.230 180.00 1.14540 0.09
2 1 6 1 o 26.202 18.520 180.00 1.12663 0.29
3 2 5 1 o 0.255 0.171 180.00 1.12423 0.00
2 1 6 2 o 32.787 18.520 180.00 1.12663 0.18
3 2 5 2 o 1.753 0.171 180.00 1.12423 0.01
4 3 3 1 o 0.000 0.000 180.00 1.11426 0.00
5 0 3 1 o -0.009 0.190 180.00 1.11426 0.00
4 2 4 1 o -0.043 0.011 0.00 1.11413 0.00
4 3 3 2 o 0.001 0.000 180.00 1.11426 0.00
5 0 3 2 o 4.974 0.190 180.00 1.11426 0.02
4 2 4 2 o 1.319 0.011 0.00 1.11413 0.01
5 2 2 1 o 9.943 11.161 0.00 1.10683 0.13
4 4 0 1 o 25.245 14.346 0.00 1.10443 0.09
5 2 2 2 o 19.584 11.161 0.00 1.10683 0.12
4 4 0 2 o 40.664 14.346 0.00 1.10443 0.07
5 1 3 1 o 10.481 5.754 0.00 1.09695 0.16
5 1 3 2 o 1.577 5.754 0.00 1.09695 0.02
4 4 1 1 o 25.266 15.897 0.00 1.09229 0.19
