#------------------------------------------------------------------------------
#$Date: 2016-02-14 16:26:36 +0200 (Sun, 14 Feb 2016) $
#$Revision: 176435 $
#$URL: svn://www.crystallography.net/cod/cif/1/51/62/1516211.cif $
#------------------------------------------------------------------------------
#
# This file is available in the Crystallography Open Database (COD),
# http://www.crystallography.net/
#
# All data on this site have been placed in the public domain by the
# contributors.
#
data_1516211
loop_
_publ_author_name
'Migliorati, Valentina'
'Ballirano, Paolo'
'Gontrani, Lorenzo'
'Russina, Olga'
'Caminiti, Ruggero'
_publ_section_title
;
 Crystal polymorphism of propylammonium chloride and structural properties
 of its mixture with water.
;
_journal_issue                   41
_journal_name_full               'The journal of physical chemistry. B'
_journal_page_first              11805
_journal_page_last               11815
_journal_paper_doi               10.1021/jp206831d
_journal_volume                  115
_journal_year                    2011
_chemical_formula_sum            'C3 Cl N'
_chemical_formula_weight         85.49
_chemical_name_systematic        ' ?'
_space_group_IT_number           129
_symmetry_cell_setting           tetragonal
_symmetry_space_group_name_Hall  '-P 4a 2a'
_symmetry_space_group_name_H-M   'P 4/n m m :2'
_audit_creation_date             2011-07-21T08:54
_audit_creation_method           'from EXP file using GSAS2CIF'
_audit_update_record
' 2011-07-21T08:54  Initial CIF as created by GSAS2CIF'
_cell_angle_alpha                90.0
_cell_angle_beta                 90.0
_cell_angle_gamma                90.0
_cell_formula_units_Z            2
_cell_length_a                   6.25021(7)
_cell_length_b                   6.25021
_cell_length_c                   7.38992(18)
_cell_volume                     288.688(8)
_computing_structure_refinement  GSAS
_diffrn_radiation_probe          x-ray
_exptl_absorpt_correction_T_max  0.81792
_exptl_absorpt_correction_T_min  0.81483
_exptl_absorpt_process_details
;   GSAS Absorption/surface roughness correction: function number 0
 Debye-Scherrer absorption correction
Term (= MU.r/wave) =     0.78580E-01
Correction is not refined.
;
_pd_block_id                     2011-07-21T08:54|45|paolo|Bruker_AXS_D8_Advance
_pd_calc_method                  'Rietveld Refinement'
_pd_instr_location               ' ?'
_pd_meas_2theta_range_inc        0.022
_pd_meas_2theta_range_max        89.988
_pd_meas_2theta_range_min        3.0
_pd_meas_number_of_points        3955
_pd_phase_name                   'Propylammonium chloride'
_pd_proc_2theta_range_inc        0.022
_pd_proc_2theta_range_max        89.988
_pd_proc_2theta_range_min        3.0
_pd_proc_info_datetime           2011-07-21T08:54:22
_pd_proc_info_excluded_regions   ' ?'
_pd_proc_ls_background_function
;   GSAS Background function number 1 with 30 terms.
 Shifted Chebyshev function of 1st kind
      1:    514.539     2:   -360.785     3:    54.7762     4:    75.1962    
      5:   -70.6581     6:  -0.935294     7:    66.8004     8:   -77.2707    
      9:    37.2398    10:    8.34702    11:   -27.7784    12:    23.0211    
     13:   -5.13456    14:   -8.80692    15:    3.72742    16:   0.159249    
     17:   -1.18791    18:   -1.27981    19:    2.08608    20:   4.889680E-02
     21:   -3.84971    22:    2.14303    23:  -0.404629    24:   -2.32334    
     25:    4.47123    26:   -3.26451    27:   -1.06144    28:    1.82951    
     29:   -2.86271    30:   0.308121    
;
_pd_proc_ls_peak_cutoff          0.00100
_pd_proc_ls_profile_function
;
 CW Profile function number 3 with  19 terms
 Pseudovoigt profile coefficients as parameterized in
 P. Thompson, D.E. Cox & J.B. Hastings (1987). J. Appl. Cryst.,20,79-83.
 Asymmetry correction of L.W. Finger, D.E. Cox & A. P. Jephcoat (1994).
 J. Appl. Cryst.,27,892-900.
 Peak tails are ignored  where the intensity is below 0.0010 times the peak
   Aniso. broadening axis   0.0   1.0   0.0
;
_pd_proc_ls_prof_R_factor        0.0444
_pd_proc_ls_prof_wR_expected     0.0412
_pd_proc_ls_prof_wR_factor       0.0601
_pd_proc_number_of_points        3955
_pd_spec_mounting                ' ?'
_refine_ls_goodness_of_fit_all   1.47
_refine_ls_matrix_type           full
_refine_ls_number_parameters     47
_refine_ls_number_restraints     8
_refine_ls_R_Fsqd_factor         0.16249
_refine_ls_shift/su_max          0.08
_refine_ls_shift/su_mean         0.00
_reflns_d_resolution_high        1.093
_reflns_d_resolution_low         7.390
_reflns_limit_h_max              5
_reflns_limit_h_min              0
_reflns_limit_k_max              4
_reflns_limit_k_min              0
_reflns_limit_l_max              6
_reflns_limit_l_min              0
_reflns_number_total             174
_cod_data_source_file            318K.cif
_cod_data_source_block           45_publ
_cod_depositor_comments
;
The following automatic conversions were performed:

'_geom_bond_publ_flag' value 'N' changed to 'n' according to
/usr/data/users/saulius/automatic-downloads/retrospective/ACS/lib/dictionaries/cif_core.dic
dictionary named 'cif_core.dic' version 2.4.2 from 2011-04-26 (24
times).

'_geom_angle_publ_flag' value 'N' changed to 'n' according
to
/usr/data/users/saulius/automatic-downloads/retrospective/ACS/lib/dictionaries/cif_core.dic
dictionary named 'cif_core.dic' version 2.4.2 from 2011-04-26 (68
times).

Automatic conversion script
Id: cif_fix_values 2281 2013-09-26 08:29:07Z andrius 
;
_cod_original_cell_volume        288.688(10)
_cod_original_sg_symbol_H-M      'p 4/n m m'
_cod_original_formula_sum        'C3.00 Cl N'
_cod_database_code               1516211
#BEGIN Tags that were not found in dictionaries:
_gsas_exptl_extinct_corr_t_min   1.00000
_gsas_exptl_extinct_corr_t_max   1.00000
#END Tags that were not found in dictionaries
loop_
_symmetry_equiv_pos_site_id
_symmetry_equiv_pos_as_xyz
1 +x,+y,+z
2 -y+1/2,+x,+z
3 -x+1/2,-y+1/2,+z
4 +y,-x+1/2,+z
5 -x+1/2,+y,+z
6 -y+1/2,-x+1/2,+z
7 +x,-y+1/2,+z
8 +y,+x,+z
-1 -x,-y,-z
-2 +y+1/2,-x,-z
-3 +x+1/2,+y+1/2,-z
-4 -y,+x+1/2,-z
-5 +x+1/2,-y,-z
-6 +y+1/2,+x+1/2,-z
-7 -x,+y+1/2,-z
-8 -y,-x,-z
loop_
_atom_site_type_symbol
_atom_site_label
_atom_site_fract_x
_atom_site_fract_y
_atom_site_fract_z
_atom_site_occupancy
_atom_site_thermal_displace_type
_atom_site_U_iso_or_equiv
_atom_site_symmetry_multiplicity
Cl CL1 0.25 -0.25 0.0 1.0 Uiso 0.1098(9) 2
C C(1) 0.25 0.3341(6) 0.29874(33) 0.25 Uiso 0.0655(16) 8
N N 0.25 0.25 0.11322(29) 1.0 Uiso 0.0655(16) 2
C C(2) 0.25 0.1493(5) 0.43708(29) 0.25 Uiso 0.0655(16) 8
C C(3) 0.25 0.25 0.6291(4) 1.0 Uiso 0.0655(16) 2
loop_
_atom_type_symbol
_atom_type_number_in_cell
_atom_type_scat_dispersion_real
_atom_type_scat_dispersion_imag
_atom_type_scat_Cromer_Mann_a1
_atom_type_scat_Cromer_Mann_a2
_atom_type_scat_Cromer_Mann_a3
_atom_type_scat_Cromer_Mann_a4
_atom_type_scat_Cromer_Mann_b1
_atom_type_scat_Cromer_Mann_b2
_atom_type_scat_Cromer_Mann_b3
_atom_type_scat_Cromer_Mann_b4
_atom_type_scat_Cromer_Mann_c
_atom_type_scat_source
Cl 2.0 0.000 0.000 11.4604 0.01040 7.19640 1.16620 6.25560 18.5194 1.64550
47.7784 -9.5574 International_Tables_Vol_C
C 6.0 0.000 0.000 2.31000 20.8439 1.02000 10.2075 1.58860 0.56870 0.86500
51.6512 0.21560 International_Tables_Vol_C
N 2.0 0.000 0.000 12.2126 0.00570 3.13220 9.89330 2.01250 28.9975 1.16630
0.58260 -11.529 International_Tables_Vol_C
loop_
_diffrn_radiation_wavelength
_diffrn_radiation_wavelength_wt
_diffrn_radiation_type
_diffrn_radiation_wavelength_id
1.540598 1.000 K\a~1~ 1
1.544390 0.500 K\a~2~ 2
loop_
_geom_angle_atom_site_label_1
_geom_angle_atom_site_label_2
_geom_angle_atom_site_label_3
_geom_angle
_geom_angle_site_symmetry_1
_geom_angle_site_symmetry_3
_geom_angle_publ_flag
C(1) C(1) C(1) 45.0 2_555 3_555 n
C(1) C(1) C(1) 90.0 2_555 4_555 n
C(1) C(1) N 75.33(10) 2_555 1_555 n
C(1) C(1) C(2) 58.03(8) 2_555 1_555 n
C(1) C(1) C(2) 93.20(16) 2_555 2_555 n
C(1) C(1) C(2) 94.08(20) 2_555 3_555 n
C(1) C(1) C(2) 51.45(15) 2_555 4_555 n
C(1) C(1) C(1) 45.0 3_555 4_555 n
C(1) C(1) N 69.02(14) 3_555 1_555 n
C(1) C(1) C(2) 41.51(15) 3_555 1_555 n
C(1) C(1) C(2) 66.35(16) 3_555 2_555 n
C(1) C(1) C(2) 95.78(28) 3_555 3_555 n
C(1) C(1) C(2) 66.35(16) 3_555 4_555 n
C(1) C(1) N 75.33(10) 4_555 1_555 n
C(1) C(1) C(2) 58.03(8) 4_555 1_555 n
C(1) C(1) C(2) 51.45(15) 4_555 2_555 n
C(1) C(1) C(2) 94.08(20) 4_555 3_555 n
C(1) C(1) C(2) 93.20(16) 4_555 4_555 n
N C(1) C(2) 110.53(25) 1_555 1_555 n
N C(1) C(2) 125.78(24) 1_555 2_555 n
N C(1) C(2) 164.8(4) 1_555 3_555 n
N C(1) C(2) 125.78(24) 1_555 4_555 n
C(2) C(1) C(2) 35.17(17) 1_555 2_555 n
C(2) C(1) C(2) 54.27(31) 1_555 3_555 n
C(2) C(1) C(2) 35.17(17) 1_555 4_555 n
C(2) C(1) C(2) 42.63(24) 2_555 3_555 n
C(2) C(1) C(2) 57.39(30) 2_555 4_555 n
C(2) C(1) C(2) 42.63(24) 3_555 4_555 n
C(1) N C(1) 29.33(19) 1_555 2_555 n
C(1) N C(1) 41.96(28) 1_555 3_555 n
C(1) N C(1) 29.33(19) 1_555 4_555 n
C(1) N C(1) 29.33(19) 2_555 3_555 n
C(1) N C(1) 41.96(28) 2_555 4_555 n
C(1) N C(1) 29.33(19) 3_555 4_555 n
C(1) C(2) C(1) 28.77(18) 1_555 2_555 n
C(1) C(2) C(1) 42.71(32) 1_555 3_555 n
C(1) C(2) C(1) 28.77(18) 1_555 4_555 n
C(1) C(2) C(2) 58.03(8) 1_555 2_555 n
C(1) C(2) C(2) 41.51(15) 1_555 3_555 n
C(1) C(2) C(2) 58.03(8) 1_555 4_555 n
C(1) C(2) C(3) 107.60(23) 1_555 1_555 n
C(1) C(2) C(1) 34.47(26) 2_555 3_555 n
C(1) C(2) C(1) 47.30(32) 2_555 4_555 n
C(1) C(2) C(2) 86.80(16) 2_555 2_555 n
C(1) C(2) C(2) 61.31(15) 2_555 3_555 n
C(1) C(2) C(2) 51.45(15) 2_555 4_555 n
C(1) C(2) C(3) 121.23(23) 2_555 1_555 n
C(1) C(2) C(1) 34.47(26) 3_555 4_555 n
C(1) C(2) C(2) 85.92(20) 3_555 2_555 n
C(1) C(2) C(2) 84.22(28) 3_555 3_555 n
C(1) C(2) C(2) 85.92(20) 3_555 4_555 n
C(1) C(2) C(3) 150.3(4) 3_555 1_555 n
C(1) C(2) C(2) 51.45(15) 4_555 2_555 n
C(1) C(2) C(2) 61.31(15) 4_555 3_555 n
C(1) C(2) C(2) 86.80(16) 4_555 4_555 n
C(1) C(2) C(3) 121.23(23) 4_555 1_555 n
C(2) C(2) C(2) 45.0 2_555 3_555 n
C(2) C(2) C(2) 90.0 2_555 4_555 n
C(2) C(2) C(3) 73.34(8) 2_555 1_555 n
C(2) C(2) C(2) 45.0 3_555 4_555 n
C(2) C(2) C(3) 66.08(13) 3_555 1_555 n
C(2) C(2) C(3) 73.34(8) 4_555 1_555 n
C(2) C(3) C(2) 33.32(17) 1_555 2_555 n
C(2) C(3) C(2) 47.83(25) 1_555 3_555 n
C(2) C(3) C(2) 33.32(17) 1_555 4_555 n
C(2) C(3) C(2) 33.32(17) 2_555 3_555 n
C(2) C(3) C(2) 47.83(25) 2_555 4_555 n
C(2) C(3) C(2) 33.32(17) 3_555 4_555 n
loop_
_geom_bond_atom_site_label_1
_geom_bond_atom_site_label_2
_geom_bond_distance
_geom_bond_site_symmetry_2
_geom_bond_publ_flag
C(1) C(1) 0.744(5) 2_555 n
C(1) C(1) 1.051(7) 3_555 n
C(1) C(1) 0.744(5) 4_555 n
C(1) N 1.4684(33) 1_555 n
C(1) C(2) 1.542(4) 1_555 n
C(1) C(2) 1.3105(33) 2_555 n
C(1) C(2) 1.0275(33) 3_555 n
C(1) C(2) 1.3105(33) 4_555 n
N C(1) 1.4684(33) 1_555 n
N C(1) 1.4684(33) 2_555 n
N C(1) 1.4684(33) 3_555 n
N C(1) 1.4684(33) 4_555 n
C(2) C(1) 1.542(4) 1_555 n
C(2) C(1) 1.3105(33) 2_555 n
C(2) C(1) 1.0275(33) 3_555 n
C(2) C(1) 1.3105(33) 4_555 n
C(2) C(2) 0.890(5) 2_555 n
C(2) C(2) 1.258(7) 3_555 n
C(2) C(2) 0.890(5) 4_555 n
C(2) C(3) 1.5521(35) 1_555 n
C(3) C(2) 1.5521(35) 1_555 n
C(3) C(2) 1.5521(35) 2_555 n
C(3) C(2) 1.5521(35) 3_555 n
C(3) C(2) 1.5521(35) 4_555 n
loop_
_pd_meas_counts_total
_pd_proc_ls_weight
_pd_proc_intensity_bkg_calc
_pd_calc_intensity_total
21659.0 0.0 -22989172.00000 .
20812.0 0.0 -22408728.00000 .
19726.0 0.0 -21841954.00000 .
19495.0 0.0 -21288520.00000 .
18728.0 0.0 -20748148.00000 .
18060.0 0.0 -20220548.00000 .
17474.0 0.0 -19705456.00000 .
16936.0 0.0 -19202578.00000 .
16440.0 0.0 -18711648.00000 .
15839.0 0.0 -18232410.00000 .
15052.0 0.0 -17764600.00000 .
14761.0 0.0 -17307954.00000 .
14124.0 0.0 -16862240.00000 .
13871.0 0.0 -16427217.00000 .
13590.0 0.0 -16002625.00000 .
12971.0 0.0 -15588251.00000 .
12570.0 0.0 -15183852.00000 .
12293.0 0.0 -14789235.00000 .
11812.0 0.0 -14404146.00000 .
11471.0 0.0 -14028385.00000 .
11268.0 0.0 -13661740.00000 .
10967.0 0.0 -13304005.00000 .
10592.0 0.0 -12954985.00000 .
10318.0 0.0 -12614473.00000 .
10023.0 0.0 -12282284.00000 .
9998.0 0.0 -11958233.00000 .
9568.0 0.0 -11642116.00000 .
9327.0 0.0 -11333773.00000 .
9010.0 0.0 -11033022.00000 .
8822.0 0.0 -10739685.00000 .
8678.0 0.0 -10453594.00000 .
8337.0 0.0 -10174577.00000 .
8288.0 0.0 -9902486.00000 .
8000.0 0.0 -9637151.00000 .
7976.0 0.0 -9378418.00000 .
7715.0 0.0 -9126138.00000 .
7622.0 0.0 -8880155.00000 .
7156.0 0.0 -8640328.00000 .
7169.0 0.0 -8406516.00000 .
6953.0 0.0 -8178575.00000 .
6890.0 0.0 -7956366.00000 .
6762.0 0.0 -7739762.50000 .
6464.0 0.0 -7528630.50000 .
6290.0 0.0 -7322840.50000 .
6309.0 0.0 -7122272.50000 .
6139.0 0.0 -6926795.00000 .
6199.0 0.0 -6736297.00000 .
6017.0 0.0 -6550656.00000 .
5847.0 0.0 -6369755.50000 .
5793.0 0.0 -6193489.00000 .
5761.0 0.0 -6021745.50000 .
5798.0 0.0 -5854410.50000 .
5523.0 0.0 -5691387.00000 .
5318.0 0.0 -5532575.50000 .
5311.0 0.0 -5377865.50000 .
5249.0 0.0 -5227160.00000 .
5179.0 0.0 -5080367.50000 .
5103.0 0.0 -4937399.00000 .
4999.0 0.0 -4798148.00000 .
4944.0 0.0 -4662537.50000 .
4802.0 0.0 -4530473.50000 .
4767.0 0.0 -4401874.50000 .
4816.0 0.0 -4276651.50000 .
4662.0 0.0 -4154725.50000 .
4572.0 0.0 -4036016.25000 .
4652.0 0.0 -3920447.00000 .
4473.0 0.0 -3807935.50000 .
4411.0 0.0 -3698412.00000 .
4338.0 0.0 -3591800.00000 .
4386.0 0.0 -3488033.75000 .
4258.0 0.0 -3387033.25000 .
4297.0 0.0 -3288738.00000 .
4253.0 0.0 -3193080.25000 .
4102.0 0.0 -3099995.75000 .
4041.0 0.0 -3009417.25000 .
4025.0 0.0 -2921282.00000 .
4000.0 0.0 -2835532.00000 .
3979.0 0.0 -2752107.00000 .
3856.0 0.0 -2670946.50000 .
3856.0 0.0 -2591997.50000 .
3731.0 0.0 -2515202.50000 .
3849.0 0.0 -2440506.75000 .
3691.0 0.0 -2367859.50000 .
3722.0 0.0 -2297206.00000 .
3686.0 0.0 -2228498.25000 .
3650.0 0.0 -2161686.50000 .
3590.0 0.0 -2096720.12500 .
3507.0 0.0 -2033556.75000 .
3527.0 0.0 -1972146.87500 .
3359.0 0.0 -1912445.87500 .
3445.0 0.0 -1854409.62500 .
3371.0 0.0 -1797995.87500 .
3280.0 0.0 -1743165.62500 .
3357.0 0.0 -1689875.50000 .
3291.0 0.0 -1638084.50000 .
3276.0 0.0 -1587754.50000 .
3271.0 0.0 -1538850.25000 .
3221.0 0.0 -1491330.12500 .
3180.0 0.0 -1445162.00000 .
3167.0 0.0 -1400310.12500 .
3147.0 0.0 -1356737.00000 .
3084.0 0.0 -1314412.00000 .
3183.0 0.0 -1273299.12500 .
3038.0 0.0 -1233371.25000 .
2988.0 0.0 -1194595.87500 .
3033.0 0.0 -1156936.87500 .
3013.0 0.0 -1120371.37500 .
2943.0 0.0 -1084865.75000 .
2948.0 0.0 -1050394.62500 .
2908.0 0.0 -1016930.25000 .
2941.0 0.0 -984443.43750 .
2905.0 0.0 -952910.81250 .
2801.0 0.0 -922303.12500 .
2769.0 0.0 -892598.62500 .
2748.0 0.0 -863773.37500 .
2692.0 0.0 -835799.25000 .
2733.0 0.0 -808657.68750 .
2726.0 0.0 -782322.62500 .
2841.0 0.0 -756774.81250 .
2739.0 0.0 -731992.56250 .
2663.0 0.0 -707951.31250 .
2652.0 0.0 -684634.93750 .
2635.0 0.0 -662021.12500 .
2531.0 0.0 -640091.18750 .
2652.0 0.0 -618827.06250 .
2562.0 0.0 -598207.81250 .
2425.0 0.0 -578218.37500 .
2442.0 0.0 -558838.56250 .
2467.0 0.0 -540053.00000 .
2450.0 0.0 -521845.96875 .
2421.0 0.0 -504198.21875 .
2396.0 0.0 -487096.93750 .
2399.0 0.0 -470524.09375 .
2393.0 0.0 -454466.75000 .
2400.0 0.0 -438910.50000 .
2369.0 0.0 -423838.96875 .
2380.0 0.0 -409240.21875 .
2344.0 0.0 -395099.40625 .
2398.0 0.0 -381404.43750 .
2224.0 0.0 -368142.93750 .
2319.0 0.0 -355300.53125 .
2263.0 0.0 -342866.78125 .
2283.0 0.0 -330828.18750 .
2271.0 0.0 -319174.93750 .
2229.0 0.0 -307896.00000 .
2249.0 0.0 -296978.56250 .
2224.0 0.0 -286414.00000 .
2207.0 0.0 -276190.28125 .
2239.0 0.0 -266298.28125 .
2163.0 0.0 -256728.84375 .
2190.0 0.0 -247470.68750 .
2183.0 0.0 -238516.23438 .
2112.0 0.0 -229855.09375 .
2098.0 0.0 -221479.68750 .
2059.0 0.0 -213381.21875 .
2027.0 0.0 -205550.34375 .
2013.0 0.0 -197980.07813 .
1983.0 0.0 -190661.96875 .
2055.0 0.0 -183589.01563 .
2043.0 0.0 -176753.51563 .
1979.0 0.0 -170147.71875 .
1940.0 0.0 -163765.29688 .
1967.0 0.0 -157598.85938 .
2001.0 0.0 -151642.01563 .
1928.0 0.0 -145888.85938 .
1928.0 0.0 -140331.89063 .
1925.0 0.0 -134966.14063 .
1930.0 0.0 -129784.83594 .
1912.0 0.0 -124782.65625 .
1869.0 0.0 -119954.32031 .
1878.0 0.0 -115293.68750 .
1764.0 0.0 -110795.89844 .
1744.0 0.0 -106455.50000 .
1815.0 0.0 -102267.85938 .
1828.0 0.0 -98228.14844 .
1820.0 0.0 -94331.15625 .
1749.0 0.0 -90572.73438 .
1830.0 0.0 -86948.33594 .
1774.0 0.0 -83453.56250 .
1777.0 0.0 -80084.60938 .
1734.0 0.0 -76836.71875 .
1740.0 0.0 -73706.61719 .
1717.0 0.0 -70689.93750 .
1699.0 0.0 -67783.31250 .
1731.0 0.0 -64983.19141 .
1733.0 0.0 -62285.64063 .
1665.0 0.0 -59687.74609 .
1698.0 0.0 -57185.76953 .
1676.0 0.0 -54776.89844 .
1677.0 0.0 -52457.90234 .
1630.0 0.0 -50225.57031 .
1625.0 0.0 -48077.21875 .
1619.0 0.0 -46009.86328 .
1575.0 0.0 -44020.92969 .
1540.0 0.0 -42107.73438 .
1562.0 0.0 -40267.44141 .
1565.0 0.0 -38497.82031 .
1616.0 0.0 -36796.24219 .
1581.0 0.0 -35160.53906 .
1646.0 0.0 -33588.47266 .
1496.0 0.0 -32077.55078 .
1490.0 0.0 -30625.90039 .
1482.0 0.0 -29231.27539 .
1545.0 0.0 -27891.74609 .
1533.0 0.0 -26605.46484 .
1464.0 0.0 -25370.35742 .
1529.0 0.0 -24184.76563 .
1569.0 0.0 -23046.78320 .
1494.0 0.0 -21954.80469 .
1509.0 0.0 -20907.18945 .
1468.0 0.0 -19902.18750 .
1422.0 0.0 -18938.40625 .
1464.0 0.0 -18014.26563 .
1397.0 0.0 -17128.33203 .
1515.0 0.0 -16279.24316 .
1410.0 0.0 -15465.55664 .
1394.0 0.0 -14686.04492 .
1386.0 0.0 -13939.34180 .
1341.0 0.0 -13224.30273 .
1374.0 0.0 -12539.75781 .
1390.0 0.0 -11884.44922 .
1416.0 0.0 -11257.37109 .
1322.0 0.0 -10657.38477 .
1353.0 0.0 -10083.48730 .
1360.0 0.0 -9534.68555 .
1276.0 0.0 -9009.97852 .
1284.0 0.0 -8508.46094 .
1287.0 0.0 -8029.19043 .
1277.0 0.0 -7571.34326 .
1242.0 0.0 -7134.10010 .
1284.0 0.0 -6716.54785 .
1251.0 0.0 -6318.00342 .
1245.0 0.0 -5937.64697 .
1241.0 0.0 -5574.77393 .
1183.0 0.0 -5228.70752 .
1243.0 0.0 -4898.69824 .
1173.0 0.0 -4584.15723 .
1158.0 0.0 -4284.40381 .
1160.0 0.0 -3998.87476 .
1154.0 0.0 -3726.95898 .
1191.0 0.0 -3468.08545 .
1137.0 0.0 -3221.72778 .
1186.0 0.0 -2987.32422 .
1208.0 0.0 -2764.40991 .
1119.0 0.0 -2552.49438 .
1193.0 0.0 -2351.07031 .
1157.0 0.0 -2159.72583 .
1114.0 0.0 -1978.00476 .
1128.0 0.0 -1805.49438 .
1125.0 0.0 -1641.79749 .
1096.0 0.0 -1486.51709 .
1125.0 0.0 -1339.29163 .
1076.0 0.0 -1199.74438 .
1035.0 0.0 -1067.55115 .
1102.0 0.0 -942.37567 .
1046.0 0.0 -823.88904 .
1090.0 0.0 -711.79449 .
1065.0 0.0 -605.79456 .
1073.0 0.0 -505.61151 .
1040.0 0.0 -410.97980 .
1060.0 0.0 -321.62033 .
1085.0 0.0 -237.30212 .
1059.0 0.0 -157.77638 .
1069.0 0.0 -82.81442 .
1067.0 0.0 -12.20228 .
1025.0 0.0 54.27874 .
1044.0 0.0 116.82603 .
971.0 0.0 175.63968 .
1071.0 0.0 230.89738 .
998.0 0.0 282.77985 .
1021.0 0.0 331.46118 .
1014.0 0.0 377.10199 .
1012.0 0.0 419.85770 .
1035.0 0.0 459.87738 .
1009.0 0.0 497.30130 .
1075.0 0.0 532.27313 .
992.0 0.0 564.91602 .
1005.0 0.0 595.35876 .
1043.0 0.0 623.71887 .
992.0 0.0 650.10938 .
982.0 0.0 674.63989 .
976.0 0.0 697.41266 .
981.0 0.0 718.52863 .
977.0 0.0 738.07922 .
1012.0 0.0 756.15356 .
969.0 0.0 772.84045 .
1009.0 0.0 788.21796 .
905.0 0.0 802.36542 .
956.0 0.0 815.35559 .
956.0 0.0 827.25745 .
1004.0 0.0 838.14038 .
939.0 0.0 848.06494 .
969.0 0.0 857.09259 .
979.0 0.0 865.27997 .
943.0 0.0 872.68073 .
978.0 0.0 879.34674 .
944.0 0.0 885.32605 .
983.0 0.0 890.66559 .
926.0 0.0 895.40796 .
935.0 0.0 899.59442 .
966.0 0.0 903.26471 .
927.0 0.0 906.45496 .
874.0 0.0 909.20026 .
946.0 0.0 911.53333 .
949.0 0.0 913.48505 .
934.0 0.0 915.08472 .
953.0 0.0 916.35962 .
916.0 0.0 917.33563 .
952.0 0.0 918.03699 .
875.0 0.0 918.48651 .
938.0 0.0 918.70563 .
970.0 0.0 918.71436 .
936.0 0.0 918.53137 .
869.0 0.0 918.17432 .
962.0 0.0 917.65973 .
894.0 0.0 917.00262 .
934.0 0.0 916.21747 .
926.0 0.0 915.31757 .
965.0 0.001036 914.31512 914.31390
917.0 0.001091 913.22174 913.22064
909.0 0.001100 912.04803 912.04694
897.0 0.001115 910.80383 910.80286
906.0 0.001104 909.49805 909.49713
885.0 0.001130 908.13934 908.13843
909.0 0.001100 906.73529 906.73444
932.0 0.001073 905.29291 905.29211
909.0 0.001100 903.81873 903.81793
939.0 0.001065 902.31866 902.31793
903.0 0.001107 900.79810 900.79736
893.0 0.001120 899.26202 899.26129
914.0 0.001094 897.71460 897.71393
864.0 0.001157 896.16010 896.15936
880.0 0.001136 894.60199 894.60132
921.0 0.001086 893.04340 893.04272
874.0 0.001144 891.48730 891.48663
821.0 0.001218 889.93616 889.93549
918.0 0.001089 888.39203 888.39136
827.0 0.001209 886.85699 886.85632
871.0 0.001148 885.33264 885.33191
908.0 0.001101 883.82037 883.81964
882.0 0.001134 882.32123 882.32050
862.0 0.001160 880.83606 880.83533
856.0 0.001168 879.36597 879.36523
874.0 0.001144 877.91107 877.91034
869.0 0.001151 876.47223 876.47144
849.0 0.001178 875.04938 875.04858
881.0 0.001135 873.64258 873.64178
880.0 0.001136 872.25201 872.25122
886.0 0.001129 870.87738 870.87659
819.0 0.001221 869.51862 869.51776
870.0 0.001149 868.17523 868.17444
864.0 0.001157 866.84680 866.84595
888.0 0.001126 865.53302 865.53217
850.0 0.001176 864.23322 864.23236
884.0 0.001131 862.94690 862.94598
871.0 0.001148 861.67322 861.67230
900.0 0.001111 860.41162 860.41071
907.0 0.001103 859.16150 859.16058
884.0 0.001131 857.92181 857.92090
884.0 0.001131 856.69214 856.69122
882.0 0.001134 855.47156 855.47058
861.0 0.001161 854.25922 854.25824
872.0 0.001147 853.05438 853.05341
842.0 0.001188 851.85626 851.85529
797.0 0.001255 850.66406 850.66309
879.0 0.001138 849.47717 849.47620
839.0 0.001192 848.29443 848.29346
861.0 0.001161 847.11554 849.79895
850.0 0.001176 845.93945 848.75824
838.0 0.001193 844.76563 849.10944
860.0 0.001163 843.59326 848.16522
843.0 0.001186 842.42169 847.24060
844.0 0.001185 841.25037 846.33667
809.0 0.001236 840.07849 845.45514
797.0 0.001255 838.90576 844.59833
828.0 0.001208 837.73145 843.76880
871.0 0.001148 836.55499 842.96942
846.0 0.001182 835.37592 842.20410
831.0 0.001203 834.19385 841.47717
822.0 0.001217 833.00830 840.79419
810.0 0.001235 831.81897 840.16132
853.0 0.001172 830.62524 839.58624
839.0 0.001192 829.42706 839.07849
849.0 0.001178 828.22400 838.64929
886.0 0.001129 827.01587 838.31250
820.0 0.001220 825.80249 838.08508
792.0 0.001263 824.58350 837.98810
826.0 0.001211 823.35889 838.04779
875.0 0.001143 822.12848 838.29718
945.0 0.001058 820.89221 838.77869
875.0 0.001143 819.65002 839.54657
900.0 0.001111 818.40179 840.67249
907.0 0.001103 817.14771 842.25153
851.0 0.001175 815.88763 844.41302
916.0 0.001092 814.62177 847.33630
918.0 0.001089 813.35010 851.27966
894.0 0.001119 812.07263 856.64215
942.0 0.001062 810.78986 864.16229
910.0 0.001099 809.50165 875.59113
988.0 0.001012 808.20819 895.39301
939.0 0.001065 806.90997 933.41766
986.0 0.001014 805.60693 1006.46265
1109.0 0.000902 804.29950 1135.13965
1395.0 0.000717 802.98785 1338.77246
1600.0 0.000625 801.67236 1636.56555
2001.0 0.000500 800.35339 2062.23267
2577.0 0.000388 799.03107 2675.74805
3482.0 0.0002872 797.70599 3523.34253
4437.0 0.0002254 796.37836 4491.96387
4918.0 0.0002033 795.04871 5157.08887
4589.0 0.0002179 793.71722 4963.15625
3820.0 0.0002618 792.38440 3922.60327
2473.0 0.000404 791.05078 2656.52100
1625.0 0.000615 789.71655 1718.50867
1110.0 0.000901 788.38239 1222.40332
984.0 0.001016 787.04858 1013.04449
884.0 0.001131 785.71552 929.94568
811.0 0.001233 784.38385 890.55182
808.0 0.001238 783.05383 866.32593
833.0 0.001200 781.72614 849.08386
846.0 0.001182 780.40106 836.04004
823.0 0.001215 779.07910 825.81744
789.0 0.001267 777.76080 817.57953
809.0 0.001236 776.44659 810.77881
783.0 0.001277 775.13696 805.04572
773.0 0.001294 773.83234 800.12250
795.0 0.001258 772.53314 795.82501
795.0 0.001258 771.24005 792.01990
788.0 0.001269 769.95319 788.60724
800.0 0.001250 768.67340 785.51263
833.0 0.001200 767.40094 782.67834
772.0 0.001295 766.13617 780.05975
786.0 0.001272 764.87964 777.62201
784.0 0.001276 763.63184 775.33728
742.0 0.001348 762.39313 773.18359
721.0 0.001387 761.16394 771.14276
809.0 0.001236 759.94464 769.20020
748.0 0.001337 758.73572 767.34406
724.0 0.001381 757.53754 765.56421
815.0 0.001227 756.35046 763.85266
723.0 0.001383 755.17505 762.20251
812.0 0.001232 754.01135 760.60791
751.0 0.001332 752.86005 759.06415
790.0 0.001266 751.72119 757.56677
743.0 0.001346 750.59534 756.11285
745.0 0.001342 749.48279 754.69897
743.0 0.001346 748.38379 753.32263
745.0 0.001342 747.29858 751.98181
753.0 0.001328 746.22766 750.67450
716.0 0.001397 745.17120 749.39911
764.0 0.001309 744.12946 745.52570
720.0 0.001389 743.10260 744.43195
779.0 0.001284 742.09106 742.09039
742.0 0.001348 741.09491 741.09430
751.0 0.001332 740.11444 740.11383
765.0 0.001307 739.14996 739.14929
747.0 0.001339 738.20142 738.20081
725.0 0.001379 737.26923 737.26855
778.0 0.001285 736.35333 736.35266
708.0 0.001412 735.45410 735.45349
756.0 0.001323 734.57159 734.57098
699.0 0.001431 733.70587 733.70520
697.0 0.001435 732.85718 732.85651
765.0 0.001307 732.02551 732.02484
782.0 0.001279 731.21100 731.21033
728.0 0.001374 730.41382 730.41315
719.0 0.001391 729.63379 729.63312
729.0 0.001372 728.87122 728.87054
737.0 0.001357 728.12598 728.12531
748.0 0.001337 727.39825 727.39758
771.0 0.001297 726.68799 726.68732
721.0 0.001387 725.99518 725.99445
732.0 0.001366 725.31976 725.31909
745.0 0.001342 724.66180 724.66113
676.0 0.001479 724.02130 724.02063
735.0 0.001361 723.39819 723.39752
755.0 0.001325 722.79236 722.79169
775.0 0.001290 722.20386 722.20319
752.0 0.001330 721.63263 721.63190
702.0 0.001425 721.07849 721.07776
735.0 0.001361 720.54138 720.54065
730.0 0.001370 720.02124 720.02051
704.0 0.001420 719.51801 719.51721
670.0 0.001493 719.03143 719.03064
703.0 0.001422 718.56152 718.56073
715.0 0.001399 718.10815 718.10736
731.0 0.001368 717.67108 717.67029
717.0 0.001395 717.25024 717.24945
718.0 0.001393 716.84546 716.84467
699.0 0.001431 716.45660 716.45581
717.0 0.001395 716.08350 716.08270
740.0 0.001351 715.72589 715.72510
743.0 0.001346 715.38373 715.38293
706.0 0.001416 715.05676 715.05597
759.0 0.001318 714.74481 714.74402
720.0 0.001389 714.44769 714.44690
735.0 0.001361 714.16522 714.16443
721.0 0.001387 713.89716 713.89636
710.0 0.001408 713.64325 713.64246
720.0 0.001389 713.40344 713.40259
739.0 0.001353 713.17737 713.17657
729.0 0.001372 712.96484 712.96405
731.0 0.001368 712.76569 712.76489
687.0 0.001456 712.57965 712.57880
712.0 0.001404 712.40649 712.40564
794.0 0.001259 712.24597 712.24518
737.0 0.001357 712.09796 712.09711
747.0 0.001339 711.96204 711.96118
699.0 0.001431 711.83813 711.83728
724.0 0.001381 711.72595 711.72510
744.0 0.001344 711.62524 711.62439
707.0 0.001414 711.53577 711.53491
708.0 0.001412 711.45734 711.45648
717.0 0.001395 711.38965 711.38879
728.0 0.001374 711.33246 711.33160
697.0 0.001435 711.28564 711.28473
710.0 0.001408 711.24878 711.24792
700.0 0.001429 711.22180 711.22095
688.0 0.001453 711.20435 711.20349
667.0 0.001499 711.19629 711.19543
754.0 0.001326 711.19733 711.19647
740.0 0.001351 711.20728 711.20636
728.0 0.001374 711.22583 711.22491
674.0 0.001484 711.25281 711.25189
684.0 0.001462 711.28796 711.28711
711.0 0.001406 711.33118 711.33026
760.0 0.001316 711.38202 711.38116
703.0 0.001422 711.44049 711.43964
699.0 0.001431 711.50629 711.50537
711.0 0.001406 711.57916 711.57825
750.0 0.001333 711.65894 711.65802
706.0 0.001416 711.74542 711.74451
683.0 0.001464 711.83838 711.83752
711.0 0.001406 711.93768 711.93677
726.0 0.001377 712.04303 712.04211
716.0 0.001397 712.15436 712.15344
680.0 0.001471 712.27142 712.27051
690.0 0.001449 712.39398 712.39307
675.0 0.001481 712.52197 712.52112
690.0 0.001449 712.65515 712.65430
729.0 0.001372 712.79340 712.79254
716.0 0.001397 712.93652 712.93561
735.0 0.001361 713.08435 713.08344
670.0 0.001493 713.23676 713.23590
710.0 0.001408 713.39362 713.39276
757.0 0.001321 713.55475 713.55383
702.0 0.001425 713.72003 713.71918
659.0 0.001517 713.88934 713.88843
744.0 0.001344 714.06250 714.06158
703.0 0.001422 714.23944 714.23859
751.0 0.001332 714.42004 714.41919
769.0 0.001300 714.60425 714.60333
716.0 0.001397 714.79181 714.79095
721.0 0.001387 714.98279 714.98193
700.0 0.001429 715.17700 715.17609
742.0 0.001348 715.37433 715.37347
755.0 0.001325 715.57483 715.57391
716.0 0.001397 715.77826 715.77734
702.0 0.001425 715.98462 715.98376
683.0 0.001464 716.19385 716.19299
709.0 0.001410 716.40594 716.40503
721.0 0.001387 716.62073 716.61987
689.0 0.001451 716.83826 716.83740
656.0 0.001524 717.05841 717.05756
734.0 0.001362 717.28125 717.28040
720.0 0.001389 717.50659 717.50574
758.0 0.001319 717.73456 717.73370
743.0 0.001346 717.96503 717.96417
692.0 0.001445 718.19812 718.19727
697.0 0.001435 718.43359 718.43274
718.0 0.001393 718.67163 718.67084
713.0 0.001403 718.91223 718.91138
670.0 0.001493 719.15527 719.15442
722.0 0.001385 719.40088 719.40002
711.0 0.001406 719.64899 719.64813
725.0 0.001379 719.89966 719.89880
719.0 0.001391 720.15289 720.15210
718.0 0.001393 720.40875 720.40796
686.0 0.001458 720.66724 720.66644
708.0 0.001412 720.92847 720.92761
717.0 0.001395 721.19232 721.19153
710.0 0.001408 721.45898 721.45819
707.0 0.001414 721.72852 721.72772
759.0 0.001318 722.00092 722.00006
770.0 0.001299 722.27618 722.27539
711.0 0.001406 722.55450 722.55365
701.0 0.001427 722.83588 722.83508
695.0 0.001439 723.12036 723.11957
717.0 0.001395 723.40808 723.40729
734.0 0.001362 723.69910 723.69830
685.0 0.001460 723.99347 723.99268
707.0 0.001414 724.29132 724.29053
711.0 0.001406 724.59277 724.59198
704.0 0.001420 724.89783 724.89703
730.0 0.001370 725.20660 725.20581
688.0 0.001453 725.51923 725.51843
711.0 0.001406 725.83582 725.83502
707.0 0.001414 726.15637 726.15558
751.0 0.001332 726.48114 726.48035
695.0 0.001439 726.81018 726.80939
761.0 0.001314 727.14355 727.14276
740.0 0.001351 727.48138 727.48059
716.0 0.001397 727.82385 727.82306
738.0 0.001355 728.17102 728.17029
708.0 0.001412 728.52301 728.52228
755.0 0.001325 728.88000 728.87921
718.0 0.001393 729.24207 729.24133
662.0 0.001511 729.60931 729.60858
748.0 0.001337 729.98193 729.98120
704.0 0.001420 730.35999 730.35925
754.0 0.001326 730.74365 730.74286
708.0 0.001412 731.13300 731.13226
697.0 0.001435 731.52820 731.52747
741.0 0.001350 731.92944 731.92865
722.0 0.001385 732.33673 732.33600
728.0 0.001374 732.75031 732.74957
747.0 0.001339 733.17023 733.16949
687.0 0.001456 733.59662 733.59589
720.0 0.001389 734.02972 734.02899
716.0 0.001397 734.46960 734.46887
712.0 0.001404 734.91638 734.91565
773.0 0.001294 735.37024 735.36951
756.0 0.001323 735.83124 735.83051
731.0 0.001368 736.29956 736.29883
742.0 0.001348 736.77533 736.77460
728.0 0.001374 737.25867 737.25793
755.0 0.001325 737.74976 737.74902
736.0 0.001359 738.24866 738.24792
808.0 0.001238 738.75549 738.75476
790.0 0.001266 739.27045 739.26971
710.0 0.001408 739.79358 739.79285
763.0 0.001311 740.32507 740.32434
788.0 0.001269 740.86505 740.86432
770.0 0.001299 741.41370 741.41296
779.0 0.001284 741.97095 741.97028
780.0 0.001282 742.53711 742.53638
730.0 0.001370 743.11218 743.11151
808.0 0.001238 743.69635 743.69562
782.0 0.001279 744.28973 744.28900
760.0 0.001316 744.89240 744.89166
753.0 0.001328 745.50439 745.50366
735.0 0.001361 746.12604 746.12531
742.0 0.001348 746.75720 746.75647
809.0 0.001236 747.39813 747.39740
758.0 0.001319 748.04883 748.04816
776.0 0.001289 748.70953 748.70880
805.0 0.001242 749.38019 749.37946
722.0 0.001385 750.06104 750.06030
715.0 0.001399 750.75195 750.75128
764.0 0.001309 751.45325 751.45251
718.0 0.001393 752.16492 752.16418
672.0 0.001488 752.88708 752.88635
729.0 0.001372 753.61969 753.61902
694.0 0.001441 754.36298 754.36230
776.0 0.001289 755.11694 755.11621
754.0 0.001326 755.88165 755.88092
757.0 0.001321 756.65723 756.65649
713.0 0.001403 757.44360 757.44293
740.0 0.001351 758.24103 758.24030
774.0 0.001292 759.04938 759.04865
783.0 0.001277 759.86877 759.86804
715.0 0.001399 760.69928 760.69855
762.0 0.001312 761.54095 761.54028
771.0 0.001297 762.39380 762.39307
746.0 0.001340 763.25787 763.25714
732.0 0.001366 764.13318 764.13251
802.0 0.001247 765.01990 765.01923
715.0 0.001399 765.91785 765.91711
766.0 0.001305 766.82721 769.28729
723.0 0.001383 767.74786 770.33142
777.0 0.001287 768.67993 772.61517
743.0 0.001346 769.62347 773.76337
769.0 0.001300 770.57837 774.93939
783.0 0.001277 771.54468 776.14508
779.0 0.001284 772.52240 777.38232
796.0 0.001256 773.51147 778.65363
791.0 0.001264 774.51208 779.96179
855.0 0.001170 775.52399 781.30969
784.0 0.001276 776.54730 782.70111
807.0 0.001239 777.58191 784.14020
834.0 0.001199 778.62793 785.63177
772.0 0.001295 779.68530 787.18188
843.0 0.001186 780.75397 788.79724
802.0 0.001247 781.83392 790.48602
763.0 0.001311 782.92499 792.25775
790.0 0.001266 784.02722 794.12445
834.0 0.001199 785.14075 796.10052
825.0 0.001212 786.26520 798.20319
829.0 0.001206 787.40082 800.45435
853.0 0.001172 788.54730 802.88074
827.0 0.001209 789.70471 805.51636
826.0 0.001211 790.87311 808.40472
826.0 0.001211 792.05212 811.60144
775.0 0.001290 793.24194 815.17975
821.0 0.001218 794.44232 819.23651
849.0 0.001178 795.65344 823.90326
886.0 0.001129 796.87488 829.36121
890.0 0.001124 798.10675 835.86578
870.0 0.001149 799.34900 843.79010
891.0 0.001122 800.60138 853.70776
965.0 0.001036 801.86389 866.64404
918.0 0.001089 803.13647 884.93585
980.0 0.001020 804.41895 914.78735
1037.0 0.000964 805.71130 971.78998
1054.0 0.000949 807.01324 1089.05005
1313.0 0.000762 808.32477 1324.67151
1819.0 0.000550 809.64587 1760.25159
2573.0 0.000389 810.97626 2472.64209
3417.0 0.0002927 812.31580 3435.11255
4135.0 0.0002418 813.66449 4381.98682
4805.0 0.0002081 815.02234 4820.28369
4763.0 0.0002100 816.38879 4461.52002
3940.0 0.0002538 817.76404 3596.90234
2737.0 0.000365 819.14795 2602.24707
2005.0 0.000499 820.54016 1794.33533
1295.0 0.000772 821.94067 1305.36926
1059.0 0.000944 823.34949 1069.56445
950.0 0.001053 824.76611 971.38483
928.0 0.001078 826.19073 929.44977
817.0 0.001224 827.62292 907.39398
943.0 0.001060 829.06262 893.27429
817.0 0.001224 830.50983 883.41211
822.0 0.001217 831.96411 876.31409
873.0 0.001145 833.42548 871.14362
869.0 0.001151 834.89380 867.36578
842.0 0.001188 836.36877 864.61896
850.0 0.001176 837.85022 862.65234
853.0 0.001172 839.33807 861.28796
867.0 0.001153 840.83228 860.39551
881.0 0.001135 842.33234 859.87860
836.0 0.001196 843.83826 859.66443
843.0 0.001186 845.34991 859.69720
844.0 0.001185 846.86700 859.93372
841.0 0.001189 848.38947 860.33984
851.0 0.001175 849.91687 860.88824
816.0 0.001225 851.44928 861.55731
855.0 0.001170 852.98651 862.86053
873.0 0.001145 854.52814 863.74731
824.0 0.001214 856.07416 864.97339
786.0 0.001272 857.62445 866.02020
833.0 0.001200 859.17859 867.12836
836.0 0.001196 860.73645 868.29132
851.0 0.001175 862.29797 869.50348
857.0 0.001167 863.86298 870.76031
863.0 0.001159 865.43103 872.05768
857.0 0.001167 867.00201 873.39258
895.0 0.001117 868.57593 874.76251
829.0 0.001206 870.15234 876.16534
841.0 0.001189 871.73126 877.59973
872.0 0.001147 873.31219 879.06427
840.0 0.001190 874.89508 880.55865
903.0 0.001107 876.47992 879.66669
833.0 0.001200 878.06622 881.33295
910.0 0.001099 879.65393 881.81494
887.0 0.001127 881.24274 883.58679
898.0 0.001114 882.83246 885.38403
872.0 0.001147 884.42297 887.21082
938.0 0.001066 886.01404 889.07257
846.0 0.001182 887.60559 890.97632
873.0 0.001145 889.19714 892.93054
874.0 0.001144 890.78857 894.94666
890.0 0.001124 892.37994 897.03973
830.0 0.001205 893.97070 899.22900
909.0 0.001100 895.56085 901.54144
887.0 0.001127 897.15002 904.01306
897.0 0.001115 898.73816 906.69537
898.0 0.001114 900.32513 909.66248
888.0 0.001126 901.91046 913.02539
961.0 0.001041 903.49426 916.97192
906.0 0.001104 905.07599 921.89355
902.0 0.001109 906.65570 928.81097
949.0 0.001054 908.23309 940.44501
940.0 0.001064 909.80817 963.16425
1041.0 0.000961 911.38037 1009.36084
1137.0 0.000880 912.94977 1097.89709
1444.0 0.000693 914.51605 1247.13818
1685.0 0.000593 916.07922 1453.35767
2050.0 0.000488 917.63879 1662.05029
2373.0 0.000421 919.19489 1770.22583
2267.0 0.000441 920.74701 1713.13232
2073.0 0.000482 922.29504 1547.62488
1678.0 0.000596 923.83905 1346.20313
1378.0 0.000726 925.37854 1168.22595
1125.0 0.000889 926.91357 1051.29639
995.0 0.001005 928.44366 991.01288
914.0 0.001094 929.96881 965.41187
965.0 0.001036 931.48883 955.42010
988.0 0.001012 933.00372 951.14850
897.0 0.001115 934.51294 949.01251
890.0 0.001124 936.01654 947.91498
951.0 0.001052 937.51428 947.45911
934.0 0.001071 939.00616 947.44275
862.0 0.001160 940.49176 947.73938
885.0 0.001130 941.97113 948.26483
903.0 0.001107 943.44385 948.96057
876.0 0.001142 944.90985 949.78534
896.0 0.001116 946.36914 950.70911
919.0 0.001088 947.82172 951.70984
844.0 0.001185 949.26666 952.77014
938.0 0.001066 950.70459 953.87775
874.0 0.001144 952.13483 955.02246
871.0 0.001148 953.55756 956.19647
934.0 0.001071 954.97290 957.39392
935.0 0.001070 956.37970 958.60883
873.0 0.001145 957.77893 959.83813
874.0 0.001144 959.16956 961.07745
904.0 0.001106 960.55219 962.32489
902.0 0.001109 961.92645 963.57800
925.0 0.001081 963.29181 964.83398
921.0 0.001086 964.64862 966.09210
900.0 0.001111 965.99640 967.35040
935.0 0.001070 967.33527 968.60779
923.0 0.001083 968.66534 969.86346
913.0 0.001095 969.98578 971.11591
901.0 0.001110 971.29706 972.36481
994.0 0.001006 972.59863 973.60901
955.0 0.001047 973.89075 974.84833
941.0 0.001063 975.17352 976.08228
992.0 0.001008 976.44592 977.30951
925.0 0.001081 977.70880 978.00238
938.0 0.001066 978.96143 979.24054
942.0 0.001062 980.20398 980.20343
980.0 0.001020 981.43652 981.43604
965.0 0.001036 982.65851 982.65796
947.0 0.001056 983.87024 983.86969
1023.0 0.000978 985.07129 985.07074
983.0 0.001017 986.26184 986.26129
1065.0 0.000939 987.44202 987.44147
1068.0 0.000936 988.61102 988.61053
1026.0 0.000975 989.76947 989.76892
969.0 0.001032 990.91675 990.91626
967.0 0.001034 992.05316 992.05267
965.0 0.001036 993.17883 993.17834
1003.0 0.000997 994.29285 994.29236
1033.0 0.000968 995.39612 995.39563
1034.0 0.000967 996.48779 996.48730
1069.0 0.000935 997.56830 997.56781
988.0 0.001012 998.63763 998.63715
1033.0 0.000968 999.69519 999.69470
992.0 0.001008 1000.74152 1000.74103
951.0 0.001052 1001.77612 1001.77563
954.0 0.001048 1002.79926 1002.79877
986.0 0.001014 1003.81097 1003.81049
992.0 0.001008 1004.81073 1004.81024
1002.0 0.000998 1005.79895 1005.79846
955.0 0.001047 1006.77527 1006.77478
992.0 0.001008 1007.73987 1007.73944
943.0 0.001060 1008.69293 1008.69250
970.0 0.001031 1009.63379 1009.63336
976.0 0.001025 1010.56311 1010.56262
1008.0 0.000992 1011.48029 1011.47980
1001.0 0.000999 1012.38562 1012.38519
1002.0 0.000998 1013.27924 1013.27881
979.0 0.001021 1014.16071 1014.16022
968.0 0.001033 1015.03033 1015.02991
1016.0 0.000984 1015.88788 1015.88745
1064.0 0.000940 1016.73352 1016.73309
1006.0 0.000994 1017.56744 1017.56702
1008.0 0.000992 1018.38904 1018.38861
1011.0 0.000989 1019.19885 1019.19843
992.0 0.001008 1019.99658 1019.99615
1013.0 0.000987 1020.78235 1020.78198
970.0 0.001031 1021.55646 1021.55603
982.0 0.001018 1022.31818 1022.31781
1027.0 0.000974 1023.06830 1023.06787
997.0 0.001003 1023.80627 1023.80585
1031.0 0.000970 1024.53235 1024.53198
1001.0 0.000999 1025.24670 1025.24634
996.0 0.001004 1025.94910 1025.94861
980.0 0.001020 1026.63965 1026.63928
1001.0 0.000999 1027.31824 1027.31787
954.0 0.001048 1027.98511 1027.98474
1019.0 0.000981 1028.64038 1028.64001
1019.0 0.000981 1029.28381 1029.28333
977.0 0.001024 1029.91553 1029.91516
1038.0 0.000963 1030.53552 1030.53516
988.0 0.001012 1031.14392 1031.14355
977.0 0.001024 1031.74084 1031.74048
1054.0 0.000949 1032.32605 1032.32568
1037.0 0.000964 1032.89978 1032.89941
1046.0 0.000956 1033.46204 1033.46167
1036.0 0.000965 1034.01294 1034.01257
1010.0 0.000990 1034.55249 1034.55212
1046.0 0.000956 1035.08069 1035.08032
1024.0 0.000977 1035.59766 1035.59729
1061.0 0.000943 1036.10327 1036.10291
1027.0 0.000974 1036.59790 1036.59753
1059.0 0.000944 1037.08142 1037.08105
1076.0 0.000929 1037.55383 1037.55347
1071.0 0.000934 1038.01538 1047.02148
1086.0 0.000921 1038.46582 1047.92419
1082.0 0.000924 1038.90552 1048.85095
1143.0 0.000875 1039.33447 1054.36145
1087.0 0.000920 1039.75256 1055.57861
1109.0 0.000902 1040.16016 1056.85120
1131.0 0.000884 1040.55701 1058.18555
1058.0 0.000945 1040.94348 1059.59106
1144.0 0.000874 1041.31946 1061.07727
1061.0 0.000943 1041.68506 1062.65503
1104.0 0.000906 1042.04041 1064.33801
1166.0 0.000858 1042.38538 1066.14050
1118.0 0.000894 1042.72021 1068.08093
1093.0 0.000915 1043.04517 1070.18042
1066.0 0.000938 1043.36011 1072.46216
1176.0 0.000850 1043.66504 1074.95679
1232.0 0.000812 1043.96008 1077.69775
1163.0 0.000860 1044.24548 1080.72803
1151.0 0.000869 1044.52124 1084.09900
1203.0 0.000831 1044.78735 1087.87097
1146.0 0.000873 1045.04407 1092.12207
1209.0 0.000827 1045.29126 1096.94580
1163.0 0.000860 1045.52905 1102.46338
1187.0 0.000842 1045.75781 1108.82727
1187.0 0.000842 1045.97729 1116.22888
1177.0 0.000850 1046.18774 1124.92651
1208.0 0.000828 1046.38916 1135.25195
1241.0 0.000806 1046.58167 1147.66052
1168.0 0.000856 1046.76550 1162.77368
1275.0 0.000784 1046.94043 1182.43079
1259.0 0.000794 1047.10693 1205.97412
1353.0 0.000739 1047.26477 1236.66956
1312.0 0.000762 1047.41418 1276.71777
1387.0 0.000721 1047.55542 1333.02344
1489.0 0.000672 1047.68823 1422.48657
1665.0 0.000601 1047.81287 1592.49719
1997.0 0.000501 1047.92957 1961.37988
2759.0 0.000362 1048.03821 2770.11011
4206.0 0.0002378 1048.13892 4374.03369
6582.0 0.0001519 1048.23193 7025.88770
9842.0 0.0001016 1048.31714 10435.50000
13036.0 0.0000767 1048.39490 13446.25977
14501.0 0.0000690 1048.46497 14493.97363
14034.0 0.0000713 1048.52783 13232.28320
11543.0 0.0000866 1048.58313 10800.68457
7955.0 0.0001257 1048.63135 7944.56104
5376.0 0.0001860 1048.67236 5261.14844
3406.0 0.0002936 1048.70642 3325.45435
2092.0 0.000478 1048.73352 2216.93164
1540.0 0.000649 1048.75366 1692.87329
1318.0 0.000759 1048.76709 1467.29639
1307.0 0.000765 1048.77380 1361.03076
1229.0 0.000814 1048.77405 1298.70264
1218.0 0.000821 1048.76770 1255.70520
1184.0 0.000845 1048.75500 1223.95837
1167.0 0.000857 1048.73596 1199.86011
1124.0 0.000890 1048.71069 1181.33997
1162.0 0.000861 1048.67932 1167.05359
1165.0 0.000858 1048.64197 1156.13110
1184.0 0.000845 1048.59863 1148.03809
1181.0 0.000847 1048.54944 1142.49744
1131.0 0.000884 1048.49438 1139.54028
1176.0 0.000850 1048.43372 1139.77637
1131.0 0.000884 1048.36755 1145.43628
1228.0 0.000814 1048.29578 1163.10205
1217.0 0.000822 1048.21851 1208.81531
1399.0 0.000715 1048.13611 1312.89539
1587.0 0.000630 1048.04822 1513.78284
2057.0 0.000486 1047.95532 1825.40527
2626.0 0.000381 1047.85730 2187.82080
2604.0 0.000384 1047.75427 2454.21240
2437.0 0.000410 1047.64636 2480.47876
2284.0 0.000438 1047.53345 2298.00146
2089.0 0.000479 1047.41589 2027.87488
1649.0 0.000606 1047.29370 1727.46924
1504.0 0.000665 1047.16687 1460.16895
1319.0 0.000758 1047.03540 1275.83362
1225.0 0.000816 1046.89966 1173.56140
1102.0 0.000907 1046.75940 1125.70190
1064.0 0.000940 1046.61487 1104.35706
1085.0 0.000922 1046.46619 1093.35559
1099.0 0.000910 1046.31335 1086.26843
1027.0 0.000974 1046.15637 1081.01660
1104.0 0.000906 1045.99536 1068.07739
1069.0 0.000935 1045.83044 1065.12976
1067.0 0.000937 1045.66162 1062.72278
1077.0 0.000929 1045.48914 1056.40735
1071.0 0.000934 1045.31274 1054.90674
1066.0 0.000938 1045.13269 1053.62988
976.0 0.001025 1044.94910 1052.52783
1094.0 0.000914 1044.76184 1051.56372
999.0 0.001001 1044.57129 1050.70996
1053.0 0.000950 1044.37720 1049.94531
1033.0 0.000968 1044.17969 1049.25317
1051.0 0.000951 1043.97888 1048.62122
1026.0 0.000975 1043.77490 1048.03870
1032.0 0.000969 1043.56775 1047.49756
1029.0 0.000972 1043.35730 1046.99097
1021.0 0.000979 1043.14392 1046.51367
999.0 0.001001 1042.92737 1046.06104
1015.0 0.000985 1042.70789 1045.62927
1033.0 0.000968 1042.48560 1045.21582
1039.0 0.000962 1042.26025 1044.81738
1052.0 0.000951 1042.03210 1044.43201
1049.0 0.000953 1041.80127 1044.05811
1068.0 0.000936 1041.56750 1043.69373
1003.0 0.000997 1041.33118 1043.33801
1077.0 0.000929 1041.09216 1042.98914
1010.0 0.000990 1040.85046 1042.64636
993.0 0.001007 1040.60632 1042.30908
1037.0 0.000964 1040.35950 1041.97620
1070.0 0.000935 1040.11023 1041.64709
996.0 0.001004 1039.85852 1040.38892
1049.0 0.000953 1039.60425 1040.10864
1051.0 0.000951 1039.34766 1039.34729
1063.0 0.000941 1039.08862 1039.08826
1018.0 0.000982 1038.82739 1038.82703
1050.0 0.000952 1038.56372 1038.56335
992.0 0.001008 1038.29773 1038.29736
1052.0 0.000951 1038.02966 1038.02917
1064.0 0.000940 1037.75916 1037.75879
1058.0 0.000945 1037.48657 1037.48621
1004.0 0.000996 1037.21179 1037.21143
997.0 0.001003 1036.93469 1036.93433
1021.0 0.000979 1036.65564 1036.65527
982.0 0.001018 1036.37439 1036.37390
1017.0 0.000983 1036.09094 1036.09058
970.0 0.001031 1035.80554 1035.80518
995.0 0.001005 1035.51782 1035.51746
1027.0 0.000974 1035.22827 1035.22791
1033.0 0.000968 1034.93665 1034.93616
1026.0 0.000975 1034.64294 1034.64258
985.0 0.001015 1034.34717 1034.34680
1037.0 0.000964 1034.04932 1034.04895
983.0 0.001017 1033.74951 1033.74915
994.0 0.001006 1033.44763 1033.44727
1010.0 0.000990 1033.14380 1033.14343
1024.0 0.000977 1032.83801 1032.83765
1001.0 0.000999 1032.53003 1032.52966
1063.0 0.000941 1032.22021 1032.21985
1078.0 0.000928 1031.90833 1031.90796
1017.0 0.000983 1031.59448 1031.59412
1082.0 0.000924 1031.27856 1031.27820
1021.0 0.000979 1030.96057 1030.96021
1053.0 0.000950 1030.64075 1030.64038
1062.0 0.000942 1030.31873 1030.31836
1054.0 0.000949 1029.99487 1029.99438
1078.0 0.000928 1029.66882 1029.66833
999.0 0.001001 1029.34070 1029.34021
1025.0 0.000976 1029.01050 1029.01013
1029.0 0.000972 1028.67834 1028.67786
1046.0 0.000956 1028.34399 1028.34363
993.0 0.001007 1028.00757 1028.00720
1033.0 0.000968 1027.66907 1027.66858
1082.0 0.000924 1027.32837 1027.32800
1013.0 0.000987 1026.98560 1026.98523
1073.0 0.000932 1026.64063 1026.64026
1086.0 0.000921 1026.29346 1026.29309
1011.0 0.000989 1025.94397 1025.94360
975.0 0.001026 1025.59241 1025.59192
1013.0 0.000987 1025.23853 1025.23816
1084.0 0.000923 1024.88245 1024.88196
997.0 0.001003 1024.52405 1024.52356
1005.0 0.000995 1024.16309 1024.16272
971.0 0.001030 1023.80011 1023.79968
1009.0 0.000991 1023.43457 1023.43414
1004.0 0.000996 1023.06671 1023.06635
990.0 0.001010 1022.69641 1022.69598
1041.0 0.000961 1022.32355 1022.32312
964.0 0.001037 1021.94830 1021.94788
1038.0 0.000963 1021.57050 1021.57007
981.0 0.001019 1021.19012 1021.18970
949.0 0.001054 1020.80719 1020.80676
953.0 0.001049 1020.42151 1020.42108
969.0 0.001032 1020.03333 1020.03290
1082.0 0.000924 1019.64240 1019.64197
954.0 0.001048 1019.24878 1019.24835
1074.0 0.000931 1018.85242 1018.85199
955.0 0.001047 1018.45313 1018.45270
976.0 0.001025 1018.05115 1018.05072
942.0 0.001062 1017.64618 1017.64575
1007.0 0.000993 1017.23840 1017.23798
978.0 0.001022 1016.82764 1016.82721
973.0 0.001028 1016.41382 1016.41339
1046.0 0.000956 1015.99707 1015.99664
967.0 0.001034 1015.57721 1015.57678
971.0 0.001030 1015.15424 1015.15381
943.0 0.001060 1014.72815 1014.72772
941.0 0.001063 1014.29877 1014.29834
979.0 0.001021 1013.86621 1013.86578
1009.0 0.000991 1013.43036 1013.42993
981.0 0.001019 1012.99121 1012.99078
1011.0 0.000989 1012.54871 1012.54828
1013.0 0.000987 1012.10266 1012.10223
967.0 0.001034 1011.65338 1011.65289
1023.0 0.000978 1011.20038 1011.19995
949.0 0.001054 1010.74396 1010.74353
951.0 0.001052 1010.28400 1010.28351
992.0 0.001008 1009.82025 1009.81982
988.0 0.001012 1009.35291 1009.35248
963.0 0.001038 1008.88177 1008.88135
977.0 0.001024 1008.40698 1008.40656
1000.0 0.001000 1007.92834 1007.92786
1062.0 0.000942 1007.44568 1007.44519
1020.0 0.000980 1006.95923 1006.95880
999.0 0.001001 1006.46875 1006.46832
944.0 0.001059 1005.97437 1005.97394
1021.0 0.000979 1005.47595 1005.47546
966.0 0.001035 1004.97321 1004.97278
930.0 0.001075 1004.46661 1004.82056
1030.0 0.000971 1003.95557 1004.32733
970.0 0.001031 1003.44043 1003.83142
986.0 0.001014 1002.92096 1003.50726
998.0 0.001002 1002.39709 1003.01447
996.0 0.001004 1001.86902 1002.51996
1001.0 0.000999 1001.33630 1002.02368
1011.0 0.000989 1000.79926 1001.52631
981.0 0.001019 1000.25763 1001.02777
1025.0 0.000976 999.71130 1000.52856
984.0 0.001016 999.16052 1000.02924
1029.0 0.000972 998.60498 999.53021
1029.0 0.000972 998.04486 999.03235
1001.0 0.000999 997.47998 998.53619
1010.0 0.000990 996.91010 998.04248
1053.0 0.000950 996.33557 997.55280
1003.0 0.000997 995.75598 997.06775
1017.0 0.000983 995.17163 996.58954
1014.0 0.000986 994.58221 996.11969
1027.0 0.000974 993.98767 995.66046
1004.0 0.000996 993.38824 995.21503
1038.0 0.000963 992.78351 994.78662
1026.0 0.000975 992.17383 994.38013
964.0 0.001037 991.55890 999.19293
1002.0 0.000998 990.93848 999.10791
1039.0 0.000962 990.31305 999.08704
1012.0 0.000988 989.68213 1001.69598
1084.0 0.000923 989.04602 1001.97876
1055.0 0.000948 988.40442 1002.39496
1045.0 0.000957 987.75720 1002.98096
1022.0 0.000978 987.10468 1003.78705
1002.0 0.000998 986.44653 1004.88782
1065.0 0.000939 985.78296 1006.40485
1044.0 0.000958 985.11371 1008.59363
1032.0 0.000969 984.43872 1012.13818
1096.0 0.000912 983.75818 1018.98462
1070.0 0.000935 983.07178 1034.04016
1119.0 0.000894 982.37988 1066.93701
1226.0 0.000816 981.68201 1130.48657
1291.0 0.000775 980.97821 1230.79907
1454.0 0.000688 980.26880 1351.57190
1423.0 0.000703 979.55334 1449.18176
1489.0 0.000672 978.83203 1476.83423
1488.0 0.000672 978.10474 1436.43835
1473.0 0.000679 977.37134 1368.09338
1314.0 0.000761 976.63208 1289.00427
1290.0 0.000775 975.88672 1204.25439
1211.0 0.000826 975.13538 1131.14319
1180.0 0.000847 974.37787 1082.12158
1095.0 0.000913 973.61407 1057.04895
1029.0 0.000972 972.84436 1048.70496
1126.0 0.000888 972.06824 1049.65076
1086.0 0.000921 971.28613 1055.66919
1143.0 0.000875 970.49774 1065.42969
1168.0 0.000856 969.70282 1079.20886
1148.0 0.000871 968.90192 1098.31836
1217.0 0.000822 968.09460 1125.85779
1258.0 0.000795 967.28101 1170.25000
1385.0 0.000722 966.46106 1256.02734
1535.0 0.000651 965.63452 1446.77417
1915.0 0.000522 964.80188 1872.31702
2659.0 0.000376 963.96271 2717.01953
4263.0 0.0002346 963.11719 4094.58496
6112.0 0.0001636 962.26520 5825.71729
7259.0 0.0001378 961.40668 7326.46240
7278.0 0.0001374 960.54181 7884.91602
7509.0 0.0001332 959.67029 7397.21240
6784.0 0.0001474 958.79260 6430.08838
4956.0 0.0002018 957.90808 5299.79297
3563.0 0.0002807 957.01709 4048.81152
2874.0 0.0003479 956.11969 2889.54614
2088.0 0.000479 955.21570 2037.76990
1470.0 0.000680 954.30524 1530.77930
1291.0 0.000775 953.38818 1278.45142
1098.0 0.000911 952.46436 1164.25488
1051.0 0.000951 951.53424 1109.15808
1029.0 0.000972 950.59741 1076.74744
1011.0 0.000989 949.65417 1054.07971
965.0 0.001036 948.70428 1036.80139
1006.0 0.000994 947.74756 1023.11243
1004.0 0.000996 946.78473 1012.01257
994.0 0.001006 945.81494 1002.83240
987.0 0.001013 944.83893 995.11481
986.0 0.001014 943.85608 988.17938
959.0 0.001043 942.86658 982.49213
928.0 0.001078 941.87079 977.51166
976.0 0.001025 940.86829 972.92407
1001.0 0.000999 939.85938 968.98163
946.0 0.001057 938.84381 965.41803
891.0 0.001122 937.82147 962.16821
963.0 0.001038 936.79297 959.18201
927.0 0.001079 935.75775 956.41614
906.0 0.001104 934.71625 953.83777
977.0 0.001024 933.66809 951.41821
963.0 0.001038 932.61328 949.13428
995.0 0.001005 931.55237 946.96820
916.0 0.001092 930.48468 944.90253
894.0 0.001119 929.41083 942.92487
949.0 0.001054 928.33044 941.02307
994.0 0.001006 927.24353 939.18732
960.0 0.001042 926.15051 937.41010
940.0 0.001064 925.05090 935.68341
919.0 0.001088 923.94519 934.00165
851.0 0.001175 922.83301 932.35901
953.0 0.001049 921.71429 930.75067
961.0 0.001041 920.58966 929.17340
945.0 0.001058 919.45862 922.47369
870.0 0.001149 918.32159 921.18561
864.0 0.001157 917.17816 919.90222
949.0 0.001054 916.02838 916.02795
823.0 0.001215 914.87286 914.87250
892.0 0.001121 913.71094 913.71051
869.0 0.001151 912.54315 912.54279
896.0 0.001116 911.36932 911.36890
833.0 0.001200 910.18921 910.18878
921.0 0.001086 909.00336 909.00299
922.0 0.001085 907.81146 907.81110
917.0 0.001091 906.61389 906.61346
880.0 0.001136 905.41022 905.40979
921.0 0.001086 904.20050 904.20007
933.0 0.001072 902.98535 902.98492
920.0 0.001087 901.76428 901.76385
838.0 0.001193 900.53766 900.53723
850.0 0.001176 899.30530 899.30487
883.0 0.001133 898.06689 898.06647
919.0 0.001088 896.82349 896.82306
928.0 0.001078 895.57410 895.57367
877.0 0.001140 894.31952 894.31909
915.0 0.001093 893.05939 893.05902
899.0 0.001112 891.79358 891.79321
898.0 0.001114 890.52277 890.52234
851.0 0.001175 889.24640 889.24597
905.0 0.001105 887.96497 887.96454
919.0 0.001088 886.67816 886.67773
873.0 0.001145 885.38586 885.38550
910.0 0.001099 884.08893 884.08850
886.0 0.001129 882.78662 882.78625
890.0 0.001124 881.47955 883.16901
885.0 0.001130 880.16742 881.94147
871.0 0.001148 878.84998 880.71515
885.0 0.001130 877.52826 880.31012
904.0 0.001106 876.20129 879.12982
913.0 0.001095 874.86987 877.95697
908.0 0.001101 873.53363 876.79248
898.0 0.001114 872.19257 875.63806
842.0 0.001188 870.84717 874.49579
883.0 0.001133 869.49701 873.36713
868.0 0.001152 868.14276 872.25531
879.0 0.001138 866.78394 871.16235
849.0 0.001178 865.42035 870.09143
838.0 0.001193 864.05298 869.04694
889.0 0.001125 862.68109 868.03290
856.0 0.001168 861.30536 867.05463
890.0 0.001124 859.92535 866.11823
903.0 0.001107 858.54095 865.23096
895.0 0.001117 857.15302 864.40253
847.0 0.001181 855.76099 863.64319
936.0 0.001068 854.36530 862.96698
815.0 0.001227 852.96576 862.39014
887.0 0.001127 851.56219 863.59332
887.0 0.001127 850.15533 863.36621
876.0 0.001142 848.74457 863.32568
893.0 0.001120 847.33081 863.51630
925.0 0.001081 845.91327 864.83685
839.0 0.001192 844.49200 865.72528
870.0 0.001149 843.06787 867.08807
821.0 0.001218 841.64032 869.07141
873.0 0.001145 840.20978 871.88123
858.0 0.001166 838.77606 875.82965
874.0 0.001144 837.33887 881.45551
912.0 0.001096 835.89929 889.95593
919.0 0.001088 834.45648 904.67786
941.0 0.001063 833.01111 935.07477
1040.0 0.000962 831.56287 1004.12195
1168.0 0.000856 830.11169 1154.65234
1536.0 0.000651 828.65826 1439.29688
1981.0 0.000505 827.20197 1877.98206
2496.0 0.000401 825.74365 2396.08203
2855.0 0.0003503 824.28271 2811.24683
2898.0 0.0003451 822.81909 2933.29883
2949.0 0.0003391 821.35370 2770.94849
2609.0 0.000383 819.88586 2497.19702
2155.0 0.000464 818.41620 2193.82959
1746.0 0.000573 816.94440 1850.39807
1560.0 0.000641 815.47028 1505.60815
1217.0 0.000822 813.99475 1228.76758
1065.0 0.000939 812.51715 1048.47998
894.0 0.001119 811.03809 951.61334
971.0 0.001030 809.55725 906.88263
882.0 0.001134 808.07458 887.67499
912.0 0.001096 806.59082 879.54602
930.0 0.001075 805.10516 876.94836
904.0 0.001106 803.61871 878.77649
922.0 0.001085 802.13062 886.87811
974.0 0.001027 800.64117 908.36395
960.0 0.001042 799.15094 961.86053
1071.0 0.000934 797.65948 1084.64612
1279.0 0.000782 796.16724 1327.86523
1735.0 0.000576 794.67395 1722.85425
2428.0 0.000412 793.17950 2222.18091
2770.0 0.000361 791.68475 2668.98682
2801.0 0.000357 790.18915 2864.45142
2779.0 0.000360 788.69318 2758.44043
2908.0 0.0003439 787.19653 2505.31958
2335.0 0.000428 785.69904 2219.93628
1759.0 0.000569 784.20184 1898.97620
1513.0 0.000661 782.70380 1555.76672
1273.0 0.000786 781.20612 1257.88525
1136.0 0.000880 779.70782 1048.58838
918.0 0.001089 778.20935 926.98761
804.0 0.001244 776.71124 866.14069
877.0 0.001140 775.21295 837.11432
827.0 0.001209 773.71509 821.70508
760.0 0.001316 772.21735 811.70636
849.0 0.001178 770.71948 804.14807
754.0 0.001326 769.22247 797.99634
784.0 0.001276 767.72565 792.80060
789.0 0.001267 766.22961 788.30768
778.0 0.001285 764.73407 784.34564
784.0 0.001276 763.23883 780.79358
769.0 0.001300 761.74487 775.90192
740.0 0.001351 760.25140 773.00745
816.0 0.001225 758.75891 770.31616
777.0 0.001287 757.26740 766.94006
758.0 0.001319 755.77661 764.59003
741.0 0.001350 754.28723 762.35162
722.0 0.001385 752.79895 760.20599
735.0 0.001361 751.31195 758.13910
751.0 0.001332 749.82623 756.13910
793.0 0.001261 748.34161 754.19617
724.0 0.001381 746.85901 752.30365
723.0 0.001383 745.37732 750.45367
736.0 0.001359 743.89783 748.64209
747.0 0.001339 742.41962 746.86340
698.0 0.001433 740.94269 745.11359
728.0 0.001374 739.46832 743.39093
724.0 0.001381 737.99524 741.69092
741.0 0.001350 736.52460 740.01270
722.0 0.001385 735.05573 738.35315
740.0 0.001351 733.58838 736.71039
726.0 0.001377 732.12390 735.08411
744.0 0.001344 730.66113 733.47180
694.0 0.001441 729.20105 730.19989
724.0 0.001381 727.74304 728.69116
752.0 0.001330 726.28717 727.18835
699.0 0.001431 724.83398 725.69165
752.0 0.001330 723.38306 723.38263
716.0 0.001397 721.93518 721.93475
784.0 0.001276 720.48962 720.48920
724.0 0.001381 719.04657 719.04614
743.0 0.001346 717.60651 717.60608
704.0 0.001420 716.16919 716.16876
710.0 0.001408 714.73480 714.73438
711.0 0.001406 713.30328 713.30286
705.0 0.001418 711.87451 711.87402
666.0 0.001502 710.44904 710.44855
724.0 0.001381 709.02661 709.02618
692.0 0.001445 707.60736 707.60693
739.0 0.001353 706.19128 706.19086
696.0 0.001437 704.77826 704.77783
677.0 0.001477 703.36902 703.36859
750.0 0.001333 701.96265 701.96222
706.0 0.001416 700.56024 700.55981
690.0 0.001449 699.16077 699.16034
695.0 0.001439 697.76483 697.76440
724.0 0.001381 696.37292 696.37250
684.0 0.001462 694.98419 694.98376
687.0 0.001456 693.59967 693.59918
715.0 0.001399 692.21857 692.21808
710.0 0.001408 690.84076 690.84033
690.0 0.001449 689.46753 689.46710
667.0 0.001499 688.09766 688.09723
681.0 0.001468 686.73218 686.73175
683.0 0.001464 685.37048 685.57184
697.0 0.001435 684.01227 684.22156
679.0 0.001473 682.65887 682.87659
753.0 0.001328 681.30902 681.53577
660.0 0.001515 679.96381 680.30066
655.0 0.001527 678.62262 678.97351
670.0 0.001493 677.28534 677.65131
641.0 0.001560 675.95258 676.33453
682.0 0.001466 674.62421 675.02325
686.0 0.001458 673.30005 673.71741
679.0 0.001473 671.98035 672.41724
666.0 0.001502 670.66486 671.12274
649.0 0.001541 669.35406 669.83441
648.0 0.001543 668.04773 668.55225
652.0 0.001534 666.74597 667.27655
635.0 0.001575 665.44879 666.00745
662.0 0.001511 664.15594 664.74512
676.0 0.001479 662.86829 663.49042
654.0 0.001529 661.58478 662.24268
649.0 0.001541 660.30621 661.00330
634.0 0.001577 659.03235 659.77203
663.0 0.001508 657.76312 658.54944
628.0 0.001592 656.49908 657.33661
661.0 0.001513 655.23950 656.13336
686.0 0.001458 653.98517 654.94135
628.0 0.001592 652.73553 653.76068
646.0 0.001548 651.49036 652.59229
631.0 0.001585 650.25079 651.43848
697.0 0.001435 649.01575 650.29968
620.0 0.001613 647.78613 649.17834
671.0 0.001490 646.56134 648.07629
639.0 0.001565 645.34119 646.99573
613.0 0.001631 644.12677 645.94116
644.0 0.001553 642.91693 644.91571
599.0 0.001669 641.71271 643.92523
629.0 0.001590 640.51337 642.97607
660.0 0.001515 639.31903 642.07684
646.0 0.001548 638.13000 641.23932
644.0 0.001553 636.94623 640.47888
647.0 0.001546 635.76764 639.81622
598.0 0.001672 634.59430 639.28064
624.0 0.001603 633.42596 638.91486
639.0 0.001565 632.26312 638.78815
670.0 0.001493 631.10559 639.04321
647.0 0.001546 629.95337 640.05151
616.0 0.001623 628.80640 642.86609
655.0 0.001527 627.66461 650.17139
677.0 0.001477 626.52850 667.45239
711.0 0.001406 625.39740 702.84595
742.0 0.001348 624.27179 763.00342
872.0 0.001147 623.15161 844.74121
896.0 0.001116 622.03656 927.92444
850.0 0.001176 620.92737 979.85205
885.0 0.001130 619.82312 979.68744
889.0 0.001125 618.72467 943.26074
840.0 0.001190 617.63147 898.04547
764.0 0.001309 616.54327 851.17749
687.0 0.001456 615.46112 797.36096
676.0 0.001479 614.38403 740.49146
680.0 0.001471 613.31268 691.53424
631.0 0.001585 612.24664 656.79645
657.0 0.001522 611.18567 635.99646
558.0 0.001792 610.13068 624.96167
559.0 0.001789 609.08075 619.18915
613.0 0.001631 608.03674 615.75897
604.0 0.001656 606.99786 613.28760
601.0 0.001664 605.96436 611.24731
552.0 0.001812 604.93646 609.45074
593.0 0.001686 603.91382 607.81842
593.0 0.001686 602.89697 606.30859
587.0 0.001704 601.88538 604.89221
589.0 0.001698 600.87909 603.54932
587.0 0.001704 599.87836 602.26581
593.0 0.001686 598.88312 601.03064
594.0 0.001684 597.89331 599.83533
605.0 0.001653 596.90887 598.67377
629.0 0.001590 595.92975 597.54071
612.0 0.001634 594.95618 596.43256
575.0 0.001739 593.98804 595.34601
592.0 0.001689 593.02521 594.27863
571.0 0.001751 592.06787 593.22827
586.0 0.001706 591.11572 592.19312
632.0 0.001582 590.16925 591.17230
599.0 0.001669 589.22784 590.16394
596.0 0.001678 588.29211 589.16785
611.0 0.001637 587.36151 588.18243
579.0 0.001727 586.43597 587.20715
587.0 0.001704 585.51624 586.24194
559.0 0.001789 584.60144 585.28577
592.0 0.001689 583.69232 584.33856
598.0 0.001672 582.78827 583.39960
566.0 0.001767 581.88916 582.46838
559.0 0.001789 580.99579 581.54535
580.0 0.001724 580.10736 580.62939
572.0 0.001748 579.22443 579.72101
649.0 0.001541 578.34662 578.81958
571.0 0.001751 577.47375 577.92468
564.0 0.001773 576.60632 577.03674
594.0 0.001684 575.74377 576.15509
585.0 0.001709 574.88678 575.45660
556.0 0.001799 574.03467 574.59479
578.0 0.001730 573.18756 573.73938
556.0 0.001799 572.34570 572.89069
545.0 0.001835 571.50885 572.13544
585.0 0.001709 570.67706 571.10077
596.0 0.001678 569.85034 570.28247
539.0 0.001855 569.02844 569.47009
588.0 0.001701 568.21167 568.66400
535.0 0.001869 567.39990 567.76392
562.0 0.001779 566.59302 566.97412
603.0 0.001658 565.79114 566.19055
601.0 0.001664 564.99396 565.41302
593.0 0.001686 564.20190 564.64221
574.0 0.001742 563.41449 563.87750
570.0 0.001754 562.63214 563.11981
556.0 0.001799 561.85431 562.36865
508.0 0.001969 561.08130 561.62451
552.0 0.001812 560.31335 560.88794
582.0 0.001718 559.54980 560.15851
549.0 0.001821 558.79126 559.43732
594.0 0.001684 558.03729 558.72424
562.0 0.001779 557.28766 558.01947
580.0 0.001724 556.54309 557.32434
541.0 0.001848 555.80292 556.63873
594.0 0.001684 555.06750 555.96393
546.0 0.001832 554.33655 555.30029
575.0 0.001739 553.60986 554.64893
580.0 0.001724 552.88812 554.01160
563.0 0.001776 552.17053 553.38916
575.0 0.001739 551.45770 552.78412
568.0 0.001761 550.74908 552.19830
540.0 0.001852 550.04480 551.63470
593.0 0.001686 549.34497 551.09705
585.0 0.001709 548.64954 550.59009
580.0 0.001724 547.95837 550.11938
618.0 0.001618 547.27148 549.69287
567.0 0.001764 546.58881 549.32068
552.0 0.001812 545.91040 549.01636
574.0 0.001742 545.23621 548.79877
580.0 0.001724 544.56616 548.69397
540.0 0.001852 543.90033 548.74219
523.0 0.001912 543.23840 549.01447
567.0 0.001764 542.58081 549.67517
577.0 0.001733 541.92706 551.17535
579.0 0.001727 541.27747 554.72791
560.0 0.001786 540.63184 563.13287
594.0 0.001684 539.99005 581.44055
685.0 0.001460 539.35242 615.94751
797.0 0.001255 538.71844 670.08789
936.0 0.001068 538.08862 738.05847
1083.0 0.000923 537.46246 801.37250
978.0 0.001022 536.83997 835.05139
937.0 0.001067 536.22156 828.24835
999.0 0.001001 535.60669 797.36810
931.0 0.001074 534.99573 762.64490
782.0 0.001279 534.38837 728.67188
730.0 0.001370 533.78448 688.61176
674.0 0.001484 533.18451 644.56775
625.0 0.001600 532.58789 604.67517
630.0 0.001587 531.99512 575.16125
575.0 0.001739 531.40576 556.33911
533.0 0.001876 530.81982 546.00684
521.0 0.001919 530.23743 540.70251
537.0 0.001862 529.65851 537.82092
582.0 0.001718 529.08301 535.97388
555.0 0.001802 528.51086 534.57605
558.0 0.001792 527.94202 533.41138
563.0 0.001776 527.37653 532.39734
580.0 0.001724 526.81445 531.49365
550.0 0.001818 526.25555 530.67590
569.0 0.001757 525.69989 529.92767
568.0 0.001761 525.14734 529.23688
511.0 0.001957 524.59814 528.59540
539.0 0.001855 524.05194 527.99683
509.0 0.001965 523.50897 527.43701
522.0 0.001916 522.96906 526.91302
524.0 0.001908 522.43207 526.42303
517.0 0.001934 521.89832 525.96643
572.0 0.001748 521.36737 525.54297
564.0 0.001773 520.83960 525.15363
510.0 0.001961 520.31470 524.79993
556.0 0.001799 519.79242 524.48419
530.0 0.001887 519.27338 524.21021
505.0 0.001980 518.75696 523.98199
537.0 0.001862 518.24359 523.80566
510.0 0.001961 517.73291 523.68835
517.0 0.001934 517.22479 523.63910
528.0 0.001894 516.71967 523.67004
520.0 0.001923 516.21710 523.79584
520.0 0.001923 515.71735 524.03595
539.0 0.001855 515.22015 524.41516
489.0 0.002045 514.72552 524.96631
522.0 0.001916 514.23358 525.73267
521.0 0.001919 513.74414 526.77356
500.0 0.002000 513.25739 528.16980
564.0 0.001773 512.77301 530.04083
556.0 0.001799 512.29108 532.58246
509.0 0.001965 511.81171 536.19867
594.0 0.001684 511.33472 541.94080
562.0 0.001779 510.86017 552.67419
545.0 0.001835 510.38797 575.46924
571.0 0.001751 509.91806 624.56061
691.0 0.001447 509.45053 721.30542
866.0 0.001155 508.98532 885.37494
1057.0 0.000946 508.52237 1116.02222
1363.0 0.000734 508.06171 1371.66736
1422.0 0.000703 507.60312 1570.57129
1400.0 0.000714 507.14694 1634.17773
1570.0 0.000637 506.69275 1566.11584
1437.0 0.000696 506.24084 1443.36780
1209.0 0.000827 505.79102 1318.18433
1054.0 0.000949 505.34314 1186.72168
941.0 0.001063 504.89755 1033.40735
863.0 0.001159 504.45386 874.22845
747.0 0.001339 504.01233 737.98846
612.0 0.001634 503.57278 640.47913
522.0 0.001916 503.13501 581.24780
518.0 0.001931 502.69943 549.79596
573.0 0.001745 502.26569 534.15900
504.0 0.001984 501.83395 526.01379
506.0 0.001976 501.40405 521.06720
515.0 0.001942 500.97595 517.53687
529.0 0.001890 500.54974 514.75854
492.0 0.002033 500.12531 512.46497
509.0 0.001965 499.70285 510.52350
581.0 0.001721 499.28207 508.84940
524.0 0.001908 498.86301 507.38358
490.0 0.002041 498.44574 506.08344
503.0 0.001988 498.03018 504.94058
447.0 0.002237 497.61633 503.88211
451.0 0.002217 497.20419 502.91241
490.0 0.002041 496.79361 502.01627
488.0 0.002049 496.38477 501.18222
436.0 0.002294 495.97754 500.41284
462.0 0.002165 495.57193 499.67615
475.0 0.002105 495.16788 498.97769
503.0 0.001988 494.76535 498.31216
478.0 0.002092 494.36453 497.67569
486.0 0.002058 493.96509 497.06427
470.0 0.002128 493.56729 496.47519
495.0 0.002020 493.17087 495.90558
500.0 0.002000 492.77594 495.35352
480.0 0.002083 492.38260 494.81726
470.0 0.002128 491.99057 494.29495
477.0 0.002096 491.60013 493.78552
468.0 0.002137 491.21103 493.28760
493.0 0.002028 490.82321 492.80008
490.0 0.002041 490.43695 492.32254
474.0 0.002110 490.05194 491.85373
494.0 0.002024 489.66843 491.39340
461.0 0.002169 489.28619 490.94073
489.0 0.002045 488.90515 490.49521
442.0 0.002262 488.52563 490.05673
468.0 0.002137 488.14728 489.62463
466.0 0.002146 487.77036 489.19897
477.0 0.002096 487.39462 488.77933
471.0 0.002123 487.02011 488.36551
432.0 0.002315 486.64688 487.95758
447.0 0.002237 486.27490 486.86740
506.0 0.001976 485.90417 486.49722
464.0 0.002155 485.53464 486.13174
443.0 0.002257 485.16620 485.77133
483.0 0.002070 484.79907 485.41672
474.0 0.002110 484.43311 484.73535
464.0 0.002155 484.06830 484.40704
492.0 0.002033 483.70465 484.08701
499.0 0.002004 483.34210 483.77695
478.0 0.002092 482.98083 483.47983
463.0 0.002160 482.62051 483.19913
498.0 0.002008 482.26141 482.94138
463.0 0.002160 481.90338 482.71951
472.0 0.002119 481.54642 482.56689
449.0 0.002227 481.19067 482.57309
472.0 0.002119 480.83588 482.95615
503.0 0.001988 480.48227 484.15433
457.0 0.002188 480.12967 486.84003
505.0 0.001980 479.77798 491.68475
494.0 0.002024 479.42755 498.79593
558.0 0.001792 479.07803 507.09393
576.0 0.001736 478.72964 514.13971
574.0 0.001742 478.38226 517.39465
532.0 0.001880 478.03574 515.70496
603.0 0.001658 477.69046 511.47226
514.0 0.001946 477.34604 507.01636
530.0 0.001887 477.00272 502.79190
538.0 0.001859 476.66034 498.13794
495.0 0.002020 476.31891 492.64972
518.0 0.001931 475.97852 487.26825
474.0 0.002110 475.63910 482.83514
491.0 0.002037 475.30063 479.69913
452.0 0.002212 474.96313 477.72760
453.0 0.002208 474.62656 476.55093
529.0 0.001890 474.29099 475.81174
491.0 0.002037 473.95636 475.27798
490.0 0.002041 473.62271 474.83484
466.0 0.002146 473.28998 474.43509
470.0 0.002128 472.95816 474.06094
487.0 0.002053 472.62735 474.71027
501.0 0.001996 472.29736 474.40906
478.0 0.002092 471.96838 474.12302
477.0 0.002096 471.64035 473.85074
479.0 0.002088 471.31314 473.59164
489.0 0.002045 470.98697 473.85010
478.0 0.002092 470.66165 473.63721
494.0 0.002024 470.33731 473.43918
487.0 0.002053 470.01382 473.25677
462.0 0.002165 469.69116 473.09113
475.0 0.002105 469.36957 472.94385
467.0 0.002141 469.04877 472.81671
507.0 0.001972 468.72900 472.71210
484.0 0.002066 468.41003 472.63275
449.0 0.002227 468.09192 472.58215
462.0 0.002165 467.77481 472.56470
466.0 0.002146 467.45853 472.58548
465.0 0.002151 467.14325 472.65118
538.0 0.001859 466.82883 472.76996
469.0 0.002132 466.51523 472.95251
476.0 0.002101 466.20258 473.21213
460.0 0.002174 465.89078 473.56699
482.0 0.002075 465.57999 474.04059
521.0 0.001919 465.27002 474.66690
482.0 0.002075 464.96088 475.49951
477.0 0.002096 464.65274 476.64288
489.0 0.002045 464.34546 478.35526
568.0 0.001761 464.03906 481.31244
493.0 0.002028 463.73358 487.15775
545.0 0.001835 463.42892 499.24026
512.0 0.001953 463.12524 522.86292
554.0 0.001805 462.82242 563.81183
694.0 0.001441 462.52054 624.24036
792.0 0.001263 462.21951 697.57538
831.0 0.001203 461.91937 766.02325
761.0 0.001314 461.62021 805.96637
837.0 0.001195 461.32184 805.38025
847.0 0.001181 461.02448 777.27094
823.0 0.001215 460.72797 743.47992
705.0 0.001418 460.43225 713.19629
687.0 0.001456 460.13760 681.94373
617.0 0.001621 459.84378 644.57172
645.0 0.001550 459.55093 605.59253
638.0 0.001567 459.25894 574.21289
563.0 0.001776 458.96774 559.06769
593.0 0.001686 458.67764 569.45959
572.0 0.001748 458.38834 619.73749
621.0 0.001610 458.10004 731.57489
894.0 0.001119 457.81262 926.93286
1190.0 0.000840 457.52606 1208.80322
1666.0 0.000600 457.24048 1538.61157
1789.0 0.000559 456.95575 1829.66223
1545.0 0.000647 456.67206 1978.14307
1666.0 0.000600 456.38922 1945.54578
1864.0 0.000536 456.10727 1802.45154
1665.0 0.000601 455.82629 1642.74292
1270.0 0.000787 455.54626 1497.70996
1084.0 0.000923 455.26712 1342.05298
897.0 0.001115 454.98892 1154.74097
906.0 0.001104 454.71167 956.59406
726.0 0.001377 454.43530 782.32550
606.0 0.001650 454.15997 652.95331
538.0 0.001859 453.88547 570.64496
514.0 0.001946 453.61197 524.73907
544.0 0.001838 453.33942 501.16528
480.0 0.002083 453.06778 488.99948
463.0 0.002160 452.79712 482.00418
505.0 0.001980 452.52737 477.30276
503.0 0.001988 452.25854 473.74677
516.0 0.001938 451.99069 470.88516
535.0 0.001869 451.72385 468.51114
465.0 0.002151 451.45789 466.50757
487.0 0.002053 451.19293 464.79401
474.0 0.002110 450.92886 463.31244
482.0 0.002075 450.66583 462.01978
484.0 0.002066 450.40369 460.88217
458.0 0.002183 450.14261 459.87469
431.0 0.002320 449.88235 458.97690
473.0 0.002114 449.62311 458.17377
474.0 0.002110 449.36490 457.45334
489.0 0.002045 449.10757 456.80609
465.0 0.002151 448.85129 456.22531
458.0 0.002183 448.59589 455.70563
485.0 0.002062 448.34146 455.24377
458.0 0.002183 448.08807 454.83826
486.0 0.002058 447.83560 454.85028
459.0 0.002179 447.58417 454.57269
447.0 0.002237 447.33362 454.13898
479.0 0.002088 447.08405 453.99976
498.0 0.002008 446.83554 453.93729
460.0 0.002174 446.58789 454.14444
477.0 0.002096 446.34134 454.17581
452.0 0.002212 446.09564 454.45969
396.0 0.002525 445.85101 454.92615
453.0 0.002208 445.60733 455.66870
490.0 0.002041 445.36462 456.92047
483.0 0.002070 445.12286 459.28873
465.0 0.002151 444.88205 464.24011
486.0 0.002058 444.64230 474.76474
492.0 0.002033 444.40347 495.69171
496.0 0.002016 444.16565 532.59412
524.0 0.001908 443.92880 588.37415
619.0 0.001616 443.69290 658.66150
702.0 0.001425 443.45795 728.77966
681.0 0.001468 443.22406 775.60126
678.0 0.001475 442.99106 784.78992
648.0 0.001543 442.75906 761.15765
657.0 0.001522 442.52805 725.79456
664.0 0.001506 442.29794 692.31525
557.0 0.001795 442.06891 661.28235
516.0 0.001938 441.84073 624.94971
533.0 0.001876 441.61362 582.41766
505.0 0.001980 441.38739 540.29803
498.0 0.002008 441.16214 505.27902
502.0 0.001992 440.93793 480.45993
464.0 0.002155 440.71457 465.24854
440.0 0.002273 440.49225 456.98932
479.0 0.002088 440.27081 452.81757
436.0 0.002294 440.05035 450.70703
470.0 0.002128 439.83090 449.55963
488.0 0.002049 439.61234 448.88943
466.0 0.002146 439.39478 448.51303
489.0 0.002045 439.17810 448.36945
467.0 0.002141 438.96237 448.44656
489.0 0.002045 438.74759 448.75763
448.0 0.002232 438.53378 449.34189
482.0 0.002075 438.32086 450.28638
493.0 0.002028 438.10886 451.80664
459.0 0.002179 437.89783 454.47122
539.0 0.001855 437.68771 459.71884
497.0 0.002012 437.47849 470.74380
446.0 0.002242 437.27020 493.35193
536.0 0.001866 437.06284 535.64441
625.0 0.001600 436.85635 604.82904
814.0 0.001229 436.65082 701.04987
1102.0 0.000907 436.44611 811.22260
1119.0 0.000894 436.24237 907.50671
1125.0 0.000889 436.03949 957.34100
1078.0 0.000928 435.83746 948.09955
1142.0 0.000876 435.63641 901.39453
1060.0 0.000943 435.43616 847.85950
898.0 0.001114 435.23682 800.44452
796.0 0.001256 435.03833 752.55908
694.0 0.001441 434.84067 694.52246
677.0 0.001477 434.64395 629.25079
643.0 0.001555 434.44800 567.61163
522.0 0.001916 434.25299 518.32770
469.0 0.002132 434.05872 484.45416
482.0 0.002075 433.86533 464.11829
444.0 0.002252 433.67279 453.09329
431.0 0.002320 433.48105 447.33929
424.0 0.002358 433.29019 444.16394
450.0 0.002222 433.10007 442.15244
452.0 0.002212 432.91080 440.68372
472.0 0.002119 432.72229 439.50909
467.0 0.002141 432.53458 438.52463
444.0 0.002252 432.34772 437.44632
441.0 0.002268 432.16156 436.71695
473.0 0.002114 431.97623 436.07217
436.0 0.002294 431.79166 435.49545
436.0 0.002294 431.60785 434.97403
452.0 0.002212 431.42477 434.38269
433.0 0.002309 431.24246 433.94913
466.0 0.002146 431.06088 433.54715
431.0 0.002320 430.88004 433.17194
468.0 0.002137 430.69992 432.81940
451.0 0.002217 430.52051 432.48645
437.0 0.002288 430.34186 432.17038
435.0 0.002299 430.16385 431.86890
402.0 0.002488 429.98657 431.58035
436.0 0.002294 429.80994 431.30298
426.0 0.002347 429.63403 431.03564
396.0 0.002525 429.45874 430.77707
462.0 0.002165 429.28412 430.52640
422.0 0.002370 429.11020 430.28284
452.0 0.002212 428.93689 430.04559
436.0 0.002294 428.76425 429.81415
455.0 0.002198 428.59219 429.58783
425.0 0.002353 428.42075 429.36621
396.0 0.002525 428.24997 429.14899
415.0 0.002410 428.07974 428.93564
415.0 0.002410 427.91019 428.72598
397.0 0.002519 427.74112 428.51965
384.0 0.002604 427.57266 428.31638
409.0 0.002445 427.40479 428.11597
426.0 0.002347 427.23743 427.91815
415.0 0.002410 427.07065 427.72287
434.0 0.002304 426.90439 427.52985
400.0 0.002500 426.73868 427.33899
418.0 0.002392 426.57346 426.79141
396.0 0.002525 426.40878 426.61780
434.0 0.002304 426.24460 426.44519
396.0 0.002525 426.08087 426.27356
394.0 0.002538 425.91763 426.10287
432.0 0.002315 425.75488 425.75458
411.0 0.002433 425.59259 425.59229
450.0 0.002222 425.43073 425.43042
441.0 0.002268 425.26935 425.26904
407.0 0.002457 425.10834 425.10803
425.0 0.002353 424.94778 424.96317
424.0 0.002358 424.78763 424.80365
412.0 0.002427 424.62790 424.64456
416.0 0.002404 424.46854 424.48590
423.0 0.002364 424.30951 424.32761
397.0 0.002519 424.15094 424.16983
400.0 0.002500 423.99265 424.02042
412.0 0.002427 423.83478 423.86374
423.0 0.002364 423.67719 423.70746
445.0 0.002247 423.51990 423.55154
407.0 0.002457 423.36301 423.39615
381.0 0.002625 423.20636 423.24109
393.0 0.002545 423.05005 423.08652
418.0 0.002392 422.89398 422.93225
418.0 0.002392 422.73819 422.77844
393.0 0.002545 422.58270 422.62506
406.0 0.002463 422.42743 422.47211
405.0 0.002469 422.27246 422.31961
394.0 0.002538 422.11765 422.16751
407.0 0.002457 421.96307 422.01593
407.0 0.002457 421.80872 421.86478
416.0 0.002404 421.65457 421.71411
396.0 0.002525 421.50058 421.56403
403.0 0.002481 421.34677 421.41446
393.0 0.002545 421.19318 421.26553
434.0 0.002304 421.03970 421.11725
387.0 0.002584 420.88638 420.96970
368.0 0.002717 420.73318 420.82291
420.0 0.002381 420.58011 420.67706
381.0 0.002625 420.42715 420.53220
406.0 0.002463 420.27432 420.38849
429.0 0.002331 420.12155 420.24612
435.0 0.002299 419.96884 420.10599
388.0 0.002577 419.81625 419.96707
413.0 0.002421 419.66367 419.83041
376.0 0.002660 419.51120 419.69641
431.0 0.002320 419.35870 419.56564
407.0 0.002457 419.20630 419.43945
459.0 0.002179 419.05386 419.31796
377.0 0.002653 418.90143 419.20331
407.0 0.002457 418.74905 419.09787
409.0 0.002445 418.59659 419.00662
379.0 0.002639 418.44415 418.94138
447.0 0.002237 418.29166 418.93167
383.0 0.002611 418.13910 419.04697
413.0 0.002421 417.98651 419.42807
433.0 0.002309 417.83383 420.31042
402.0 0.002488 417.68115 421.99268
409.0 0.002445 417.52829 424.70932
402.0 0.002488 417.37540 428.41357
439.0 0.002278 417.22235 432.58316
431.0 0.002320 417.06921 436.20102
442.0 0.002262 416.91599 438.08527
440.0 0.002273 416.76254 437.73120
460.0 0.002174 416.60901 435.84583
441.0 0.002268 416.45529 433.58319
456.0 0.002193 416.30145 431.57288
404.0 0.002475 416.14740 429.70718
430.0 0.002326 415.99319 427.54910
435.0 0.002299 415.83875 424.98544
426.0 0.002347 415.68414 422.33542
411.0 0.002433 415.52930 419.98383
414.0 0.002415 415.37424 418.16254
395.0 0.002532 415.21896 416.90451
406.0 0.002463 415.06342 416.10156
401.0 0.002494 414.90765 415.59723
431.0 0.002320 414.75162 415.25845
401.0 0.002494 414.59534 415.00098
389.0 0.002571 414.43875 414.78094
401.0 0.002494 414.28189 414.57901
425.0 0.002353 414.12476 414.38727
398.0 0.002513 413.96729 414.20221
417.0 0.002398 413.80957 414.02237
406.0 0.002463 413.65146 413.84677
418.0 0.002392 413.49304 413.67551
401.0 0.002494 413.33435 413.51001
394.0 0.002538 413.17526 413.35388
376.0 0.002660 413.01587 413.21466
419.0 0.002387 412.85605 413.10312
433.0 0.002309 412.69592 413.03076
420.0 0.002381 412.53540 413.27237
465.0 0.002151 412.37451 413.28790
454.0 0.002203 412.21326 413.30615
446.0 0.002242 412.05157 413.27988
463.0 0.002160 411.88950 413.16873
430.0 0.002326 411.72702 413.10562
468.0 0.002137 411.56412 412.87515
454.0 0.002203 411.40082 412.64514
431.0 0.002320 411.23709 412.42871
435.0 0.002299 411.07288 412.21332
456.0 0.002193 410.90826 411.98343
399.0 0.002506 410.74323 411.74139
462.0 0.002165 410.57770 411.50281
423.0 0.002364 410.41174 411.28186
419.0 0.002387 410.24527 411.08591
428.0 0.002336 410.07840 410.91467
410.0 0.002439 409.91101 410.76291
403.0 0.002481 409.74316 410.62494
422.0 0.002370 409.57480 410.49615
434.0 0.002304 409.40594 410.37393
400.0 0.002500 409.23663 410.25748
425.0 0.002353 409.06677 410.14664
408.0 0.002451 408.89648 410.04190
414.0 0.002415 408.72559 409.94388
432.0 0.002315 408.55420 409.83777
400.0 0.002500 408.38235 409.75674
394.0 0.002538 408.20990 409.68570
430.0 0.002326 408.03702 409.62643
401.0 0.002494 407.86353 409.58066
429.0 0.002331 407.68951 409.54306
419.0 0.002387 407.51498 409.94577
409.0 0.002445 407.33987 409.97424
398.0 0.002513 407.16428 410.03061
385.0 0.002597 406.98807 410.12073
420.0 0.002381 406.81134 410.25165
435.0 0.002299 406.63406 410.63315
415.0 0.002410 406.45624 410.88440
366.0 0.002732 406.27783 411.21436
395.0 0.002532 406.09888 411.64600
417.0 0.002398 405.91931 412.21576
403.0 0.002481 405.73923 412.99420
436.0 0.002294 405.55859 414.14548
421.0 0.002375 405.37735 416.06992
474.0 0.002110 405.19556 419.69641
455.0 0.002198 405.01315 426.91461
446.0 0.002242 404.83023 441.12872
453.0 0.002208 404.64667 466.28967
476.0 0.002101 404.46259 506.49454
532.0 0.001880 404.27786 562.50677
676.0 0.001479 404.09259 628.91699
884.0 0.001131 403.90677 692.93054
849.0 0.001178 403.72031 737.08386
763.0 0.001311 403.53333 748.08911
806.0 0.001241 403.34570 729.26178
798.0 0.001253 403.15753 696.95966
736.0 0.001359 402.96881 665.49414
747.0 0.001339 402.77945 638.84802
583.0 0.001715 402.58957 612.00592
583.0 0.001715 402.39905 579.09222
552.0 0.001812 402.20795 540.88678
525.0 0.001905 402.01633 502.96518
478.0 0.002092 401.82407 470.60864
461.0 0.002169 401.63132 446.60992
430.0 0.002326 401.43790 430.98709
439.0 0.002278 401.24396 421.96310
415.0 0.002410 401.04944 417.26016
425.0 0.002353 400.85434 415.01605
428.0 0.002336 400.65869 414.07037
459.0 0.002179 400.46243 413.84000
421.0 0.002375 400.26563 414.10602
426.0 0.002347 400.06830 414.87610
440.0 0.002273 399.87039 416.39777
472.0 0.002119 399.67194 419.36517
442.0 0.002262 399.47290 425.37619
392.0 0.002551 399.27332 437.56097
432.0 0.002315 399.07324 460.98657
452.0 0.002212 398.87253 502.03735
551.0 0.001815 398.67136 565.84979
649.0 0.001541 398.46960 652.20325
876.0 0.001142 398.26730 751.47699
902.0 0.001109 398.06454 843.62842
889.0 0.001125 397.86118 903.07501
846.0 0.001182 397.65735 913.18054
929.0 0.001076 397.45294 881.82196
841.0 0.001189 397.24805 833.50537
814.0 0.001229 397.04269 787.89960
688.0 0.001453 396.83676 749.61163
625.0 0.001600 396.63040 710.96808
611.0 0.001637 396.42346 664.06580
568.0 0.001761 396.21606 611.30560
538.0 0.001859 396.00824 562.61731
511.0 0.001957 395.79984 528.30768
472.0 0.002119 395.59106 515.32843
524.0 0.001908 395.38174 525.34790
593.0 0.001686 395.17200 554.09753
778.0 0.001285 394.96179 591.85095
725.0 0.001379 394.75113 625.21606
723.0 0.001383 394.54004 641.33221
760.0 0.001316 394.32846 635.67236
740.0 0.001351 394.11649 615.44257
685.0 0.001460 393.90408 591.76678
640.0 0.001563 393.69125 571.09473
577.0 0.001733 393.47800 552.96936
498.0 0.002008 393.26437 532.62994
573.0 0.001745 393.05026 508.09323
465.0 0.002151 392.83588 481.14957
495.0 0.002020 392.62103 455.69199
442.0 0.002262 392.40582 434.74426
378.0 0.002646 392.19025 419.54770
385.0 0.002597 391.97424 409.56403
414.0 0.002415 391.75800 403.70816
404.0 0.002475 391.54132 400.36002
410.0 0.002439 391.32437 398.39249
382.0 0.002618 391.10699 397.10730
363.0 0.002755 390.88931 396.15292
379.0 0.002639 390.67136 395.37167
414.0 0.002415 390.45306 394.69434
395.0 0.002532 390.23450 394.08960
387.0 0.002584 390.01559 393.54022
367.0 0.002725 389.79639 393.03516
391.0 0.002558 389.57700 392.56653
383.0 0.002611 389.35724 392.12799
389.0 0.002571 389.13730 391.71472
431.0 0.002320 388.91705 391.32269
382.0 0.002618 388.69656 390.94897
373.0 0.002681 388.47586 390.59097
402.0 0.002488 388.25491 390.24649
386.0 0.002591 388.03381 389.91391
376.0 0.002660 387.81241 389.59164
354.0 0.002825 387.59085 389.27863
354.0 0.002825 387.36911 388.97388
413.0 0.002421 387.14719 388.67651
382.0 0.002618 386.92511 388.38577
399.0 0.002506 386.70285 387.69510
365.0 0.002740 386.48041 387.43121
377.0 0.002653 386.25784 387.17166
385.0 0.002597 386.03519 386.91638
381.0 0.002625 385.81238 386.66501
402.0 0.002488 385.58945 386.41763
374.0 0.002674 385.36639 385.97473
388.0 0.002577 385.14331 385.74274
383.0 0.002611 384.92004 385.51450
374.0 0.002674 384.69681 385.29059
366.0 0.002732 384.47342 385.07147
400.0 0.002500 384.25000 384.85815
370.0 0.002703 384.02658 384.65228
393.0 0.002545 383.80307 384.45691
368.0 0.002717 383.57959 384.27936
415.0 0.002410 383.35602 384.13705
386.0 0.002591 383.13245 383.88220
373.0 0.002681 382.90897 384.04074
379.0 0.002639 382.68542 384.41861
367.0 0.002725 382.46198 385.26263
392.0 0.002551 382.23846 386.75653
366.0 0.002732 382.01508 388.88705
378.0 0.002646 381.79172 391.70648
379.0 0.002639 381.56839 394.70685
401.0 0.002494 381.34525 397.11362
381.0 0.002625 381.12207 398.24240
372.0 0.002688 380.89905 397.84918
372.0 0.002688 380.67612 396.39157
377.0 0.002653 380.45331 394.60349
375.0 0.002667 380.23065 392.96786
399.0 0.002506 380.00809 391.52438
350.0 0.002857 379.78568 390.00876
382.0 0.002618 379.56345 388.20599
381.0 0.002625 379.34137 386.18063
345.0 0.002899 379.11951 384.17401
388.0 0.002577 378.89780 382.41370
366.0 0.002732 378.67627 381.02576
373.0 0.002681 378.45502 380.02045
398.0 0.002513 378.23392 379.32690
369.0 0.002710 378.01312 378.84702
374.0 0.002674 377.79248 378.49396
355.0 0.002817 377.57208 378.20883
373.0 0.002681 377.35205 377.95868
406.0 0.002463 377.13220 377.72717
368.0 0.002717 376.91269 377.50763
382.0 0.002618 376.69342 377.29712
357.0 0.002801 376.47446 377.09482
378.0 0.002646 376.25586 376.90063
375.0 0.002667 376.03751 376.71469
384.0 0.002604 375.81958 376.53781
357.0 0.002801 375.60190 376.37088
369.0 0.002710 375.38458 376.21555
339.0 0.002950 375.16769 376.07388
369.0 0.002710 374.95111 375.94849
438.0 0.002283 374.73499 375.84344
358.0 0.002793 374.51917 375.76492
393.0 0.002545 374.30380 375.72427
369.0 0.002710 374.08881 375.74640
351.0 0.002849 373.87427 375.89041
372.0 0.002688 373.66016 376.29160
347.0 0.002882 373.44644 377.23227
377.0 0.002653 373.23318 379.22079
394.0 0.002538 373.02042 383.01526
380.0 0.002632 372.80811 389.49036
370.0 0.002703 372.59628 399.25311
420.0 0.002381 372.38495 412.10977
418.0 0.002392 372.17404 426.59772
411.0 0.002433 371.96375 439.92102
352.0 0.002841 371.75388 448.56561
415.0 0.002410 371.54456 450.15134
401.0 0.002494 371.33578 445.60370
430.0 0.002326 371.12750 438.26358
403.0 0.002481 370.91983 431.09140
371.0 0.002695 370.71268 425.17206
370.0 0.002703 370.50613 419.71121
376.0 0.002660 370.30011 413.23126
385.0 0.002597 370.09464 405.28033
379.0 0.002639 369.88986 396.71680
396.0 0.002525 369.68558 388.70746
373.0 0.002681 369.48203 382.11481
378.0 0.002646 369.27896 377.27979
345.0 0.002899 369.07657 374.07355
372.0 0.002688 368.87485 372.09277
331.0 0.003021 368.67371 370.90393
353.0 0.002833 368.47330 370.16135
377.0 0.002653 368.27344 369.64520
380.0 0.002632 368.07428 369.24011
367.0 0.002725 367.87582 368.89145
405.0 0.002469 367.67804 368.57523
411.0 0.002433 367.48093 368.28073
346.0 0.002890 367.28445 368.00241
387.0 0.002584 367.08875 367.73694
355.0 0.002817 366.89374 367.48209
338.0 0.002959 366.69943 367.23596
366.0 0.002732 366.50583 366.99722
403.0 0.002481 366.31299 366.76474
398.0 0.002513 366.12082 366.53769
337.0 0.002967 365.92947 366.31546
386.0 0.002591 365.73883 366.09726
334.0 0.002994 365.54892 365.88278
385.0 0.002597 365.35980 365.67163
345.0 0.002899 365.17142 365.46341
354.0 0.002825 364.98386 365.25793
360.0 0.002778 364.79700 365.05490
381.0 0.002625 364.61102 364.85428
377.0 0.002653 364.42572 364.65561
377.0 0.002653 364.24124 364.45901
367.0 0.002725 364.05762 364.26431
367.0 0.002725 363.87476 364.07144
352.0 0.002841 363.69272 363.88028
375.0 0.002667 363.51147 363.69070
378.0 0.002646 363.33105 363.50278
357.0 0.002801 363.15149 363.31647
334.0 0.002994 362.97269 363.13168
361.0 0.002770 362.79480 362.94861
369.0 0.002710 362.61771 362.76700
396.0 0.002525 362.44147 362.58734
345.0 0.002899 362.26605 362.40994
385.0 0.002597 362.09149 362.51138
384.0 0.002604 361.91785 362.35419
361.0 0.002770 361.74496 362.14124
335.0 0.002985 361.57300 362.01563
343.0 0.002915 361.40192 361.91724
396.0 0.002525 361.23166 361.85440
348.0 0.002874 361.06232 361.96497
362.0 0.002762 360.89383 361.97470
344.0 0.002907 360.72620 361.95749
349.0 0.002865 360.55948 361.94614
367.0 0.002725 360.39365 361.87128
374.0 0.002674 360.22870 361.72165
387.0 0.002584 360.06464 361.52145
344.0 0.002907 359.90146 361.30807
376.0 0.002660 359.73920 361.10706
354.0 0.002825 359.57782 360.92285
369.0 0.002710 359.41736 360.74301
412.0 0.002427 359.25778 360.55334
393.0 0.002545 359.09909 360.35342
346.0 0.002890 358.94135 360.15424
351.0 0.002849 358.78445 359.96838
372.0 0.002688 358.62857 359.80508
360.0 0.002778 358.47348 359.66772
358.0 0.002793 358.31934 359.55545
338.0 0.002959 358.16617 359.46478
390.0 0.002564 358.01385 359.39200
408.0 0.002451 357.86249 359.33496
409.0 0.002445 357.71201 359.29288
389.0 0.002571 357.56247 359.26636
351.0 0.002849 357.41385 359.25705
371.0 0.002695 357.26611 359.26736
376.0 0.002660 357.11932 359.30069
322.0 0.003106 356.97342 359.36099
390.0 0.002564 356.82846 359.45337
362.0 0.002762 356.68445 359.58435
372.0 0.002688 356.54132 359.76239
331.0 0.003021 356.39911 359.99832
366.0 0.002732 356.25781 360.30780
391.0 0.002558 356.11743 360.71527
378.0 0.002646 355.97797 361.26709
384.0 0.002604 355.83945 362.06476
373.0 0.002681 355.70181 363.34030
376.0 0.002660 355.56509 365.60693
372.0 0.002688 355.42926 369.89038
425.0 0.002353 355.29440 377.97879
412.0 0.002427 355.16040 392.50034
388.0 0.002577 355.02734 416.63971
430.0 0.002326 354.89514 452.34378
479.0 0.002088 354.76385 499.53403
606.0 0.001650 354.63351 553.92267
728.0 0.001374 354.50406 606.75800
697.0 0.001435 354.37552 646.10608
683.0 0.001464 354.24783 661.70105
616.0 0.001623 354.12103 652.66437
654.0 0.001529 353.99518 628.39093
623.0 0.001605 353.87018 600.77594
637.0 0.001570 353.74609 576.92889
534.0 0.001873 353.62283 557.20551
541.0 0.001848 353.50049 537.00067
471.0 0.002123 353.37906 511.88873
526.0 0.001901 353.25845 481.97937
438.0 0.002283 353.13876 450.85779
431.0 0.002320 353.01990 422.45428
402.0 0.002488 352.90192 399.46188
384.0 0.002604 352.78482 382.80759
398.0 0.002513 352.66855 371.89063
346.0 0.002890 352.55316 365.30481
391.0 0.002558 352.43860 361.53171
342.0 0.002924 352.32489 359.37759
383.0 0.002611 352.21204 358.07449
350.0 0.002857 352.10001 357.19812
355.0 0.002817 351.98883 356.54199
386.0 0.002591 351.87848 356.01172
357.0 0.002801 351.76892 355.56662
364.0 0.002747 351.66025 355.18161
331.0 0.003021 351.55234 354.84595
380.0 0.002632 351.44528 354.55142
365.0 0.002740 351.33902 354.29166
385.0 0.002597 351.23352 354.06216
380.0 0.002632 351.12888 353.86035
376.0 0.002660 351.02499 353.68155
390.0 0.002564 350.92194 353.52502
355.0 0.002817 350.81964 353.38925
380.0 0.002632 350.71811 353.27344
327.0 0.003058 350.61737 353.17737
384.0 0.002604 350.51740 353.10114
373.0 0.002681 350.41821 353.04553
371.0 0.002695 350.31973 353.01169
395.0 0.002532 350.22202 353.00119
355.0 0.002817 350.12509 353.01672
362.0 0.002762 350.02887 353.06143
362.0 0.002762 349.93341 353.13974
372.0 0.002688 349.83862 353.25729
367.0 0.002725 349.74460 353.42163
366.0 0.002732 349.65131 353.64316
358.0 0.002793 349.55872 353.93747
330.0 0.003030 349.46683 354.33170
380.0 0.002632 349.37561 354.88181
400.0 0.002500 349.28513 355.71262
369.0 0.002710 349.19531 357.10300
400.0 0.002500 349.10617 359.63547
375.0 0.002667 349.01770 364.39291
386.0 0.002591 348.92993 373.12546
378.0 0.002646 348.84277 387.89038
424.0 0.002358 348.75632 411.62769
421.0 0.002375 348.67047 445.36380
475.0 0.002105 348.58530 487.94040
539.0 0.001855 348.50073 534.78619
572.0 0.001748 348.41681 577.86200
572.0 0.001748 348.33353 607.31073
525.0 0.001905 348.25082 615.85535
537.0 0.001862 348.16876 604.97626
584.0 0.001712 348.08725 583.21045
551.0 0.001815 348.00635 559.86243
506.0 0.001976 347.92606 540.05951
523.0 0.001912 347.84631 523.58118
448.0 0.002232 347.76721 506.49921
411.0 0.002433 347.68860 485.25433
436.0 0.002294 347.61057 459.97455
451.0 0.002217 347.53308 433.54807
404.0 0.002475 347.45615 409.19940
384.0 0.002604 347.37976 389.21741
372.0 0.002688 347.30389 374.47879
354.0 0.002825 347.22855 364.62262
351.0 0.002849 347.15372 358.55624
361.0 0.002770 347.07938 355.03067
394.0 0.002538 347.00558 353.02231
302.0 0.003311 346.93225 351.84793
351.0 0.002849 346.85941 351.12741
387.0 0.002584 346.78702 350.68286
340.0 0.002941 346.71515 350.44693
352.0 0.002841 346.64371 350.39676
369.0 0.002710 346.57275 350.50906
364.0 0.002747 346.50220 350.73431
381.0 0.002625 346.43213 350.98697
385.0 0.002597 346.36246 351.15384
378.0 0.002646 346.29324 351.12930
384.0 0.002604 346.22443 350.88165
351.0 0.002849 346.15604 350.47946
339.0 0.002950 346.08804 350.03210
340.0 0.002941 346.02045 349.61932
364.0 0.002747 345.95325 349.26373
388.0 0.002577 345.88641 348.93384
343.0 0.002915 345.81995 348.64215
364.0 0.002747 345.75388 348.24445
356.0 0.002809 345.68814 347.82104
393.0 0.002545 345.62280 347.40869
348.0 0.002874 345.55774 347.03918
362.0 0.002762 345.49304 346.73056
356.0 0.002809 345.42868 346.51581
363.0 0.002755 345.36465 346.32605
344.0 0.002907 345.30093 346.17673
336.0 0.002976 345.23749 346.05386
352.0 0.002841 345.17438 345.94736
337.0 0.002967 345.11154 345.85059
361.0 0.002770 345.04898 345.75986
339.0 0.002950 344.98676 345.67337
342.0 0.002924 344.92474 345.59012
348.0 0.002874 344.86301 345.50970
375.0 0.002667 344.80154 345.43173
338.0 0.002959 344.74033 345.35602
346.0 0.002890 344.67932 345.28253
323.0 0.003096 344.61859 345.21100
349.0 0.002865 344.55804 345.14136
357.0 0.002801 344.49774 345.07364
379.0 0.002639 344.43765 345.00772
353.0 0.002833 344.37778 344.94351
319.0 0.003135 344.31808 344.88113
346.0 0.002890 344.25861 344.82047
358.0 0.002793 344.19931 344.76157
329.0 0.003040 344.14017 344.70447
350.0 0.002857 344.08124 344.64935
340.0 0.002941 344.02243 344.59607
332.0 0.003012 343.96378 344.38043
389.0 0.002571 343.90530 344.33646
343.0 0.002915 343.84695 344.29453
327.0 0.003058 343.78876 344.25491
319.0 0.003135 343.73068 344.21777
324.0 0.003086 343.67273 344.18353
350.0 0.002857 343.61493 344.06931
340.0 0.002941 343.55722 344.04437
324.0 0.003086 343.49960 344.02335
303.0 0.003300 343.44208 344.00684
330.0 0.003030 343.38467 343.99561
321.0 0.003115 343.32736 343.99054
335.0 0.002985 343.27008 343.99265
357.0 0.002801 343.21292 344.00345
356.0 0.002809 343.15579 344.02444
329.0 0.003040 343.09875 344.05792
314.0 0.003185 343.04178 344.10651
360.0 0.002778 342.98483 344.17429
336.0 0.002976 342.92792 344.26727
344.0 0.002907 342.87106 344.39688
370.0 0.002703 342.81424 344.58673
361.0 0.002770 342.75742 344.88876
368.0 0.002717 342.70065 345.41415
361.0 0.002770 342.64389 346.38150
340.0 0.002941 342.58713 348.17667
353.0 0.002833 342.53036 351.38843
349.0 0.002865 342.47360 356.76147
339.0 0.002950 342.41684 365.02313
334.0 0.002994 342.36008 376.52188
375.0 0.002667 342.30328 390.85223
427.0 0.002342 342.24646 406.56046
421.0 0.002375 342.18964 421.16412
424.0 0.002358 342.13275 431.61487
400.0 0.002500 342.07584 435.50845
429.0 0.002331 342.01886 432.80664
468.0 0.002137 341.96185 425.93420
432.0 0.002315 341.90482 417.92859
454.0 0.002203 341.84769 410.80826
425.0 0.002353 341.79053 405.01480
376.0 0.002660 341.73328 399.60782
356.0 0.002809 341.67593 393.23468
381.0 0.002625 341.61856 385.36349
376.0 0.002660 341.56110 376.56046
345.0 0.002899 341.50354 367.85464
342.0 0.002924 341.44589 360.15762
352.0 0.002841 341.38815 354.02368
381.0 0.002625 341.33032 349.58353
365.0 0.002740 341.27237 346.63147
289.0 0.003460 341.21436 344.79910
341.0 0.002933 341.15619 343.70541
319.0 0.003135 341.09790 343.04993
353.0 0.002833 341.03955 342.63339
359.0 0.002786 340.98105 342.34097
328.0 0.003049 340.92242 342.11365
313.0 0.003195 340.86365 341.92288
334.0 0.002994 340.80478 341.75540
350.0 0.002857 340.74576 341.60468
342.0 0.002924 340.68658 341.46674
384.0 0.002604 340.62729 341.33914
341.0 0.002933 340.56784 341.22006
329.0 0.003040 340.50827 341.10809
354.0 0.002825 340.44852 341.00211
370.0 0.002703 340.38861 340.90112
334.0 0.002994 340.32858 340.80441
310.0 0.003226 340.26834 340.71265
328.0 0.003049 340.20798 340.62674
346.0 0.002890 340.14743 340.53976
354.0 0.002825 340.08673 340.45505
329.0 0.003040 340.02585 340.37247
327.0 0.003058 339.96478 340.29160
338.0 0.002959 339.90356 340.21225
354.0 0.002825 339.84216 340.13495
322.0 0.003106 339.78055 340.06021
334.0 0.002994 339.71881 339.98462
313.0 0.003195 339.65683 339.90991
346.0 0.002890 339.59470 339.83603
340.0 0.002941 339.53238 339.76288
326.0 0.003067 339.46985 339.69028
328.0 0.003049 339.40714 339.61835
334.0 0.002994 339.34424 339.54688
333.0 0.003003 339.28113 339.47586
330.0 0.003030 339.21783 339.40512
339.0 0.002950 339.15433 339.33487
335.0 0.002985 339.09061 339.26480
344.0 0.002907 339.02673 339.19504
323.0 0.003096 338.96262 339.12549
338.0 0.002959 338.89828 339.05615
333.0 0.003003 338.83377 338.98697
295.0 0.003390 338.76904 338.91794
340.0 0.002941 338.70410 338.84909
346.0 0.002890 338.63895 338.78033
350.0 0.002857 338.57361 338.71164
324.0 0.003086 338.50803 338.64304
328.0 0.003049 338.44226 338.57462
359.0 0.002786 338.37625 338.50623
351.0 0.002849 338.31003 338.43796
351.0 0.002849 338.24359 338.30884
309.0 0.003236 338.17694 338.24258
343.0 0.002915 338.11008 338.17636
357.0 0.002801 338.04300 338.11014
326.0 0.003067 337.97571 338.04395
342.0 0.002924 337.90820 337.97794
323.0 0.003096 337.84045 337.91193
334.0 0.002994 337.77252 337.86609
360.0 0.002778 337.70435 337.80301
344.0 0.002907 337.63593 337.74023
301.0 0.003322 337.56732 337.67783
325.0 0.003077 337.49847 337.61584
318.0 0.003145 337.42944 337.55450
318.0 0.003145 337.36017 337.49390
344.0 0.002907 337.29068 337.43423
330.0 0.003030 337.22098 337.40128
325.0 0.003077 337.15106 337.34515
336.0 0.002976 337.08090 337.29123
315.0 0.003175 337.01056 337.24094
353.0 0.002833 336.93994 337.19675
358.0 0.002793 336.86914 337.21817
334.0 0.002994 336.79813 337.21057
328.0 0.003049 336.72690 337.24664
344.0 0.002907 336.65546 337.35968
358.0 0.002793 336.58377 337.59677
337.0 0.002967 336.51190 338.01221
318.0 0.003145 336.43979 338.65268
362.0 0.002762 336.36749 339.55823
341.0 0.002933 336.29495 340.63287
384.0 0.002604 336.22223 341.78513
362.0 0.002762 336.14929 342.83063
385.0 0.002597 336.07611 343.55441
337.0 0.002967 336.00275 343.79483
338.0 0.002959 335.92917 343.55023
340.0 0.002941 335.85538 342.98499
348.0 0.002874 335.78140 342.31497
330.0 0.003030 335.70718 341.69583
344.0 0.002907 335.63281 341.17822
331.0 0.003021 335.55820 340.71295
364.0 0.002747 335.48337 340.20410
368.0 0.002717 335.40839 339.59058
315.0 0.003175 335.33316 338.88818
307.0 0.003257 335.25778 338.16315
341.0 0.002933 335.18216 337.48697
340.0 0.002941 335.10635 336.91299
347.0 0.002882 335.03036 336.46600
335.0 0.002985 334.95419 336.14359
336.0 0.002976 334.87781 335.92560
340.0 0.002941 334.80124 335.78503
339.0 0.002950 334.72449 335.69727
358.0 0.002793 334.64755 335.64395
342.0 0.002924 334.57043 335.61392
318.0 0.003145 334.49313 335.60162
315.0 0.003175 334.41565 335.60547
309.0 0.003236 334.33795 335.62640
298.0 0.003356 334.26013 335.66776
356.0 0.002809 334.18207 335.73672
312.0 0.003205 334.10388 335.84808
334.0 0.002994 334.02551 336.03366
338.0 0.002959 333.94696 336.35867
357.0 0.002801 333.86826 337.00888
357.0 0.002801 333.78937 338.08994
316.0 0.003165 333.71033 340.00177
345.0 0.002899 333.63110 343.20709
337.0 0.002967 333.55170 348.20599
387.0 0.002584 333.47217 355.37036
378.0 0.002646 333.39246 364.72079
367.0 0.002725 333.31262 375.70129
351.0 0.002849 333.23260 387.13171
379.0 0.002639 333.15240 397.17145
344.0 0.002907 333.07211 403.89648
344.0 0.002907 332.99164 406.05408
367.0 0.002725 332.91104 404.01645
380.0 0.002632 332.83026 399.63544
364.0 0.002747 332.74936 395.13297
371.0 0.002695 332.66830 392.22006
350.0 0.002857 332.58713 391.74393
368.0 0.002717 332.50583 393.68036
367.0 0.002725 332.42435 397.44434
387.0 0.002584 332.34274 402.39520
405.0 0.002469 332.26102 407.98453
426.0 0.002347 332.17917 413.41455
438.0 0.002283 332.09720 417.38803
372.0 0.002688 332.01508 418.39044
416.0 0.002404 331.93283 415.56433
430.0 0.002326 331.85049 409.53836
464.0 0.002155 331.76801 402.08118
398.0 0.002513 331.68542 394.85110
414.0 0.002415 331.60272 388.85535
391.0 0.002558 331.51987 384.10617
387.0 0.002584 331.43695 379.81699
372.0 0.002688 331.35388 374.97260
385.0 0.002597 331.27075 369.08145
367.0 0.002725 331.18747 362.42123
376.0 0.002660 331.10410 355.61749
341.0 0.002933 331.02066 349.35434
360.0 0.002778 330.93707 344.10925
358.0 0.002793 330.85342 340.08496
336.0 0.002976 330.76965 337.23410
325.0 0.003077 330.68579 335.35010
327.0 0.003058 330.60184 334.16788
340.0 0.002941 330.51779 333.44342
308.0 0.003247 330.43369 332.99402
350.0 0.002857 330.34946 332.70456
314.0 0.003185 330.26517 332.50537
329.0 0.003040 330.18079 332.36166
329.0 0.003040 330.09631 332.25751
349.0 0.002865 330.01178 332.18713
336.0 0.002976 329.92715 332.15131
361.0 0.002770 329.84247 332.15704
312.0 0.003205 329.75769 332.22253
376.0 0.002660 329.67285 332.38855
323.0 0.003096 329.58795 332.73849
323.0 0.003096 329.50296 333.43011
334.0 0.002994 329.41791 334.73190
340.0 0.002941 329.33279 337.04739
361.0 0.002770 329.24762 340.90009
352.0 0.002841 329.16238 346.83353
351.0 0.002849 329.07709 355.23105
311.0 0.003215 328.99173 366.05981
393.0 0.002545 328.90634 378.65323
480.0 0.002083 328.82086 391.63431
466.0 0.002146 328.73535 403.01111
471.0 0.002123 328.64978 410.61826
466.0 0.002146 328.56415 413.00128
474.0 0.002110 328.47849 410.40814
472.0 0.002119 328.39276 404.64896
476.0 0.002101 328.30704 397.91391
412.0 0.002427 328.22122 391.76175
385.0 0.002597 328.13535 386.72464
371.0 0.002695 328.04950 382.34085
398.0 0.002513 327.96356 377.61356
392.0 0.002551 327.87759 371.80496
370.0 0.002703 327.79160 364.93979
382.0 0.002618 327.70557 357.57764
297.0 0.003367 327.61951 350.57556
338.0 0.002959 327.53339 344.50818
367.0 0.002725 327.44727 339.76794
348.0 0.002874 327.36108 336.49863
336.0 0.002976 327.27490 334.68646
344.0 0.002907 327.18869 334.27737
345.0 0.002899 327.10245 335.24710
323.0 0.003096 327.01617 337.72025
335.0 0.002985 326.92990 341.74765
344.0 0.002907 326.84357 347.26953
355.0 0.002817 326.75726 353.94635
418.0 0.002392 326.67090 361.02744
426.0 0.002347 326.58453 367.58295
434.0 0.002304 326.49814 372.35321
453.0 0.002208 326.41171 374.37640
453.0 0.002208 326.32532 373.51062
431.0 0.002320 326.23886 370.56445
437.0 0.002288 326.15240 366.74957
442.0 0.002262 326.06595 363.05820
355.0 0.002817 325.97943 359.93631
369.0 0.002710 325.89297 357.34161
382.0 0.002618 325.80646 354.75092
338.0 0.002959 325.71997 351.65988
393.0 0.002545 325.63345 347.92383
348.0 0.002874 325.54691 343.78705
413.0 0.002421 325.46039 339.65320
345.0 0.002899 325.37384 335.89438
334.0 0.002994 325.28732 332.76361
374.0 0.002674 325.20074 330.35660
342.0 0.002924 325.11420 328.63394
373.0 0.002681 325.02765 327.47003
337.0 0.002967 324.94107 326.71033
309.0 0.003236 324.85455 326.21530
321.0 0.003115 324.76797 325.87930
297.0 0.003367 324.68140 325.63315
318.0 0.003145 324.59485 325.43610
321.0 0.003115 324.50830 325.26617
339.0 0.002950 324.42172 325.11240
315.0 0.003175 324.33517 324.96906
291.0 0.003436 324.24860 324.83353
337.0 0.002967 324.16205 324.70407
316.0 0.003165 324.07550 324.57999
335.0 0.002985 323.98895 324.45966
323.0 0.003096 323.90244 324.34283
297.0 0.003367 323.81586 324.22910
327.0 0.003058 323.72934 324.11795
349.0 0.002865 323.64282 324.00916
346.0 0.002890 323.55630 323.90234
320.0 0.003125 323.46976 323.79730
338.0 0.002959 323.38324 323.69400
313.0 0.003195 323.29675 323.59195
352.0 0.002841 323.21024 323.49109
272.0 0.00368 323.12375 323.33066
337.0 0.002967 323.03726 323.23373
337.0 0.002967 322.95074 323.13763
319.0 0.003135 322.86429 323.04227
308.0 0.003247 322.77780 322.94922
350.0 0.002857 322.69138 322.85516
312.0 0.003205 322.60492 322.76163
298.0 0.003356 322.51843 322.63855
314.0 0.003185 322.43204 322.54645
297.0 0.003367 322.34558 322.45517
309.0 0.003236 322.25916 322.36423
307.0 0.003257 322.17273 322.27359
329.0 0.003040 322.08633 322.18417
318.0 0.003145 321.99994 322.09418
324.0 0.003086 321.91354 322.00583
289.0 0.003460 321.82715 321.91635
315.0 0.003175 321.74078 321.82706
319.0 0.003135 321.65442 321.73798
309.0 0.003236 321.56805 321.64914
320.0 0.003125 321.48169 321.56046
306.0 0.003268 321.39536 321.47195
292.0 0.003425 321.30899 321.38361
294.0 0.003401 321.22266 321.29614
307.0 0.003257 321.13635 321.20813
285.0 0.00351 321.05002 321.12030
345.0 0.002899 320.96371 320.99762
343.0 0.002915 320.87741 320.91116
289.0 0.003460 320.79111 320.82477
322.0 0.003106 320.70480 320.73853
327.0 0.003058 320.61850 320.65234
325.0 0.003077 320.53226 320.56628
320.0 0.003125 320.44595 320.48038
337.0 0.002967 320.35968 320.37689
318.0 0.003145 320.27344 320.29184
306.0 0.003268 320.18716 320.20685
292.0 0.003425 320.10092 320.12210
327.0 0.003058 320.01465 320.03763
293.0 0.003413 319.92841 319.95334
307.0 0.003257 319.84216 319.86966
291.0 0.003436 319.75592 319.78677
318.0 0.003145 319.66971 319.70547
323.0 0.003096 319.58347 319.62692
339.0 0.002950 319.49725 319.55298
320.0 0.003125 319.41101 319.48663
363.0 0.002755 319.32480 319.43118
282.0 0.00355 319.23859 319.39038
299.0 0.003344 319.15234 319.36655
311.0 0.003215 319.06613 319.35968
306.0 0.003268 318.97992 319.36575
310.0 0.003226 318.89371 319.37631
319.0 0.003135 318.80750 319.37900
268.0 0.00373 318.72128 319.35968
308.0 0.003247 318.63507 319.30750
328.0 0.003049 318.54886 319.22095
307.0 0.003257 318.46265 319.11050
317.0 0.003155 318.37643 318.99304
326.0 0.003067 318.29022 318.88525
323.0 0.003096 318.20398 318.80103
326.0 0.003067 318.11777 318.75058
292.0 0.003425 318.03156 318.74094
319.0 0.003135 317.94534 318.77759
318.0 0.003145 317.85910 318.86523
278.0 0.00360 317.77286 319.00421
299.0 0.003344 317.68665 319.18430
322.0 0.003106 317.60040 319.38107
320.0 0.003125 317.51416 319.55661
326.0 0.003067 317.42792 319.66690
317.0 0.003155 317.34164 319.67938
282.0 0.00355 317.25540 319.59470
313.0 0.003195 317.16913 319.45261
331.0 0.003021 317.08289 319.31088
296.0 0.003378 316.99661 319.21890
325.0 0.003077 316.91034 319.20093
317.0 0.003155 316.82407 319.24899
329.0 0.003040 316.73776 319.32489
348.0 0.002874 316.65146 319.37329
334.0 0.002994 316.56516 319.34216
332.0 0.003012 316.47885 319.21631
342.0 0.002924 316.39255 318.96170
367.0 0.002725 316.30621 318.62714
331.0 0.003021 316.21988 318.26395
324.0 0.003086 316.13354 317.91855
349.0 0.002865 316.04718 317.61850
292.0 0.003425 315.96082 317.36835
359.0 0.002786 315.87445 317.15302
326.0 0.003067 315.78806 316.95618
316.0 0.003165 315.70169 316.74091
318.0 0.003145 315.61526 316.50977
316.0 0.003165 315.52887 316.26987
316.0 0.003165 315.44244 316.03311
312.0 0.003205 315.35602 315.83878
299.0 0.003344 315.26956 315.64044
288.0 0.003472 315.18311 315.47128
310.0 0.003226 315.09668 315.32370
337.0 0.002967 315.01019 315.19672
308.0 0.003247 314.92371 315.08511
330.0 0.003030 314.83722 314.98413
330.0 0.003030 314.75067 314.88977
303.0 0.003300 314.66418 314.81317
334.0 0.002994 314.57764 314.72577
317.0 0.003155 314.49112 314.64151
331.0 0.003021 314.40454 314.55670
293.0 0.003413 314.31796 314.47275
304.0 0.003289 314.23138 314.38950
325.0 0.003077 314.14481 314.30685
314.0 0.003185 314.05820 314.22491
280.0 0.00357 313.97156 314.14359
297.0 0.003367 313.88492 314.06296
314.0 0.003185 313.79828 313.98300
319.0 0.003135 313.71164 313.90384
315.0 0.003175 313.62497 313.82544
286.0 0.003497 313.53827 313.74792
335.0 0.002985 313.45157 313.67145
304.0 0.003289 313.36484 313.59592
319.0 0.003135 313.27811 313.52164
270.0 0.00370 313.19138 313.44815
323.0 0.003096 313.10461 313.37677
313.0 0.003195 313.01782 313.30710
317.0 0.003155 312.93106 313.23935
341.0 0.002933 312.84424 313.17386
287.0 0.003484 312.75745 313.11102
337.0 0.002967 312.67059 313.05121
322.0 0.003106 312.58377 312.99521
290.0 0.003448 312.49692 312.94357
311.0 0.003215 312.41006 312.89853
284.0 0.00352 312.32315 312.86261
300.0 0.003333 312.23627 312.84146
325.0 0.003077 312.14935 312.84625
297.0 0.003367 312.06241 312.89716
315.0 0.003175 311.97549 313.03018
302.0 0.003311 311.88852 313.30035
310.0 0.003226 311.80154 313.79303
309.0 0.003236 311.71457 314.60901
309.0 0.003236 311.62759 315.85593
326.0 0.003067 311.54056 317.61673
287.0 0.003484 311.45349 319.90741
342.0 0.002924 311.36646 322.64069
328.0 0.003049 311.27939 325.60129
354.0 0.002825 311.19232 328.45383
359.0 0.002786 311.10522 330.79535
346.0 0.002890 311.01813 332.25204
343.0 0.002915 310.93100 332.67249
356.0 0.002809 310.84384 332.25012
354.0 0.002825 310.75671 331.46991
357.0 0.002801 310.66953 330.89975
345.0 0.002899 310.58237 331.02618
343.0 0.002915 310.49515 332.15555
340.0 0.002941 310.40793 334.35864
373.0 0.002681 310.32071 337.46082
336.0 0.002976 310.23346 341.10608
337.0 0.002967 310.14621 344.82965
379.0 0.002639 310.05893 348.10626
357.0 0.002801 309.97159 350.35718
356.0 0.002809 309.88431 351.08051
355.0 0.002817 309.79697 350.10153
376.0 0.002660 309.70966 347.72363
358.0 0.002793 309.62228 344.57428
333.0 0.003003 309.53488 341.30997
329.0 0.003040 309.44751 338.39191
331.0 0.003021 309.36008 335.98038
335.0 0.002985 309.27267 333.94077
329.0 0.003040 309.18521 331.94806
334.0 0.002994 309.09772 329.69183
316.0 0.003165 309.01025 327.05307
368.0 0.002717 308.92273 324.12286
313.0 0.003195 308.83524 321.11371
326.0 0.003067 308.74768 318.25623
283.0 0.00353 308.66013 315.73883
288.0 0.003472 308.57254 313.67014
304.0 0.003289 308.48495 312.07373
306.0 0.003268 308.39734 310.90750
312.0 0.003205 308.30969 310.08954
327.0 0.003058 308.22202 309.52841
317.0 0.003155 308.13437 309.14157
317.0 0.003155 308.04666 308.86478
296.0 0.003378 307.95892 308.65399
293.0 0.003413 307.87119 308.48135
307.0 0.003257 307.78339 308.35818
285.0 0.00351 307.69562 308.22180
316.0 0.003165 307.60779 308.12570
281.0 0.00356 307.51996 308.00497
314.0 0.003185 307.43210 307.88898
313.0 0.003195 307.34421 307.77682
282.0 0.00355 307.25629 307.66800
323.0 0.003096 307.16833 307.56204
301.0 0.003322 307.08038 307.47208
315.0 0.003175 306.99237 307.37149
272.0 0.00368 306.90436 307.28873
307.0 0.003257 306.81628 307.19308
305.0 0.003279 306.72821 307.14981
275.0 0.00364 306.64008 307.06165
288.0 0.003472 306.55194 306.97809
273.0 0.00366 306.46375 306.90179
320.0 0.003125 306.37555 306.83676
305.0 0.003279 306.28729 306.78906
319.0 0.003135 306.19901 306.76642
310.0 0.003226 306.11072 306.77747
310.0 0.003226 306.02234 306.85370
302.0 0.003311 305.93396 306.95047
320.0 0.003125 305.84552 307.08725
313.0 0.003195 305.75708 307.25058
316.0 0.003165 305.66852 307.41696
290.0 0.003448 305.57999 307.55533
311.0 0.003215 305.49139 307.61542
335.0 0.002985 305.40274 307.60818
292.0 0.003425 305.31406 307.51324
296.0 0.003378 305.22531 307.35190
327.0 0.003058 305.13654 307.15747
299.0 0.003344 305.04773 306.96072
290.0 0.003448 304.95883 306.78061
288.0 0.003472 304.86990 306.62177
287.0 0.003484 304.78091 306.46725
318.0 0.003145 304.69186 306.31921
308.0 0.003247 304.60278 306.15674
309.0 0.003236 304.51364 305.97772
283.0 0.00353 304.42444 305.78967
303.0 0.003300 304.33514 305.57660
324.0 0.003086 304.24582 305.40601
330.0 0.003030 304.15643 305.25494
300.0 0.003333 304.06696 305.13516
317.0 0.003155 303.97748 305.04489
297.0 0.003367 303.88785 304.98303
308.0 0.003247 303.79819 304.94751
327.0 0.003058 303.70847 304.93729
312.0 0.003205 303.61865 304.94025
291.0 0.003436 303.52878 304.99158
282.0 0.00355 303.43878 305.09299
329.0 0.003040 303.34875 305.28253
296.0 0.003378 303.25864 305.61987
309.0 0.003236 303.16843 306.20950
271.0 0.00369 303.07816 307.20956
305.0 0.003279 302.98776 308.83978
312.0 0.003205 302.89728 311.37003
260.0 0.00385 302.80673 315.08209
305.0 0.003279 302.71606 320.20538
298.0 0.003356 302.62534 326.81882
293.0 0.003413 302.53448 334.76700
283.0 0.00353 302.44354 343.58731
343.0 0.002915 302.35251 352.51126
334.0 0.002994 302.26132 360.56186
340.0 0.002941 302.17007 366.76727
339.0 0.002950 302.07870 370.51462
373.0 0.002681 301.98721 371.82904
351.0 0.002849 301.89563 371.44354
355.0 0.002817 301.80389 370.56512
348.0 0.002874 301.71210 370.42453
369.0 0.002710 301.62012 371.83875
357.0 0.002801 301.52805 374.95749
397.0 0.002519 301.43582 379.22073
427.0 0.002342 301.34351 383.53220
477.0 0.002096 301.25104 386.60983
440.0 0.002273 301.15842 387.18149
439.0 0.002278 301.06567 384.63022
433.0 0.002309 300.97278 379.13376
441.0 0.002268 300.87976 371.65784
417.0 0.002398 300.78656 363.51715
369.0 0.002710 300.69327 355.86136
355.0 0.002817 300.59976 349.39374
384.0 0.002604 300.50613 344.27835
335.0 0.002985 300.41235 340.22610
372.0 0.002688 300.31836 336.58618
319.0 0.003135 300.22427 332.81763
331.0 0.003021 300.12994 328.67105
353.0 0.002833 300.03552 324.17944
357.0 0.002801 299.94086 319.62115
352.0 0.002841 299.84607 315.30347
301.0 0.003322 299.75107 311.48007
315.0 0.003175 299.65585 308.30878
310.0 0.003226 299.56052 305.83673
302.0 0.003311 299.46494 304.01077
321.0 0.003115 299.36920 302.72122
300.0 0.003333 299.27325 301.83603
297.0 0.003367 299.17709 301.23236
309.0 0.003236 299.08075 300.81152
315.0 0.003175 298.98416 300.50299
278.0 0.00360 298.88742 300.26080
319.0 0.003135 298.79041 300.05908
310.0 0.003226 298.69321 299.88223
312.0 0.003205 298.59579 299.72253
311.0 0.003215 298.49814 299.57632
313.0 0.003195 298.40027 299.44266
284.0 0.00352 298.30215 299.32147
311.0 0.003215 298.20380 299.21384
275.0 0.00364 298.10522 299.12057
294.0 0.003401 298.00641 299.04184
289.0 0.003460 297.90735 298.97647
296.0 0.003378 297.80801 298.92200
323.0 0.003096 297.70840 298.87332
316.0 0.003165 297.60861 298.82455
301.0 0.003322 297.50851 298.76871
317.0 0.003155 297.40817 298.70038
316.0 0.003165 297.30753 298.61826
293.0 0.003413 297.20663 298.52597
298.0 0.003356 297.10547 298.43094
288.0 0.003472 297.00403 298.34100
294.0 0.003401 296.90231 298.26321
314.0 0.003185 296.80029 298.20334
294.0 0.003401 296.69797 298.16714
283.0 0.00353 296.59540 298.16519
305.0 0.003279 296.49249 298.27759
303.0 0.003300 296.38931 298.42850
298.0 0.003356 296.28580 298.74832
283.0 0.00353 296.18198 299.35004
325.0 0.003077 296.07791 300.36475
270.0 0.00370 295.97345 302.04562
307.0 0.003257 295.86871 304.54401
320.0 0.003125 295.76364 308.10272
298.0 0.003356 295.65826 312.76706
309.0 0.003236 295.55252 318.47314
338.0 0.002959 295.44647 324.85208
367.0 0.002725 295.34009 331.38721
400.0 0.002500 295.23334 337.33755
422.0 0.002370 295.12631 341.92645
397.0 0.002519 295.01886 344.47083
362.0 0.002762 294.91113 344.80692
376.0 0.002660 294.80298 343.28253
396.0 0.002525 294.69452 340.83231
364.0 0.002747 294.58566 338.30557
355.0 0.002817 294.47644 336.39227
358.0 0.002793 294.36691 335.42746
342.0 0.002924 294.25696 335.34955
344.0 0.002907 294.14667 335.75461
369.0 0.002710 294.03598 336.06625
363.0 0.002755 293.92493 335.74100
414.0 0.002415 293.81348 334.51077
361.0 0.002770 293.70166 332.23932
366.0 0.002732 293.58942 329.01407
351.0 0.002849 293.47678 325.13901
335.0 0.002985 293.36380 321.06595
328.0 0.003049 293.25040 317.23663
352.0 0.002841 293.13660 313.96094
330.0 0.003030 293.02240 311.35910
316.0 0.003165 292.90775 309.37393
307.0 0.003257 292.79276 307.81235
303.0 0.003300 292.67731 306.42087
302.0 0.003311 292.56149 304.98801
303.0 0.003300 292.44522 303.42047
289.0 0.003460 292.32852 301.73492
307.0 0.003257 292.21146 300.02347
270.0 0.00370 292.09390 298.39001
274.0 0.00365 291.97598 296.92465
255.0 0.00392 291.85757 295.68402
331.0 0.003021 291.73877 294.68817
297.0 0.003367 291.61954 293.92435
291.0 0.003436 291.49985 293.35730
301.0 0.003322 291.37976 292.94507
277.0 0.00361 291.25919 292.64157
287.0 0.003484 291.13818 292.41321
303.0 0.003300 291.01678 292.23380
328.0 0.003049 290.89490 292.08594
302.0 0.003311 290.77261 291.95908
284.0 0.00352 290.64981 291.84753
291.0 0.003436 290.52658 291.74841
292.0 0.003425 290.40295 291.66055
299.0 0.003344 290.27884 291.58481
273.0 0.00366 290.15430 291.52216
295.0 0.003390 290.02927 291.47491
263.0 0.00380 289.90378 291.44760
300.0 0.003333 289.77786 291.44876
293.0 0.003413 289.65149 291.49429
276.0 0.00362 289.52466 291.61484
295.0 0.003390 289.39737 291.86548
277.0 0.00361 289.26959 292.34064
291.0 0.003436 289.14139 293.19193
294.0 0.003401 289.01273 294.64273
276.0 0.00362 288.88364 296.99136
296.0 0.003378 288.75403 300.59387
326.0 0.003067 288.62396 305.80774
305.0 0.003279 288.49350 312.90030
300.0 0.003333 288.36252 321.93927
315.0 0.003175 288.23114 332.66867
310.0 0.003226 288.09924 344.45328
358.0 0.002793 287.96695 356.26385
378.0 0.002646 287.83417 366.77341
341.0 0.002933 287.70096 374.57574
378.0 0.002646 287.56723 378.56250
376.0 0.002660 287.43307 378.38629
357.0 0.002801 287.29849 374.83057
389.0 0.002571 287.16342 369.19104
304.0 0.003289 287.02795 362.87109
348.0 0.002874 286.89200 356.92554
315.0 0.003175 286.75565 351.85678
323.0 0.003096 286.61877 347.59637
335.0 0.002985 286.48154 343.63913
312.0 0.003205 286.34378 339.28027
305.0 0.003279 286.20560 334.06891
341.0 0.002933 286.06705 327.96664
293.0 0.003413 285.92798 321.29608
283.0 0.00353 285.78854 314.53455
287.0 0.003484 285.64865 308.14670
272.0 0.00368 285.50836 302.50043
263.0 0.00380 285.36758 297.80786
272.0 0.00368 285.22641 294.13354
287.0 0.003484 285.08484 291.39334
298.0 0.003356 284.94284 289.43900
258.0 0.00388 284.80045 288.08826
295.0 0.003390 284.65762 287.16687
269.0 0.00372 284.51440 286.53354
279.0 0.00358 284.37082 286.08582
284.0 0.00352 284.22678 285.75793
273.0 0.00366 284.08240 285.51413
303.0 0.003300 283.93759 285.34039
255.0 0.00392 283.79239 285.23761
269.0 0.00372 283.64688 285.21533
295.0 0.003390 283.50092 285.28577
309.0 0.003236 283.35464 285.45755
267.0 0.00375 283.20798 285.72922
288.0 0.003472 283.06094 286.08371
276.0 0.00362 282.91360 286.48587
268.0 0.00373 282.76587 286.88275
281.0 0.00356 282.61783 287.18027
271.0 0.00369 282.46942 287.36890
322.0 0.003106 282.32065 287.37033
270.0 0.00370 282.17163 287.17584
276.0 0.00362 282.02225 286.82281
256.0 0.00391 281.87259 286.37689
299.0 0.003344 281.72256 285.90402
282.0 0.00355 281.57227 285.45316
259.0 0.00386 281.42169 285.06323
289.0 0.003460 281.27081 284.69733
266.0 0.00376 281.11969 284.34775
289.0 0.003460 280.96823 283.97897
274.0 0.00365 280.81653 283.56998
286.0 0.003497 280.66461 283.11853
299.0 0.003344 280.51242 282.63925
272.0 0.00368 280.35999 282.15494
277.0 0.00361 280.20731 281.68781
257.0 0.00389 280.05438 281.26431
280.0 0.00357 279.90131 280.87939
266.0 0.00376 279.74796 280.54526
270.0 0.00370 279.59445 280.25778
282.0 0.00355 279.44073 280.01059
279.0 0.00358 279.28683 279.79523
302.0 0.003311 279.13275 279.60315
246.0 0.00407 278.97849 279.42734
298.0 0.003356 278.82410 279.26257
279.0 0.00358 278.66953 279.10532
284.0 0.00352 278.51489 278.95340
276.0 0.00362 278.36002 278.80588
280.0 0.00357 278.20514 278.66269
289.0 0.003460 278.05005 278.52411
283.0 0.00353 277.89496 278.39203
284.0 0.00352 277.73969 278.26968
305.0 0.003279 277.58435 278.16327
255.0 0.00392 277.42899 278.08392
267.0 0.00375 277.27353 278.05005
316.0 0.003165 277.11807 278.09064
274.0 0.00365 276.96255 278.24728
298.0 0.003356 276.80704 278.57480
270.0 0.00370 276.65143 279.13748
281.0 0.00356 276.49588 279.99991
283.0 0.00353 276.34030 281.15253
268.0 0.00373 276.18472 282.72986
292.0 0.003425 276.02924 284.63113
296.0 0.003378 275.87375 286.75052
276.0 0.00362 275.71835 288.91217
306.0 0.003268 275.56299 290.88632
275.0 0.00364 275.40768 292.41693
312.0 0.003205 275.25253 293.28238
314.0 0.003185 275.09741 293.34915
286.0 0.003497 274.94247 292.74844
300.0 0.003333 274.78757 291.66125
270.0 0.00370 274.63284 290.34787
327.0 0.003058 274.47830 289.03146
296.0 0.003378 274.32388 287.84961
300.0 0.003333 274.16968 286.83978
284.0 0.00352 274.01563 285.94583
290.0 0.003448 273.86176 285.05286
284.0 0.00352 273.70816 284.04736
293.0 0.003413 273.55475 282.87225
290.0 0.003448 273.40161 281.54749
277.0 0.00361 273.24869 280.14297
285.0 0.00351 273.09601 278.74719
296.0 0.003378 272.94370 277.44208
283.0 0.00353 272.79160 276.28839
277.0 0.00361 272.63986 275.32178
250.0 0.00400 272.48840 274.55035
277.0 0.00361 272.33725 273.96356
279.0 0.00358 272.18652 273.54080
290.0 0.003448 272.03610 273.26263
306.0 0.003268 271.88611 273.12085
279.0 0.00358 271.73645 273.12543
272.0 0.00368 271.58719 273.30936
288.0 0.003472 271.43842 273.72910
277.0 0.00361 271.29001 274.45941
246.0 0.00407 271.14209 275.58173
269.0 0.00372 270.99457 277.16498
301.0 0.003322 270.84753 279.23694
290.0 0.003448 270.70102 281.77023
300.0 0.003333 270.55499 284.64682
285.0 0.00351 270.40948 287.65952
319.0 0.003135 270.26450 290.52463
345.0 0.002899 270.12003 292.90948
324.0 0.003086 269.97617 294.49878
341.0 0.002933 269.83282 295.09433
317.0 0.003155 269.69012 294.70358
327.0 0.003058 269.54797 293.53922
318.0 0.003145 269.40649 291.92212
267.0 0.00375 269.26556 290.17361
307.0 0.003257 269.12537 288.52490
262.0 0.00382 268.98572 287.08713
333.0 0.003003 268.84680 285.84195
282.0 0.00355 268.70859 284.67209
303.0 0.003300 268.57101 283.42261
310.0 0.003226 268.43420 281.97864
309.0 0.003236 268.29807 280.31598
285.0 0.00351 268.16275 278.49283
297.0 0.003367 268.02811 276.61310
257.0 0.00389 267.89429 274.79016
273.0 0.00366 267.76123 273.11993
272.0 0.00368 267.62894 271.66959
266.0 0.00376 267.49750 270.46906
275.0 0.00364 267.36685 269.51620
242.0 0.00413 267.23706 268.78430
264.0 0.00379 267.10812 268.23294
258.0 0.00388 266.98004 267.81894
278.0 0.00360 266.85284 267.50281
268.0 0.00373 266.72647 267.25256
282.0 0.00355 266.60110 267.04489
252.0 0.00397 266.47659 266.86380
252.0 0.00397 266.35303 266.69928
239.0 0.00418 266.23041 266.54507
263.0 0.00380 266.10870 266.39789
237.0 0.00422 265.98804 266.25583
267.0 0.00375 265.86829 266.11758
265.0 0.00377 265.74960 265.98285
263.0 0.00380 265.63187 265.85117
241.0 0.00415 265.51514 265.72253
245.0 0.00408 265.39948 265.59711
260.0 0.00385 265.28485 265.47516
286.0 0.003497 265.17130 265.35748
260.0 0.00385 265.05878 265.24454
272.0 0.00368 264.94733 265.13748
271.0 0.00369 264.83701 265.03702
298.0 0.003356 264.72775 264.93124
255.0 0.00392 264.61963 264.84558
260.0 0.00385 264.51263 264.76630
239.0 0.00418 264.40674 264.69159
260.0 0.00385 264.30203 264.61874
256.0 0.00391 264.19846 264.54419
234.0 0.00427 264.09607 264.46411
243.0 0.00412 263.99481 264.37518
300.0 0.003333 263.89478 264.27582
269.0 0.00372 263.79596 264.16077
278.0 0.00360 263.69830 264.04565
248.0 0.00403 263.60190 263.92801
269.0 0.00372 263.50668 263.81119
255.0 0.00392 263.41272 263.69766
268.0 0.00373 263.32001 263.59341
264.0 0.00379 263.22852 263.48795
261.0 0.00383 263.13831 263.38400
287.0 0.003484 263.04938 263.28021
235.0 0.00426 262.96170 263.17538
264.0 0.00379 262.87534 263.06931
270.0 0.00370 262.79025 262.96295
272.0 0.00368 262.70648 262.85736
247.0 0.00405 262.62396 262.75394
267.0 0.00375 262.54282 262.65378
294.0 0.003401 262.46295 262.56024
269.0 0.00372 262.38443 262.46866
272.0 0.00368 262.30725 262.38113
276.0 0.00362 262.23138 262.29745
284.0 0.00352 262.15689 262.21735
261.0 0.00383 262.08374 262.14023
257.0 0.00389 262.01193 262.06558
274.0 0.00365 261.94150 261.99310
284.0 0.00352 261.87244 261.92261
307.0 0.003257 261.80472 261.85379
259.0 0.00386 261.73837 261.78656
251.0 0.00398 261.67343 261.70444
260.0 0.00385 261.60986 261.64078
265.0 0.00377 261.54770 261.57715
241.0 0.00415 261.48691 261.51639
230.0 0.00435 261.42749 261.45712
234.0 0.00427 261.36948 261.39929
265.0 0.00377 261.31287 261.34293
238.0 0.00420 261.25763 261.28812
290.0 0.003448 261.20380 261.23459
289.0 0.003460 261.15140 261.17444
263.0 0.00380 261.10037 261.12418
259.0 0.00386 261.05075 261.07468
247.0 0.00405 261.00253 261.02737
239.0 0.00418 260.95572 260.98154
256.0 0.00391 260.91031 260.93719
265.0 0.00377 260.86630 260.89438
263.0 0.00380 260.82370 260.85300
282.0 0.00355 260.78250 260.81317
272.0 0.00368 260.74271 260.77484
265.0 0.00377 260.70432 260.73801
250.0 0.00400 260.66727 260.70276
251.0 0.00398 260.63168 260.66904
248.0 0.00403 260.59744 260.63687
274.0 0.00365 260.56461 260.60629
252.0 0.00397 260.53317 260.57730
237.0 0.00422 260.50308 260.54990
283.0 0.00353 260.47440 260.52417
286.0 0.003497 260.44708 260.50012
275.0 0.00364 260.42114 260.47775
236.0 0.00424 260.39655 260.45721
246.0 0.00407 260.37332 260.43842
272.0 0.00368 260.35147 260.42154
273.0 0.00366 260.33093 260.40656
257.0 0.00389 260.31174 260.39383
261.0 0.00383 260.29388 260.38330
273.0 0.00366 260.27737 260.37540
288.0 0.003472 260.26218 260.37079
257.0 0.00389 260.24829 260.37051
227.0 0.00441 260.23572 260.37640
284.0 0.00352 260.22443 260.39185
267.0 0.00375 260.21445 260.42221
249.0 0.00402 260.20575 260.47583
281.0 0.00356 260.19830 260.56494
260.0 0.00385 260.19214 260.70596
257.0 0.00389 260.18723 260.91940
246.0 0.00407 260.18353 261.22760
269.0 0.00372 260.18109 261.65146
265.0 0.00377 260.17987 262.20581
282.0 0.00355 260.17987 262.89209
257.0 0.00389 260.18106 263.69431
242.0 0.00413 260.18344 264.57477
301.0 0.003322 260.18701 265.47330
262.0 0.00382 260.19174 266.31284
277.0 0.00361 260.19760 267.00665
284.0 0.00352 260.20462 267.47577
322.0 0.003106 260.21277 267.67300
242.0 0.00413 260.22202 267.60306
308.0 0.003247 260.23239 267.32242
243.0 0.00412 260.24380 266.91635
249.0 0.00402 260.25632 266.46942
280.0 0.00357 260.26990 266.04593
285.0 0.00351 260.28452 265.68073
282.0 0.00355 260.30014 265.37592
275.0 0.00364 260.31680 265.10666
284.0 0.00352 260.33444 264.83246
265.0 0.00377 260.35309 264.51581
279.0 0.00358 260.37268 264.13855
246.0 0.00407 260.39322 263.70618
249.0 0.00402 260.41467 263.24149
253.0 0.00395 260.43707 262.77386
258.0 0.00388 260.46036 262.33170
273.0 0.00366 260.48453 261.93802
273.0 0.00366 260.50952 261.60742
263.0 0.00380 260.53540 261.34583
258.0 0.00388 260.56210 261.15115
259.0 0.00386 260.58960 261.01553
240.0 0.00417 260.61786 260.92850
263.0 0.00380 260.64691 260.87848
222.0 0.00450 260.67673 260.85544
257.0 0.00389 260.70724 260.85086
265.0 0.00377 260.73853 260.85861
273.0 0.00366 260.77045 260.87433
288.0 0.003472 260.80304 260.89523
244.0 0.00410 260.83630 260.91977
252.0 0.00397 260.87018 260.94644
232.0 0.00431 260.90469 260.97488
254.0 0.00394 260.93976 261.00516
245.0 0.00408 260.97543 261.03616
275.0 0.00364 261.01163 261.06836
263.0 0.00380 261.04834 261.10138
257.0 0.00389 261.08557 261.13531
260.0 0.00385 261.12329 261.17004
256.0 0.00391 261.16144 261.20551
263.0 0.00380 261.20004 261.24173
289.0 0.003460 261.23907 261.27850
256.0 0.00391 261.27850 261.31586
261.0 0.00383 261.31827 261.35397
257.0 0.00389 261.35843 261.39401
274.0 0.00365 261.39890 261.43298
262.0 0.00382 261.43964 261.47223
230.0 0.00435 261.48068 261.51202
246.0 0.00407 261.52200 261.55219
247.0 0.00405 261.56354 261.59253
271.0 0.00369 261.60529 261.63327
245.0 0.00408 261.64722 261.67422
254.0 0.00394 261.68933 261.71542
256.0 0.00391 261.73157 261.75699
279.0 0.00358 261.77396 261.79947
296.0 0.003378 261.81641 261.84128
256.0 0.00391 261.85892 261.88315
271.0 0.00369 261.90152 261.92523
266.0 0.00376 261.94409 261.96735
258.0 0.00388 261.98669 262.00949
264.0 0.00379 262.02927 262.05161
271.0 0.00369 262.07181 262.09384
249.0 0.00402 262.11429 262.13605
295.0 0.003390 262.15665 262.17804
293.0 0.003413 262.19891 262.22015
282.0 0.00355 262.24100 262.26212
265.0 0.00377 262.28296 262.30386
253.0 0.00395 262.32471 262.34555
234.0 0.00427 262.36627 262.38705
276.0 0.00362 262.40756 262.42834
278.0 0.00360 262.44864 262.46939
274.0 0.00365 262.48941 262.51022
266.0 0.00376 262.52988 262.55084
226.0 0.00442 262.57004 262.59113
289.0 0.003460 262.60980 262.63107
284.0 0.00352 262.64923 262.67078
262.0 0.00382 262.68823 262.71005
252.0 0.00397 262.72684 262.74374
257.0 0.00389 262.76501 262.78204
274.0 0.00365 262.80270 262.82043
233.0 0.00429 262.83990 262.85831
258.0 0.00388 262.87662 262.89578
250.0 0.00400 262.91281 262.93283
271.0 0.00369 262.94839 262.96942
248.0 0.00403 262.98346 263.00555
259.0 0.00386 263.01791 263.04123
250.0 0.00400 263.05173 263.07648
244.0 0.00410 263.08493 263.10867
252.0 0.00397 263.11746 263.14310
256.0 0.00391 263.14932 263.18875
268.0 0.00373 263.18051 263.22354
256.0 0.00391 263.21091 263.25873
268.0 0.00373 263.24063 263.29510
265.0 0.00377 263.26956 263.33331
263.0 0.00380 263.29773 263.37491
266.0 0.00376 263.32507 263.42130
240.0 0.00417 263.35162 263.47440
250.0 0.00400 263.37732 263.53613
251.0 0.00398 263.40216 263.60837
269.0 0.00372 263.42612 263.69812
246.0 0.00407 263.44922 263.79449
256.0 0.00391 263.47137 263.90207
254.0 0.00394 263.49261 264.01828
261.0 0.00383 263.51291 264.13928
256.0 0.00391 263.53226 264.26001
290.0 0.003448 263.55060 264.37531
226.0 0.00442 263.56796 264.48145
258.0 0.00388 263.58432 264.57736
279.0 0.00358 263.59964 264.66577
282.0 0.00355 263.61395 264.75320
244.0 0.00410 263.62720 264.84906
289.0 0.003460 263.63934 264.96906
247.0 0.00405 263.65045 265.11081
247.0 0.00405 263.66043 265.28259
257.0 0.00389 263.66931 265.48810
280.0 0.00357 263.67706 265.70026
267.0 0.00375 263.68369 265.90826
277.0 0.00361 263.68915 266.08942
255.0 0.00392 263.69348 266.22058
258.0 0.00388 263.69659 266.28345
242.0 0.00413 263.69858 266.27090
250.0 0.00400 263.69934 266.18991
255.0 0.00392 263.69891 266.06229
262.0 0.00382 263.69727 265.90634
281.0 0.00356 263.69440 265.74667
278.0 0.00360 263.69031 265.60272
308.0 0.003247 263.68500 265.47467
297.0 0.003367 263.67841 265.36542
275.0 0.00364 263.67059 265.26804
284.0 0.00352 263.66150 265.17090
275.0 0.00364 263.65112 265.06387
305.0 0.003279 263.63950 264.94144
278.0 0.00360 263.62662 264.80396
270.0 0.00370 263.61243 264.65689
293.0 0.003413 263.59695 264.50723
281.0 0.00356 263.58017 264.36267
263.0 0.00380 263.56213 264.22885
267.0 0.00375 263.54276 264.11008
270.0 0.00370 263.52206 264.00836
270.0 0.00370 263.50012 263.92355
256.0 0.00391 263.47684 263.85410
279.0 0.00358 263.45227 263.79785
264.0 0.00379 263.42636 263.75247
283.0 0.00353 263.39917 263.71591
232.0 0.00431 263.37067 263.68716
278.0 0.00360 263.34085 263.66583
280.0 0.00357 263.30972 263.65329
251.0 0.00398 263.27728 263.65274
234.0 0.00427 263.24356 263.67023
245.0 0.00408 263.20853 263.71594
276.0 0.00362 263.17221 263.80417
268.0 0.00373 263.13458 263.95602
258.0 0.00388 263.09567 264.19803
266.0 0.00376 263.05548 264.56198
261.0 0.00383 263.01401 265.08167
251.0 0.00398 262.97125 265.78757
279.0 0.00358 262.92725 266.69980
258.0 0.00388 262.88196 267.82034
277.0 0.00361 262.83542 269.12476
240.0 0.00417 262.78763 270.55923
257.0 0.00389 262.73862 272.03809
297.0 0.003367 262.68839 273.44925
287.0 0.003484 262.63690 274.66589
295.0 0.003390 262.58423 275.56277
285.0 0.00351 262.53030 276.04703
287.0 0.003484 262.47522 276.08945
295.0 0.003390 262.41898 275.73926
262.0 0.00382 262.36154 275.10626
288.0 0.003472 262.30298 274.32336
252.0 0.00397 262.24323 273.51208
256.0 0.00391 262.18234 272.76279
283.0 0.00353 262.12036 272.12393
264.0 0.00379 262.05725 271.60233
282.0 0.00355 261.99310 271.17160
263.0 0.00380 261.92783 270.78925
281.0 0.00356 261.86148 270.42151
277.0 0.00361 261.79410 270.06522
295.0 0.003390 261.72568 269.75412
267.0 0.00375 261.65628 269.54907
287.0 0.003484 261.58585 269.51764
302.0 0.003311 261.51440 269.71756
283.0 0.00353 261.44205 270.18115
277.0 0.00361 261.36871 270.90668
287.0 0.003484 261.29449 271.84979
295.0 0.003390 261.21930 272.92615
281.0 0.00356 261.14328 274.01956
289.0 0.003460 261.06631 274.99759
273.0 0.00366 260.98853 275.73788
286.0 0.003497 260.90991 276.15054
280.0 0.00357 260.83047 276.19443
306.0 0.003268 260.75027 275.88361
303.0 0.003300 260.66925 275.28494
261.0 0.00383 260.58752 274.49942
279.0 0.00358 260.50504 273.63498
274.0 0.00365 260.42184 272.78287
260.0 0.00385 260.33795 271.98126
295.0 0.003390 260.25342 271.24942
294.0 0.003401 260.16824 270.56235
280.0 0.00357 260.08240 269.87833
267.0 0.00375 259.99603 269.15253
281.0 0.00356 259.90906 268.35101
251.0 0.00398 259.82153 267.46188
258.0 0.00388 259.73349 266.49881
254.0 0.00394 259.64493 265.51102
262.0 0.00382 259.55588 264.51306
253.0 0.00395 259.46640 263.57532
231.0 0.00433 259.37650 262.70459
270.0 0.00370 259.28616 261.93646
263.0 0.00380 259.19547 261.28104
238.0 0.00420 259.10440 260.73630
272.0 0.00368 259.01297 260.29251
226.0 0.00442 258.92130 259.93399
251.0 0.00398 258.82932 259.64352
259.0 0.00386 258.73709 259.40491
267.0 0.00375 258.64462 259.21164
221.0 0.00452 258.55191 259.03833
262.0 0.00382 258.45908 258.89050
259.0 0.00386 258.36606 258.75027
239.0 0.00418 258.27295 258.62021
263.0 0.00380 258.17969 258.49756
272.0 0.00368 258.08633 258.38077
261.0 0.00383 257.99295 258.26880
253.0 0.00395 257.89954 258.16064
256.0 0.00391 257.80615 258.05566
260.0 0.00385 257.71274 257.95319
274.0 0.00365 257.61935 257.85278
244.0 0.00410 257.52612 257.75409
278.0 0.00360 257.43292 257.65683
256.0 0.00391 257.33987 257.56091
243.0 0.00412 257.24695 257.46616
262.0 0.00382 257.15417 257.37268
243.0 0.00412 257.06165 257.28052
251.0 0.00398 256.96930 257.18970
277.0 0.00361 256.87723 257.10062
271.0 0.00369 256.78537 257.01346
234.0 0.00427 256.69382 256.92856
263.0 0.00380 256.60263 256.84601
231.0 0.00433 256.51169 256.76620
258.0 0.00388 256.42117 256.68893
260.0 0.00385 256.33102 256.61404
277.0 0.00361 256.24124 256.53021
273.0 0.00366 256.15195 256.45920
239.0 0.00418 256.06305 256.38904
295.0 0.003390 255.97464 256.31866
278.0 0.00360 255.88670 256.24744
263.0 0.00380 255.79927 256.17465
246.0 0.00407 255.71240 256.10052
279.0 0.00358 255.62605 256.02539
265.0 0.00377 255.54028 255.95030
248.0 0.00403 255.45509 255.87680
260.0 0.00385 255.37053 255.80115
236.0 0.00424 255.28656 255.73608
274.0 0.00365 255.20326 255.67839
224.0 0.00446 255.12061 255.63094
262.0 0.00382 255.03860 255.59789
240.0 0.00417 254.95734 255.58517
291.0 0.003436 254.87675 255.60086
252.0 0.00397 254.79692 255.65594
262.0 0.00382 254.71779 255.76395
254.0 0.00394 254.63945 255.94084
283.0 0.00353 254.56184 256.20346
228.0 0.00439 254.48505 256.56857
269.0 0.00372 254.40901 257.04517
238.0 0.00420 254.33380 257.65585
240.0 0.00417 254.25941 258.40442
248.0 0.00403 254.18582 259.28973
263.0 0.00380 254.11311 260.33344
280.0 0.00357 254.04121 261.53665
271.0 0.00369 253.97021 262.91031
240.0 0.00417 253.90005 264.47629
266.0 0.00376 253.83076 266.24805
267.0 0.00375 253.76236 268.25586
267.0 0.00375 253.69484 270.51822
233.0 0.00429 253.62823 273.01935
252.0 0.00397 253.56252 275.70374
235.0 0.00426 253.49770 278.44601
273.0 0.00366 253.43381 281.06207
300.0 0.003333 253.37079 283.34100
284.0 0.00352 253.30873 285.05154
316.0 0.003165 253.24756 286.01135
259.0 0.00386 253.18732 286.13181
289.0 0.003460 253.12801 285.45114
290.0 0.003448 253.06958 284.11569
305.0 0.003279 253.01212 282.35101
322.0 0.003106 252.95554 280.39230
290.0 0.003448 252.89987 278.43988
278.0 0.00360 252.84515 276.62677
242.0 0.00413 252.79129 275.00534
273.0 0.00366 252.73837 273.55380
266.0 0.00376 252.68634 272.19363
277.0 0.00361 252.63519 270.82477
257.0 0.00389 252.58495 269.36270
261.0 0.00383 252.53557 267.76450
257.0 0.00389 252.48708 266.03824
300.0 0.003333 252.43942 264.23123
261.0 0.00383 252.39262 262.41376
257.0 0.00389 252.34669 260.66061
253.0 0.00395 252.30157 259.03693
265.0 0.00377 252.25729 257.59265
258.0 0.00388 252.21379 256.35599
226.0 0.00442 252.17110 255.33534
238.0 0.00420 252.12920 254.52135
251.0 0.00398 252.08806 253.89111
255.0 0.00392 252.04767 253.41556
274.0 0.00365 252.00801 253.06288
239.0 0.00418 251.96907 252.80360
240.0 0.00417 251.93085 252.61232
260.0 0.00385 251.89330 252.46867
270.0 0.00370 251.85643 252.35760
246.0 0.00407 251.82019 252.26854
247.0 0.00405 251.78458 252.19431
260.0 0.00385 251.74957 252.13054
245.0 0.00408 251.71516 252.07468
241.0 0.00415 251.68134 252.02534
270.0 0.00370 251.64801 251.98183
260.0 0.00385 251.61523 251.94418
263.0 0.00380 251.58292 251.91945
267.0 0.00375 251.55109 251.89322
264.0 0.00379 251.51973 251.87222
260.0 0.00385 251.48877 251.85565
250.0 0.00400 251.45821 251.84241
231.0 0.00433 251.42799 251.83081
246.0 0.00407 251.39815 251.81909
265.0 0.00377 251.36864 251.80507
262.0 0.00382 251.33939 251.78668
236.0 0.00424 251.31041 251.76241
269.0 0.00372 251.28163 251.73166
265.0 0.00377 251.25308 251.69861
265.0 0.00377 251.22473 251.65779
259.0 0.00386 251.19646 251.61461
289.0 0.003460 251.16835 251.57108
256.0 0.00391 251.14029 251.52864
246.0 0.00407 251.11229 251.48833
238.0 0.00420 251.08434 251.45059
268.0 0.00373 251.05634 251.41490
253.0 0.00395 251.02831 251.38071
256.0 0.00391 251.00020 251.34720
254.0 0.00394 250.97197 251.31398
248.0 0.00403 250.94365 251.28117
258.0 0.00388 250.91510 251.24995
238.0 0.00420 250.88637 251.22354
222.0 0.00450 250.85738 251.20349
266.0 0.00376 250.82814 251.19562
253.0 0.00395 250.79860 251.20651
245.0 0.00408 250.76869 251.24484
242.0 0.00413 250.73843 251.31610
240.0 0.00417 250.70775 251.44359
280.0 0.00357 250.67664 251.63560
257.0 0.00389 250.64510 251.90503
245.0 0.00408 250.61298 252.26295
239.0 0.00418 250.58035 252.71387
272.0 0.00368 250.54715 253.25539
245.0 0.00408 250.51335 253.87372
251.0 0.00398 250.47894 254.54221
245.0 0.00408 250.44382 255.21149
285.0 0.00351 250.40802 255.86301
264.0 0.00379 250.37144 256.41641
242.0 0.00413 250.33414 256.84900
292.0 0.003425 250.29605 257.10547
256.0 0.00391 250.25710 257.16782
287.0 0.003484 250.21732 257.04639
289.0 0.003460 250.17659 256.77814
296.0 0.003378 250.13498 256.41455
265.0 0.00377 250.09245 256.00851
263.0 0.00380 250.04889 255.60280
266.0 0.00376 250.00436 255.22041
271.0 0.00369 249.95876 254.88774
258.0 0.00388 249.91211 254.58762
267.0 0.00375 249.86440 254.31459
268.0 0.00373 249.81552 254.03706
243.0 0.00412 249.76555 253.73207
246.0 0.00407 249.71437 253.38481
264.0 0.00379 249.66200 252.99416
290.0 0.003448 249.60849 252.57001
243.0 0.00412 249.55362 252.12738
230.0 0.00435 249.49757 251.68542
258.0 0.00388 249.44020 251.26042
231.0 0.00433 249.38153 250.86722
255.0 0.00392 249.32162 250.51572
251.0 0.00398 249.26025 250.21008
214.0 0.00467 249.19760 249.95172
259.0 0.00386 249.13353 249.73717
245.0 0.00408 249.06807 249.56143
246.0 0.00407 249.00130 249.41830
255.0 0.00392 248.93298 249.30148
221.0 0.00452 248.86331 249.20648
237.0 0.00422 248.79213 249.13022
247.0 0.00405 248.71953 249.07236
248.0 0.00403 248.64554 249.03554
248.0 0.00403 248.56995 249.02556
255.0 0.00392 248.49297 249.05220
259.0 0.00386 248.41443 249.12886
260.0 0.00385 248.33443 249.27240
245.0 0.00408 248.25301 249.50175
247.0 0.00405 248.17000 249.83701
235.0 0.00426 248.08553 250.29437
231.0 0.00433 247.99951 250.88547
251.0 0.00398 247.91202 251.60995
263.0 0.00380 247.82314 252.45377
268.0 0.00373 247.73264 253.38925
242.0 0.00413 247.64072 254.36774
264.0 0.00379 247.54724 255.32925
228.0 0.00439 247.45235 256.20087
261.0 0.00383 247.35608 256.90649
259.0 0.00386 247.25826 257.38013
260.0 0.00385 247.15904 257.57660
227.0 0.00441 247.05833 257.49036
253.0 0.00395 246.95625 257.15646
244.0 0.00410 246.85289 256.64081
248.0 0.00403 246.74802 256.01923
245.0 0.00408 246.64186 255.36484
237.0 0.00422 246.53429 254.73242
252.0 0.00397 246.42545 254.15634
278.0 0.00360 246.31543 253.64687
225.0 0.00444 246.20401 253.19052
249.0 0.00402 246.09143 252.76016
258.0 0.00388 245.97754 252.32053
243.0 0.00412 245.86258 251.84375
263.0 0.00380 245.74649 251.31691
227.0 0.00441 245.62920 250.74364
282.0 0.00355 245.51091 250.14926
270.0 0.00370 245.39143 249.54521
233.0 0.00429 245.27106 248.96304
235.0 0.00426 245.14978 248.42358
252.0 0.00397 245.02742 247.93967
215.0 0.00465 244.90430 247.51805
247.0 0.00405 244.78021 247.15547
232.0 0.00431 244.65535 246.84303
218.0 0.00459 244.52982 246.56717
258.0 0.00388 244.40343 246.31276
254.0 0.00394 244.27650 246.06853
254.0 0.00394 244.14883 245.82681
271.0 0.00369 244.02065 245.58910
234.0 0.00427 243.89201 245.35133
276.0 0.00362 243.76277 245.11943
247.0 0.00405 243.63326 244.89711
235.0 0.00426 243.50325 244.68607
219.0 0.00457 243.37299 244.48668
269.0 0.00372 243.24260 244.29701
287.0 0.003484 243.11179 244.11270
265.0 0.00377 242.98103 243.92964
235.0 0.00426 242.85005 243.74281
256.0 0.00391 242.71912 243.54951
225.0 0.00444 242.58835 243.34917
239.0 0.00418 242.45753 243.14265
233.0 0.00429 242.32695 242.93311
230.0 0.00435 242.19650 242.72343
277.0 0.00361 242.06642 242.51712
247.0 0.00405 241.93681 242.31242
245.0 0.00408 241.80746 242.12025
237.0 0.00422 241.67868 241.93752
233.0 0.00429 241.55037 241.76437
277.0 0.00361 241.42271 241.60078
235.0 0.00426 241.29588 241.44594
248.0 0.00403 241.16965 241.29840
265.0 0.00377 241.04430 241.15736
240.0 0.00417 240.91975 241.02139
230.0 0.00435 240.79620 240.88962
236.0 0.00424 240.67381 240.76132
232.0 0.00431 240.55234 240.63333
242.0 0.00413 240.43210 240.51009
266.0 0.00376 240.31300 240.38879
232.0 0.00431 240.19524 240.26939
227.0 0.00441 240.07895 240.15193
254.0 0.00394 239.96391 240.03604
241.0 0.00415 239.85045 239.92197
251.0 0.00398 239.73846 239.80966
250.0 0.00400 239.62811 239.69922
236.0 0.00424 239.51958 239.59077
247.0 0.00405 239.41261 239.48413
255.0 0.00392 239.30753 239.37958
256.0 0.00391 239.20424 239.27705
237.0 0.00422 239.10291 239.17670
234.0 0.00427 239.00366 239.07867
269.0 0.00372 238.90631 238.98283
240.0 0.00417 238.81113 238.88937
273.0 0.00366 238.71805 238.79829
221.0 0.00452 238.62720 238.70970
260.0 0.00385 238.53870 238.62383
240.0 0.00417 238.45238 238.54050
221.0 0.00452 238.36850 238.46002
230.0 0.00435 238.28694 238.38231
233.0 0.00429 238.20790 238.30762
245.0 0.00408 238.13139 238.23610
266.0 0.00376 238.05733 238.16785
249.0 0.00402 237.98593 238.10330
215.0 0.00465 237.91704 238.04272
234.0 0.00427 237.85089 237.98698
250.0 0.00400 237.78743 237.93713
247.0 0.00405 237.72664 237.89482
232.0 0.00431 237.66864 237.86275
217.0 0.00461 237.61336 237.84477
243.0 0.00412 237.56090 237.84631
223.0 0.00448 237.51128 237.87485
229.0 0.00437 237.46448 237.93280
238.0 0.00420 237.42055 238.04614
252.0 0.00397 237.37944 238.22099
244.0 0.00410 237.34123 238.47084
209.0 0.00478 237.30594 238.80792
247.0 0.00405 237.27348 239.24223
271.0 0.00369 237.24397 239.77614
240.0 0.00417 237.21730 240.40553
233.0 0.00429 237.19353 241.11453
242.0 0.00413 237.17265 241.87630
252.0 0.00397 237.15463 242.65575
277.0 0.00361 237.13947 243.40552
241.0 0.00415 237.12712 244.07227
228.0 0.00439 237.11760 244.61572
246.0 0.00407 237.11089 244.98193
249.0 0.00402 237.10692 245.15207
235.0 0.00426 237.10567 245.12833
228.0 0.00439 237.10715 244.93953
251.0 0.00398 237.11125 244.63237
249.0 0.00402 237.11800 244.25951
226.0 0.00442 237.12730 243.86801
234.0 0.00427 237.13914 243.49568
254.0 0.00394 237.15347 243.16386
225.0 0.00444 237.17020 242.87933
230.0 0.00435 237.18929 242.63510
227.0 0.00441 237.21068 242.40656
241.0 0.00415 237.23430 242.17485
254.0 0.00394 237.26010 241.91199
250.0 0.00400 237.28799 241.60709
205.0 0.00488 237.31789 241.25917
237.0 0.00422 237.34973 240.87657
221.0 0.00452 237.38344 240.47560
253.0 0.00395 237.41895 240.07347
243.0 0.00412 237.45612 239.68808
220.0 0.00455 237.49484 239.33443
235.0 0.00426 237.53511 239.02289
264.0 0.00379 237.57678 238.76009
229.0 0.00437 237.61978 238.54955
225.0 0.00444 237.66397 238.38773
233.0 0.00429 237.70920 238.27100
231.0 0.00433 237.75551 238.19284
247.0 0.00405 237.80264 238.14685
265.0 0.00377 237.85060 238.12610
235.0 0.00426 237.89920 238.12469
268.0 0.00373 237.94827 238.13763
248.0 0.00403 237.99786 238.16095
234.0 0.00427 238.04771 238.19154
257.0 0.00389 238.09779 238.22726
236.0 0.00424 238.14789 238.26649
206.0 0.00485 238.19792 238.30809
231.0 0.00433 238.24783 238.35147
260.0 0.00385 238.29738 238.39580
221.0 0.00452 238.34657 238.44092
228.0 0.00439 238.39514 238.48640
226.0 0.00442 238.44302 238.53217
232.0 0.00431 238.49016 238.57813
242.0 0.00413 238.53630 238.62407
242.0 0.00413 238.58145 238.67009
249.0 0.00402 238.62540 238.71606
261.0 0.00383 238.66801 238.76491
257.0 0.00389 238.70926 238.81076
253.0 0.00395 238.74892 238.85626
238.0 0.00420 238.78696 238.90132
229.0 0.00437 238.82320 238.94540
230.0 0.00435 238.85753 238.98814
241.0 0.00415 238.88992 239.02907
250.0 0.00400 238.92017 239.06741
254.0 0.00394 238.94823 239.10271
255.0 0.00392 238.97395 239.13429
259.0 0.00386 238.99728 239.16171
233.0 0.00429 239.01813 239.18480
218.0 0.00459 239.03638 239.20366
248.0 0.00403 239.05197 239.22005
234.0 0.00427 239.06480 239.23152
248.0 0.00403 239.07481 239.23996
267.0 0.00375 239.08194 239.24586
257.0 0.00389 239.08612 239.24954
249.0 0.00402 239.08733 239.25119
252.0 0.00397 239.08546 239.25104
225.0 0.00444 239.08052 239.24908
244.0 0.00410 239.07246 239.24559
248.0 0.00403 239.06125 239.24443
244.0 0.00410 239.04688 239.23915
246.0 0.00407 239.02936 239.23473
244.0 0.00410 239.00867 239.23329
269.0 0.00372 238.98480 239.23817
231.0 0.00433 238.95781 239.25368
211.0 0.00474 238.92767 239.28548
233.0 0.00429 238.89449 239.34053
225.0 0.00444 238.85831 239.42683
246.0 0.00407 238.81911 239.55322
218.0 0.00459 238.77704 239.72783
244.0 0.00410 238.73212 239.95811
221.0 0.00452 238.68448 240.24832
240.0 0.00417 238.63426 240.60048
238.0 0.00420 238.58148 241.00702
238.0 0.00420 238.52632 241.45815
248.0 0.00403 238.46887 241.93784
253.0 0.00395 238.40933 242.42313
257.0 0.00389 238.34790 242.88728
269.0 0.00372 238.28462 243.30295
257.0 0.00389 238.21977 243.64221
231.0 0.00433 238.15346 243.88495
244.0 0.00410 238.08600 244.02150
231.0 0.00433 238.01759 244.05170
221.0 0.00452 237.94836 244.00648
217.0 0.00461 237.87865 243.90659
216.0 0.00463 237.80859 243.77948
242.0 0.00413 237.73859 243.64775
247.0 0.00405 237.66890 243.52519
248.0 0.00403 237.59964 243.41469
269.0 0.00372 237.53128 243.30971
234.0 0.00427 237.46394 243.19469
238.0 0.00420 237.39810 243.04988
254.0 0.00394 237.33401 242.85631
245.0 0.00408 237.27191 242.60112
248.0 0.00403 237.21225 242.27960
256.0 0.00391 237.15521 241.90561
245.0 0.00408 237.10126 241.49284
203.0 0.00493 237.05069 241.06161
241.0 0.00415 237.00375 240.63068
240.0 0.00417 236.96091 240.21805
237.0 0.00422 236.92239 239.83528
258.0 0.00388 236.88858 239.49008
249.0 0.00402 236.85982 239.18436
233.0 0.00429 236.83633 238.91536
284.0 0.00352 236.81854 238.67903
245.0 0.00408 236.80667 238.47041
238.0 0.00420 236.80106 238.28639
257.0 0.00389 236.80191 238.12593
226.0 0.00442 236.80952 237.98961
237.0 0.00422 236.82413 237.88043
241.0 0.00415 236.84593 237.80229
231.0 0.00433 236.87511 237.76054
236.0 0.00424 236.91176 237.76088
222.0 0.00450 236.95616 237.80923
224.0 0.00446 237.00819 237.91086
237.0 0.00422 237.06807 238.07025
223.0 0.00448 237.13570 238.28947
222.0 0.00450 237.21097 238.56799
245.0 0.00408 237.29398 238.90262
240.0 0.00417 237.38437 239.28511
236.0 0.00424 237.48206 239.70442
240.0 0.00417 237.58665 240.14441
261.0 0.00383 237.69771 240.58601
236.0 0.00424 237.81506 241.00931
254.0 0.00394 237.93791 241.39203
222.0 0.00450 238.06581 241.71576
253.0 0.00395 238.19792 241.96661
269.0 0.00372 238.33330 242.14018
250.0 0.00400 238.47134 242.24313
226.0 0.00442 238.61070 242.29036
255.0 0.00392 238.75035 242.30270
274.0 0.00365 238.88884 242.30234
252.0 0.00397 239.02460 242.30983
244.0 0.00410 239.15628 242.34207
244.0 0.00410 239.28185 242.41087
230.0 0.00435 239.39946 242.52271
261.0 0.00383 239.50684 242.67818
240.0 0.00417 239.60156 242.87265
233.0 0.00429 239.68127 243.09824
233.0 0.00429 239.74300 243.34358
246.0 0.00407 239.78378 243.59724
250.0 0.00400 239.80026 243.84720
271.0 0.00369 239.78897 244.07861
249.0 0.00402 239.74600 244.27678
229.0 0.00437 239.66731 244.42253
219.0 0.00457 239.54837 244.49472
248.0 0.00403 239.38451 244.47023
250.0 0.00400 239.17085 244.32773
233.0 0.00429 238.90140 244.05016
234.0 0.00427 238.57082 243.62988
265.0 0.00377 238.17244 243.06863
222.0 0.00450 237.70013 242.37842
242.0 0.00413 237.14679 241.57312
219.0 0.00457 236.50400 240.66653
238.0 0.00420 235.76511 239.67195
237.0 0.00422 234.91968 238.59138
266.0 0.00376 233.96068 237.42552
231.0 0.00433 232.87804 236.16470
240.0 0.00417 231.65994 234.79094
254.0 0.00394 230.29811 233.28577
220.0 0.00455 228.77827 231.62219
232.0 0.00431 227.09023 229.77878
243.0 . . .
loop_
_refln_index_h
_refln_index_k
_refln_index_l
_pd_refln_wavelength_id
_refln_observed_status
_refln_F_squared_meas
_refln_F_squared_calc
_refln_phase_calc
_refln_d_spacing
_gsas_i100_meas
0 0 1 1 o 386.228 400.446 0.00 7.38992 29.85
0 0 1 2 o 376.721 400.446 0.00 7.38992 14.51
1 0 1 1 o 158.290 153.964 180.00 4.77221 28.42
1 0 1 2 o 162.076 153.964 180.00 4.77221 14.47
1 1 0 1 o 104.119 84.460 180.00 4.41956 7.49
1 1 0 2 o 103.127 84.460 180.00 4.41956 3.69
1 1 1 1 o 963.514 949.133 0.00 3.79300 100.00
1 1 1 2 o 980.730 949.133 0.00 3.79300 50.59
0 0 2 1 o 651.273 584.596 0.00 3.69496 11.69
0 0 2 2 o 586.551 584.596 0.00 3.69496 5.27
1 0 2 1 o 79.021 61.566 180.00 3.18072 4.84
1 0 2 2 o 82.646 61.566 180.00 3.18072 2.51
2 0 0 1 o 2317.649 2286.996 180.00 3.12510 56.33
2 0 0 2 o 2209.050 2286.996 180.00 3.12510 26.74
2 0 1 1 o 273.584 255.671 180.00 2.87831 18.92
2 0 1 2 o 264.008 255.671 180.00 2.87831 9.10
1 1 2 1 o 394.466 378.718 0.00 2.83476 18.29
1 1 2 2 o 383.271 378.718 0.00 2.83476 8.85
2 1 1 1 o 24.779 34.786 0.00 2.61441 2.35
2 1 1 2 o 17.099 34.786 0.00 2.61441 0.81
0 0 3 1 o 741.718 378.938 0.00 2.46331 5.37
0 0 3 2 o 648.365 378.938 0.00 2.46331 2.34
2 0 2 1 o 218.174 253.748 180.00 2.38611 9.36
2 0 2 2 o 203.699 253.748 180.00 2.38611 4.37
1 0 3 1 o 22.333 13.587 180.00 2.29174 0.63
1 0 3 2 o 25.466 13.587 180.00 2.29174 0.36
2 1 2 1 o 67.684 55.628 0.00 2.22918 4.14
2 1 2 2 o 63.582 55.628 0.00 2.22918 1.93
2 2 0 1 o 827.708 879.652 0.00 2.20978 14.70
2 2 0 2 o 766.294 879.652 0.00 2.20978 6.79
1 1 3 1 o 108.985 137.380 0.00 2.15166 2.89
1 1 3 2 o 103.393 137.380 0.00 2.15166 1.37
2 2 1 1 o 241.037 166.765 0.00 2.11715 7.84
2 2 1 2 o 206.894 166.765 0.00 2.11715 3.37
3 0 1 1 o -0.162 9.551 0.00 2.00524 0.00
3 0 1 2 o -0.162 9.551 0.00 2.00524 0.00
3 1 0 1 o 15.240 0.081 0.00 1.97649 0.27
3 1 0 2 o 13.028 0.081 0.00 1.97649 0.12
2 0 3 1 o 239.283 179.086 180.00 1.93457 5.19
2 0 3 2 o 223.311 179.086 180.00 1.93457 2.41
3 1 1 1 o 138.553 136.127 180.00 1.90938 6.08
3 1 1 2 o 120.598 136.127 180.00 1.90938 2.66
2 2 2 1 o 167.368 123.159 0.00 1.89650 3.72
2 2 2 2 o 141.184 123.159 0.00 1.89650 1.57
2 1 3 1 o -0.093 4.220 0.00 1.84807 0.00
0 0 4 1 o -2.992 13.064 0.00 1.84748 0.00
2 1 3 2 o -0.093 4.220 0.00 1.84807 0.00
0 0 4 2 o -2.992 13.064 0.00 1.84748 0.00
3 0 2 1 o 17.867 40.908 0.00 1.81479 0.43
3 0 2 2 o 14.002 40.908 0.00 1.81479 0.17
1 0 4 1 o 1.386 0.757 180.00 1.77170 0.02
1 0 4 2 o 6.798 0.757 180.00 1.77170 0.05
3 1 2 1 o 120.663 95.127 180.00 1.74282 4.88
3 1 2 2 o 113.381 95.127 180.00 1.74282 2.29
1 1 4 1 o 249.777 241.894 0.00 1.70454 3.60
1 1 4 2 o 230.310 241.894 0.00 1.70454 1.65
3 2 1 1 o 5.696 1.197 180.00 1.68768 0.19
3 2 1 2 o 7.303 1.197 180.00 1.68768 0.12
2 2 3 1 o 68.886 92.113 0.00 1.64490 0.97
2 2 3 2 o 57.285 92.113 0.00 1.64490 0.41
3 0 3 1 o 3.487 1.676 0.00 1.59074 0.05
2 0 4 1 o 10.736 5.051 180.00 1.59036 0.15
3 0 3 2 o 1.177 1.676 0.00 1.59074 0.01
2 0 4 2 o 2.808 5.051 180.00 1.59036 0.03
3 2 2 1 o 18.409 35.630 180.00 1.56937 0.54
3 2 2 2 o 24.537 35.630 180.00 1.56937 0.35
4 0 0 1 o 229.338 220.107 0.00 1.56255 1.13
4 0 0 2 o 273.348 220.107 0.00 1.56255 0.66
3 1 3 1 o 69.318 42.161 180.00 1.54159 1.91
2 1 4 1 o 1.472 0.916 0.00 1.54125 0.03
3 1 3 2 o 55.416 42.161 180.00 1.54159 0.77
2 1 4 2 o 1.144 0.916 0.00 1.54125 0.01
4 0 1 1 o 104.378 56.882 0.00 1.52875 1.24
4 0 1 2 o 111.935 56.882 0.00 1.52875 0.66
4 1 1 1 o -0.015 0.456 180.00 1.48498 0.00
4 1 1 2 o -0.015 0.456 180.00 1.48498 0.00
0 0 5 1 o -2.108 14.187 0.00 1.47798 0.00
0 0 5 2 o 57.912 14.187 0.00 1.47798 0.06
3 3 0 1 o 26.064 3.305 0.00 1.47319 0.17
3 3 0 2 o 12.030 3.305 0.00 1.47319 0.04
3 3 1 1 o 31.807 24.032 0.00 1.44476 0.42
3 3 1 2 o 30.773 24.032 0.00 1.44476 0.20
4 0 2 1 o 39.833 38.399 0.00 1.43916 0.55
1 0 5 1 o 6.900 7.177 180.00 1.43832 0.06
4 0 2 2 o 23.233 38.399 0.00 1.43916 0.17
1 0 5 2 o 3.162 7.177 180.00 1.43832 0.01
3 2 3 1 o 0.409 0.361 180.00 1.41765 0.01
2 2 4 1 o 1.354 1.743 0.00 1.41738 0.02
3 2 3 2 o -0.015 0.361 180.00 1.41765 0.00
2 2 4 2 o -0.774 1.743 0.00 1.41738 0.00
4 1 2 1 o 8.936 22.712 180.00 1.40246 0.21
1 1 5 1 o 39.857 66.829 0.00 1.40168 0.37
4 1 2 2 o 28.370 22.712 180.00 1.40246 0.32
1 1 5 2 o 95.274 66.829 0.00 1.40168 0.41
4 2 0 1 o 155.167 101.897 180.00 1.39759 1.39
4 2 0 2 o 169.912 101.897 180.00 1.39759 0.75
3 0 4 1 o 3.146 0.698 0.00 1.38228 0.03
3 0 4 2 o 0.626 0.698 0.00 1.38228 0.00
4 2 1 1 o 74.793 42.486 180.00 1.37325 1.41
3 3 2 2 o 24.610 30.900 0.00 1.36843 0.14
4 2 1 2 o 74.918 42.486 180.00 1.37325 0.70
3 3 2 1 o 56.363 30.900 0.00 1.36843 0.62
3 1 4 1 o 62.930 87.560 180.00 1.34967 1.16
3 1 4 2 o 30.831 87.560 180.00 1.34967 0.31
2 0 5 1 o -1.343 8.991 180.00 1.33609 0.00
2 0 5 2 o -1.343 8.991 180.00 1.33609 0.00
4 0 3 1 o 41.358 28.422 0.00 1.31948 0.46
4 0 3 2 o 49.774 28.422 0.00 1.31948 0.27
4 2 2 1 o 45.325 21.493 180.00 1.30720 0.85
2 1 5 1 o 4.696 2.430 0.00 1.30657 0.07
4 2 2 2 o 30.052 21.493 180.00 1.30720 0.29
2 1 5 2 o 2.794 2.430 0.00 1.30657 0.02
4 1 3 1 o -0.012 0.280 180.00 1.29102 0.00
4 1 3 2 o 4.491 0.280 180.00 1.29102 0.04
3 3 3 1 o 43.180 15.027 0.00 1.26433 0.36
3 2 4 1 o 1.969 0.741 180.00 1.26414 0.03
3 3 3 2 o 14.529 15.027 0.00 1.26433 0.06
3 2 4 2 o 0.437 0.741 180.00 1.26414 0.00
4 3 1 1 o -0.001 0.427 180.00 1.23253 0.00
5 0 1 1 o -0.003 0.049 180.00 1.23253 0.00
0 0 6 1 o -0.934 6.402 0.00 1.23165 0.00
4 3 1 2 o -0.001 0.427 180.00 1.23253 0.00
5 0 1 2 o -0.003 0.049 180.00 1.23253 0.00
0 0 6 2 o -0.934 6.402 0.00 1.23165 0.00
2 2 5 1 o 0.048 5.846 0.00 1.22852 0.01
5 1 0 1 o 3.779 0.150 0.00 1.22577 0.02
2 2 5 2 o 76.786 5.846 0.00 1.22852 0.24
5 1 0 2 o 2.781 0.150 0.00 1.22577 0.01
4 2 3 1 o 16.776 16.234 180.00 1.21557 0.28
4 2 3 2 o 28.406 16.234 180.00 1.21557 0.23
5 1 1 1 o 19.667 9.870 0.00 1.20924 0.25
1 0 6 1 o 54.950 32.111 0.00 1.20841 0.31
5 1 1 2 o 9.288 9.870 0.00 1.20924 0.06
3 0 5 1 o 0.151 0.966 0.00 1.20546 0.00
1 0 6 2 o 4.256 32.111 0.00 1.20841 0.01
3 0 5 2 o -0.012 0.966 0.00 1.20546 0.00
4 0 4 1 o 4.610 0.112 0.00 1.19305 0.04
4 0 4 2 o 0.415 0.112 0.00 1.19305 0.00
1 1 6 1 o 12.533 20.199 0.00 1.18644 0.08
5 0 2 1 o 9.989 10.366 180.00 1.18411 0.08
4 3 2 1 o 16.220 16.830 0.00 1.18411 0.25
3 1 5 1 o 22.750 21.320 180.00 1.18365 0.30
1 1 6 2 o 21.991 20.199 0.00 1.18644 0.07
5 0 2 2 o 10.972 10.366 180.00 1.18411 0.04
4 3 2 2 o 17.814 16.830 0.00 1.18411 0.14
3 1 5 2 o 21.026 21.320 180.00 1.18365 0.14
4 1 4 1 o 5.348 0.370 180.00 1.17189 0.08
4 1 4 2 o 1.628 0.370 180.00 1.17189 0.01
5 1 2 1 o 27.388 9.546 0.00 1.16342 0.40
5 1 2 2 o 13.218 9.546 0.00 1.16342 0.10
3 3 4 1 o 15.742 36.481 0.00 1.15182 0.11
3 3 4 2 o 27.145 36.481 0.00 1.15182 0.09
5 2 1 1 o 0.152 0.127 180.00 1.14658 0.00
2 0 6 1 o 13.076 4.576 180.00 1.14587 0.08
5 2 1 2 o 0.893 0.127 180.00 1.14658 0.01
2 0 6 2 o 42.253 4.576 180.00 1.14587 0.12
2 1 6 1 o 24.617 16.510 180.00 1.12709 0.27
3 2 5 1 o 0.096 0.163 180.00 1.12469 0.00
2 1 6 2 o 10.546 16.510 180.00 1.12709 0.06
3 2 5 2 o 1.457 0.163 180.00 1.12469 0.01
4 3 3 1 o 0.004 0.000 180.00 1.11472 0.00
5 0 3 1 o 6.399 0.164 180.00 1.11472 0.05
4 2 4 1 o 2.099 0.000 0.00 1.11459 0.03
4 3 3 2 o 0.002 0.000 180.00 1.11472 0.00
5 0 3 2 o 4.454 0.164 180.00 1.11472 0.02
4 2 4 2 o 1.352 0.000 0.00 1.11459 0.01
5 2 2 1 o 7.284 9.975 0.00 1.10729 0.10
4 4 0 1 o 18.533 13.400 0.00 1.10489 0.07
5 2 2 2 o 15.372 9.975 0.00 1.10729 0.10
4 4 0 2 o 34.000 13.400 0.00 1.10489 0.06
5 1 3 1 o 9.944 5.490 0.00 1.09741 0.15
5 1 3 2 o 7.924 5.490 0.00 1.09741 0.06
4 4 1 1 o 10.484 14.708 0.00 1.09274 0.08
4 4 1 2 o 25.462 14.708 0.00 1.09274 0.09
