#------------------------------------------------------------------------------
#$Date: 2016-02-14 16:26:36 +0200 (Sun, 14 Feb 2016) $
#$Revision: 176435 $
#$URL: svn://www.crystallography.net/cod/cif/1/51/62/1516205.cif $
#------------------------------------------------------------------------------
#
# This file is available in the Crystallography Open Database (COD),
# http://www.crystallography.net/
#
# All data on this site have been placed in the public domain by the
# contributors.
#
data_1516205
loop_
_publ_author_name
'Migliorati, Valentina'
'Ballirano, Paolo'
'Gontrani, Lorenzo'
'Russina, Olga'
'Caminiti, Ruggero'
_publ_section_title
;
 Crystal polymorphism of propylammonium chloride and structural properties
 of its mixture with water.
;
_journal_issue                   41
_journal_name_full               'The journal of physical chemistry. B'
_journal_page_first              11805
_journal_page_last               11815
_journal_paper_doi               10.1021/jp206831d
_journal_volume                  115
_journal_year                    2011
_chemical_formula_sum            'C3 Cl N'
_chemical_formula_weight         85.49
_chemical_name_systematic        ' ?'
_space_group_IT_number           129
_symmetry_cell_setting           tetragonal
_symmetry_space_group_name_Hall  '-P 4a 2a'
_symmetry_space_group_name_H-M   'P 4/n m m :2'
_audit_creation_date             2011-07-21T08:55
_audit_creation_method           'from EXP file using GSAS2CIF'
_audit_update_record
' 2011-07-21T08:55  Initial CIF as created by GSAS2CIF'
_cell_angle_alpha                90.0
_cell_angle_beta                 90.0
_cell_angle_gamma                90.0
_cell_formula_units_Z            2
_cell_length_a                   6.25716(7)
_cell_length_b                   6.25716
_cell_length_c                   7.39742(18)
_cell_volume                     289.624(8)
_computing_structure_refinement  GSAS
_diffrn_radiation_probe          x-ray
_exptl_absorpt_correction_T_max  0.81793
_exptl_absorpt_correction_T_min  0.81483
_exptl_absorpt_process_details
;   GSAS Absorption/surface roughness correction: function number 0
 Debye-Scherrer absorption correction
Term (= MU.r/wave) =     0.78580E-01
Correction is not refined.
;
_pd_block_id                     2011-07-21T08:55|60|paolo|Bruker_AXS_D8_Advance
_pd_calc_method                  'Rietveld Refinement'
_pd_instr_location               ' ?'
_pd_meas_2theta_range_inc        0.022
_pd_meas_2theta_range_max        89.988
_pd_meas_2theta_range_min        3.0
_pd_meas_number_of_points        3955
_pd_phase_name                   'Propylammonium chloride'
_pd_proc_2theta_range_inc        0.022
_pd_proc_2theta_range_max        89.988
_pd_proc_2theta_range_min        3.0
_pd_proc_info_datetime           2011-07-21T08:55:50
_pd_proc_info_excluded_regions   ' ?'
_pd_proc_ls_background_function
;   GSAS Background function number 1 with 30 terms.
 Shifted Chebyshev function of 1st kind
      1:    516.938     2:   -350.284     3:    46.5892     4:    78.0361    
      5:   -71.9552     6:   0.426173     7:    68.7288     8:   -76.4761    
      9:    35.4304    10:    9.80348    11:   -28.8385    12:    25.2879    
     13:   -5.44674    14:   -8.52186    15:    3.44105    16:    1.42753    
     17:   -2.59264    18:  -7.646060E-0219:   0.729442    20:  -2.645900E-02
     21:   -4.14791    22:    3.13672    23:   -1.44794    24:   -2.05284    
     25:    3.07675    26:   -1.36399    27:   -2.68132    28:    2.48748    
     29:   -1.93540    30:   9.661760E-02
;
_pd_proc_ls_peak_cutoff          0.00100
_pd_proc_ls_profile_function
;
 CW Profile function number 3 with  19 terms
 Pseudovoigt profile coefficients as parameterized in
 P. Thompson, D.E. Cox & J.B. Hastings (1987). J. Appl. Cryst.,20,79-83.
 Asymmetry correction of L.W. Finger, D.E. Cox & A. P. Jephcoat (1994).
 J. Appl. Cryst.,27,892-900.
 Peak tails are ignored  where the intensity is below 0.0010 times the peak
   Aniso. broadening axis   0.0   1.0   0.0
;
_pd_proc_ls_prof_R_factor        0.0447
_pd_proc_ls_prof_wR_expected     0.0410
_pd_proc_ls_prof_wR_factor       0.0592
_pd_proc_number_of_points        3955
_pd_spec_mounting                ' ?'
_refine_ls_goodness_of_fit_all   1.46
_refine_ls_matrix_type           full
_refine_ls_number_parameters     47
_refine_ls_number_restraints     8
_refine_ls_R_Fsqd_factor         0.14903
_refine_ls_shift/su_max          0.09
_refine_ls_shift/su_mean         0.01
_reflns_d_resolution_high        1.094
_reflns_d_resolution_low         7.397
_reflns_limit_h_max              5
_reflns_limit_h_min              0
_reflns_limit_k_max              4
_reflns_limit_k_min              0
_reflns_limit_l_max              6
_reflns_limit_l_min              0
_reflns_number_total             174
_cod_data_source_file            333K.cif
_cod_data_source_block           60_publ
_cod_depositor_comments
;
The following automatic conversions were performed:

'_geom_bond_publ_flag' value 'N' changed to 'n' according to
/usr/data/users/saulius/automatic-downloads/retrospective/ACS/lib/dictionaries/cif_core.dic
dictionary named 'cif_core.dic' version 2.4.2 from 2011-04-26 (24
times).

'_geom_angle_publ_flag' value 'N' changed to 'n' according
to
/usr/data/users/saulius/automatic-downloads/retrospective/ACS/lib/dictionaries/cif_core.dic
dictionary named 'cif_core.dic' version 2.4.2 from 2011-04-26 (68
times).

Automatic conversion script
Id: cif_fix_values 2281 2013-09-26 08:29:07Z andrius 
;
_cod_original_cell_volume        289.624(10)
_cod_original_sg_symbol_H-M      'p 4/n m m'
_cod_original_formula_sum        'C3.00 Cl N'
_cod_database_code               1516205
#BEGIN Tags that were not found in dictionaries:
_gsas_exptl_extinct_corr_t_min   1.00000
_gsas_exptl_extinct_corr_t_max   1.00000
#END Tags that were not found in dictionaries
loop_
_symmetry_equiv_pos_site_id
_symmetry_equiv_pos_as_xyz
1 +x,+y,+z
2 -y+1/2,+x,+z
3 -x+1/2,-y+1/2,+z
4 +y,-x+1/2,+z
5 -x+1/2,+y,+z
6 -y+1/2,-x+1/2,+z
7 +x,-y+1/2,+z
8 +y,+x,+z
-1 -x,-y,-z
-2 +y+1/2,-x,-z
-3 +x+1/2,+y+1/2,-z
-4 -y,+x+1/2,-z
-5 +x+1/2,-y,-z
-6 +y+1/2,+x+1/2,-z
-7 -x,+y+1/2,-z
-8 -y,-x,-z
loop_
_atom_site_type_symbol
_atom_site_label
_atom_site_fract_x
_atom_site_fract_y
_atom_site_fract_z
_atom_site_occupancy
_atom_site_thermal_displace_type
_atom_site_U_iso_or_equiv
_atom_site_symmetry_multiplicity
Cl CL1 0.25 -0.25 0.0 1.0 Uiso 0.1124(9) 2
C C(1) 0.25 0.3333(6) 0.29591(33) 0.25 Uiso 0.0660(16) 8
N N 0.25 0.25 0.11054(29) 1.0 Uiso 0.0660(16) 2
C C(2) 0.25 0.1498(5) 0.43467(28) 0.25 Uiso 0.0660(16) 8
C C(3) 0.25 0.25 0.6270(4) 1.0 Uiso 0.0660(16) 2
loop_
_atom_type_symbol
_atom_type_number_in_cell
_atom_type_scat_dispersion_real
_atom_type_scat_dispersion_imag
_atom_type_scat_Cromer_Mann_a1
_atom_type_scat_Cromer_Mann_a2
_atom_type_scat_Cromer_Mann_a3
_atom_type_scat_Cromer_Mann_a4
_atom_type_scat_Cromer_Mann_b1
_atom_type_scat_Cromer_Mann_b2
_atom_type_scat_Cromer_Mann_b3
_atom_type_scat_Cromer_Mann_b4
_atom_type_scat_Cromer_Mann_c
_atom_type_scat_source
Cl 2.0 0.000 0.000 11.4604 0.01040 7.19640 1.16620 6.25560 18.5194 1.64550
47.7784 -9.5574 International_Tables_Vol_C
C 6.0 0.000 0.000 2.31000 20.8439 1.02000 10.2075 1.58860 0.56870 0.86500
51.6512 0.21560 International_Tables_Vol_C
N 2.0 0.000 0.000 12.2126 0.00570 3.13220 9.89330 2.01250 28.9975 1.16630
0.58260 -11.529 International_Tables_Vol_C
loop_
_diffrn_radiation_wavelength
_diffrn_radiation_wavelength_wt
_diffrn_radiation_type
_diffrn_radiation_wavelength_id
1.540598 1.000 K\a~1~ 1
1.544390 0.500 K\a~2~ 2
loop_
_geom_angle_atom_site_label_1
_geom_angle_atom_site_label_2
_geom_angle_atom_site_label_3
_geom_angle
_geom_angle_site_symmetry_1
_geom_angle_site_symmetry_3
_geom_angle_publ_flag
C(1) C(1) C(1) 45.0 2_555 3_555 n
C(1) C(1) C(1) 90.0 2_555 4_555 n
C(1) C(1) N 75.45(10) 2_555 1_555 n
C(1) C(1) C(2) 58.19(8) 2_555 1_555 n
C(1) C(1) C(2) 93.26(15) 2_555 2_555 n
C(1) C(1) C(2) 94.14(20) 2_555 3_555 n
C(1) C(1) C(2) 51.73(15) 2_555 4_555 n
C(1) C(1) C(1) 45.0 3_555 4_555 n
C(1) C(1) N 69.18(14) 3_555 1_555 n
C(1) C(1) C(2) 41.80(15) 3_555 1_555 n
C(1) C(1) C(2) 66.56(16) 3_555 2_555 n
C(1) C(1) C(2) 95.86(28) 3_555 3_555 n
C(1) C(1) C(2) 66.56(16) 3_555 4_555 n
C(1) C(1) N 75.45(10) 4_555 1_555 n
C(1) C(1) C(2) 58.19(8) 4_555 1_555 n
C(1) C(1) C(2) 51.73(15) 4_555 2_555 n
C(1) C(1) C(2) 94.14(20) 4_555 3_555 n
C(1) C(1) C(2) 93.26(15) 4_555 4_555 n
N C(1) C(2) 110.98(25) 1_555 1_555 n
N C(1) C(2) 126.20(24) 1_555 2_555 n
N C(1) C(2) 165.0(4) 1_555 3_555 n
N C(1) C(2) 126.20(24) 1_555 4_555 n
C(2) C(1) C(2) 35.07(17) 1_555 2_555 n
C(2) C(1) C(2) 54.07(31) 1_555 3_555 n
C(2) C(1) C(2) 35.07(17) 1_555 4_555 n
C(2) C(1) C(2) 42.41(24) 2_555 3_555 n
C(2) C(1) C(2) 57.13(29) 2_555 4_555 n
C(2) C(1) C(2) 42.41(24) 3_555 4_555 n
C(1) N C(1) 29.11(19) 1_555 2_555 n
C(1) N C(1) 41.63(28) 1_555 3_555 n
C(1) N C(1) 29.11(19) 1_555 4_555 n
C(1) N C(1) 29.11(19) 2_555 3_555 n
C(1) N C(1) 41.63(28) 2_555 4_555 n
C(1) N C(1) 29.11(19) 3_555 4_555 n
C(1) C(2) C(1) 28.55(18) 1_555 2_555 n
C(1) C(2) C(1) 42.34(32) 1_555 3_555 n
C(1) C(2) C(1) 28.55(18) 1_555 4_555 n
C(1) C(2) C(2) 58.19(8) 1_555 2_555 n
C(1) C(2) C(2) 41.80(15) 1_555 3_555 n
C(1) C(2) C(2) 58.19(8) 1_555 4_555 n
C(1) C(2) C(3) 108.02(23) 1_555 1_555 n
C(1) C(2) C(1) 34.12(25) 2_555 3_555 n
C(1) C(2) C(1) 46.87(32) 2_555 4_555 n
C(1) C(2) C(2) 86.74(15) 2_555 2_555 n
C(1) C(2) C(2) 61.44(15) 2_555 3_555 n
C(1) C(2) C(2) 51.73(15) 2_555 4_555 n
C(1) C(2) C(3) 121.59(23) 2_555 1_555 n
C(1) C(2) C(1) 34.12(25) 3_555 4_555 n
C(1) C(2) C(2) 85.86(20) 3_555 2_555 n
C(1) C(2) C(2) 84.14(28) 3_555 3_555 n
C(1) C(2) C(2) 85.86(20) 3_555 4_555 n
C(1) C(2) C(3) 150.4(4) 3_555 1_555 n
C(1) C(2) C(2) 51.73(15) 4_555 2_555 n
C(1) C(2) C(2) 61.44(15) 4_555 3_555 n
C(1) C(2) C(2) 86.74(15) 4_555 4_555 n
C(1) C(2) C(3) 121.59(23) 4_555 1_555 n
C(2) C(2) C(2) 45.0 2_555 3_555 n
C(2) C(2) C(2) 90.0 2_555 4_555 n
C(2) C(2) C(3) 73.43(8) 2_555 1_555 n
C(2) C(2) C(2) 45.0 3_555 4_555 n
C(2) C(2) C(3) 66.22(12) 3_555 1_555 n
C(2) C(2) C(3) 73.43(8) 4_555 1_555 n
C(2) C(3) C(2) 33.13(17) 1_555 2_555 n
C(2) C(3) C(2) 47.56(25) 1_555 3_555 n
C(2) C(3) C(2) 33.13(17) 1_555 4_555 n
C(2) C(3) C(2) 33.13(17) 2_555 3_555 n
C(2) C(3) C(2) 47.56(25) 2_555 4_555 n
C(2) C(3) C(2) 33.13(17) 3_555 4_555 n
loop_
_geom_bond_atom_site_label_1
_geom_bond_atom_site_label_2
_geom_bond_distance
_geom_bond_site_symmetry_2
_geom_bond_publ_flag
C(1) C(1) 0.737(5) 2_555 n
C(1) C(1) 1.043(7) 3_555 n
C(1) C(1) 0.737(5) 4_555 n
C(1) N 1.4670(33) 1_555 n
C(1) C(2) 1.540(4) 1_555 n
C(1) C(2) 1.3108(33) 2_555 n
C(1) C(2) 1.0319(32) 3_555 n
C(1) C(2) 1.3108(33) 4_555 n
N C(1) 1.4670(33) 1_555 n
N C(1) 1.4670(33) 2_555 n
N C(1) 1.4670(33) 3_555 n
N C(1) 1.4670(33) 4_555 n
C(2) C(1) 1.540(4) 1_555 n
C(2) C(1) 1.3108(33) 2_555 n
C(2) C(1) 1.0319(32) 3_555 n
C(2) C(1) 1.3108(33) 4_555 n
C(2) C(2) 0.886(5) 2_555 n
C(2) C(2) 1.254(7) 3_555 n
C(2) C(2) 0.886(5) 4_555 n
C(2) C(3) 1.5545(34) 1_555 n
C(3) C(2) 1.5545(34) 1_555 n
C(3) C(2) 1.5545(34) 2_555 n
C(3) C(2) 1.5545(34) 3_555 n
C(3) C(2) 1.5545(34) 4_555 n
loop_
_pd_meas_counts_total
_pd_proc_ls_weight
_pd_proc_intensity_bkg_calc
_pd_calc_intensity_total
21621.0 0.0 -23636182.00000 .
20715.0 0.0 -23060132.00000 .
20016.0 0.0 -22497196.00000 .
19362.0 0.0 -21947066.00000 .
18681.0 0.0 -21409488.00000 .
18091.0 0.0 -20884190.00000 .
17288.0 0.0 -20370922.00000 .
16868.0 0.0 -19869416.00000 .
16119.0 0.0 -19379420.00000 .
16105.0 0.0 -18900702.00000 .
15163.0 0.0 -18433008.00000 .
14852.0 0.0 -17976098.00000 .
14608.0 0.0 -17529748.00000 .
13955.0 0.0 -17093740.00000 .
13499.0 0.0 -16667825.00000 .
13060.0 0.0 -16251809.00000 .
12863.0 0.0 -15845459.00000 .
12311.0 0.0 -15448600.00000 .
12002.0 0.0 -15060990.00000 .
11685.0 0.0 -14682441.00000 .
11389.0 0.0 -14312755.00000 .
11090.0 0.0 -13951739.00000 .
10638.0 0.0 -13599209.00000 .
10346.0 0.0 -13254969.00000 .
10118.0 0.0 -12918847.00000 .
9887.0 0.0 -12590666.00000 .
9603.0 0.0 -12270237.00000 .
9241.0 0.0 -11957407.00000 .
9190.0 0.0 -11652003.00000 .
8908.0 0.0 -11353859.00000 .
8774.0 0.0 -11062816.00000 .
8394.0 0.0 -10778710.00000 .
8314.0 0.0 -10501402.00000 .
8110.0 0.0 -10230730.00000 .
7743.0 0.0 -9966548.00000 .
7541.0 0.0 -9708715.00000 .
7464.0 0.0 -9457083.00000 .
7349.0 0.0 -9211518.00000 .
7047.0 0.0 -8971884.00000 .
7063.0 0.0 -8738046.00000 .
6995.0 0.0 -8509872.00000 .
6730.0 0.0 -8287240.50000 .
6433.0 0.0 -8070023.50000 .
6398.0 0.0 -7858097.00000 .
6333.0 0.0 -7651348.50000 .
6270.0 0.0 -7449649.50000 .
5879.0 0.0 -7252895.50000 .
5988.0 0.0 -7060969.00000 .
5790.0 0.0 -6873757.50000 .
5853.0 0.0 -6691159.50000 .
5819.0 0.0 -6513069.50000 .
5587.0 0.0 -6339375.50000 .
5482.0 0.0 -6169986.50000 .
5427.0 0.0 -6004804.50000 .
5375.0 0.0 -5843725.00000 .
5261.0 0.0 -5686653.00000 .
5171.0 0.0 -5533501.00000 .
5085.0 0.0 -5384184.50000 .
5016.0 0.0 -5238598.50000 .
4915.0 0.0 -5096669.00000 .
4890.0 0.0 -4958305.50000 .
4740.0 0.0 -4823430.00000 .
4642.0 0.0 -4691955.00000 .
4796.0 0.0 -4563804.00000 .
4536.0 0.0 -4438899.50000 .
4491.0 0.0 -4317166.50000 .
4484.0 0.0 -4198526.50000 .
4400.0 0.0 -4082909.75000 .
4424.0 0.0 -3970243.00000 .
4322.0 0.0 -3860461.75000 .
4216.0 0.0 -3753487.50000 .
4271.0 0.0 -3649262.00000 .
4086.0 0.0 -3547718.50000 .
4182.0 0.0 -3448795.25000 .
4015.0 0.0 -3352425.50000 .
3996.0 0.0 -3258547.75000 .
3887.0 0.0 -3167105.25000 .
4025.0 0.0 -3078039.25000 .
3867.0 0.0 -2991289.75000 .
3829.0 0.0 -2906805.00000 .
3745.0 0.0 -2824528.75000 .
3742.0 0.0 -2744406.75000 .
3657.0 0.0 -2666389.00000 .
3638.0 0.0 -2590421.50000 .
3698.0 0.0 -2516456.75000 .
3515.0 0.0 -2444446.00000 .
3532.0 0.0 -2374338.75000 .
3513.0 0.0 -2306093.50000 .
3411.0 0.0 -2239661.00000 .
3386.0 0.0 -2174996.75000 .
3456.0 0.0 -2112057.00000 .
3328.0 0.0 -2050800.00000 .
3350.0 0.0 -1991187.12500 .
3386.0 0.0 -1933175.00000 .
3354.0 0.0 -1876722.50000 .
3251.0 0.0 -1821792.00000 .
3211.0 0.0 -1768348.12500 .
3383.0 0.0 -1716349.25000 .
3133.0 0.0 -1665763.50000 .
3142.0 0.0 -1616555.00000 .
3133.0 0.0 -1568686.00000 .
3053.0 0.0 -1522125.75000 .
3027.0 0.0 -1476838.12500 .
3039.0 0.0 -1432796.25000 .
3118.0 0.0 -1389967.25000 .
3056.0 0.0 -1348314.25000 .
2978.0 0.0 -1307814.87500 .
2883.0 0.0 -1268434.50000 .
2856.0 0.0 -1230148.25000 .
2922.0 0.0 -1192927.75000 .
2732.0 0.0 -1156743.37500 .
2826.0 0.0 -1121571.50000 .
2735.0 0.0 -1087382.37500 .
2787.0 0.0 -1054153.87500 .
2760.0 0.0 -1021862.18750 .
2735.0 0.0 -990477.87500 .
2753.0 0.0 -959982.68750 .
2683.0 0.0 -930349.68750 .
2611.0 0.0 -901559.43750 .
2593.0 0.0 -873589.87500 .
2740.0 0.0 -846415.31250 .
2588.0 0.0 -820019.87500 .
2597.0 0.0 -794380.31250 .
2611.0 0.0 -769477.62500 .
2568.0 0.0 -745293.31250 .
2539.0 0.0 -721805.50000 .
2508.0 0.0 -698999.12500 .
2521.0 0.0 -676852.93750 .
2490.0 0.0 -655351.31250 .
2464.0 0.0 -634478.12500 .
2395.0 0.0 -614213.18750 .
2364.0 0.0 -594543.37500 .
2412.0 0.0 -575449.93750 .
2524.0 0.0 -556919.50000 .
2291.0 0.0 -538937.18750 .
2423.0 0.0 -521485.62500 .
2432.0 0.0 -504552.71875 .
2331.0 0.0 -488122.78125 .
2316.0 0.0 -472183.28125 .
2298.0 0.0 -456721.37500 .
2167.0 0.0 -441721.71875 .
2313.0 0.0 -427173.62500 .
2261.0 0.0 -413062.71875 .
2250.0 0.0 -399378.90625 .
2273.0 0.0 -386110.59375 .
2206.0 0.0 -373243.96875 .
2142.0 0.0 -360770.34375 .
2156.0 0.0 -348676.65625 .
2153.0 0.0 -336953.40625 .
2034.0 0.0 -325591.00000 .
2116.0 0.0 -314577.25000 .
2124.0 0.0 -303904.34375 .
2103.0 0.0 -293561.03125 .
2098.0 0.0 -283539.40625 .
2043.0 0.0 -273830.03125 .
1934.0 0.0 -264422.84375 .
1987.0 0.0 -255310.50000 .
2083.0 0.0 -246483.84375 .
1975.0 0.0 -237935.50000 .
1963.0 0.0 -229657.12500 .
2044.0 0.0 -221640.39063 .
1976.0 0.0 -213878.50000 .
1916.0 0.0 -206363.42188 .
1874.0 0.0 -199088.31250 .
1935.0 0.0 -192046.87500 .
1869.0 0.0 -185230.79688 .
1883.0 0.0 -178634.82813 .
1930.0 0.0 -172251.54688 .
1798.0 0.0 -166075.20313 .
1822.0 0.0 -160100.07813 .
1866.0 0.0 -154319.40625 .
1768.0 0.0 -148727.89063 .
1787.0 0.0 -143319.57813 .
1874.0 0.0 -138089.39063 .
1812.0 0.0 -133032.04688 .
1768.0 0.0 -128141.78906 .
1741.0 0.0 -123414.03906 .
1804.0 0.0 -118843.81250 .
1716.0 0.0 -114426.24219 .
1715.0 0.0 -110157.14844 .
1729.0 0.0 -106031.16406 .
1728.0 0.0 -102044.75781 .
1751.0 0.0 -98193.00000 .
1674.0 0.0 -94472.18750 .
1644.0 0.0 -90878.36719 .
1656.0 0.0 -87407.07813 .
1689.0 0.0 -84055.11719 .
1653.0 0.0 -80818.24219 .
1693.0 0.0 -77693.34375 .
1644.0 0.0 -74676.78125 .
1598.0 0.0 -71764.88281 .
1592.0 0.0 -68954.66406 .
1640.0 0.0 -66242.71094 .
1586.0 0.0 -63626.15625 .
1655.0 0.0 -61101.93750 .
1529.0 0.0 -58666.77344 .
1596.0 0.0 -56318.18359 .
1547.0 0.0 -54053.12109 .
1522.0 0.0 -51869.13672 .
1529.0 0.0 -49763.67578 .
1563.0 0.0 -47733.82031 .
1555.0 0.0 -45777.45313 .
1524.0 0.0 -43891.96875 .
1490.0 0.0 -42075.13672 .
1478.0 0.0 -40324.84766 .
1432.0 0.0 -38638.64844 .
1504.0 0.0 -37014.64063 .
1418.0 0.0 -35450.58594 .
1377.0 0.0 -33944.61719 .
1533.0 0.0 -32494.83008 .
1429.0 0.0 -31099.12500 .
1443.0 0.0 -29755.91602 .
1402.0 0.0 -28463.30859 .
1373.0 0.0 -27219.62500 .
1369.0 0.0 -26023.25781 .
1376.0 0.0 -24872.47461 .
1368.0 0.0 -23765.83984 .
1298.0 0.0 -22701.70117 .
1373.0 0.0 -21678.70898 .
1331.0 0.0 -20695.47070 .
1357.0 0.0 -19750.45508 .
1311.0 0.0 -18842.46680 .
1287.0 0.0 -17970.11914 .
1362.0 0.0 -17132.21484 .
1316.0 0.0 -16327.54199 .
1274.0 0.0 -15554.88477 .
1305.0 0.0 -14813.14258 .
1274.0 0.0 -14101.15430 .
1327.0 0.0 -13417.92676 .
1270.0 0.0 -12762.45508 .
1220.0 0.0 -12133.59277 .
1241.0 0.0 -11530.51660 .
1249.0 0.0 -10952.20410 .
1195.0 0.0 -10397.78027 .
1172.0 0.0 -9866.41406 .
1210.0 0.0 -9357.14746 .
1130.0 0.0 -8869.26465 .
1223.0 0.0 -8401.89258 .
1176.0 0.0 -7954.34082 .
1149.0 0.0 -7525.82568 .
1118.0 0.0 -7115.62451 .
1177.0 0.0 -6723.07373 .
1149.0 0.0 -6347.44336 .
1108.0 0.0 -5988.15381 .
1139.0 0.0 -5644.57666 .
1115.0 0.0 -5316.04102 .
1162.0 0.0 -5002.03369 .
1142.0 0.0 -4701.95313 .
1138.0 0.0 -4415.26611 .
1063.0 0.0 -4141.45508 .
1052.0 0.0 -3879.99805 .
1096.0 0.0 -3630.42334 .
1059.0 0.0 -3392.22681 .
1035.0 0.0 -3164.98730 .
1068.0 0.0 -2948.25684 .
955.0 0.0 -2741.59204 .
1025.0 0.0 -2544.59961 .
1052.0 0.0 -2356.87793 .
1013.0 0.0 -2178.05371 .
1068.0 0.0 -2007.77063 .
1006.0 0.0 -1845.63892 .
1044.0 0.0 -1691.35388 .
1035.0 0.0 -1544.56787 .
995.0 0.0 -1404.96777 .
1014.0 0.0 -1272.25989 .
1001.0 0.0 -1146.13733 .
944.0 0.0 -1026.32568 .
1005.0 0.0 -912.54291 .
1001.0 0.0 -804.54181 .
961.0 0.0 -702.06580 .
967.0 0.0 -604.86469 .
1004.0 0.0 -512.71082 .
962.0 0.0 -425.38101 .
982.0 0.0 -342.66013 .
910.0 0.0 -264.34637 .
951.0 0.0 -190.22531 .
1000.0 0.0 -120.12108 .
975.0 0.0 -53.84093 .
1057.0 0.0 8.78817 .
924.0 0.0 67.93522 .
980.0 0.0 123.76400 .
965.0 0.0 176.42963 .
959.0 0.0 226.08609 .
973.0 0.0 272.87180 .
958.0 0.0 316.92282 .
925.0 0.0 358.37991 .
989.0 0.0 397.36136 .
989.0 0.0 433.99405 .
969.0 0.0 468.39175 .
881.0 0.0 500.66348 .
963.0 0.0 530.92297 .
940.0 0.0 559.26538 .
894.0 0.0 585.79266 .
918.0 0.0 610.59680 .
963.0 0.0 633.76648 .
934.0 0.0 655.38861 .
869.0 0.0 675.54370 .
970.0 0.0 694.31201 .
906.0 0.0 711.76575 .
896.0 0.0 727.97583 .
913.0 0.0 743.01318 .
891.0 0.0 756.93994 .
924.0 0.0 769.81958 .
872.0 0.0 781.71045 .
916.0 0.0 792.66876 .
876.0 0.0 802.74854 .
865.0 0.0 812.00037 .
907.0 0.0 820.47369 .
928.0 0.0 828.21368 .
880.0 0.0 835.26471 .
929.0 0.0 841.66907 .
929.0 0.0 847.46619 .
921.0 0.0 852.69421 .
937.0 0.0 857.38837 .
931.0 0.0 861.58270 .
965.0 0.0 865.31042 .
960.0 0.0 868.60120 .
935.0 0.0 871.48456 .
883.0 0.001133 873.98767 873.98761
894.0 0.001119 876.13672 876.13660
927.0 0.001079 877.95630 877.95624
847.0 0.001181 879.46954 879.46954
884.0 0.001131 880.69867 880.69861
855.0 0.001170 881.66412 881.66406
891.0 0.001122 882.38568 882.38562
888.0 0.001126 882.88165 882.88165
899.0 0.001112 883.16956 883.16956
874.0 0.001144 883.26569 883.26569
916.0 0.001092 883.18542 883.18536
904.0 0.001106 882.94324 882.94324
841.0 0.001189 882.55280 882.55273
896.0 0.001116 882.02673 882.02667
871.0 0.001148 881.37708 881.37701
828.0 0.001208 880.61499 880.61493
847.0 0.001181 879.75092 879.75085
857.0 0.001167 878.79474 878.79468
893.0 0.001120 877.75543 877.75531
898.0 0.001114 876.64166 876.64154
936.0 0.001068 875.46124 875.46112
903.0 0.001107 874.22162 874.22156
831.0 0.001203 872.92963 872.92950
888.0 0.001126 871.59143 871.59131
838.0 0.001193 870.21320 870.21307
859.0 0.001164 868.80005 868.79993
774.0 0.001292 867.35736 867.35718
852.0 0.001174 865.88947 865.88928
884.0 0.001131 864.40057 864.40045
869.0 0.001151 862.89471 862.89459
884.0 0.001131 861.37531 861.37512
834.0 0.001199 859.84570 859.84552
834.0 0.001199 858.30884 858.30865
825.0 0.001212 856.76715 856.76697
889.0 0.001125 855.22327 855.22308
826.0 0.001211 853.67932 853.67914
824.0 0.001214 852.13733 852.13708
855.0 0.001170 850.59875 850.59851
896.0 0.001116 849.06519 849.06500
868.0 0.001152 847.53821 847.53802
878.0 0.001139 846.01868 846.01849
888.0 0.001126 844.50787 844.50769
870.0 0.001149 843.00653 843.00635
870.0 0.001149 841.51532 841.51514
854.0 0.001171 840.03485 840.03467
823.0 0.001215 838.56567 838.56549
912.0 0.001096 837.10822 837.10803
860.0 0.001163 835.66272 835.66254
820.0 0.001220 834.22913 834.22894
862.0 0.001160 832.80792 835.82861
840.0 0.001190 831.39893 836.05194
838.0 0.001193 830.00220 834.89661
838.0 0.001193 828.61755 833.77264
766.0 0.001305 827.24481 832.68219
803.0 0.001245 825.88403 831.62732
798.0 0.001253 824.53461 830.61060
800.0 0.001250 823.19666 829.63525
844.0 0.001185 821.86963 828.70428
824.0 0.001214 820.55316 827.82178
787.0 0.001271 819.24707 826.99243
849.0 0.001178 817.95087 826.22162
776.0 0.001289 816.66425 825.51587
825.0 0.001212 815.38678 824.88300
834.0 0.001199 814.11792 824.33209
827.0 0.001209 812.85742 823.87457
850.0 0.001176 811.60486 823.52417
839.0 0.001192 810.35974 823.29736
793.0 0.001261 809.12177 823.21490
815.0 0.001227 807.89038 823.30237
832.0 0.001202 806.66528 823.59192
862.0 0.001160 805.44592 824.12427
837.0 0.001195 804.23218 824.95209
909.0 0.001100 803.02350 826.14362
879.0 0.001138 801.81946 827.78918
846.0 0.001182 800.61993 830.01019
872.0 0.001147 799.42438 832.97412
893.0 0.001120 798.23260 836.91650
887.0 0.001127 797.04437 842.18591
879.0 0.001138 795.85907 849.36066
965.0 0.001036 794.67688 859.64441
943.0 0.001060 793.49719 876.05450
915.0 0.001093 792.31995 905.82050
975.0 0.001026 791.14496 963.01233
1114.0 0.000898 789.97192 1068.04614
1234.0 0.000810 788.80078 1242.05115
1495.0 0.000669 787.63129 1504.11255
1787.0 0.000560 786.46338 1879.32288
2203.0 0.000454 785.29694 2416.21826
3151.0 0.0003174 784.13177 3181.61328
4136.0 0.0002418 782.96802 4164.85400
5235.0 0.0001910 781.80536 5092.78320
5309.0 0.0001884 780.64398 5385.60742
4482.0 0.0002231 779.48370 4670.01318
3241.0 0.0003085 778.32452 3367.95581
2030.0 0.000493 777.16669 2174.64648
1320.0 0.000758 776.00989 1442.44312
1042.0 0.000960 774.85443 1101.63611
930.0 0.001075 773.70026 964.83820
879.0 0.001138 772.54749 906.11188
797.0 0.001255 771.39624 873.76868
792.0 0.001263 770.24652 851.99469
869.0 0.001151 769.09857 835.98279
821.0 0.001218 767.95251 823.69977
815.0 0.001227 766.80835 813.98999
770.0 0.001299 765.66638 806.11932
782.0 0.001279 764.52679 799.59692
809.0 0.001236 763.38971 794.08661
738.0 0.001355 762.25531 789.35052
814.0 0.001229 761.12378 785.21716
812.0 0.001232 759.99542 781.56067
829.0 0.001206 758.87030 778.28613
782.0 0.001279 757.74884 775.32196
794.0 0.001259 756.63116 772.61249
741.0 0.001350 755.51752 770.11426
774.0 0.001292 754.40808 767.79297
778.0 0.001285 753.30316 765.62134
756.0 0.001323 752.20306 763.57739
766.0 0.001305 751.10803 761.64313
775.0 0.001290 750.01819 759.80371
731.0 0.001368 748.93402 758.04736
792.0 0.001263 747.85559 756.36377
745.0 0.001342 746.78333 754.74475
707.0 0.001414 745.71747 753.18323
755.0 0.001325 744.65814 751.67322
761.0 0.001314 743.60583 750.20990
765.0 0.001307 742.56055 748.78870
762.0 0.001312 741.52289 747.40631
722.0 0.001385 740.49286 746.05951
760.0 0.001316 739.47083 744.74561
751.0 0.001332 738.45703 743.46234
714.0 0.001401 737.45178 742.20776
801.0 0.001248 736.45532 740.98016
732.0 0.001366 735.46790 736.96289
727.0 0.001376 734.48969 734.48981
746.0 0.001340 733.52106 733.52124
676.0 0.001479 732.56219 732.56238
725.0 0.001379 731.61340 731.61353
716.0 0.001397 730.67487 730.67505
794.0 0.001259 729.74683 729.74695
647.0 0.001546 728.82947 728.82965
729.0 0.001372 727.92303 727.92316
733.0 0.001364 727.02783 727.02795
734.0 0.001362 726.14392 726.14404
725.0 0.001379 725.27155 725.27167
715.0 0.001399 724.41101 724.41113
674.0 0.001484 723.56238 723.56250
738.0 0.001355 722.72589 722.72601
711.0 0.001406 721.90179 721.90186
713.0 0.001403 721.09003 721.09009
717.0 0.001395 720.29095 720.29102
689.0 0.001451 719.50458 719.50464
672.0 0.001488 718.73126 718.73132
684.0 0.001462 717.97101 717.97107
743.0 0.001346 717.22388 717.22394
699.0 0.001431 716.49011 716.49017
680.0 0.001471 715.76978 715.76984
732.0 0.001366 715.06299 715.06305
705.0 0.001418 714.36987 714.36993
761.0 0.001314 713.69049 713.69049
737.0 0.001357 713.02490 713.02496
726.0 0.001377 712.37323 712.37329
747.0 0.001339 711.73560 711.73560
694.0 0.001441 711.11194 711.11194
741.0 0.001350 710.50232 710.50232
785.0 0.001274 709.90692 709.90692
670.0 0.001493 709.32562 709.32562
726.0 0.001377 708.75861 708.75854
720.0 0.001389 708.20581 708.20575
764.0 0.001309 707.66724 707.66718
755.0 0.001325 707.14288 707.14282
675.0 0.001481 706.63281 706.63275
729.0 0.001372 706.13702 706.13696
697.0 0.001435 705.65546 705.65540
727.0 0.001376 705.18805 705.18799
728.0 0.001374 704.73499 704.73486
719.0 0.001391 704.29596 704.29590
737.0 0.001357 703.87115 703.87109
675.0 0.001481 703.46039 703.46033
699.0 0.001431 703.06372 703.06360
697.0 0.001435 702.68097 702.68091
727.0 0.001376 702.31219 702.31207
699.0 0.001431 701.95728 701.95715
720.0 0.001389 701.61609 701.61603
706.0 0.001416 701.28864 701.28851
706.0 0.001416 700.97485 700.97473
696.0 0.001437 700.67456 700.67444
724.0 0.001381 700.38776 700.38763
745.0 0.001342 700.11426 700.11414
730.0 0.001370 699.85406 699.85388
673.0 0.001486 699.60693 699.60681
679.0 0.001473 699.37292 699.37274
751.0 0.001332 699.15179 699.15161
704.0 0.001420 698.94348 698.94330
766.0 0.001305 698.74786 698.74768
642.0 0.001558 698.56482 698.56464
694.0 0.001441 698.39417 698.39398
696.0 0.001437 698.23584 698.23566
721.0 0.001387 698.08972 698.08954
687.0 0.001456 697.95563 697.95544
734.0 0.001362 697.83344 697.83325
751.0 0.001332 697.72296 697.72278
682.0 0.001466 697.62421 697.62402
716.0 0.001397 697.53687 697.53668
703.0 0.001422 697.46088 697.46069
687.0 0.001456 697.39612 697.39594
706.0 0.001416 697.34241 697.34216
696.0 0.001437 697.29956 697.29932
715.0 0.001399 697.26746 697.26727
712.0 0.001404 697.24597 697.24573
724.0 0.001381 697.23492 697.23468
732.0 0.001366 697.23419 697.23395
705.0 0.001418 697.24359 697.24335
710.0 0.001408 697.26294 697.26276
727.0 0.001376 697.29218 697.29199
684.0 0.001462 697.33112 697.33093
652.0 0.001534 697.37958 697.37939
693.0 0.001443 697.43744 697.43719
709.0 0.001410 697.50452 697.50433
673.0 0.001486 697.58075 697.58051
746.0 0.001340 697.66589 697.66565
692.0 0.001445 697.75983 697.75958
693.0 0.001443 697.86243 697.86218
700.0 0.001429 697.97351 697.97333
702.0 0.001425 698.09302 698.09277
695.0 0.001439 698.22070 698.22046
714.0 0.001401 698.35651 698.35626
729.0 0.001372 698.50018 698.49994
686.0 0.001458 698.65173 698.65149
681.0 0.001468 698.81097 698.81073
703.0 0.001422 698.97772 698.97748
692.0 0.001445 699.15192 699.15167
706.0 0.001416 699.33337 699.33313
695.0 0.001439 699.52197 699.52173
696.0 0.001437 699.71771 699.71747
719.0 0.001391 699.92029 699.92004
711.0 0.001406 700.12970 700.12946
688.0 0.001453 700.34583 700.34558
716.0 0.001397 700.56848 700.56824
713.0 0.001403 700.79767 700.79742
699.0 0.001431 701.03314 701.03290
681.0 0.001468 701.27496 701.27472
715.0 0.001399 701.52289 701.52264
674.0 0.001484 701.77692 701.77667
704.0 0.001420 702.03699 702.03674
748.0 0.001337 702.30286 702.30261
713.0 0.001403 702.57452 702.57428
668.0 0.001497 702.85193 702.85168
686.0 0.001458 703.13495 703.13470
697.0 0.001435 703.42352 703.42328
679.0 0.001473 703.71759 703.71735
634.0 0.001577 704.01709 704.01685
697.0 0.001435 704.32190 704.32172
661.0 0.001513 704.63202 704.63184
731.0 0.001368 704.94739 704.94714
671.0 0.001490 705.26794 705.26770
724.0 0.001381 705.59357 705.59332
690.0 0.001449 705.92426 705.92401
652.0 0.001534 706.25995 706.25970
664.0 0.001506 706.60065 706.60040
697.0 0.001435 706.94629 706.94604
666.0 0.001502 707.29681 707.29657
716.0 0.001397 707.65222 707.65198
744.0 0.001344 708.01245 708.01227
688.0 0.001453 708.37750 708.37732
683.0 0.001464 708.74738 708.74719
688.0 0.001453 709.12207 709.12183
715.0 0.001399 709.50140 709.50122
709.0 0.001410 709.88556 709.88531
739.0 0.001353 710.27448 710.27423
732.0 0.001366 710.66803 710.66785
652.0 0.001534 711.06641 711.06616
677.0 0.001477 711.46942 711.46924
706.0 0.001416 711.87720 711.87701
715.0 0.001399 712.28979 712.28955
691.0 0.001447 712.70709 712.70685
712.0 0.001404 713.12915 713.12897
741.0 0.001350 713.55597 713.55579
711.0 0.001406 713.98755 713.98737
716.0 0.001397 714.42407 714.42389
702.0 0.001425 714.86530 714.86511
629.0 0.001590 715.31146 715.31128
732.0 0.001366 715.76251 715.76233
677.0 0.001477 716.21844 716.21826
662.0 0.001511 716.67938 716.67920
704.0 0.001420 717.14526 717.14508
715.0 0.001399 717.61627 717.61609
714.0 0.001401 718.09229 718.09210
682.0 0.001466 718.57343 718.57324
699.0 0.001431 719.05975 719.05963
706.0 0.001416 719.55127 719.55109
717.0 0.001395 720.04810 720.04791
669.0 0.001495 720.55017 720.55005
704.0 0.001420 721.05762 721.05743
715.0 0.001399 721.57056 721.57037
687.0 0.001456 722.08887 722.08868
729.0 0.001372 722.61273 722.61261
720.0 0.001389 723.14227 723.14209
688.0 0.001453 723.67737 723.67725
704.0 0.001420 724.21820 724.21808
718.0 0.001393 724.76483 724.76465
715.0 0.001399 725.31732 725.31714
734.0 0.001362 725.87567 725.87549
721.0 0.001387 726.44000 726.43988
717.0 0.001395 727.01044 727.01025
736.0 0.001359 727.58691 727.58673
701.0 0.001427 728.16962 728.16949
790.0 0.001266 728.75854 728.75836
772.0 0.001295 729.35376 729.35364
724.0 0.001381 729.95544 729.95526
767.0 0.001304 730.56354 730.56342
779.0 0.001284 731.17822 731.17804
726.0 0.001377 731.79944 731.79932
803.0 0.001245 732.42731 732.42719
797.0 0.001255 733.06201 733.06183
784.0 0.001276 733.70349 733.70337
729.0 0.001372 734.35193 734.35181
759.0 0.001318 735.00726 735.00714
714.0 0.001401 735.66968 735.66956
792.0 0.001263 736.33923 736.33911
782.0 0.001279 737.01593 737.01581
745.0 0.001342 737.69995 737.69983
723.0 0.001383 738.39124 738.39111
723.0 0.001383 739.08990 739.08978
745.0 0.001342 739.79614 739.79596
690.0 0.001449 740.50977 740.50964
712.0 0.001404 741.23114 741.23102
759.0 0.001318 741.96008 741.95996
740.0 0.001351 742.69678 742.69666
838.0 0.001193 743.44128 743.44116
792.0 0.001263 744.19373 744.19360
697.0 0.001435 744.95404 744.95392
759.0 0.001318 745.72229 745.72217
748.0 0.001337 746.49866 746.49854
707.0 0.001414 747.28320 747.28308
753.0 0.001328 748.07581 748.07568
758.0 0.001319 748.87671 748.87659
734.0 0.001362 749.68585 749.68573
743.0 0.001346 750.50330 750.50317
718.0 0.001393 751.32928 751.32916
751.0 0.001332 752.16351 752.16339
741.0 0.001350 753.00641 753.00629
785.0 0.001274 753.85767 753.85754
736.0 0.001359 754.71753 754.71747
743.0 0.001346 755.58606 755.58594
770.0 0.001299 756.46332 756.46320
767.0 0.001304 757.34918 757.34906
781.0 0.001280 758.24377 758.24365
774.0 0.001292 759.14709 759.14697
837.0 0.001195 760.05939 760.05927
762.0 0.001312 760.98035 763.69342
784.0 0.001276 761.91028 764.75916
752.0 0.001330 762.84900 767.18793
781.0 0.001280 763.79669 768.36047
828.0 0.001208 764.75336 769.56006
764.0 0.001309 765.71887 770.78845
773.0 0.001294 766.69348 772.04797
776.0 0.001289 767.67694 773.34113
824.0 0.001214 768.66943 774.67102
795.0 0.001258 769.67102 776.04108
762.0 0.001312 770.68152 777.45514
790.0 0.001266 771.70099 778.91772
780.0 0.001282 772.72949 780.43433
768.0 0.001302 773.76697 782.01129
772.0 0.001295 774.81360 783.65619
790.0 0.001266 775.86914 785.37756
810.0 0.001235 776.93378 787.18640
798.0 0.001253 778.00726 789.09503
822.0 0.001217 779.08972 791.11914
844.0 0.001185 780.18127 793.27795
861.0 0.001161 781.28162 795.59430
824.0 0.001214 782.39099 798.09778
848.0 0.001179 783.50909 800.82440
805.0 0.001242 784.63611 803.82104
813.0 0.001230 785.77203 807.14771
831.0 0.001203 786.91663 810.88208
878.0 0.001139 788.07001 815.12817
876.0 0.001142 789.23212 820.02545
851.0 0.001175 790.40302 825.76617
817.0 0.001224 791.58240 832.62079
881.0 0.001135 792.77032 840.98047
919.0 0.001088 793.96698 851.44568
886.0 0.001129 795.17194 865.06207
965.0 0.001036 796.38538 884.13287
1004.0 0.000996 797.60730 914.60773
1025.0 0.000976 798.83734 971.30792
1115.0 0.000897 800.07581 1085.95752
1325.0 0.000755 801.32233 1315.02075
1813.0 0.000552 802.57697 1739.11218
2446.0 0.000409 803.83972 2437.91748
3350.0 0.0002985 805.11035 3399.93579
4049.0 0.0002470 806.38892 4390.20215
4700.0 0.0002128 807.67523 4929.58398
4813.0 0.0002078 808.96942 4664.16162
4130.0 0.0002421 810.27112 3827.34619
3072.0 0.0003255 811.58038 2807.72437
2083.0 0.000480 812.89728 1937.24695
1402.0 0.000713 814.22137 1386.41357
1090.0 0.000917 815.55280 1108.77051
950.0 0.001053 816.89148 988.81934
911.0 0.001098 818.23718 937.25024
920.0 0.001087 819.58997 910.72290
857.0 0.001167 820.94946 894.01965
870.0 0.001149 822.31580 882.37427
858.0 0.001166 823.68890 873.94397
882.0 0.001134 825.06848 867.74200
878.0 0.001139 826.45447 863.14264
866.0 0.001155 827.84692 859.72754
830.0 0.001205 829.24548 857.20642
827.0 0.001209 830.65009 855.37274
783.0 0.001277 832.06073 854.07745
807.0 0.001239 833.47729 853.20966
818.0 0.001222 834.89948 852.68579
757.0 0.001321 836.32727 852.44214
825.0 0.001212 837.76068 852.42914
842.0 0.001188 839.19928 852.60803
821.0 0.001218 840.64319 852.94788
886.0 0.001129 842.09210 853.42383
865.0 0.001156 843.54590 854.60919
825.0 0.001212 845.00470 855.33044
817.0 0.001224 846.46796 856.43152
846.0 0.001182 847.93573 857.33282
841.0 0.001189 849.40808 858.30359
823.0 0.001215 850.88446 859.33582
829.0 0.001206 852.36499 860.42358
909.0 0.001100 853.84943 861.56177
856.0 0.001168 855.33777 862.74597
855.0 0.001170 856.82965 863.97266
845.0 0.001183 858.32501 865.23889
837.0 0.001195 859.82385 866.54272
846.0 0.001182 861.32581 867.88214
877.0 0.001140 862.83087 869.25653
797.0 0.001255 864.33862 870.66479
813.0 0.001230 865.84918 869.40955
883.0 0.001133 867.36237 871.01178
798.0 0.001253 868.87787 871.29272
818.0 0.001222 870.39575 873.01514
872.0 0.001147 871.91559 874.76666
858.0 0.001166 873.43732 876.55243
813.0 0.001230 874.96082 878.37836
950.0 0.001053 876.48596 880.25226
843.0 0.001186 878.01263 882.18414
850.0 0.001176 879.54047 884.18646
842.0 0.001188 881.06940 886.27582
833.0 0.001200 882.59937 888.47449
853.0 0.001172 884.13007 890.81183
895.0 0.001117 885.66144 893.32904
878.0 0.001139 887.19318 896.08289
854.0 0.001171 888.72516 899.15619
881.0 0.001135 890.25745 902.67395
899.0 0.001112 891.78949 906.84747
939.0 0.001065 893.32153 912.12390
927.0 0.001079 894.85297 919.65082
942.0 0.001062 896.38391 932.40222
977.0 0.001024 897.91412 957.14117
1043.0 0.000959 899.44360 1006.70984
1185.0 0.000844 900.97186 1100.10779
1406.0 0.000711 902.49896 1254.93066
1695.0 0.000590 904.02466 1465.80359
2026.0 0.000494 905.54895 1676.93994
2340.0 0.000427 907.07135 1785.81799
2192.0 0.000456 908.59204 1728.07300
2071.0 0.000483 910.11060 1559.74817
1628.0 0.000614 911.62689 1353.72986
1313.0 0.000762 913.14099 1170.59534
1079.0 0.000927 914.65240 1049.03333
981.0 0.001019 916.16125 985.13312
946.0 0.001057 917.66718 957.17059
958.0 0.001044 919.17004 945.86957
895.0 0.001117 920.66968 940.88995
883.0 0.001133 922.16614 938.32086
891.0 0.001122 923.65900 936.91858
901.0 0.001110 925.14825 936.23395
915.0 0.001093 926.63361 936.04041
932.0 0.001073 928.11517 936.19781
830.0 0.001205 929.59247 936.61249
892.0 0.001121 931.06567 937.21985
897.0 0.001115 932.53424 937.97363
904.0 0.001106 933.99829 938.84076
884.0 0.001131 935.45758 939.79633
960.0 0.001042 936.91235 940.82208
865.0 0.001156 938.36163 941.90314
878.0 0.001139 939.80597 943.02887
926.0 0.001080 941.24475 944.19037
947.0 0.001056 942.67816 945.38074
851.0 0.001175 944.10632 946.59473
915.0 0.001093 945.52814 947.82697
901.0 0.001110 946.94452 949.07458
962.0 0.001040 948.35443 950.33374
893.0 0.001120 949.75854 951.60254
956.0 0.001046 951.15649 952.87854
857.0 0.001167 952.54761 954.15948
938.0 0.001066 953.93237 955.44434
898.0 0.001114 955.31024 956.73120
938.0 0.001066 956.68134 958.01941
920.0 0.001087 958.04590 959.30798
914.0 0.001094 959.40283 960.59540
1002.0 0.000998 960.75287 961.88135
936.0 0.001068 962.09534 963.16486
847.0 0.001181 963.43042 964.44543
908.0 0.001101 964.75824 965.72290
972.0 0.001029 966.07788 966.40607
947.0 0.001056 967.39014 967.70227
984.0 0.001016 968.69415 968.69409
920.0 0.001087 969.99023 969.99017
962.0 0.001040 971.27838 971.27832
982.0 0.001018 972.55798 972.55792
968.0 0.001033 973.82947 973.82941
939.0 0.001065 975.09222 975.09216
953.0 0.001049 976.34656 976.34650
978.0 0.001022 977.59259 977.59253
1013.0 0.000987 978.82941 978.82935
968.0 0.001033 980.05756 980.05750
1027.0 0.000974 981.27661 981.27655
1005.0 0.000995 982.48669 982.48663
990.0 0.001010 983.68799 983.68793
1054.0 0.000949 984.87952 984.87946
1011.0 0.000989 986.06213 986.06207
1023.0 0.000978 987.23511 987.23511
1025.0 0.000976 988.39868 988.39868
931.0 0.001074 989.55298 989.55292
1001.0 0.000999 990.69733 990.69727
1008.0 0.000992 991.83215 991.83215
940.0 0.001064 992.95703 992.95697
934.0 0.001071 994.07220 994.07214
938.0 0.001066 995.17767 995.17761
974.0 0.001027 996.27283 996.27283
1022.0 0.000978 997.35815 997.35809
975.0 0.001026 998.43317 998.43311
938.0 0.001066 999.49811 999.49811
938.0 0.001066 1000.55310 1000.55310
999.0 0.001001 1001.59741 1001.59735
952.0 0.001050 1002.63171 1002.63171
969.0 0.001032 1003.65540 1003.65533
1047.0 0.000955 1004.66870 1004.66870
984.0 0.001016 1005.67175 1005.67175
971.0 0.001030 1006.66400 1006.66394
982.0 0.001018 1007.64587 1007.64581
950.0 0.001053 1008.61694 1008.61694
982.0 0.001018 1009.57751 1009.57745
955.0 0.001047 1010.52759 1010.52759
1012.0 0.000988 1011.46667 1011.46661
982.0 0.001018 1012.39514 1012.39514
1028.0 0.000973 1013.31268 1013.31268
952.0 0.001050 1014.21954 1014.21954
968.0 0.001033 1015.11578 1015.11578
1000.0 0.001000 1016.00079 1016.00079
986.0 0.001014 1016.87524 1016.87524
985.0 0.001015 1017.73859 1017.73859
961.0 0.001041 1018.59113 1018.59113
959.0 0.001043 1019.43280 1019.43280
1023.0 0.000978 1020.26343 1020.26343
1016.0 0.000984 1021.08325 1021.08325
1042.0 0.000960 1021.89191 1021.89191
1044.0 0.000958 1022.68964 1022.68964
1025.0 0.000976 1023.47668 1023.47668
1024.0 0.000977 1024.25244 1024.25244
1016.0 0.000984 1025.01746 1025.01746
1015.0 0.000985 1025.77124 1025.77124
1018.0 0.000982 1026.51428 1026.51428
1007.0 0.000993 1027.24646 1027.24646
1034.0 0.000967 1027.96741 1027.96741
1051.0 0.000951 1028.67749 1028.67749
1005.0 0.000995 1029.37659 1029.37659
1022.0 0.000978 1030.06482 1030.06482
1070.0 0.000935 1030.74219 1030.74219
1033.0 0.000968 1031.40857 1031.40857
1021.0 0.000979 1032.06421 1032.06421
1084.0 0.000923 1032.70874 1032.70874
1082.0 0.000924 1033.34265 1033.34265
1119.0 0.000894 1033.96582 1033.96582
1055.0 0.000948 1034.57788 1044.41479
1068.0 0.000936 1035.17944 1045.51208
1111.0 0.000900 1035.77002 1051.37915
1093.0 0.000915 1036.35010 1052.77112
1173.0 0.000853 1036.91956 1054.21777
1130.0 0.000885 1037.47815 1055.72559
1146.0 0.000873 1038.02625 1057.30371
1103.0 0.000907 1038.56372 1058.96021
1082.0 0.000924 1039.09058 1060.70715
1134.0 0.000882 1039.60706 1062.55664
1105.0 0.000905 1040.11304 1064.52234
1108.0 0.000903 1040.60864 1066.62219
1114.0 0.000898 1041.09375 1068.87451
1127.0 0.000887 1041.56848 1071.30359
1109.0 0.000902 1042.03320 1073.93665
1186.0 0.000843 1042.48743 1076.80469
1172.0 0.000853 1042.93152 1079.94836
1150.0 0.000870 1043.36536 1083.41296
1227.0 0.000815 1043.78918 1087.25635
1178.0 0.000849 1044.20313 1091.54834
1230.0 0.000813 1044.60681 1096.37268
1225.0 0.000816 1045.00073 1101.83826
1193.0 0.000838 1045.38464 1108.07715
1161.0 0.000861 1045.75867 1115.26196
1230.0 0.000813 1046.12305 1123.61401
1223.0 0.000818 1046.47766 1133.41565
1245.0 0.000803 1046.82263 1145.05273
1199.0 0.000834 1047.15796 1159.03271
1253.0 0.000798 1047.48376 1177.11353
1298.0 0.000770 1047.80029 1198.24377
1327.0 0.000754 1048.10706 1224.84277
1338.0 0.000747 1048.40466 1259.63525
1350.0 0.000741 1048.69299 1305.35535
1415.0 0.000707 1048.97205 1370.80005
1556.0 0.000643 1049.24194 1478.01599
1827.0 0.000547 1049.50281 1685.87988
2259.0 0.000443 1049.75452 2132.26025
3119.0 0.0003206 1049.99731 3075.25122
4564.0 0.0002191 1050.23132 4852.37256
7207.0 0.0001388 1050.45654 7627.08252
10191.0 0.0000981 1050.67285 10978.78613
12892.0 0.0000776 1050.88062 13683.77734
14460.0 0.0000692 1051.07959 14324.38574
13841.0 0.0000722 1051.27014 12856.76465
10880.0 0.0000919 1051.45239 10381.51172
7390.0 0.0001353 1051.62598 7550.25879
5163.0 0.0001937 1051.79138 4987.26709
3203.0 0.0003122 1051.94849 3193.22656
2082.0 0.000480 1052.09753 2179.35205
1573.0 0.000636 1052.23840 1696.63696
1309.0 0.000764 1052.37122 1482.75769
1263.0 0.000792 1052.49609 1377.80310
1315.0 0.000760 1052.61304 1314.62634
1206.0 0.000829 1052.72229 1270.60657
1132.0 0.000883 1052.82385 1237.96460
1186.0 0.000843 1052.91760 1213.16370
1150.0 0.000870 1053.00391 1194.10022
1176.0 0.000850 1053.08264 1179.43945
1146.0 0.000873 1053.15393 1168.30359
1166.0 0.000858 1053.21790 1160.16150
1133.0 0.000883 1053.27466 1154.77283
1129.0 0.000886 1053.32410 1152.24316
1147.0 0.000872 1053.36646 1153.42249
1172.0 0.000853 1053.40186 1161.18372
1253.0 0.000798 1053.43018 1183.50989
1252.0 0.000799 1053.45166 1238.53381
1412.0 0.000708 1053.46619 1358.08533
1675.0 0.000597 1053.47412 1577.69788
2157.0 0.000464 1053.47534 1901.93738
2601.0 0.000384 1053.46997 2260.74072
2602.0 0.000384 1053.45801 2504.03687
2598.0 0.000385 1053.43970 2503.78638
2408.0 0.000415 1053.41504 2308.46191
2105.0 0.000475 1053.38391 2030.94861
1693.0 0.000591 1053.34668 1726.78613
1438.0 0.000695 1053.30322 1463.02551
1236.0 0.000809 1053.25366 1283.77502
1143.0 0.000875 1053.19824 1184.33459
1078.0 0.000928 1053.13672 1136.97876
1077.0 0.000929 1053.06946 1115.19080
1096.0 0.000912 1052.99634 1103.67114
1055.0 0.000948 1052.91748 1096.17493
1011.0 0.000989 1052.83301 1090.61731
1045.0 0.000957 1052.74292 1076.77893
1073.0 0.000932 1052.64722 1073.67480
1089.0 0.000918 1052.54614 1066.28625
1114.0 0.000898 1052.43970 1064.41956
1108.0 0.000903 1052.32800 1062.86633
1071.0 0.000934 1052.21094 1061.55347
1108.0 0.000903 1052.08875 1060.42810
1110.0 0.000901 1051.96143 1059.45142
1055.0 0.000948 1051.82910 1058.59326
995.0 0.001005 1051.69177 1057.83093
1063.0 0.000941 1051.54956 1057.14648
1058.0 0.000945 1051.40234 1056.52612
1113.0 0.000898 1051.25037 1055.95850
1079.0 0.000927 1051.09375 1055.43481
1067.0 0.000937 1050.93237 1054.94775
1018.0 0.000982 1050.76636 1054.49158
1019.0 0.000981 1050.59583 1054.06116
1006.0 0.000994 1050.42078 1053.65247
1038.0 0.000963 1050.24133 1053.26208
1022.0 0.000978 1050.05750 1052.88757
1106.0 0.000904 1049.86926 1052.52612
1028.0 0.000973 1049.67676 1052.17590
1063.0 0.000941 1049.47998 1051.83508
1012.0 0.000988 1049.27905 1051.50208
1063.0 0.000941 1049.07410 1051.17590
1056.0 0.000947 1048.86511 1050.85522
1045.0 0.000957 1048.65186 1050.53931
1035.0 0.000966 1048.43481 1050.22717
1016.0 0.000984 1048.21387 1048.83313
959.0 0.001043 1047.98901 1048.57727
965.0 0.001036 1047.76025 1048.31995
1037.0 0.000964 1047.52783 1047.52783
1070.0 0.000935 1047.29150 1047.29163
1035.0 0.000966 1047.05164 1047.05164
1042.0 0.000960 1046.80811 1046.80811
1028.0 0.000973 1046.56091 1046.56104
1027.0 0.000974 1046.31018 1046.31018
1070.0 0.000935 1046.05591 1046.05591
1105.0 0.000905 1045.79810 1045.79810
1022.0 0.000978 1045.53687 1045.53699
1032.0 0.000969 1045.27222 1045.27234
995.0 0.001005 1045.00415 1045.00415
944.0 0.001059 1044.73279 1044.73291
976.0 0.001025 1044.45813 1044.45813
1047.0 0.000955 1044.18018 1044.18018
996.0 0.001004 1043.89905 1043.89905
1028.0 0.000973 1043.61450 1043.61450
1011.0 0.000989 1043.32690 1043.32690
1045.0 0.000957 1043.03601 1043.03613
1006.0 0.000994 1042.74219 1042.74219
1001.0 0.000999 1042.44519 1042.44519
1027.0 0.000974 1042.14502 1042.14502
1005.0 0.000995 1041.84180 1041.84192
1057.0 0.000946 1041.53564 1041.53564
1004.0 0.000996 1041.22644 1041.22644
1024.0 0.000977 1040.91418 1040.91418
1014.0 0.000986 1040.59888 1040.59900
997.0 0.001003 1040.28076 1040.28088
1000.0 0.001000 1039.95972 1039.95972
1039.0 0.000962 1039.63574 1039.63574
1049.0 0.000953 1039.30884 1039.30884
1019.0 0.000981 1038.97900 1038.97900
1048.0 0.000954 1038.64636 1038.64636
1039.0 0.000962 1038.31079 1038.31079
1084.0 0.000923 1037.97241 1037.97241
1083.0 0.000923 1037.63123 1037.63123
1049.0 0.000953 1037.28711 1037.28711
1035.0 0.000966 1036.94019 1036.94019
998.0 0.001002 1036.59045 1036.59045
1011.0 0.000989 1036.23804 1036.23804
1050.0 0.000952 1035.88269 1035.88269
1005.0 0.000995 1035.52454 1035.52454
1025.0 0.000976 1035.16370 1035.16370
1062.0 0.000942 1034.79993 1034.79993
1029.0 0.000972 1034.43347 1034.43347
1030.0 0.000971 1034.06421 1034.06421
1053.0 0.000950 1033.69214 1033.69214
1067.0 0.000937 1033.31726 1033.31726
1050.0 0.000952 1032.93958 1032.93958
1012.0 0.000988 1032.55920 1032.55920
981.0 0.001019 1032.17603 1032.17603
1067.0 0.000937 1031.78979 1031.78979
1058.0 0.000945 1031.40100 1031.40100
1029.0 0.000972 1031.00928 1031.00928
973.0 0.001028 1030.61487 1030.61487
1105.0 0.000905 1030.21753 1030.21753
1024.0 0.000977 1029.81726 1029.81726
987.0 0.001013 1029.41431 1029.41431
1016.0 0.000984 1029.00842 1029.00842
1027.0 0.000974 1028.59961 1028.59961
970.0 0.001031 1028.18799 1028.18799
953.0 0.001049 1027.77332 1027.77332
1035.0 0.000966 1027.35596 1027.35596
1052.0 0.000951 1026.93555 1026.93555
995.0 0.001005 1026.51221 1026.51221
990.0 0.001010 1026.08594 1026.08594
961.0 0.001041 1025.65649 1025.65649
936.0 0.001068 1025.22437 1025.22424
1048.0 0.000954 1024.78894 1024.78894
981.0 0.001019 1024.35059 1024.35059
980.0 0.001020 1023.90924 1023.90924
1012.0 0.000988 1023.46472 1023.46466
984.0 0.001016 1023.01721 1023.01721
1010.0 0.000990 1022.56647 1022.56647
987.0 0.001013 1022.11267 1022.11267
1039.0 0.000962 1021.65570 1021.65570
1009.0 0.000991 1021.19543 1021.19537
1003.0 0.000997 1020.73206 1020.73206
990.0 0.001010 1020.26538 1020.26532
984.0 0.001016 1019.79547 1019.79547
1007.0 0.000993 1019.32233 1019.32227
1012.0 0.000988 1018.84564 1018.84564
1026.0 0.000975 1018.36591 1018.36584
995.0 0.001005 1017.88257 1017.88251
1032.0 0.000969 1017.39594 1017.39587
995.0 0.001005 1016.90588 1017.15515
986.0 0.001014 1016.41229 1016.67145
981.0 0.001019 1015.91528 1016.18488
1048.0 0.000954 1015.41467 1015.81848
1011.0 0.000989 1014.91064 1015.33118
999.0 0.001001 1014.40302 1014.84119
1000.0 0.001000 1013.89154 1014.34863
963.0 0.001038 1013.37665 1013.85382
979.0 0.001021 1012.85797 1013.35663
948.0 0.001055 1012.33569 1012.85730
976.0 0.001025 1011.80969 1012.35583
1037.0 0.000964 1011.27972 1011.85223
1024.0 0.000977 1010.74615 1011.34692
943.0 0.001060 1010.20850 1010.83978
981.0 0.001019 1009.66724 1010.33130
1051.0 0.000951 1009.12195 1009.82147
952.0 0.001050 1008.57263 1009.31055
1012.0 0.000988 1008.01947 1008.79913
1028.0 0.000973 1007.46216 1008.28705
1036.0 0.000965 1006.90100 1007.77515
994.0 0.001006 1006.33563 1007.26367
1022.0 0.000978 1005.76599 1006.75305
1009.0 0.000991 1005.19244 1006.24438
990.0 0.001010 1004.61456 1009.41028
1029.0 0.000972 1004.03253 1009.05273
950.0 0.001053 1003.44629 1008.70825
1036.0 0.000965 1002.85553 1008.37878
1015.0 0.000985 1002.26074 1009.94781
1082.0 0.000924 1001.66125 1009.73169
975.0 0.001026 1001.05768 1009.54388
1087.0 0.000920 1000.44952 1009.38843
1016.0 0.000984 999.83679 1009.27039
986.0 0.001014 999.21973 1009.19586
1021.0 0.000979 998.59790 1009.17230
1064.0 0.000940 997.97174 1009.20892
1059.0 0.000944 997.34088 1009.31720
1034.0 0.000967 996.70520 1009.51141
1097.0 0.000912 996.06500 1009.81012
1031.0 0.000970 995.42004 1010.23773
1041.0 0.000961 994.77039 1010.82648
1085.0 0.000922 994.11591 1011.62103
1049.0 0.000953 993.45642 1012.68445
1028.0 0.000973 992.79230 1014.11145
977.0 0.001024 992.12317 1016.07269
1049.0 0.000953 991.44922 1018.95752
1108.0 0.000903 990.77026 1023.83289
1062.0 0.000942 990.08618 1033.54944
1175.0 0.000851 989.39722 1054.50146
1169.0 0.000855 988.70306 1097.53394
1260.0 0.000794 988.00403 1173.85986
1265.0 0.000791 987.29974 1283.16663
1481.0 0.000675 986.59015 1400.70825
1404.0 0.000712 985.87555 1479.50977
1497.0 0.000668 985.15564 1484.17517
1555.0 0.000643 984.43060 1433.18433
1410.0 0.000709 983.70020 1361.70398
1279.0 0.000782 982.96429 1279.58618
1232.0 0.000812 982.22327 1196.51160
1158.0 0.000864 981.47675 1130.26257
1143.0 0.000875 980.72498 1088.89185
1157.0 0.000864 979.96771 1069.54077
1144.0 0.000874 979.20490 1064.79846
1156.0 0.000865 978.43677 1068.29321
1135.0 0.000881 977.66284 1076.80481
1100.0 0.000909 976.88373 1089.60828
1188.0 0.000842 976.09888 1107.47339
1243.0 0.000805 975.30823 1132.62170
1192.0 0.000839 974.51227 1170.69763
1303.0 0.000767 973.71057 1237.67468
1496.0 0.000668 972.90326 1376.11462
1749.0 0.000572 972.09021 1680.52502
2408.0 0.000415 971.27124 2307.84766
3475.0 0.0002878 970.44684 3415.28833
5231.0 0.0001912 969.61652 4988.14795
7160.0 0.0001397 968.78058 6662.38232
7428.0 0.0001346 967.93872 7767.49707
7287.0 0.0001372 967.09100 7803.06445
7651.0 0.0001307 966.23761 7043.50586
6315.0 0.0001584 965.37811 5996.65332
4137.0 0.0002417 964.51306 4794.47852
3379.0 0.0002959 963.64191 3551.77417
2707.0 0.000369 962.76483 2519.66553
1863.0 0.000537 961.88196 1825.86853
1324.0 0.000755 960.99304 1438.08423
1184.0 0.000845 960.09833 1249.90784
1126.0 0.000888 959.19757 1161.58191
1065.0 0.000939 958.29065 1114.85193
1024.0 0.000977 957.37799 1084.95679
1050.0 0.000952 956.45917 1063.12488
1048.0 0.000954 955.53455 1046.18042
1082.0 0.000924 954.60376 1032.61792
1015.0 0.000985 953.66675 1021.53070
1013.0 0.000987 952.72412 1012.31104
978.0 0.001022 951.77509 1004.51917
1069.0 0.000935 950.82037 997.84387
974.0 0.001027 949.85925 992.04956
976.0 0.001025 948.89209 986.96100
934.0 0.001071 947.91907 982.44672
970.0 0.001031 946.93982 978.40027
982.0 0.001018 945.95465 974.74200
959.0 0.001043 944.96332 971.40576
984.0 0.001016 943.96564 968.33948
962.0 0.001040 942.96228 965.50287
993.0 0.001007 941.95264 962.85999
953.0 0.001049 940.93707 960.13556
983.0 0.001017 939.91534 957.81067
934.0 0.001071 938.88733 955.60797
935.0 0.001070 937.85364 953.38776
910.0 0.001099 936.81354 951.38837
953.0 0.001049 935.76764 949.46948
923.0 0.001083 934.71558 947.62073
906.0 0.001104 933.65735 945.83307
945.0 0.001058 932.59332 944.10010
908.0 0.001101 931.52313 942.41455
933.0 0.001072 930.44708 940.77130
938.0 0.001066 929.36487 939.16516
948.0 0.001055 928.27643 937.59149
908.0 0.001101 927.18237 936.04761
948.0 0.001055 926.08221 934.52924
948.0 0.001055 924.97620 933.03418
925.0 0.001081 923.86420 931.55927
962.0 0.001040 922.74597 930.10211
901.0 0.001110 921.62231 928.66150
900.0 0.001111 920.49237 927.23468
860.0 0.001163 919.35681 925.82074
903.0 0.001107 918.21539 924.41772
894.0 0.001119 917.06787 923.02399
943.0 0.001060 915.91479 917.98425
908.0 0.001101 914.75580 916.74310
905.0 0.001105 913.59125 915.50116
929.0 0.001076 912.42078 912.42072
904.0 0.001106 911.24432 911.24426
847.0 0.001181 910.06256 910.06250
893.0 0.001120 908.87494 908.87488
848.0 0.001179 907.68182 907.68182
897.0 0.001115 906.48309 906.48303
917.0 0.001091 905.27832 905.27832
879.0 0.001138 904.06860 905.27625
893.0 0.001120 902.85297 904.10846
924.0 0.001082 901.63208 902.93848
910.0 0.001099 900.40570 901.76599
872.0 0.001147 899.17358 901.20264
878.0 0.001139 897.93640 900.05103
949.0 0.001054 896.69366 898.89941
895.0 0.001117 895.44580 897.74872
902.0 0.001109 894.19257 896.59918
849.0 0.001178 892.93372 895.45117
881.0 0.001135 891.67010 894.30627
947.0 0.001056 890.40106 893.16461
879.0 0.001138 889.12714 892.02734
881.0 0.001135 887.84796 890.89539
929.0 0.001076 886.56342 889.76959
950.0 0.001053 885.27435 888.65192
893.0 0.001120 883.97992 887.54309
911.0 0.001098 882.68085 886.44525
848.0 0.001179 881.37677 885.36005
905.0 0.001105 880.06769 884.28955
892.0 0.001121 878.75403 883.23645
929.0 0.001076 877.43536 882.20337
883.0 0.001133 876.11243 882.34271
926.0 0.001080 874.78461 881.40594
959.0 0.001043 873.45178 880.50360
898.0 0.001114 872.11487 879.64191
866.0 0.001155 870.77319 879.40710
853.0 0.001172 869.42731 878.67023
827.0 0.001209 868.07690 877.99921
893.0 0.001120 866.72174 877.40546
891.0 0.001122 865.36279 876.90350
897.0 0.001115 863.99933 876.51062
849.0 0.001178 862.63190 876.24854
913.0 0.001095 861.26019 876.14423
943.0 0.001060 859.88409 876.23218
851.0 0.001175 858.50439 876.55634
929.0 0.001076 857.12030 877.17419
861.0 0.001161 855.73279 878.16162
959.0 0.001043 854.34113 879.62030
911.0 0.001098 852.94531 881.69006
883.0 0.001133 851.54620 884.56549
862.0 0.001160 850.14319 888.53418
860.0 0.001163 848.73676 894.05914
924.0 0.001082 847.32666 902.07654
891.0 0.001122 845.91266 914.98035
931.0 0.001074 844.49567 939.40302
1051.0 0.000951 843.07507 992.04956
1059.0 0.000944 841.65137 1106.59265
1371.0 0.000729 840.22424 1331.88123
1788.0 0.000559 838.79370 1705.05481
2344.0 0.000427 837.36035 2197.66406
2782.0 0.000359 835.92358 2677.36475
2922.0 0.0003422 834.48431 2945.25049
2862.0 0.0003494 833.04181 2901.79761
2812.0 0.000356 831.59607 2666.93188
2314.0 0.000432 830.14795 2376.80176
1912.0 0.000523 828.69690 2048.43335
1601.0 0.000625 827.24341 1693.55371
1375.0 0.000727 825.78711 1378.56580
1144.0 0.000874 824.32794 1151.31348
1032.0 0.000969 822.86676 1015.39264
888.0 0.001126 821.40289 946.36096
947.0 0.001056 819.93695 915.00879
884.0 0.001131 818.46863 901.31641
940.0 0.001064 816.99780 895.80389
901.0 0.001110 815.52521 895.38464
879.0 0.001138 814.05017 900.45770
911.0 0.001098 812.57367 915.33905
955.0 0.001047 811.09479 952.43292
999.0 0.001001 809.61401 1038.81714
1245.0 0.000803 808.13171 1217.67908
1539.0 0.000650 806.64752 1530.48865
2148.0 0.000466 805.16193 1971.63904
2620.0 0.000382 803.67462 2443.33862
2807.0 0.000356 802.18542 2766.41772
2825.0 0.000354 800.69525 2801.79346
2912.0 0.0003434 799.20349 2613.40649
2600.0 0.000385 797.71069 2350.57007
1967.0 0.000508 796.21661 2056.83545
1636.0 0.000611 794.72095 1726.40442
1484.0 0.000674 793.22485 1408.32898
1195.0 0.000837 791.72723 1159.93860
1009.0 0.000991 790.22919 999.12372
916.0 0.001092 788.72992 910.54401
933.0 0.001072 787.22974 866.51147
830.0 0.001205 785.72925 844.26318
837.0 0.001195 784.22784 831.19281
825.0 0.001212 782.72614 822.01501
835.0 0.001198 781.22382 814.80750
820.0 0.001220 779.72070 808.83600
797.0 0.001255 778.21771 803.74384
761.0 0.001314 776.71423 799.30542
767.0 0.001304 775.21082 795.36908
721.0 0.001387 773.70715 791.82336
733.0 0.001364 772.20300 788.58643
774.0 0.001292 770.69958 785.59955
771.0 0.001297 769.19586 782.81427
736.0 0.001359 767.69238 780.19556
769.0 0.001300 766.18915 777.71484
769.0 0.001300 764.68604 775.34973
708.0 0.001412 763.18353 773.08289
790.0 0.001266 761.68146 770.89941
809.0 0.001236 760.17999 768.78766
769.0 0.001300 758.67908 766.73767
745.0 0.001342 757.17859 763.55280
789.0 0.001267 755.67932 761.64807
771.0 0.001297 754.18042 759.78180
754.0 0.001326 752.68286 757.34619
727.0 0.001376 751.18610 755.56769
768.0 0.001302 749.68976 753.81439
732.0 0.001366 748.19537 752.08508
736.0 0.001359 746.70166 750.37598
723.0 0.001383 745.20959 748.68604
756.0 0.001323 743.71869 747.01270
787.0 0.001271 742.22864 745.35419
724.0 0.001381 740.74084 743.71063
785.0 0.001274 739.25403 742.07941
742.0 0.001348 737.76935 740.46063
772.0 0.001295 736.28601 738.85260
758.0 0.001319 734.80426 737.25446
716.0 0.001397 733.32446 735.66608
701.0 0.001427 731.84631 734.08649
757.0 0.001321 730.37067 732.51575
666.0 0.001502 728.89673 730.95270
726.0 0.001377 727.42462 729.39697
764.0 0.001309 725.95490 727.84863
772.0 0.001295 724.48737 725.15161
741.0 0.001350 723.02216 723.65973
661.0 0.001513 721.55927 722.17188
697.0 0.001435 720.09851 720.09857
727.0 0.001376 718.64050 718.64063
713.0 0.001403 717.18506 717.18512
700.0 0.001429 715.73218 715.73224
691.0 0.001447 714.28192 714.28198
757.0 0.001321 712.83417 712.83429
691.0 0.001447 711.38971 711.38977
654.0 0.001529 709.94763 709.94769
708.0 0.001412 708.50891 708.50903
649.0 0.001541 707.07269 707.07275
706.0 0.001416 705.63953 705.63959
701.0 0.001427 704.20996 704.21002
708.0 0.001412 702.78302 702.78308
679.0 0.001473 701.35980 701.35986
672.0 0.001488 699.93958 699.93964
699.0 0.001431 698.52222 698.52228
708.0 0.001412 697.10901 697.10907
711.0 0.001406 695.69867 695.69879
751.0 0.001332 694.29242 694.53137
691.0 0.001447 692.88947 693.13800
670.0 0.001493 691.48962 691.74835
668.0 0.001497 690.09418 690.36371
683.0 0.001464 688.70197 689.10211
652.0 0.001534 687.31403 687.73114
642.0 0.001558 685.92969 686.36493
701.0 0.001427 684.54895 685.00348
708.0 0.001412 683.17242 683.64764
685.0 0.001460 681.79993 682.29718
671.0 0.001490 680.43140 680.95233
661.0 0.001513 679.06696 679.61334
684.0 0.001462 677.70648 678.28009
654.0 0.001529 676.35040 676.95343
672.0 0.001488 674.99854 675.63336
628.0 0.001592 673.65100 674.32007
652.0 0.001534 672.30774 673.01392
689.0 0.001451 670.96869 671.71521
683.0 0.001464 669.63452 670.42493
638.0 0.001567 668.30432 669.14258
686.0 0.001458 666.97888 667.86951
661.0 0.001513 665.65796 666.60602
675.0 0.001481 664.34149 665.35272
656.0 0.001524 663.03009 664.11102
686.0 0.001458 661.72290 662.88104
654.0 0.001529 660.42090 661.66492
661.0 0.001513 659.12347 660.46307
629.0 0.001590 657.83038 659.27710
637.0 0.001570 656.54279 658.11017
656.0 0.001524 655.25964 656.96338
669.0 0.001495 653.98193 655.84045
664.0 0.001506 652.70892 654.74457
652.0 0.001534 651.44043 653.67981
684.0 0.001462 650.17767 652.65283
682.0 0.001466 648.91956 651.66992
653.0 0.001531 647.66699 650.74109
645.0 0.001550 646.41931 649.87787
670.0 0.001493 645.17657 649.09668
670.0 0.001493 643.93927 648.41962
646.0 0.001548 642.70721 647.87714
637.0 0.001570 641.48041 647.51282
682.0 0.001466 640.25891 647.39661
603.0 0.001658 639.04254 647.66431
601.0 0.001664 637.83167 648.64972
663.0 0.001508 636.62628 651.26605
673.0 0.001486 635.42621 657.81470
641.0 0.001560 634.23163 673.08795
696.0 0.001437 633.04230 704.55133
740.0 0.001351 631.85883 759.33606
810.0 0.001235 630.68048 837.23474
920.0 0.001087 629.50787 923.04718
968.0 0.001033 628.34082 987.01294
895.0 0.001117 627.17920 1002.18597
965.0 0.001036 626.02350 973.68329
869.0 0.001151 624.87311 929.07983
839.0 0.001192 623.72864 881.70490
778.0 0.001285 622.58972 828.14130
746.0 0.001340 621.45605 769.52386
699.0 0.001431 620.32867 716.30450
672.0 0.001488 619.20667 676.23242
658.0 0.001520 618.09076 650.64783
605.0 0.001653 616.98035 636.29730
612.0 0.001634 615.87537 628.65552
596.0 0.001678 614.77673 624.27893
646.0 0.001548 613.68353 621.30701
609.0 0.001642 612.59650 618.95453
628.0 0.001592 611.51501 616.92645
587.0 0.001704 610.43927 615.10657
599.0 0.001669 609.36951 613.43793
640.0 0.001563 608.30542 611.88361
566.0 0.001767 607.24756 610.41956
591.0 0.001692 606.19537 609.02679
621.0 0.001610 605.14886 607.69196
618.0 0.001618 604.10846 606.40533
608.0 0.001645 603.07391 605.15869
643.0 0.001555 602.04523 603.94617
603.0 0.001658 601.02246 602.76294
604.0 0.001656 600.00543 601.60492
637.0 0.001570 598.99451 600.46948
600.0 0.001667 597.98950 599.35400
582.0 0.001718 596.99036 598.25641
579.0 0.001727 595.99713 597.17505
606.0 0.001650 595.00970 596.10834
593.0 0.001686 594.02844 595.05573
592.0 0.001689 593.05286 594.01532
585.0 0.001709 592.08350 592.98718
594.0 0.001684 591.11981 591.96991
585.0 0.001709 590.16180 590.96301
595.0 0.001681 589.21014 589.96655
607.0 0.001647 588.26404 588.97925
617.0 0.001621 587.32422 588.00159
594.0 0.001684 586.39008 587.03247
609.0 0.001642 585.46155 586.07166
554.0 0.001805 584.53937 585.11957
596.0 0.001678 583.62274 584.17517
557.0 0.001795 582.71228 583.23883
594.0 0.001684 581.80756 582.31012
562.0 0.001779 580.90851 581.38861
584.0 0.001712 580.01550 580.67438
561.0 0.001783 579.12811 579.77527
560.0 0.001786 578.24689 578.88403
591.0 0.001692 577.37134 578.00012
573.0 0.001745 576.50146 577.12341
575.0 0.001739 575.63751 576.12152
541.0 0.001848 574.77930 575.27252
564.0 0.001773 573.92688 574.43060
544.0 0.001838 573.08020 573.59589
597.0 0.001675 572.23914 572.65131
595.0 0.001681 571.40393 571.83533
578.0 0.001730 570.57446 571.02643
573.0 0.001745 569.75067 570.22473
598.0 0.001672 568.93250 569.43036
575.0 0.001739 568.11987 568.64331
567.0 0.001764 567.31323 567.86438
545.0 0.001835 566.51184 567.09283
555.0 0.001802 565.71637 566.32977
559.0 0.001789 564.92627 565.57483
552.0 0.001812 564.14166 564.82849
592.0 0.001689 563.36292 564.09149
537.0 0.001862 562.58936 563.36365
551.0 0.001815 561.82166 562.64612
529.0 0.001890 561.05927 561.93896
532.0 0.001880 560.30206 561.24274
549.0 0.001821 559.55072 560.55890
607.0 0.001647 558.80450 559.88782
564.0 0.001773 558.06396 559.23102
567.0 0.001764 557.32867 558.58966
552.0 0.001812 556.59845 557.96515
533.0 0.001876 555.87396 557.36029
578.0 0.001730 555.15454 556.77692
577.0 0.001733 554.44061 556.21869
559.0 0.001789 553.73175 555.68903
591.0 0.001692 553.02808 555.19312
617.0 0.001621 552.32965 554.73737
603.0 0.001658 551.63641 554.33008
582.0 0.001718 550.94836 553.98206
555.0 0.001802 550.26538 553.70770
553.0 0.001808 549.58734 553.52692
571.0 0.001751 548.91455 553.46729
592.0 0.001689 548.24670 553.57025
582.0 0.001718 547.58392 553.90778
553.0 0.001808 546.92609 554.63928
556.0 0.001799 546.27307 556.18372
551.0 0.001815 545.62524 559.63647
590.0 0.001695 544.98199 567.49866
603.0 0.001658 544.34375 584.30084
701.0 0.001427 543.71033 615.94891
740.0 0.001351 543.08160 666.38776
893.0 0.001120 542.45782 731.99487
1054.0 0.000949 541.83856 797.48242
1014.0 0.000986 541.22418 839.29218
932.0 0.001073 540.61438 841.93848
963.0 0.001038 540.00903 815.47418
987.0 0.001013 539.40857 780.87201
810.0 0.001235 538.81244 746.59320
755.0 0.001325 538.22107 707.12555
689.0 0.001451 537.63403 662.79779
652.0 0.001534 537.05133 621.02765
639.0 0.001565 536.47339 588.67963
540.0 0.001852 535.89954 566.89307
574.0 0.001742 535.33032 554.28552
581.0 0.001721 534.76532 547.59094
576.0 0.001736 534.20453 543.98938
573.0 0.001745 533.64807 541.79150
531.0 0.001883 533.09583 540.21069
545.0 0.001835 532.54785 538.93744
584.0 0.001712 532.00397 537.85211
550.0 0.001818 531.46405 536.90088
610.0 0.001639 530.92841 536.05334
535.0 0.001869 530.39679 535.28888
517.0 0.001934 529.86914 534.59296
584.0 0.001712 529.34552 533.95557
531.0 0.001883 528.82568 533.36877
569.0 0.001757 528.31000 532.82794
518.0 0.001931 527.79797 532.32904
526.0 0.001901 527.28986 531.86993
576.0 0.001736 526.78558 531.44977
535.0 0.001869 526.28491 531.06805
465.0 0.002151 525.78821 530.72589
518.0 0.001931 525.29498 530.42474
517.0 0.001934 524.80554 530.16772
536.0 0.001866 524.31970 529.95819
483.0 0.002070 523.83722 529.80121
515.0 0.001942 523.35858 529.70337
511.0 0.001957 522.88318 529.67255
552.0 0.001812 522.41150 529.71948
535.0 0.001869 521.94312 529.85718
548.0 0.001825 521.47803 530.10229
506.0 0.001976 521.01648 530.47650
538.0 0.001859 520.55811 531.00787
526.0 0.001901 520.10315 531.73260
527.0 0.001898 519.65137 532.69958
549.0 0.001821 519.20276 533.97479
556.0 0.001799 518.75739 535.64807
519.0 0.001927 518.31506 537.85339
545.0 0.001835 517.87598 540.81036
573.0 0.001745 517.43988 544.97723
524.0 0.001908 517.00677 551.51373
551.0 0.001815 516.57666 563.45966
631.0 0.001585 516.14954 588.01117
623.0 0.001605 515.72540 639.06610
705.0 0.001418 515.30402 736.88342
876.0 0.001142 514.88550 899.56244
1136.0 0.000880 514.46985 1126.31604
1374.0 0.000728 514.05695 1378.60242
1458.0 0.000686 513.64679 1579.45850
1479.0 0.000676 513.23932 1652.06555
1517.0 0.000659 512.83447 1592.63831
1488.0 0.000672 512.43237 1473.78992
1295.0 0.000772 512.03271 1350.67603
1026.0 0.000975 511.63580 1223.10535
922.0 0.001085 511.24130 1073.70227
905.0 0.001105 510.84918 914.40814
726.0 0.001377 510.45969 773.74719
624.0 0.001603 510.07251 669.22900
586.0 0.001706 509.68784 602.87860
534.0 0.001873 509.30545 565.97339
507.0 0.001972 508.92523 546.98523
572.0 0.001748 508.54752 537.04089
478.0 0.002092 508.17191 531.14813
529.0 0.001890 507.79865 527.07275
513.0 0.001949 507.42749 523.93262
525.0 0.001905 507.05844 521.37622
523.0 0.001912 506.69150 519.23645
501.0 0.001996 506.32666 517.41058
511.0 0.001957 505.96396 515.82947
493.0 0.002028 505.60321 514.44153
492.0 0.002033 505.24438 513.23480
482.0 0.002075 504.88757 512.12915
502.0 0.001992 504.53265 511.12683
462.0 0.002165 504.17966 510.21057
496.0 0.002016 503.82849 509.36627
463.0 0.002160 503.47910 508.59583
507.0 0.001972 503.13153 507.86459
492.0 0.002033 502.78574 507.17764
525.0 0.001905 502.44171 506.52911
465.0 0.002151 502.09933 505.91388
471.0 0.002123 501.75861 505.32764
504.0 0.001984 501.41962 504.76727
500.0 0.002000 501.08212 504.22931
500.0 0.002000 500.74634 503.71170
472.0 0.002119 500.41196 503.21191
469.0 0.002132 500.07913 502.72824
474.0 0.002110 499.74789 502.25925
511.0 0.001957 499.41800 501.80331
521.0 0.001919 499.08969 501.35956
521.0 0.001919 498.76270 500.92670
508.0 0.001969 498.43698 500.50385
462.0 0.002165 498.11279 500.09045
495.0 0.002020 497.78983 499.68564
523.0 0.001912 497.46823 499.28903
513.0 0.001949 497.14789 498.89999
496.0 0.002016 496.82867 498.51801
495.0 0.002020 496.51083 498.14304
488.0 0.002049 496.19409 497.77460
485.0 0.002062 495.87863 497.41269
469.0 0.002132 495.56427 497.05701
480.0 0.002083 495.25095 495.91708
450.0 0.002222 494.93878 495.60376
478.0 0.002092 494.62769 495.29529
484.0 0.002066 494.31763 494.99213
503.0 0.001988 494.00861 494.69476
477.0 0.002096 493.70053 494.02005
470.0 0.002128 493.39349 493.75125
459.0 0.002179 493.08737 493.49063
504.0 0.001984 492.78220 493.24020
496.0 0.002016 492.47794 493.00272
507.0 0.001972 492.17453 492.78192
466.0 0.002146 491.87207 492.58435
502.0 0.001992 491.57034 492.42279
509.0 0.001965 491.26950 492.32928
471.0 0.002123 490.96945 492.38663
494.0 0.002024 490.67014 492.79056
469.0 0.002132 490.37170 493.92651
475.0 0.002105 490.07388 496.38269
520.0 0.001923 489.77692 500.75674
529.0 0.001890 489.48056 507.20129
562.0 0.001779 489.18481 514.87726
563.0 0.001776 488.88989 521.72705
590.0 0.001695 488.59549 525.44977
616.0 0.001623 488.30182 524.52344
597.0 0.001675 488.00873 520.87958
568.0 0.001761 487.71613 516.73334
550.0 0.001818 487.42426 512.73590
532.0 0.001880 487.13284 508.42258
512.0 0.001953 486.84204 503.30615
486.0 0.002058 486.55176 498.20737
533.0 0.001876 486.26193 493.91437
456.0 0.002193 485.97266 490.79333
490.0 0.002041 485.68387 488.77850
466.0 0.002146 485.39551 487.56271
484.0 0.002066 485.10760 486.81311
489.0 0.002045 484.82013 486.29523
483.0 0.002070 484.53311 485.88354
500.0 0.002000 484.24652 485.52271
483.0 0.002070 483.96030 485.19080
497.0 0.002012 483.67447 486.02542
476.0 0.002101 483.38898 485.77478
480.0 0.002083 483.10394 485.54044
482.0 0.002075 482.81912 485.32080
523.0 0.001912 482.53473 485.11526
498.0 0.002008 482.25067 485.49945
476.0 0.002101 481.96683 485.34488
456.0 0.002193 481.68341 485.20636
459.0 0.002179 481.40021 485.08481
494.0 0.002024 481.11734 484.98160
498.0 0.002008 480.83472 484.89838
507.0 0.001972 480.55228 484.83731
478.0 0.002092 480.27020 484.80103
521.0 0.001919 479.98831 484.79279
501.0 0.001996 479.70673 484.81653
539.0 0.001855 479.42532 484.87708
506.0 0.001976 479.14404 484.98038
500.0 0.002000 478.86313 485.13397
515.0 0.001942 478.58231 485.34723
477.0 0.002096 478.30179 485.63217
492.0 0.002033 478.02139 486.00415
512.0 0.001953 477.74115 486.48346
489.0 0.002045 477.46109 487.09711
477.0 0.002096 477.18121 487.88422
563.0 0.001776 476.90155 488.90707
468.0 0.002137 476.62201 490.29086
500.0 0.002000 476.34256 492.33801
540.0 0.001852 476.06332 495.80899
506.0 0.001976 475.78421 502.46301
527.0 0.001898 475.50525 515.69440
557.0 0.001795 475.22644 540.62494
604.0 0.001656 474.94766 582.49243
718.0 0.001393 474.66910 642.79120
794.0 0.001259 474.39063 714.80011
793.0 0.001261 474.11227 781.37262
814.0 0.001229 473.83405 820.13312
795.0 0.001258 473.55588 819.89087
801.0 0.001248 473.27792 793.25092
781.0 0.001280 472.99994 760.73541
751.0 0.001332 472.72220 730.79010
669.0 0.001495 472.44449 699.34021
674.0 0.001484 472.16678 662.26697
638.0 0.001567 471.88931 624.56970
594.0 0.001684 471.61188 595.38721
584.0 0.001712 471.33459 583.62109
598.0 0.001672 471.05737 599.55170
618.0 0.001618 470.78015 658.58319
697.0 0.001435 470.50314 781.81976
915.0 0.001093 470.22617 987.77911
1305.0 0.000766 469.94934 1273.75842
1644.0 0.000608 469.67261 1597.07654
1752.0 0.000571 469.39587 1870.92859
1743.0 0.000574 469.11932 1998.43250
1780.0 0.000562 468.84277 1953.67700
1824.0 0.000548 468.56644 1811.18616
1607.0 0.000622 468.29016 1655.60181
1242.0 0.000805 468.01392 1509.47058
1052.0 0.000951 467.73782 1347.60400
1002.0 0.000998 467.46182 1156.33643
912.0 0.001096 467.18594 960.12677
753.0 0.001328 466.91016 791.03979
611.0 0.001637 466.63446 666.48163
568.0 0.001761 466.35883 586.88599
528.0 0.001894 466.08344 541.76788
521.0 0.001919 465.80801 517.94263
521.0 0.001919 465.53278 505.23047
518.0 0.001931 465.25769 497.71024
531.0 0.001883 464.98270 492.57928
535.0 0.001869 464.70782 488.67914
511.0 0.001957 464.43307 485.53418
488.0 0.002049 464.15842 482.92365
482.0 0.002075 463.88394 480.71927
472.0 0.002119 463.60962 478.83325
511.0 0.001957 463.33542 477.20261
499.0 0.002004 463.06140 475.77908
476.0 0.002101 462.78745 474.52661
469.0 0.002132 462.51376 473.41730
454.0 0.002203 462.24014 472.42883
466.0 0.002146 461.96680 471.54465
489.0 0.002045 461.69348 470.75098
503.0 0.001988 461.42041 470.03784
495.0 0.002020 461.14755 469.39761
510.0 0.001961 460.87479 468.82422
515.0 0.001942 460.60233 468.31415
489.0 0.002045 460.32996 467.86533
477.0 0.002096 460.05780 467.88834
465.0 0.002151 459.78592 467.57968
475.0 0.002105 459.51416 467.09158
498.0 0.002008 459.24271 466.93381
516.0 0.001938 458.97141 466.85938
478.0 0.002092 458.70029 467.08691
478.0 0.002092 458.42953 467.10989
501.0 0.001996 458.15887 467.41321
486.0 0.002058 457.88861 467.91739
487.0 0.002053 457.61847 468.73013
464.0 0.002155 457.34863 470.11340
520.0 0.001923 457.07907 472.72440
484.0 0.002066 456.80975 478.07330
509.0 0.001965 456.54071 489.08170
476.0 0.002101 456.27191 510.24731
471.0 0.002123 456.00345 546.43848
526.0 0.001901 455.73526 599.80939
613.0 0.001631 455.46735 665.86682
728.0 0.001374 455.19980 729.78070
707.0 0.001414 454.93253 773.75159
679.0 0.001473 454.66550 781.88263
645.0 0.001550 454.39893 759.97656
664.0 0.001506 454.13257 727.20221
597.0 0.001675 453.86661 695.41492
559.0 0.001789 453.60098 665.15051
569.0 0.001757 453.33563 629.68719
526.0 0.001901 453.07077 588.89636
528.0 0.001894 452.80615 549.03369
550.0 0.001818 452.54199 515.99780
483.0 0.002070 452.27814 492.38947
504.0 0.001984 452.01462 477.66412
469.0 0.002132 451.75162 469.45786
499.0 0.002004 451.48889 465.18423
456.0 0.002193 451.22665 462.96362
470.0 0.002128 450.96475 461.73987
504.0 0.001984 450.70325 461.02936
457.0 0.002188 450.44226 460.64246
452.0 0.002212 450.18161 460.51541
475.0 0.002105 449.92145 460.63812
469.0 0.002132 449.66168 461.02997
447.0 0.002237 449.40237 461.74374
492.0 0.002033 449.14349 462.89954
484.0 0.002066 448.88510 464.79681
450.0 0.002222 448.62717 468.19650
478.0 0.002092 448.36966 474.90942
492.0 0.002033 448.11264 488.63953
517.0 0.001934 447.85614 515.54565
564.0 0.001773 447.60010 563.31610
676.0 0.001479 447.34454 637.44824
930.0 0.001075 447.08951 735.49768
1035.0 0.000966 446.83490 841.96765
1131.0 0.000884 446.58090 928.48401
1113.0 0.000898 446.32736 965.73206
1192.0 0.000839 446.07434 948.11890
1165.0 0.000858 445.82187 900.37561
1047.0 0.000955 445.56989 849.24146
888.0 0.001126 445.31851 802.68103
756.0 0.001323 445.06760 752.68372
728.0 0.001374 444.81732 692.55048
650.0 0.001538 444.56750 627.90442
594.0 0.001684 444.31824 569.19098
504.0 0.001984 444.06964 523.42163
511.0 0.001957 443.82150 492.35577
469.0 0.002132 443.57404 473.68475
469.0 0.002132 443.32703 463.37646
447.0 0.002237 443.08066 457.80045
447.0 0.002237 442.83490 454.57101
440.0 0.002273 442.58969 452.43420
446.0 0.002242 442.34515 450.83081
438.0 0.002283 442.10110 449.52792
499.0 0.002004 441.85773 448.42496
463.0 0.002160 441.61496 447.21664
464.0 0.002155 441.37274 446.38501
429.0 0.002331 441.13126 445.64392
469.0 0.002132 440.89029 444.97552
463.0 0.002160 440.64999 444.36667
428.0 0.002336 440.41031 443.68152
473.0 0.002114 440.17126 443.16730
436.0 0.002294 439.93283 442.68726
433.0 0.002309 439.69507 442.23602
428.0 0.002336 439.45792 441.80933
456.0 0.002193 439.22144 441.40390
447.0 0.002237 438.98560 441.01672
422.0 0.002370 438.75040 440.64548
446.0 0.002242 438.51587 440.28818
431.0 0.002320 438.28195 439.94305
439.0 0.002278 438.04877 439.60886
427.0 0.002342 437.81616 439.28418
408.0 0.002451 437.58432 438.96820
395.0 0.002532 437.35306 438.65985
449.0 0.002227 437.12247 438.35846
453.0 0.002208 436.89261 438.06342
464.0 0.002155 436.66336 437.77402
403.0 0.002481 436.43484 437.48993
433.0 0.002309 436.20694 437.21048
450.0 0.002222 435.97974 436.93539
450.0 0.002222 435.75323 436.66443
428.0 0.002336 435.52737 436.39709
420.0 0.002381 435.30228 436.13333
425.0 0.002353 435.07779 435.87265
439.0 0.002278 434.85400 435.61502
434.0 0.002304 434.63089 435.36023
403.0 0.002481 434.40845 435.10800
451.0 0.002217 434.18677 434.44141
409.0 0.002445 433.96570 434.20972
444.0 0.002252 433.74536 433.97946
438.0 0.002283 433.52570 433.75040
431.0 0.002320 433.30670 433.52264
448.0 0.002232 433.08844 433.08859
403.0 0.002481 432.87085 432.87097
380.0 0.002632 432.65390 432.65402
410.0 0.002439 432.43768 432.43781
388.0 0.002577 432.22214 432.22226
398.0 0.002513 432.00729 432.00742
418.0 0.002392 431.79312 431.81198
406.0 0.002463 431.57962 431.59921
425.0 0.002353 431.36685 431.38724
445.0 0.002247 431.15472 431.17593
425.0 0.002353 430.94330 430.96542
420.0 0.002381 430.73254 430.76477
403.0 0.002481 430.52243 430.55606
393.0 0.002545 430.31308 430.34818
437.0 0.002288 430.10431 430.14099
423.0 0.002364 429.89630 429.93466
443.0 0.002257 429.68890 429.72903
417.0 0.002398 429.48218 429.52420
418.0 0.002392 429.27618 429.32028
406.0 0.002463 429.07077 429.11713
419.0 0.002387 428.86612 428.91479
428.0 0.002336 428.66205 428.71332
391.0 0.002558 428.45862 428.51266
430.0 0.002326 428.25592 428.31302
429.0 0.002331 428.05380 428.11420
414.0 0.002415 427.85245 427.91638
402.0 0.002488 427.65164 427.71948
400.0 0.002500 427.45148 427.52362
394.0 0.002538 427.25198 427.32880
425.0 0.002353 427.05313 427.13510
458.0 0.002183 426.85492 426.94257
416.0 0.002404 426.65729 426.75131
385.0 0.002597 426.46036 426.56140
463.0 0.002160 426.26401 426.37286
481.0 0.002079 426.06827 426.18600
418.0 0.002392 425.87317 426.00082
432.0 0.002315 425.67868 425.81757
401.0 0.002494 425.48477 425.63721
408.0 0.002451 425.29150 425.45865
416.0 0.002404 425.09879 425.28284
431.0 0.002320 424.90668 425.11044
448.0 0.002232 424.71518 424.94189
409.0 0.002445 424.52423 424.77805
411.0 0.002433 424.33392 424.62042
386.0 0.002591 424.14410 424.46957
404.0 0.002475 423.95496 424.32806
428.0 0.002336 423.76630 424.19958
390.0 0.002564 423.57819 424.09213
397.0 0.002519 423.39069 424.02460
392.0 0.002551 423.20370 424.04190
418.0 0.002392 423.01730 424.24115
415.0 0.002410 422.83136 424.80045
404.0 0.002475 422.64600 425.98300
436.0 0.002294 422.46118 428.07059
433.0 0.002309 422.27682 431.20541
478.0 0.002092 422.09308 435.17880
456.0 0.002193 421.90976 439.29593
412.0 0.002427 421.72696 442.43295
421.0 0.002375 421.54468 443.53830
514.0 0.001946 421.36288 442.52625
418.0 0.002392 421.18158 440.38248
428.0 0.002336 421.00070 438.13245
442.0 0.002262 420.82034 436.12903
428.0 0.002336 420.64044 434.09000
394.0 0.002538 420.46100 431.65720
425.0 0.002353 420.28201 428.91867
410.0 0.002439 420.10349 426.25702
381.0 0.002625 419.92535 424.00449
415.0 0.002410 419.74771 422.31363
361.0 0.002770 419.57043 421.16058
450.0 0.002222 419.39362 420.41663
452.0 0.002212 419.21719 419.93112
408.0 0.002451 419.04117 419.58691
410.0 0.002439 418.86560 419.31271
415.0 0.002410 418.69034 419.27930
425.0 0.002353 418.51553 419.06329
402.0 0.002488 418.34106 418.85846
456.0 0.002193 418.16693 418.66174
364.0 0.002747 417.99326 418.47186
412.0 0.002427 417.81985 418.28806
473.0 0.002114 417.64685 418.21536
409.0 0.002445 417.47415 418.05045
435.0 0.002299 417.30179 417.89990
445.0 0.002247 417.12979 417.77252
419.0 0.002387 416.95807 417.67941
466.0 0.002146 416.78668 417.62961
436.0 0.002294 416.61557 417.62189
504.0 0.001984 416.44479 417.63779
499.0 0.002004 416.27429 417.63943
453.0 0.002208 416.10403 417.57959
478.0 0.002092 415.93414 417.43167
482.0 0.002075 415.76443 417.21649
457.0 0.002188 415.59500 416.97989
503.0 0.001988 415.42584 416.75223
425.0 0.002353 415.25690 416.53452
437.0 0.002288 415.08820 416.31046
493.0 0.002028 414.91974 416.07193
414.0 0.002415 414.75146 415.82883
410.0 0.002439 414.58344 415.59723
395.0 0.002532 414.41562 415.38806
402.0 0.002488 414.24799 415.20520
441.0 0.002268 414.08057 415.04614
411.0 0.002433 413.91327 414.90546
386.0 0.002591 413.74622 415.08130
444.0 0.002252 413.57928 414.97299
418.0 0.002392 413.41257 414.87286
445.0 0.002247 413.24591 414.78033
418.0 0.002392 413.07944 414.69562
416.0 0.002404 412.91315 414.61945
459.0 0.002179 412.74692 414.68640
393.0 0.002545 412.58090 414.63589
400.0 0.002500 412.41492 414.59763
425.0 0.002353 412.24902 414.57321
420.0 0.002381 412.08331 414.56473
422.0 0.002370 411.91760 414.57468
401.0 0.002494 411.75208 414.59692
423.0 0.002364 411.58655 414.65378
409.0 0.002445 411.42111 414.74030
441.0 0.002268 411.25574 414.86206
435.0 0.002299 411.09042 415.17511
416.0 0.002404 410.92517 415.39548
442.0 0.002262 410.75992 415.67926
427.0 0.002342 410.59473 416.04169
398.0 0.002513 410.42957 416.50330
415.0 0.002410 410.26440 417.09500
422.0 0.002370 410.09927 417.94318
454.0 0.002203 409.93414 419.00839
458.0 0.002183 409.76898 420.61307
419.0 0.002387 409.60385 423.34131
437.0 0.002288 409.43869 428.45099
467.0 0.002141 409.27350 438.27502
413.0 0.002421 409.10828 456.39642
495.0 0.002020 408.94302 486.98694
531.0 0.001883 408.77774 532.90912
615.0 0.001626 408.61240 592.97290
787.0 0.001271 408.44702 659.50964
830.0 0.001205 408.28152 718.16217
802.0 0.001247 408.11597 751.88855
771.0 0.001297 407.95041 752.22064
823.0 0.001215 407.78467 727.84058
745.0 0.001342 407.61893 695.47302
771.0 0.001297 407.45303 665.89880
701.0 0.001427 407.28702 639.55273
586.0 0.001706 407.12097 610.38922
566.0 0.001767 406.95477 574.78992
541.0 0.001848 406.78848 535.91663
547.0 0.001828 406.62204 499.48691
486.0 0.002058 406.45544 469.80048
457.0 0.002188 406.28876 448.55069
435.0 0.002299 406.12189 435.07892
397.0 0.002519 405.95496 427.44260
378.0 0.002646 405.78778 423.52576
423.0 0.002364 405.62048 421.72717
415.0 0.002410 405.45303 421.09256
384.0 0.002604 405.28540 421.17300
452.0 0.002212 405.11758 421.85190
426.0 0.002347 404.94958 423.28833
413.0 0.002421 404.78143 426.05026
406.0 0.002463 404.61307 431.48682
454.0 0.002203 404.44455 442.30383
463.0 0.002160 404.27579 463.00369
451.0 0.002217 404.10687 499.53363
512.0 0.001953 403.93768 557.25079
588.0 0.001701 403.76837 637.25195
744.0 0.001344 403.59875 732.58698
867.0 0.001153 403.42899 826.25739
906.0 0.001104 403.25897 893.62628
868.0 0.001152 403.08868 914.10706
841.0 0.001189 402.91824 890.18011
888.0 0.001126 402.74753 844.82526
869.0 0.001151 402.57660 799.40204
744.0 0.001344 402.40536 761.26385
667.0 0.001499 402.23392 724.33417
598.0 0.001672 402.06226 679.75024
587.0 0.001704 401.89029 628.25836
568.0 0.001761 401.71814 579.09155
538.0 0.001859 401.54565 542.42456
466.0 0.002146 401.37292 525.63959
543.0 0.001842 401.19998 531.46564
606.0 0.001650 401.02670 557.09271
639.0 0.001565 400.85324 594.29895
701.0 0.001427 400.67941 630.57623
693.0 0.001443 400.50534 652.06592
721.0 0.001387 400.33102 651.18115
715.0 0.001399 400.15640 633.05585
706.0 0.001416 399.98151 609.17853
639.0 0.001565 399.80630 587.48035
582.0 0.001718 399.63083 568.89374
562.0 0.001779 399.45508 549.17505
537.0 0.001862 399.27902 524.88837
534.0 0.001873 399.10269 497.50095
471.0 0.002123 398.92609 470.89938
434.0 0.002304 398.74911 448.35352
446.0 0.002242 398.57196 431.46002
445.0 0.002247 398.39441 420.12207
404.0 0.002475 398.21661 413.16412
375.0 0.002667 398.03848 409.10123
400.0 0.002500 397.86008 406.70383
451.0 0.002217 397.68140 405.17212
410.0 0.002439 397.50238 404.07144
414.0 0.002415 397.32309 402.98785
401.0 0.002494 397.14346 402.25101
409.0 0.002445 396.96353 401.60437
412.0 0.002427 396.78336 401.02597
357.0 0.002801 396.60281 400.50134
406.0 0.002463 396.42206 400.02090
409.0 0.002445 396.24091 399.47473
359.0 0.002786 396.05948 399.06415
428.0 0.002336 395.87781 398.67932
407.0 0.002457 395.69577 398.31616
397.0 0.002519 395.51349 397.97180
399.0 0.002506 395.33087 397.64343
380.0 0.002632 395.14795 397.32910
373.0 0.002681 394.96475 397.02713
345.0 0.002899 394.78125 396.73590
371.0 0.002695 394.59750 396.45447
391.0 0.002558 394.41339 396.18146
409.0 0.002445 394.22900 395.91617
413.0 0.002421 394.04437 395.65799
384.0 0.002604 393.85941 395.40622
365.0 0.002740 393.67416 395.16040
384.0 0.002604 393.48868 394.92004
371.0 0.002695 393.30283 394.68503
398.0 0.002513 393.11676 394.45511
412.0 0.002427 392.93039 394.28223
380.0 0.002632 392.74377 394.06400
395.0 0.002532 392.55685 393.85104
432.0 0.002315 392.36966 393.64355
340.0 0.002941 392.18225 393.44223
390.0 0.002564 391.99451 393.24777
394.0 0.002538 391.80658 392.78445
391.0 0.002558 391.61829 392.61942
368.0 0.002717 391.42978 392.47089
381.0 0.002625 391.24106 392.35315
388.0 0.002577 391.05203 392.29742
420.0 0.002381 390.86282 392.21362
384.0 0.002604 390.67331 392.52563
389.0 0.002571 390.48355 393.23483
365.0 0.002740 390.29364 394.51669
387.0 0.002584 390.10339 396.48096
370.0 0.002703 389.91302 399.06000
351.0 0.002849 389.72232 401.92374
398.0 0.002513 389.53146 404.46573
396.0 0.002525 389.34039 405.95779
412.0 0.002427 389.14905 405.98782
412.0 0.002427 388.95758 404.68243
380.0 0.002632 388.76581 403.03458
393.0 0.002545 388.57391 401.44009
392.0 0.002551 388.38181 400.04446
364.0 0.002747 388.18951 398.64200
360.0 0.002778 387.99701 396.98761
435.0 0.002299 387.80435 395.01093
415.0 0.002410 387.61148 393.07230
393.0 0.002545 387.41846 391.32321
418.0 0.002392 387.22528 389.90512
343.0 0.002915 387.03195 388.85416
385.0 0.002597 386.83844 388.12134
372.0 0.002688 386.64478 387.61923
381.0 0.002625 386.45099 387.26178
382.0 0.002618 386.25702 386.98526
380.0 0.002632 386.06302 386.75177
382.0 0.002618 385.86877 386.54111
383.0 0.002611 385.67441 386.34457
382.0 0.002618 385.48001 386.15817
389.0 0.002571 385.28543 385.98077
369.0 0.002710 385.09079 385.81189
405.0 0.002469 384.89603 385.65158
384.0 0.002604 384.70114 385.50070
385.0 0.002597 384.50623 385.36023
372.0 0.002688 384.31116 385.23172
359.0 0.002786 384.11612 385.11728
380.0 0.002632 383.92093 385.01962
376.0 0.002660 383.72565 384.94284
404.0 0.002475 383.53040 384.89279
394.0 0.002538 383.33502 384.87961
375.0 0.002667 383.13971 384.92404
416.0 0.002404 382.94424 385.07297
383.0 0.002611 382.74881 385.43289
406.0 0.002463 382.55334 386.22748
364.0 0.002747 382.35785 387.87271
374.0 0.002674 382.16235 391.01917
339.0 0.002950 381.96683 396.48447
390.0 0.002564 381.77133 404.97458
360.0 0.002778 381.57584 416.62024
438.0 0.002283 381.38037 430.50665
386.0 0.002591 381.18494 444.42700
453.0 0.002208 380.98950 455.12869
407.0 0.002457 380.79410 459.54108
402.0 0.002488 380.59879 457.18906
405.0 0.002469 380.40347 450.73291
431.0 0.002320 380.20825 443.44955
454.0 0.002203 380.01312 437.12936
390.0 0.002564 379.81799 431.62650
396.0 0.002525 379.62305 425.58139
391.0 0.002558 379.42810 418.09500
403.0 0.002481 379.23331 409.65277
402.0 0.002488 379.03857 401.37839
386.0 0.002591 378.84396 394.23602
378.0 0.002646 378.64951 388.73584
368.0 0.002717 378.45511 384.90762
417.0 0.002398 378.26093 382.45212
392.0 0.002551 378.06680 380.94611
364.0 0.002747 377.87286 380.01303
364.0 0.002747 377.67911 379.39001
398.0 0.002513 377.48547 378.92432
410.0 0.002439 377.29205 378.53864
392.0 0.002551 377.09875 378.18954
362.0 0.002762 376.90567 377.87326
379.0 0.002639 376.71280 377.58020
378.0 0.002646 376.52011 377.30252
349.0 0.002865 376.32764 377.03729
320.0 0.003125 376.13531 376.78220
390.0 0.002564 375.94330 376.53180
369.0 0.002710 375.75150 376.29089
353.0 0.002833 375.55991 376.05746
403.0 0.002481 375.36859 375.82919
388.0 0.002577 375.17752 375.60541
350.0 0.002857 374.98669 375.38535
350.0 0.002857 374.79617 375.16876
402.0 0.002488 374.60590 374.95505
379.0 0.002639 374.41589 374.74408
374.0 0.002674 374.22623 374.53549
356.0 0.002809 374.03680 374.32895
401.0 0.002494 373.84775 374.12448
376.0 0.002660 373.65897 373.92181
382.0 0.002618 373.47055 373.92404
390.0 0.002564 373.28241 373.73126
375.0 0.002667 373.09460 373.54022
355.0 0.002817 372.90720 373.35114
402.0 0.002488 372.72009 373.16373
382.0 0.002618 372.53339 372.97824
397.0 0.002519 372.34702 372.89468
379.0 0.002639 372.16101 372.71625
378.0 0.002646 371.97543 372.54010
390.0 0.002564 371.79019 372.36658
353.0 0.002833 371.60541 372.19666
372.0 0.002688 371.42096 372.03195
361.0 0.002770 371.23694 371.87650
389.0 0.002571 371.05338 371.73764
373.0 0.002681 370.87018 371.62781
381.0 0.002625 370.68747 371.56451
358.0 0.002793 370.50516 371.56604
367.0 0.002725 370.32330 371.64383
372.0 0.002688 370.14191 371.79083
392.0 0.002551 369.96097 371.97372
398.0 0.002513 369.78052 372.13110
391.0 0.002558 369.60052 372.18555
357.0 0.002801 369.42099 372.08286
377.0 0.002653 369.24194 371.84027
407.0 0.002457 369.06342 371.53049
389.0 0.002571 368.88538 371.17044
362.0 0.002762 368.70786 370.89337
393.0 0.002545 368.53082 370.63440
414.0 0.002415 368.35437 370.36115
396.0 0.002525 368.17834 370.05829
381.0 0.002625 368.00296 369.74075
388.0 0.002577 367.82803 369.40939
379.0 0.002639 367.65366 369.13785
379.0 0.002639 367.47989 368.91150
359.0 0.002786 367.30661 368.73145
383.0 0.002611 367.13397 368.59180
360.0 0.002778 366.96185 368.48416
339.0 0.002950 366.79028 368.40128
355.0 0.002817 366.61938 368.33868
349.0 0.002865 366.44901 368.29456
391.0 0.002558 366.27927 368.26956
399.0 0.002506 366.11008 368.26550
362.0 0.002762 365.94150 368.28546
362.0 0.002762 365.77356 368.33356
369.0 0.002710 365.60620 368.41501
388.0 0.002577 365.43951 368.53638
384.0 0.002604 365.27341 368.70627
357.0 0.002801 365.10797 368.93582
402.0 0.002488 364.94315 369.24030
406.0 0.002463 364.77899 369.64365
392.0 0.002551 364.61548 370.18781
398.0 0.002513 364.45261 370.96133
414.0 0.002415 364.29037 372.15973
430.0 0.002326 364.12885 374.20795
435.0 0.002299 363.96796 377.95667
388.0 0.002577 363.80777 384.90134
380.0 0.002632 363.64822 397.28928
431.0 0.002320 363.48935 417.82382
410.0 0.002439 363.33124 448.95114
448.0 0.002232 363.17374 490.69562
530.0 0.001887 363.01700 540.28210
678.0 0.001475 362.86090 590.74072
726.0 0.001377 362.70551 631.60663
666.0 0.001502 362.55087 652.27271
657.0 0.001522 362.39691 649.21783
738.0 0.001355 362.24371 629.24792
660.0 0.001515 362.09119 603.64893
640.0 0.001563 361.93936 580.28021
558.0 0.001792 361.78833 560.91101
511.0 0.001957 361.63797 542.07166
517.0 0.001934 361.48840 519.24396
476.0 0.002101 361.33951 491.61621
518.0 0.001931 361.19138 462.13751
402.0 0.002488 361.04404 434.52979
422.0 0.002370 360.89737 411.49857
413.0 0.002421 360.75153 394.24066
377.0 0.002653 360.60638 382.50400
385.0 0.002597 360.46204 375.15240
374.0 0.002674 360.31842 370.79590
396.0 0.002525 360.17557 368.24536
394.0 0.002538 360.03351 366.68622
332.0 0.003012 359.89218 365.64148
366.0 0.002732 359.75162 364.86588
386.0 0.002591 359.61188 364.24298
374.0 0.002674 359.47287 363.72076
373.0 0.002681 359.33463 363.26685
391.0 0.002558 359.19720 362.87070
378.0 0.002646 359.06052 362.52106
369.0 0.002710 358.92465 362.21094
388.0 0.002577 358.78955 361.93472
353.0 0.002833 358.65524 361.68979
374.0 0.002674 358.52173 361.46985
380.0 0.002632 358.38895 361.27515
363.0 0.002755 358.25702 361.10364
399.0 0.002506 358.12585 360.95413
389.0 0.002571 357.99551 360.82642
342.0 0.002924 357.86594 360.72034
345.0 0.002899 357.73715 360.63675
367.0 0.002725 357.60919 360.57678
390.0 0.002564 357.48199 360.54214
379.0 0.002639 357.35562 360.53546
344.0 0.002907 357.23004 360.56021
358.0 0.002793 357.10522 360.62073
320.0 0.003125 356.98126 360.72296
412.0 0.002427 356.85806 360.87473
370.0 0.002703 356.73569 361.08640
364.0 0.002747 356.61407 361.37323
365.0 0.002740 356.49329 361.76044
373.0 0.002681 356.37332 362.29587
351.0 0.002849 356.25412 363.08286
371.0 0.002695 356.13574 364.34641
392.0 0.002551 356.01816 366.55728
379.0 0.002639 355.90137 370.60379
381.0 0.002625 355.78537 377.95499
373.0 0.002681 355.67020 390.67078
388.0 0.002577 355.55579 411.01642
414.0 0.002415 355.44220 440.61520
424.0 0.002358 355.32941 479.20175
501.0 0.001996 355.21741 523.55408
588.0 0.001701 355.10617 567.14661
617.0 0.001621 354.99576 600.86047
567.0 0.001764 354.88617 616.25769
555.0 0.001802 354.77731 611.43488
581.0 0.001721 354.66928 593.02100
567.0 0.001764 354.56201 570.41504
539.0 0.001855 354.45560 550.00482
467.0 0.002141 354.34988 532.93530
477.0 0.002096 354.24496 516.68408
417.0 0.002398 354.14087 497.12668
440.0 0.002273 354.03754 473.30334
385.0 0.002597 353.93500 447.51978
412.0 0.002427 353.83319 422.92456
400.0 0.002500 353.73218 401.87610
401.0 0.002494 353.63196 385.80487
375.0 0.002667 353.53247 374.59305
388.0 0.002577 353.43381 367.39828
335.0 0.002985 353.33588 363.05722
350.0 0.002857 353.23871 360.51453
367.0 0.002725 353.14230 359.00812
348.0 0.002874 353.04663 358.07919
364.0 0.002747 352.95175 357.49579
364.0 0.002747 352.85760 357.15894
415.0 0.002410 352.76422 357.03003
356.0 0.002809 352.67157 357.07977
377.0 0.002653 352.57965 357.25751
378.0 0.002646 352.48849 357.47775
346.0 0.002890 352.39807 357.62494
357.0 0.002801 352.30838 357.58493
360.0 0.002778 352.21942 357.31412
351.0 0.002849 352.13116 356.87601
366.0 0.002732 352.04367 356.38351
358.0 0.002793 351.95688 355.92221
351.0 0.002849 351.87079 355.51947
405.0 0.002469 351.78543 355.14648
384.0 0.002604 351.70078 354.82343
373.0 0.002681 351.61685 354.38461
351.0 0.002849 351.53357 353.91919
366.0 0.002732 351.45102 353.46497
365.0 0.002740 351.36917 353.05481
376.0 0.002660 351.28799 352.70740
364.0 0.002747 351.20752 352.46146
337.0 0.002967 351.12772 352.23959
345.0 0.002899 351.04858 352.06186
352.0 0.002841 350.97012 351.91406
369.0 0.002710 350.89233 351.78525
373.0 0.002681 350.81522 351.66812
370.0 0.002703 350.73877 351.55856
336.0 0.002976 350.66296 351.45428
385.0 0.002597 350.58780 351.35428
389.0 0.002571 350.51328 351.25787
371.0 0.002695 350.43942 351.16486
342.0 0.002924 350.36618 351.07471
344.0 0.002907 350.29358 350.98752
372.0 0.002688 350.22162 350.90298
373.0 0.002681 350.15027 350.82108
372.0 0.002688 350.07953 350.74167
339.0 0.002950 350.00943 350.66473
376.0 0.002660 349.93988 350.59018
360.0 0.002778 349.87097 350.51807
371.0 0.002695 349.80267 350.44839
329.0 0.003040 349.73492 350.38107
331.0 0.003021 349.66779 350.31631
347.0 0.002882 349.60123 350.25403
393.0 0.002545 349.53525 350.19437
336.0 0.002976 349.46985 349.94998
354.0 0.002825 349.40500 349.90176
357.0 0.002801 349.34070 349.85632
384.0 0.002604 349.27698 349.81387
338.0 0.002959 349.21381 349.77478
377.0 0.002653 349.15115 349.73926
382.0 0.002618 349.08905 349.61304
311.0 0.003215 349.02747 349.58896
370.0 0.002703 348.96643 349.56982
384.0 0.002604 348.90591 349.55630
322.0 0.003106 348.84592 349.54919
366.0 0.002732 348.78644 349.54944
330.0 0.003030 348.72742 349.55838
346.0 0.002890 348.66891 349.57755
341.0 0.002933 348.61093 349.60880
337.0 0.002967 348.55341 349.65451
355.0 0.002817 348.49640 349.71793
355.0 0.002817 348.43982 349.80331
368.0 0.002717 348.38373 349.91757
338.0 0.002959 348.32813 350.07257
346.0 0.002890 348.27295 350.29266
369.0 0.002710 348.21823 350.62973
363.0 0.002755 348.16394 351.19250
328.0 0.003049 348.11014 352.19168
359.0 0.002786 348.05673 353.99408
346.0 0.002890 348.00375 357.15866
338.0 0.002959 347.95123 362.39117
363.0 0.002755 347.89911 370.39209
383.0 0.002611 347.84738 381.52603
358.0 0.002793 347.79608 395.46252
406.0 0.002463 347.74515 410.91101
408.0 0.002451 347.69464 425.55865
418.0 0.002392 347.64450 436.43365
430.0 0.002326 347.59473 440.99524
442.0 0.002262 347.54535 438.92197
436.0 0.002294 347.49634 432.45648
447.0 0.002237 347.44769 424.61954
425.0 0.002353 347.39938 417.49747
358.0 0.002793 347.35144 411.64297
417.0 0.002398 347.30383 406.22290
390.0 0.002564 347.25656 399.90115
374.0 0.002674 347.20966 392.09821
371.0 0.002695 347.16302 383.34351
358.0 0.002793 347.11673 374.64447
391.0 0.002558 347.07077 366.89899
332.0 0.003012 347.02512 360.65421
353.0 0.002833 346.97974 356.06564
330.0 0.003030 346.93466 352.96069
381.0 0.002625 346.88989 350.99664
347.0 0.002882 346.84540 349.80472
346.0 0.002890 346.80121 349.08228
325.0 0.003077 346.75726 348.62354
376.0 0.002660 346.71356 348.30573
340.0 0.002941 346.67014 348.06381
343.0 0.002915 346.62698 347.86545
337.0 0.002967 346.58408 347.69507
369.0 0.002710 346.54141 347.54480
339.0 0.002950 346.49896 347.41006
360.0 0.002778 346.45676 347.28790
351.0 0.002849 346.41479 347.17612
340.0 0.002941 346.37302 347.07309
333.0 0.003003 346.33148 346.97742
329.0 0.003040 346.29016 346.88803
355.0 0.002817 346.24902 346.80408
365.0 0.002740 346.20807 346.72623
318.0 0.003145 346.16733 346.65552
374.0 0.002674 346.12677 346.58408
351.0 0.002849 346.08636 346.51563
334.0 0.002994 346.04614 346.45007
363.0 0.002755 346.00613 346.38687
329.0 0.003040 345.96625 346.32593
340.0 0.002941 345.92651 346.26758
365.0 0.002740 345.88693 346.21262
355.0 0.002817 345.84750 346.15701
338.0 0.002959 345.80823 346.10291
333.0 0.003003 345.76907 346.05002
347.0 0.002882 345.73007 345.99835
344.0 0.002907 345.69116 345.94778
319.0 0.003135 345.65240 345.89819
357.0 0.002801 345.61374 345.84949
319.0 0.003135 345.57516 345.80170
334.0 0.002994 345.53674 345.75470
345.0 0.002899 345.49838 345.70831
316.0 0.003165 345.46011 345.66269
313.0 0.003195 345.42194 345.61768
346.0 0.002890 345.38388 345.57321
339.0 0.002950 345.34586 345.52933
329.0 0.003040 345.30792 345.48593
332.0 0.003012 345.27005 345.44305
340.0 0.002941 345.23224 345.40067
345.0 0.002899 345.19452 345.35867
349.0 0.002865 345.15680 345.31711
360.0 0.002778 345.11917 345.27600
322.0 0.003106 345.08157 345.23526
355.0 0.002817 345.04401 345.19485
342.0 0.002924 345.00650 345.15491
339.0 0.002950 344.96899 345.04446
354.0 0.002825 344.93152 345.00739
339.0 0.002950 344.89407 344.97064
330.0 0.003030 344.85666 344.93417
354.0 0.002825 344.81924 344.89798
359.0 0.002786 344.78183 344.86221
344.0 0.002907 344.74442 344.82678
337.0 0.002967 344.70700 344.81516
356.0 0.002809 344.66962 344.78360
330.0 0.003030 344.63217 344.75262
359.0 0.002786 344.59476 344.72229
370.0 0.002703 344.55731 344.69266
335.0 0.002985 344.51984 344.66397
341.0 0.002933 344.48233 344.63638
335.0 0.002985 344.44479 344.63892
335.0 0.002985 344.40723 344.61502
306.0 0.003268 344.36963 344.59320
360.0 0.002778 344.33200 344.57407
296.0 0.003378 344.29431 344.55902
343.0 0.002915 344.25659 344.55084
340.0 0.002941 344.21881 344.61795
324.0 0.003086 344.18097 344.64798
327.0 0.003058 344.14307 344.72171
344.0 0.002907 344.10510 344.87097
344.0 0.002907 344.06708 345.14008
333.0 0.003003 344.02899 345.57990
320.0 0.003125 343.99081 346.23355
326.0 0.003067 343.95258 347.14459
337.0 0.002967 343.91425 348.21130
364.0 0.002747 343.87582 349.35620
358.0 0.002793 343.83737 350.40576
343.0 0.002915 343.79877 351.15341
345.0 0.002899 343.76010 351.43848
328.0 0.003049 343.72134 351.25281
320.0 0.003125 343.68246 350.75253
356.0 0.002809 343.64352 350.14600
356.0 0.002809 343.60443 349.58374
371.0 0.002695 343.56525 349.11548
340.0 0.002941 343.52597 348.69540
353.0 0.002833 343.48657 348.23212
363.0 0.002755 343.44708 347.66797
339.0 0.002950 343.40744 347.01981
352.0 0.002841 343.36771 346.35236
339.0 0.002950 343.32785 345.73401
357.0 0.002801 343.28784 345.21420
352.0 0.002841 343.24774 344.81644
357.0 0.002801 343.20749 344.53891
353.0 0.002833 343.16711 344.36340
373.0 0.002681 343.12662 344.26483
331.0 0.003021 343.08597 344.22006
381.0 0.002625 343.04520 344.21143
354.0 0.002825 343.00427 344.22845
361.0 0.002770 342.96320 344.26569
340.0 0.002941 342.92200 344.32184
322.0 0.003106 342.88065 344.39841
344.0 0.002907 342.83917 344.49966
358.0 0.002793 342.79752 344.63464
373.0 0.002681 342.75574 344.82156
328.0 0.003049 342.71378 345.09824
304.0 0.003289 342.67166 345.54047
348.0 0.002874 342.62943 346.35577
332.0 0.003012 342.58701 347.65579
350.0 0.002857 342.54443 349.85873
341.0 0.002933 342.50171 353.42422
357.0 0.002801 342.45880 358.82266
355.0 0.002817 342.41577 366.36044
373.0 0.002681 342.37256 375.97076
374.0 0.002674 342.32916 387.01718
349.0 0.002865 342.28561 398.26163
345.0 0.002899 342.24191 407.84183
380.0 0.002632 342.19803 413.88983
307.0 0.003257 342.15396 415.36237
372.0 0.002688 342.10974 412.93179
384.0 0.002604 342.06537 408.60400
375.0 0.002667 342.02078 404.53610
367.0 0.002725 341.97604 402.26743
370.0 0.002703 341.93115 402.45126
384.0 0.002604 341.88605 404.90115
375.0 0.002667 341.84079 408.95944
421.0 0.002375 341.79535 414.01093
401.0 0.002494 341.74973 419.51730
417.0 0.002398 341.70395 424.62265
419.0 0.002387 341.65796 427.95648
424.0 0.002358 341.61182 428.04987
412.0 0.002427 341.56549 424.34283
461.0 0.002169 341.51898 417.86377
467.0 0.002141 341.47232 410.37039
405.0 0.002469 341.42545 403.46872
416.0 0.002404 341.37839 397.87555
412.0 0.002427 341.33118 393.36005
404.0 0.002475 341.28378 389.01578
362.0 0.002762 341.23618 383.91110
387.0 0.002584 341.18842 377.77911
364.0 0.002747 341.14047 371.06989
379.0 0.002639 341.09232 364.42346
396.0 0.002525 341.04404 358.46469
366.0 0.002732 340.99554 353.58270
340.0 0.002941 340.94684 349.90079
320.0 0.003125 340.89801 347.32767
313.0 0.003195 340.84897 345.64206
333.0 0.003003 340.79977 344.58984
324.0 0.003086 340.75037 343.94714
358.0 0.002793 340.70078 343.55078
354.0 0.002825 340.65103 343.30066
403.0 0.002481 340.60107 343.13568
354.0 0.002825 340.55099 343.02603
334.0 0.002994 340.50067 342.95807
406.0 0.002463 340.45023 342.92752
373.0 0.002681 340.39957 342.93607
365.0 0.002740 340.34872 342.99271
351.0 0.002849 340.29773 343.11908
362.0 0.002762 340.24655 343.36160
334.0 0.002994 340.19519 343.81247
360.0 0.002778 340.14365 344.63995
340.0 0.002941 340.09195 346.12125
329.0 0.003040 340.04007 348.65683
369.0 0.002710 339.98801 352.74451
341.0 0.002933 339.93576 358.87128
390.0 0.002564 339.88336 367.32965
398.0 0.002513 339.83078 377.99945
422.0 0.002370 339.77805 390.15015
486.0 0.002058 339.72513 402.39688
492.0 0.002033 339.67203 412.79968
479.0 0.002088 339.61880 419.31671
482.0 0.002075 339.56537 420.76376
515.0 0.001942 339.51178 417.68115
482.0 0.002075 339.45804 411.96362
476.0 0.002101 339.40408 405.64236
450.0 0.002222 339.35001 400.02756
429.0 0.002331 339.29575 395.42383
402.0 0.002488 339.24136 391.25012
448.0 0.002232 339.18677 386.54553
399.0 0.002506 339.13202 380.74371
415.0 0.002410 339.07715 373.97659
367.0 0.002725 339.02209 367.01306
355.0 0.002817 338.96689 360.49707
365.0 0.002740 338.91153 354.97055
320.0 0.003125 338.85599 350.75320
336.0 0.002976 338.80032 347.95590
350.0 0.002857 338.74448 346.56635
357.0 0.002801 338.68851 346.55750
386.0 0.002591 338.63235 347.92529
339.0 0.002950 338.57608 350.79962
347.0 0.002882 338.51965 355.18103
382.0 0.002618 338.46307 360.93250
388.0 0.002577 338.40634 367.62231
433.0 0.002309 338.34946 374.41629
442.0 0.002262 338.29245 380.36542
447.0 0.002237 338.23529 384.24197
434.0 0.002304 338.17798 385.29501
470.0 0.002128 338.12054 383.70535
447.0 0.002237 338.06296 380.47504
419.0 0.002387 338.00522 376.76837
383.0 0.002611 337.94739 373.36206
405.0 0.002469 337.88937 370.57910
390.0 0.002564 337.83124 368.13016
420.0 0.002381 337.77298 365.47864
384.0 0.002604 337.71457 362.23114
386.0 0.002591 337.65604 358.41003
355.0 0.002817 337.59738 354.34259
376.0 0.002660 337.53860 350.42535
352.0 0.002841 337.47968 346.97491
360.0 0.002778 337.42062 344.17685
360.0 0.002778 337.36145 342.07413
340.0 0.002941 337.30215 340.59387
357.0 0.002801 337.24277 339.60443
333.0 0.003003 337.18320 338.96075
357.0 0.002801 337.12354 338.53946
322.0 0.003106 337.06378 338.25082
329.0 0.003040 337.00388 338.03732
340.0 0.002941 336.94388 337.86594
320.0 0.003125 336.88373 337.71890
364.0 0.002747 336.82349 337.58688
332.0 0.003012 336.76312 337.46527
341.0 0.002933 336.70264 337.35153
344.0 0.002907 336.64206 337.24408
341.0 0.002933 336.58136 337.14188
309.0 0.003236 336.52057 337.04407
315.0 0.003175 336.45966 336.95139
342.0 0.002924 336.39865 336.86057
328.0 0.003049 336.33749 336.77240
358.0 0.002793 336.27628 336.68665
346.0 0.002890 336.21494 336.60303
364.0 0.002747 336.15350 336.52118
331.0 0.003021 336.09198 336.44092
341.0 0.002933 336.03033 336.36206
346.0 0.002890 335.96860 336.21780
313.0 0.003195 335.90677 336.14133
333.0 0.003003 335.84485 336.06891
311.0 0.003215 335.78281 335.99628
331.0 0.003021 335.72067 335.92438
335.0 0.002985 335.65845 335.85309
322.0 0.003106 335.59613 335.78235
337.0 0.002967 335.53372 335.71225
343.0 0.002915 335.47122 335.60947
334.0 0.002994 335.40863 335.54013
328.0 0.003049 335.34595 335.47263
326.0 0.003067 335.28317 335.40491
341.0 0.002933 335.22034 335.33752
302.0 0.003311 335.15738 335.27029
335.0 0.002985 335.09436 335.20334
334.0 0.002994 335.03122 335.13654
324.0 0.003086 334.96802 335.06992
344.0 0.002907 334.90472 335.00342
346.0 0.002890 334.84137 334.93704
312.0 0.003205 334.77789 334.87082
326.0 0.003067 334.71436 334.80478
334.0 0.002994 334.65076 334.73877
319.0 0.003135 334.58704 334.67288
329.0 0.003040 334.52325 334.60712
348.0 0.002874 334.45941 334.54144
314.0 0.003185 334.39545 334.47580
300.0 0.003333 334.33145 334.37082
331.0 0.003021 334.26736 334.30664
314.0 0.003185 334.20316 334.24237
340.0 0.002941 334.13892 334.17828
328.0 0.003049 334.07458 334.11414
321.0 0.003115 334.01019 334.05014
344.0 0.002907 333.94571 333.98615
293.0 0.003413 333.88113 333.90231
309.0 0.003236 333.81653 333.83920
329.0 0.003040 333.75183 333.77609
333.0 0.003003 333.68701 333.71317
317.0 0.003155 333.62219 333.65057
311.0 0.003215 333.55725 333.58823
325.0 0.003077 333.49225 333.52655
295.0 0.003390 333.42719 333.46606
325.0 0.003077 333.36203 333.40771
312.0 0.003205 333.29681 333.35303
301.0 0.003322 333.23151 333.30441
335.0 0.002985 333.16617 333.26508
356.0 0.002809 333.10071 333.23883
332.0 0.003012 333.03522 333.22882
319.0 0.003135 332.96964 333.23651
325.0 0.003077 332.90396 333.26022
317.0 0.003155 332.83826 333.29376
343.0 0.002915 332.77243 333.32675
315.0 0.003175 332.70657 333.34512
330.0 0.003030 332.64063 333.33459
344.0 0.002907 332.57462 333.28751
322.0 0.003106 332.50854 333.20789
299.0 0.003344 332.44238 333.11087
365.0 0.002740 332.37613 333.01401
331.0 0.003021 332.30984 332.93298
336.0 0.002976 332.24344 332.87927
320.0 0.003125 332.17700 332.86081
361.0 0.002770 332.11047 332.88364
339.0 0.002950 332.04385 332.95355
323.0 0.003096 331.97720 333.07657
332.0 0.003012 331.91046 333.25287
355.0 0.002817 331.84363 333.47012
286.0 0.003497 331.77670 333.71390
313.0 0.003195 331.70975 333.91556
307.0 0.003257 331.64267 334.04156
358.0 0.002793 331.57553 334.06021
333.0 0.003003 331.50836 333.97900
328.0 0.003049 331.44104 333.84396
333.0 0.003003 331.37369 333.71384
345.0 0.002899 331.30624 333.63327
324.0 0.003086 331.23871 333.62527
317.0 0.003155 331.17111 333.66055
350.0 0.002857 331.10339 333.70255
362.0 0.002762 331.03564 333.69778
347.0 0.002882 330.96777 333.60336
323.0 0.003096 330.89984 333.42636
344.0 0.002907 330.83182 333.13870
349.0 0.002865 330.76370 332.80780
329.0 0.003040 330.69550 332.47449
319.0 0.003135 330.62723 332.17599
352.0 0.002841 330.55887 331.92645
353.0 0.002833 330.49042 331.72021
344.0 0.002907 330.42184 331.53796
303.0 0.003300 330.35321 331.36920
311.0 0.003215 330.28448 331.17966
335.0 0.002985 330.21567 330.98294
322.0 0.003106 330.14673 330.78415
337.0 0.002967 330.07773 330.59470
339.0 0.002950 330.00861 330.42206
340.0 0.002941 329.93942 330.27045
336.0 0.002976 329.87009 330.14020
326.0 0.003067 329.80069 330.02905
335.0 0.002985 329.73117 329.93289
313.0 0.003195 329.66156 329.84753
351.0 0.002849 329.59186 329.76932
328.0 0.003049 329.52203 329.69553
273.0 0.00366 329.45212 329.62457
328.0 0.003049 329.38208 329.55527
311.0 0.003215 329.31192 329.48715
329.0 0.003040 329.24170 329.41980
308.0 0.003247 329.17133 329.35318
306.0 0.003268 329.10086 329.28723
329.0 0.003040 329.03024 329.22198
308.0 0.003247 328.95953 329.15726
331.0 0.003021 328.88873 329.09326
311.0 0.003215 328.81778 329.02985
336.0 0.002976 328.74673 328.96719
331.0 0.003021 328.67554 328.90536
291.0 0.003436 328.60422 328.84442
332.0 0.003012 328.53278 328.78439
299.0 0.003344 328.46121 328.72540
330.0 0.003030 328.38953 328.66769
338.0 0.002959 328.31772 328.61127
322.0 0.003106 328.24576 328.55637
317.0 0.003155 328.17368 328.50327
328.0 0.003049 328.10144 328.45218
325.0 0.003077 328.02908 328.40338
332.0 0.003012 327.95660 328.35739
299.0 0.003344 327.88394 328.31445
351.0 0.002849 327.81119 328.27551
298.0 0.003356 327.73822 328.24121
312.0 0.003205 327.66516 328.21301
308.0 0.003247 327.59195 328.19324
345.0 0.002899 327.51859 328.18643
327.0 0.003058 327.44507 328.20096
334.0 0.002994 327.37140 328.25256
349.0 0.002865 327.29755 328.37033
314.0 0.003185 327.22354 328.59848
325.0 0.003077 327.14941 329.00613
292.0 0.003425 327.07510 329.68332
320.0 0.003125 327.00064 330.73260
322.0 0.003106 326.92599 332.24451
331.0 0.003021 326.85120 334.26556
339.0 0.002950 326.77621 336.75659
363.0 0.002755 326.70108 339.56677
343.0 0.002915 326.62573 342.42548
381.0 0.002625 326.55023 344.96429
371.0 0.002695 326.47455 346.79047
376.0 0.002660 326.39868 347.63736
403.0 0.002481 326.32266 347.55191
375.0 0.002667 326.24643 346.91843
377.0 0.002653 326.17004 346.28986
361.0 0.002770 326.09341 346.18396
341.0 0.002933 326.01663 346.97531
364.0 0.002747 325.93967 348.82776
344.0 0.002907 325.86246 351.66891
344.0 0.002907 325.78510 355.21848
349.0 0.002865 325.70752 359.07483
349.0 0.002865 325.62973 362.75891
372.0 0.002688 325.55176 365.71146
397.0 0.002519 325.47357 367.34653
386.0 0.002591 325.39520 367.28162
366.0 0.002732 325.31656 365.58997
373.0 0.002681 325.23773 362.78668
411.0 0.002433 325.15872 359.54950
363.0 0.002755 325.07947 356.44687
354.0 0.002825 325.00000 353.78836
368.0 0.002717 324.92029 351.56952
307.0 0.003257 324.84036 349.53275
360.0 0.002778 324.76022 347.33939
363.0 0.002755 324.67984 344.78024
347.0 0.002882 324.59924 341.87363
320.0 0.003125 324.51840 338.81625
336.0 0.002976 324.43732 335.79526
323.0 0.003096 324.35602 333.06821
328.0 0.003049 324.27444 330.72919
293.0 0.003413 324.19266 328.86368
298.0 0.003356 324.11063 327.45667
294.0 0.003401 324.02832 326.44354
323.0 0.003096 323.94577 325.73639
348.0 0.002874 323.86298 325.25845
317.0 0.003155 323.77994 324.91449
340.0 0.002941 323.69662 324.67316
311.0 0.003215 323.61304 324.51416
337.0 0.002967 323.52924 324.34863
335.0 0.002985 323.44513 324.20236
306.0 0.003268 323.36081 324.06824
344.0 0.002907 323.27615 323.94263
303.0 0.003300 323.19125 323.82312
306.0 0.003268 323.10611 323.70862
338.0 0.002959 323.02063 323.59818
315.0 0.003175 322.93494 323.49136
319.0 0.003135 322.84891 323.40762
355.0 0.002817 322.76263 323.30713
308.0 0.003247 322.67606 323.20932
342.0 0.002924 322.58920 323.11395
345.0 0.002899 322.50208 323.02124
310.0 0.003226 322.41461 322.93143
351.0 0.002849 322.32687 322.84561
344.0 0.002907 322.23886 322.76578
288.0 0.003472 322.15054 322.69489
288.0 0.003472 322.06189 322.63782
311.0 0.003215 321.97296 322.60123
310.0 0.003226 321.88373 322.59286
319.0 0.003135 321.79416 322.62045
359.0 0.002786 321.70432 322.68912
312.0 0.003205 321.61414 322.79843
331.0 0.003021 321.52368 322.94025
325.0 0.003077 321.43286 323.09686
320.0 0.003125 321.34174 323.24182
337.0 0.002967 321.25031 323.34332
322.0 0.003106 321.15857 323.37186
384.0 0.002604 321.06644 323.31354
347.0 0.002882 320.97403 323.17896
326.0 0.003067 320.88129 322.99756
318.0 0.003145 320.78818 322.80173
291.0 0.003436 320.69479 322.61572
302.0 0.003311 320.60104 322.44992
327.0 0.003058 320.50693 322.30139
298.0 0.003356 320.41254 322.15710
296.0 0.003378 320.31775 322.00275
305.0 0.003279 320.22266 321.83215
296.0 0.003378 320.12717 321.64966
344.0 0.002907 320.03134 321.45126
343.0 0.002915 319.93518 321.27673
306.0 0.003268 319.83865 321.12167
325.0 0.003077 319.74182 320.99268
348.0 0.002874 319.64456 320.89267
320.0 0.003125 319.54697 320.82181
301.0 0.003322 319.44907 320.77866
329.0 0.003040 319.35074 320.76273
313.0 0.003195 319.25208 320.76746
337.0 0.002967 319.15302 320.81232
332.0 0.003012 319.05362 320.90408
306.0 0.003268 318.95386 321.07016
324.0 0.003086 318.85370 321.36127
318.0 0.003145 318.75320 321.83942
347.0 0.002882 318.65228 322.68280
285.0 0.00351 318.55099 324.05157
314.0 0.003185 318.44937 326.18927
350.0 0.002857 318.34732 329.35513
323.0 0.003096 318.24493 333.78183
342.0 0.002924 318.14212 339.60037
341.0 0.002933 318.03891 346.74976
365.0 0.002740 317.93536 354.89603
313.0 0.003195 317.83139 363.49207
305.0 0.003279 317.72705 371.59393
337.0 0.002967 317.62231 378.30606
370.0 0.002703 317.51715 382.90811
375.0 0.002667 317.41165 385.20499
347.0 0.002882 317.30573 385.64426
364.0 0.002747 317.19940 385.21130
343.0 0.002915 317.09268 385.09149
358.0 0.002793 316.98553 386.23761
371.0 0.002695 316.87805 388.97220
375.0 0.002667 316.77011 392.98383
453.0 0.002208 316.66180 397.35571
478.0 0.002092 316.55304 400.85922
436.0 0.002294 316.44394 402.21271
448.0 0.002232 316.33435 400.56064
440.0 0.002273 316.22443 395.82291
498.0 0.002008 316.11404 388.80746
443.0 0.002257 316.00323 380.80161
407.0 0.002457 315.89206 373.03036
371.0 0.002695 315.78046 366.30548
366.0 0.002732 315.66843 360.90442
345.0 0.002899 315.55597 356.61734
370.0 0.002703 315.44315 352.87323
339.0 0.002950 315.32986 349.08575
352.0 0.002841 315.21619 344.92761
357.0 0.002801 315.10208 340.42407
342.0 0.002924 314.98752 335.82343
331.0 0.003021 314.87259 331.42480
329.0 0.003040 314.75720 327.48730
330.0 0.003030 314.64142 324.17822
328.0 0.003049 314.52521 321.55554
317.0 0.003155 314.40857 319.58435
347.0 0.002882 314.29147 318.16394
312.0 0.003205 314.17398 317.16852
316.0 0.003165 314.05609 316.47495
308.0 0.003247 313.93771 315.98132
336.0 0.002976 313.81897 315.61371
327.0 0.003058 313.69977 315.32227
302.0 0.003311 313.58011 315.07745
302.0 0.003311 313.46008 314.86215
320.0 0.003125 313.33960 314.66751
332.0 0.003012 313.21872 314.48941
327.0 0.003058 313.09735 314.32648
319.0 0.003135 312.97556 314.18109
306.0 0.003268 312.85339 314.05438
312.0 0.003205 312.73074 313.94806
298.0 0.003356 312.60773 313.86362
302.0 0.003311 312.48422 313.80023
309.0 0.003236 312.36029 313.75430
347.0 0.002882 312.23596 313.71933
333.0 0.003003 312.11121 313.68472
356.0 0.002809 311.98602 313.63986
310.0 0.003226 311.86038 313.57300
295.0 0.003390 311.73431 313.47809
289.0 0.003460 311.60785 313.35867
311.0 0.003215 311.48093 313.22568
318.0 0.003145 311.35361 313.09296
331.0 0.003021 311.22580 312.97229
338.0 0.002959 311.09760 312.87277
291.0 0.003436 310.96899 312.80081
307.0 0.003257 310.83997 312.76422
309.0 0.003236 310.71051 312.77887
331.0 0.003021 310.58060 312.94864
320.0 0.003125 310.45026 313.20175
329.0 0.003040 310.31955 313.70920
323.0 0.003096 310.18835 314.61789
304.0 0.003289 310.05682 316.11240
334.0 0.002994 309.92477 318.39511
322.0 0.003106 309.79233 321.64240
313.0 0.003195 309.65952 325.94495
347.0 0.002882 309.52625 331.24487
339.0 0.002950 309.39261 337.31241
407.0 0.002457 309.25848 343.59833
423.0 0.002364 309.12402 349.45609
441.0 0.002268 308.98907 354.09821
420.0 0.002381 308.85373 356.83496
386.0 0.002591 308.71802 357.38187
416.0 0.002404 308.58185 356.06918
432.0 0.002315 308.44531 353.66681
410.0 0.002439 308.30832 351.10922
405.0 0.002469 308.17099 349.04565
371.0 0.002695 308.03320 347.88647
369.0 0.002710 307.89505 347.58508
366.0 0.002732 307.75647 347.78165
360.0 0.002778 307.61749 347.93329
351.0 0.002849 307.47815 347.54282
387.0 0.002584 307.33838 346.29800
371.0 0.002695 307.19824 344.11447
401.0 0.002494 307.05768 341.03360
333.0 0.003003 306.91678 337.33893
345.0 0.002899 306.77545 333.38660
371.0 0.002695 306.63379 329.68066
312.0 0.003205 306.49170 326.48187
335.0 0.002985 306.34921 323.92072
367.0 0.002725 306.20639 321.95816
317.0 0.003155 306.06317 320.42163
345.0 0.002899 305.91962 319.07458
300.0 0.003333 305.77563 317.70700
313.0 0.003195 305.63129 316.19696
328.0 0.003049 305.48663 314.60287
313.0 0.003195 305.34155 312.97626
326.0 0.003067 305.19617 311.41751
329.0 0.003040 305.05038 310.00787
284.0 0.00352 304.90424 308.80161
299.0 0.003344 304.75781 307.81934
307.0 0.003257 304.61096 307.05133
299.0 0.003344 304.46384 306.46802
301.0 0.003322 304.31628 306.03018
324.0 0.003086 304.16843 305.70087
307.0 0.003257 304.02026 305.44357
324.0 0.003086 303.87173 305.23535
285.0 0.00351 303.72293 305.05966
304.0 0.003289 303.57373 304.90622
289.0 0.003460 303.42422 304.76935
290.0 0.003448 303.27444 304.64627
291.0 0.003436 303.12427 304.53607
283.0 0.00353 302.97388 304.43918
301.0 0.003322 302.82309 304.35657
300.0 0.003333 302.67203 304.29077
305.0 0.003279 302.52069 304.24591
305.0 0.003279 302.36902 304.22949
308.0 0.003247 302.21710 304.25565
306.0 0.003268 302.06485 304.35074
282.0 0.00355 301.91229 304.56207
295.0 0.003390 301.75952 304.97159
276.0 0.00362 301.60641 305.71127
297.0 0.003367 301.45309 306.97833
314.0 0.003185 301.29944 309.04218
301.0 0.003322 301.14554 312.23016
295.0 0.003390 300.99142 316.88544
271.0 0.00369 300.83698 323.29068
315.0 0.003175 300.68237 331.55704
334.0 0.002994 300.52744 341.52618
330.0 0.003030 300.37225 352.67950
359.0 0.002786 300.21692 364.11978
358.0 0.002793 300.06128 374.63135
406.0 0.002463 299.90546 382.82077
386.0 0.002591 299.74936 387.47974
340.0 0.002941 299.59311 388.09106
378.0 0.002646 299.43658 385.15628
365.0 0.002740 299.27991 379.93109
361.0 0.002770 299.12296 373.83325
325.0 0.003077 298.96582 367.96988
350.0 0.002857 298.80856 362.92950
354.0 0.002825 298.65103 358.73105
321.0 0.003115 298.49338 354.93069
337.0 0.002967 298.33551 350.82559
339.0 0.002950 298.17752 345.90921
326.0 0.003067 298.01932 340.08527
294.0 0.003401 297.86099 333.64447
350.0 0.002857 297.70245 327.04672
281.0 0.00356 297.54376 320.72092
305.0 0.003279 297.38498 315.10065
290.0 0.003448 297.22601 310.37582
304.0 0.003289 297.06699 306.62927
280.0 0.00357 296.90775 303.79260
276.0 0.00362 296.74844 301.73831
296.0 0.003378 296.58899 300.29388
318.0 0.003145 296.42944 299.29156
330.0 0.003030 296.26981 298.57266
290.0 0.003448 296.11002 298.06873
265.0 0.00377 295.95023 297.69296
279.0 0.00358 295.79028 297.40610
304.0 0.003289 295.63025 297.17691
285.0 0.00351 295.47021 297.03302
295.0 0.003390 295.31006 296.96765
275.0 0.00364 295.14990 296.99304
275.0 0.00364 294.98962 297.11902
280.0 0.00357 294.82932 297.34738
289.0 0.003460 294.66901 297.66580
309.0 0.003236 294.50861 298.04456
307.0 0.003257 294.34824 298.43530
276.0 0.00362 294.18781 298.76776
300.0 0.003333 294.02737 298.98602
289.0 0.003460 293.86697 299.02414
306.0 0.003268 293.70651 298.86014
287.0 0.003484 293.54611 298.52231
300.0 0.003333 293.38571 298.07440
293.0 0.003413 293.22531 297.58691
306.0 0.003268 293.06497 297.11472
281.0 0.00356 292.90463 296.70618
323.0 0.003096 292.74438 296.32321
284.0 0.00352 292.58414 295.96442
319.0 0.003135 292.42395 295.59174
296.0 0.003378 292.26389 295.18054
281.0 0.00356 292.10385 294.72403
274.0 0.00365 291.94394 294.23581
290.0 0.003448 291.78406 293.73840
299.0 0.003344 291.62427 293.25519
310.0 0.003226 291.46463 292.81519
288.0 0.003472 291.30505 292.41119
295.0 0.003390 291.14566 292.05875
270.0 0.00370 290.98630 291.75403
303.0 0.003300 290.82712 291.49188
282.0 0.00355 290.66812 291.26404
303.0 0.003300 290.50922 291.06195
279.0 0.00358 290.35049 290.87839
309.0 0.003236 290.19193 290.70755
287.0 0.003484 290.03354 290.54568
272.0 0.00368 289.87531 290.39059
296.0 0.003378 289.71725 290.24088
276.0 0.00362 289.55942 290.09641
285.0 0.00351 289.40176 289.95776
276.0 0.00362 289.24438 289.82654
278.0 0.00360 289.08713 289.70605
284.0 0.00352 288.93018 289.60260
312.0 0.003205 288.77344 289.52707
302.0 0.003311 288.61694 289.49762
281.0 0.00356 288.46069 289.54248
295.0 0.003390 288.30466 289.70206
300.0 0.003333 288.14896 290.02982
258.0 0.00388 287.99347 290.58792
261.0 0.00383 287.83832 291.43912
312.0 0.003205 287.68344 292.56326
291.0 0.003436 287.52887 294.11212
300.0 0.003333 287.37457 295.97916
307.0 0.003257 287.22064 298.06165
300.0 0.003333 287.06699 300.19092
276.0 0.00362 286.91364 302.13956
329.0 0.003040 286.76071 303.65082
279.0 0.00358 286.60806 304.49936
330.0 0.003030 286.45581 304.57858
309.0 0.003236 286.30389 303.92920
306.0 0.003268 286.15234 302.83997
287.0 0.003484 286.00122 301.54059
301.0 0.003322 285.85046 300.25122
256.0 0.00391 285.70013 299.10492
294.0 0.003401 285.55014 298.13171
262.0 0.00382 285.40057 297.26993
295.0 0.003390 285.25146 296.40039
304.0 0.003289 285.10275 295.40811
288.0 0.003472 284.95453 294.24164
283.0 0.00353 284.80667 292.92728
295.0 0.003390 284.65930 291.54117
300.0 0.003333 284.51242 290.17249
277.0 0.00361 284.36597 288.89969
286.0 0.003497 284.22006 287.78122
258.0 0.00388 284.07458 286.84845
275.0 0.00364 283.92957 286.10822
308.0 0.003247 283.78513 285.54974
264.0 0.00379 283.64114 285.15320
280.0 0.00357 283.49774 284.90155
321.0 0.003115 283.35483 284.78912
259.0 0.00386 283.21240 284.82913
281.0 0.00356 283.07059 285.05774
280.0 0.00357 282.92929 285.53415
269.0 0.00372 282.78857 286.33493
299.0 0.003344 282.64841 287.54227
291.0 0.003436 282.50879 289.22321
322.0 0.003106 282.36978 291.40411
274.0 0.00365 282.23135 294.04385
301.0 0.003322 282.09354 297.02557
307.0 0.003257 281.95630 300.13242
339.0 0.002950 281.81967 303.06735
313.0 0.003195 281.68372 305.48334
364.0 0.002747 281.54831 307.05478
353.0 0.002833 281.41360 307.58685
339.0 0.002950 281.27951 307.11069
317.0 0.003155 281.14606 305.86722
347.0 0.002882 281.01331 304.19528
290.0 0.003448 280.88113 302.42026
362.0 0.002762 280.74973 300.76871
337.0 0.002967 280.61893 299.33728
286.0 0.003497 280.48886 298.09180
346.0 0.002890 280.35947 296.89981
295.0 0.003390 280.23077 295.59970
300.0 0.003333 280.10275 294.08508
319.0 0.003135 279.97546 292.34650
304.0 0.003289 279.84894 290.45657
275.0 0.00364 279.72308 288.52716
311.0 0.003215 279.59802 286.67169
277.0 0.00361 279.47363 284.98529
304.0 0.003289 279.35004 283.52914
295.0 0.003390 279.22714 282.32932
290.0 0.003448 279.10507 281.37976
289.0 0.003460 278.98370 280.65088
284.0 0.00352 278.86313 280.10190
291.0 0.003436 278.74335 279.68915
267.0 0.00375 278.62433 279.37357
277.0 0.00361 278.50613 279.12378
287.0 0.003484 278.38870 278.91669
270.0 0.00370 278.27209 278.73669
290.0 0.003448 278.15628 278.57370
266.0 0.00376 278.04123 278.42166
279.0 0.00358 277.92706 278.27704
292.0 0.003425 277.81369 278.13794
283.0 0.00353 277.70117 278.00314
279.0 0.00358 277.58948 277.87198
280.0 0.00357 277.47858 277.74411
265.0 0.00377 277.36859 277.61951
274.0 0.00365 277.25940 277.49820
270.0 0.00370 277.15109 277.38049
283.0 0.00353 277.04364 277.26697
274.0 0.00365 276.93701 277.15826
257.0 0.00389 276.83130 277.05533
317.0 0.003155 276.72644 276.95874
294.0 0.003401 276.62247 276.85464
278.0 0.00360 276.51938 276.77216
284.0 0.00352 276.41714 276.69559
260.0 0.00385 276.31583 276.62314
294.0 0.003401 276.21536 276.55188
262.0 0.00382 276.11584 276.47849
291.0 0.003436 276.01721 276.39899
288.0 0.003472 275.91946 276.31046
289.0 0.003460 275.82263 276.21143
275.0 0.00364 275.72672 276.09598
300.0 0.003333 275.63171 275.98230
290.0 0.003448 275.53760 275.86661
258.0 0.00388 275.44443 275.75217
280.0 0.00357 275.35220 275.64096
268.0 0.00373 275.26083 275.54013
272.0 0.00368 275.17044 275.43576
273.0 0.00366 275.08096 275.33264
236.0 0.00424 274.99243 275.22900
291.0 0.003436 274.90482 275.12387
295.0 0.003390 274.81815 275.01730
269.0 0.00372 274.73239 274.91025
264.0 0.00379 274.64758 274.80405
281.0 0.00356 274.56372 274.70001
291.0 0.003436 274.48080 274.59888
280.0 0.00357 274.39883 274.50473
280.0 0.00357 274.31781 274.41119
243.0 0.00412 274.23770 274.32138
279.0 0.00358 274.15857 274.23492
277.0 0.00361 274.08035 274.15131
267.0 0.00375 274.00311 274.07013
260.0 0.00385 273.92682 273.99100
274.0 0.00365 273.85144 273.91354
282.0 0.00355 273.77704 273.83759
292.0 0.003425 273.70355 273.76291
264.0 0.00379 273.63104 273.68945
262.0 0.00382 273.55948 273.59732
279.0 0.00358 273.48886 273.52652
255.0 0.00392 273.41916 273.45465
292.0 0.003425 273.35040 273.38599
269.0 0.00372 273.28262 273.31833
275.0 0.00364 273.21576 273.25174
270.0 0.00370 273.14984 273.18613
261.0 0.00383 273.08487 273.12155
309.0 0.003236 273.02084 273.05801
268.0 0.00373 272.95773 272.98557
289.0 0.003460 272.89557 272.92438
295.0 0.003390 272.83432 272.86307
267.0 0.00375 272.77402 272.80380
271.0 0.00369 272.71463 272.74564
268.0 0.00373 272.65616 272.68842
279.0 0.00358 272.59863 272.63229
284.0 0.00352 272.54199 272.57715
295.0 0.003390 272.48630 272.52307
295.0 0.003390 272.43152 272.47012
246.0 0.00407 272.37762 272.41809
270.0 0.00370 272.32465 272.36719
274.0 0.00365 272.27258 272.31735
283.0 0.00353 272.22137 272.26862
296.0 0.003378 272.17111 272.22107
254.0 0.00394 272.12170 272.17462
305.0 0.003279 272.07321 272.12930
275.0 0.00364 272.02557 272.08530
309.0 0.003236 271.97882 272.04239
258.0 0.00388 271.93292 272.00089
280.0 0.00357 271.88791 271.96066
263.0 0.00380 271.84378 271.92188
277.0 0.00361 271.80045 271.88458
262.0 0.00382 271.75800 271.84894
218.0 0.00459 271.71640 271.81500
274.0 0.00365 271.67563 271.78314
260.0 0.00385 271.63571 271.75366
262.0 0.00382 271.59656 271.72729
279.0 0.00358 271.55829 271.70535
261.0 0.00383 271.52081 271.68997
248.0 0.00403 271.48413 271.68475
298.0 0.003356 271.44827 271.69574
254.0 0.00394 271.41318 271.73184
315.0 0.003175 271.37891 271.80588
269.0 0.00372 271.34540 271.93506
267.0 0.00375 271.31265 272.13974
273.0 0.00366 271.28070 272.44165
277.0 0.00361 271.24948 272.86038
271.0 0.00369 271.21899 273.40765
273.0 0.00366 271.18927 274.08136
276.0 0.00362 271.16028 274.86191
273.0 0.00366 271.13202 275.70703
267.0 0.00375 271.10446 276.55417
318.0 0.003145 271.07761 277.32312
302.0 0.003311 271.05145 277.92673
270.0 0.00370 271.02600 278.28976
291.0 0.003436 271.00125 278.37552
262.0 0.00382 270.97714 278.20432
301.0 0.003322 270.95370 277.84531
285.0 0.00351 270.93091 277.38821
257.0 0.00389 270.90878 276.91385
268.0 0.00373 270.88727 276.47842
285.0 0.00351 270.86639 276.10617
314.0 0.003185 270.84613 275.78973
271.0 0.00369 270.82648 275.49664
274.0 0.00365 270.80740 275.18393
271.0 0.00369 270.78894 274.81802
314.0 0.003185 270.77103 274.38858
263.0 0.00380 270.75369 273.90912
277.0 0.00361 270.73691 273.40652
254.0 0.00394 270.72067 272.91083
282.0 0.00355 270.70496 272.44839
251.0 0.00398 270.68976 272.03909
287.0 0.003484 270.67508 271.69461
299.0 0.003344 270.66092 271.41745
281.0 0.00356 270.64722 271.20331
283.0 0.00353 270.63400 271.04373
304.0 0.003289 270.62125 270.92773
271.0 0.00369 270.60895 270.84467
271.0 0.00369 270.59711 270.78494
257.0 0.00389 270.58569 270.74130
296.0 0.003378 270.57468 270.70795
282.0 0.00355 270.56409 270.68140
265.0 0.00377 270.55389 270.65912
239.0 0.00418 270.54407 270.64133
260.0 0.00385 270.53464 270.62402
267.0 0.00375 270.52554 270.60837
270.0 0.00370 270.51678 270.59375
288.0 0.003472 270.50839 270.58020
251.0 0.00398 270.50031 270.56754
299.0 0.003344 270.49252 270.55563
262.0 0.00382 270.48505 270.54446
254.0 0.00394 270.47787 270.53391
244.0 0.00410 270.47095 270.52396
252.0 0.00397 270.46426 270.51520
288.0 0.003472 270.45786 270.50626
266.0 0.00376 270.45169 270.49783
283.0 0.00353 270.44574 270.48975
275.0 0.00364 270.43997 270.48206
264.0 0.00379 270.43442 270.47473
261.0 0.00383 270.42905 270.46771
246.0 0.00407 270.42386 270.46106
279.0 0.00358 270.41882 270.45465
271.0 0.00369 270.41391 270.44849
294.0 0.003401 270.40912 270.44250
246.0 0.00407 270.40448 270.43680
271.0 0.00369 270.39993 270.43127
258.0 0.00388 270.39548 270.42584
246.0 0.00407 270.39111 270.42065
271.0 0.00369 270.38681 270.41565
268.0 0.00373 270.38254 270.41061
289.0 0.003460 270.37833 270.40576
292.0 0.003425 270.37415 270.40097
271.0 0.00369 270.37000 270.39636
259.0 0.00386 270.36581 270.39166
299.0 0.003344 270.36163 270.38712
262.0 0.00382 270.35742 270.38248
275.0 0.00364 270.35318 270.37793
276.0 0.00362 270.34891 270.37338
277.0 0.00361 270.34454 270.36871
285.0 0.00351 270.34012 270.36407
269.0 0.00372 270.33557 270.35938
236.0 0.00424 270.33096 270.35471
257.0 0.00389 270.32623 270.34988
257.0 0.00389 270.32138 270.34506
248.0 0.00403 270.31638 270.34012
254.0 0.00394 270.31122 270.33499
259.0 0.00386 270.30591 270.32977
277.0 0.00361 270.30045 270.33386
250.0 0.00400 270.29477 270.32864
282.0 0.00355 270.28891 270.32327
285.0 0.00351 270.28281 270.31198
273.0 0.00366 270.27649 270.30566
280.0 0.00357 270.26996 270.30005
300.0 0.003333 270.26315 270.29428
262.0 0.00382 270.25610 270.28824
248.0 0.00403 270.24878 270.28214
277.0 0.00361 270.24118 270.27588
242.0 0.00413 270.23328 270.26935
269.0 0.00372 270.22507 270.26749
244.0 0.00410 270.21655 270.26089
260.0 0.00385 270.20770 270.25101
270.0 0.00370 270.19852 270.24445
267.0 0.00375 270.18896 270.23819
253.0 0.00395 270.17908 270.23251
230.0 0.00435 270.16882 270.22772
254.0 0.00394 270.15817 270.22461
282.0 0.00355 270.14713 270.22400
271.0 0.00369 270.13568 270.22705
277.0 0.00361 270.12384 270.23511
282.0 0.00355 270.11157 270.24969
237.0 0.00422 270.09888 270.27667
275.0 0.00364 270.08572 270.30795
262.0 0.00382 270.07214 270.34845
262.0 0.00382 270.05807 270.40375
270.0 0.00370 270.04355 270.45972
303.0 0.003300 270.02856 270.51968
276.0 0.00362 270.01306 270.58005
272.0 0.00368 269.99710 270.63702
259.0 0.00386 269.98062 270.68765
255.0 0.00392 269.96362 270.73141
260.0 0.00385 269.94611 270.77338
263.0 0.00380 269.92807 270.81503
266.0 0.00376 269.90948 270.86639
277.0 0.00361 269.89038 270.93658
247.0 0.00405 269.87073 271.03622
254.0 0.00394 269.85049 271.16364
267.0 0.00375 269.82971 271.32089
284.0 0.00352 269.80835 271.50009
237.0 0.00422 269.78644 271.68692
277.0 0.00361 269.76392 271.86203
291.0 0.003436 269.74084 272.00351
273.0 0.00366 269.71713 272.08997
280.0 0.00357 269.69284 272.10684
303.0 0.003300 269.66794 272.05197
276.0 0.00362 269.64243 271.93738
258.0 0.00388 269.61630 271.78378
262.0 0.00382 269.58954 271.61438
260.0 0.00385 269.56216 271.44861
247.0 0.00405 269.53418 271.29846
313.0 0.003195 269.50555 271.16806
293.0 0.003413 269.47629 271.05377
290.0 0.003448 269.44635 270.94635
274.0 0.00365 269.41580 270.83463
261.0 0.00383 269.38461 270.70975
256.0 0.00391 269.35275 270.56906
262.0 0.00382 269.32025 270.41541
283.0 0.00353 269.28708 270.25531
280.0 0.00357 269.25327 270.09619
264.0 0.00379 269.21878 269.94501
278.0 0.00360 269.18365 269.80661
284.0 0.00352 269.14786 269.68451
255.0 0.00392 269.11139 269.57953
301.0 0.003322 269.07428 269.49127
265.0 0.00377 269.03650 269.41800
272.0 0.00368 268.99802 269.35754
278.0 0.00360 268.95889 269.30789
299.0 0.003344 268.91910 269.26743
267.0 0.00375 268.87866 269.23541
293.0 0.003413 268.83755 269.21225
226.0 0.00442 268.79575 269.20010
258.0 0.00388 268.75330 269.20346
259.0 0.00386 268.71021 269.23013
276.0 0.00362 268.66641 269.29227
282.0 0.00355 268.62201 269.40714
245.0 0.00408 268.57690 269.59827
312.0 0.003205 268.53116 269.89435
286.0 0.003497 268.48477 270.32788
270.0 0.00370 268.43774 270.93054
281.0 0.00356 268.39005 271.72745
291.0 0.003436 268.34174 272.72971
308.0 0.003247 268.29276 273.92590
273.0 0.00366 268.24313 275.27765
243.0 0.00412 268.19290 276.71536
250.0 0.00400 268.14206 278.14008
282.0 0.00355 268.09055 279.43106
281.0 0.00356 268.03845 280.45779
284.0 0.00352 267.98572 281.10712
263.0 0.00380 267.93240 281.31720
288.0 0.003472 267.87848 281.10706
291.0 0.003436 267.82394 280.56927
291.0 0.003436 267.76883 279.83655
279.0 0.00358 267.71310 279.03934
276.0 0.00362 267.65683 278.28113
288.0 0.003472 267.59998 277.62527
285.0 0.00351 267.54257 277.09088
263.0 0.00380 267.48459 276.65952
291.0 0.003436 267.42606 276.28775
296.0 0.003378 267.36694 275.93137
280.0 0.00357 267.30737 275.57077
288.0 0.003472 267.24722 275.22525
300.0 0.003333 267.18655 274.94739
273.0 0.00366 267.12537 274.80417
272.0 0.00368 267.06369 274.85855
282.0 0.00355 267.00153 275.15952
295.0 0.003390 266.93884 275.71106
268.0 0.00373 266.87573 276.49564
273.0 0.00366 266.81210 277.45178
298.0 0.003356 266.74802 278.48306
316.0 0.003165 266.68350 279.47015
304.0 0.003289 266.61853 280.29376
280.0 0.00357 266.55316 280.85559
332.0 0.003012 266.48734 281.10803
318.0 0.003145 266.42114 281.01065
305.0 0.003279 266.35449 280.61795
295.0 0.003390 266.28748 279.98993
271.0 0.00369 266.22009 279.23108
264.0 0.00379 266.15231 278.43741
259.0 0.00386 266.08423 277.67386
264.0 0.00379 266.01575 276.96912
296.0 0.003378 265.94696 276.31573
279.0 0.00358 265.87781 275.68338
265.0 0.00377 265.80838 275.03183
260.0 0.00385 265.73865 274.33002
280.0 0.00357 265.66861 273.54230
270.0 0.00370 265.59830 272.67853
276.0 0.00362 265.52771 271.75320
261.0 0.00383 265.45688 270.81000
269.0 0.00372 265.38580 269.89142
280.0 0.00357 265.31451 269.03452
268.0 0.00373 265.24298 268.26581
265.0 0.00377 265.17126 267.60010
259.0 0.00386 265.09933 267.03912
265.0 0.00377 265.02719 266.57953
266.0 0.00376 264.95496 266.20724
251.0 0.00398 264.88251 265.90628
276.0 0.00362 264.80994 265.66119
251.0 0.00398 264.73721 265.45773
266.0 0.00376 264.66437 265.28503
277.0 0.00361 264.59143 265.13470
281.0 0.00356 264.51840 265.00076
274.0 0.00365 264.44528 264.87903
267.0 0.00375 264.37210 264.76614
282.0 0.00355 264.29883 264.66156
286.0 0.003497 264.22552 264.56326
266.0 0.00376 264.15219 264.47015
250.0 0.00400 264.07886 264.38129
282.0 0.00355 264.00549 264.29587
259.0 0.00386 263.93213 264.21310
258.0 0.00388 263.85880 264.13266
261.0 0.00383 263.78549 264.05402
266.0 0.00376 263.71222 263.97693
261.0 0.00383 263.63901 263.90109
257.0 0.00389 263.56583 263.82660
281.0 0.00356 263.49277 263.75333
243.0 0.00412 263.41977 263.68155
281.0 0.00356 263.34689 263.61127
264.0 0.00379 263.27411 263.54257
262.0 0.00382 263.20145 263.47589
253.0 0.00395 263.12897 263.41159
246.0 0.00407 263.05655 263.34937
249.0 0.00402 262.98438 263.28949
276.0 0.00362 262.91229 263.23187
290.0 0.003448 262.84042 263.17618
282.0 0.00355 262.76877 263.12234
288.0 0.003472 262.69727 263.06955
255.0 0.00392 262.62601 263.01706
263.0 0.00380 262.55496 262.96423
285.0 0.00351 262.48413 262.91037
268.0 0.00373 262.41357 262.85544
267.0 0.00375 262.34323 262.79990
253.0 0.00395 262.27316 262.74442
269.0 0.00372 262.20337 262.69031
266.0 0.00376 262.13385 262.63913
279.0 0.00358 262.06461 262.59271
271.0 0.00369 261.99567 262.55310
285.0 0.00351 261.92706 262.52313
269.0 0.00372 261.85873 262.49771
285.0 0.00351 261.79074 262.50095
242.0 0.00413 261.72305 262.53171
265.0 0.00377 261.65576 262.60114
276.0 0.00362 261.58875 262.72366
234.0 0.00427 261.52209 262.91660
242.0 0.00413 261.45584 263.19958
273.0 0.00366 261.38989 263.59213
255.0 0.00392 261.32437 264.11279
268.0 0.00373 261.25919 264.77621
268.0 0.00373 261.19440 265.58868
277.0 0.00361 261.12997 266.56531
270.0 0.00370 261.06598 267.70300
246.0 0.00407 261.00238 269.00211
251.0 0.00398 260.93915 270.46036
244.0 0.00410 260.87634 272.08267
267.0 0.00375 260.81393 273.86319
300.0 0.003333 260.75195 275.81952
275.0 0.00364 260.69037 277.97052
289.0 0.003460 260.62921 280.32050
279.0 0.00358 260.56848 282.83774
264.0 0.00379 260.50818 285.43286
297.0 0.003367 260.44827 287.95020
279.0 0.00358 260.38882 290.19803
302.0 0.003311 260.32980 291.94800
292.0 0.003425 260.27118 292.99808
293.0 0.003413 260.21301 293.24820
279.0 0.00358 260.15527 292.69070
337.0 0.002967 260.09796 291.45010
282.0 0.00355 260.04108 289.73444
272.0 0.00368 259.98462 287.77911
281.0 0.00356 259.92859 285.79510
292.0 0.003425 259.87299 283.92996
230.0 0.00435 259.81778 282.24930
254.0 0.00394 259.76303 280.74896
267.0 0.00375 259.70868 279.35663
242.0 0.00413 259.65475 277.97195
272.0 0.00368 259.60126 276.51465
264.0 0.00379 259.54813 274.93207
233.0 0.00429 259.49542 273.22556
237.0 0.00422 259.44312 271.43713
280.0 0.00357 259.39120 269.63391
274.0 0.00365 259.33969 267.88864
271.0 0.00369 259.28857 266.26541
265.0 0.00377 259.23782 264.81384
270.0 0.00370 259.18741 263.56247
290.0 0.003448 259.13739 262.52112
240.0 0.00417 259.08774 261.68250
262.0 0.00382 259.03842 261.02576
282.0 0.00355 258.98947 260.52328
251.0 0.00398 258.94083 260.14444
259.0 0.00386 258.89252 259.86057
274.0 0.00365 258.84454 259.64642
262.0 0.00382 258.79688 259.48166
256.0 0.00391 258.74951 259.35114
264.0 0.00379 258.70242 259.24393
269.0 0.00372 258.65561 259.15283
261.0 0.00383 258.60910 259.07346
291.0 0.003436 258.56284 259.00333
251.0 0.00398 258.51682 258.94116
269.0 0.00372 258.47104 258.88669
219.0 0.00457 258.42548 258.84000
245.0 0.00408 258.38016 258.80972
270.0 0.00370 258.33502 258.77936
244.0 0.00410 258.29010 258.75693
237.0 0.00422 258.24530 258.74136
247.0 0.00405 258.20071 258.73093
265.0 0.00377 258.15625 258.72314
244.0 0.00410 258.11194 258.71475
244.0 0.00410 258.06778 258.70230
241.0 0.00415 258.02368 258.68188
243.0 0.00412 257.97974 258.65067
276.0 0.00362 257.93579 258.60724
302.0 0.003311 257.89197 258.55640
240.0 0.00417 257.84824 258.49289
233.0 0.00429 257.80447 258.42407
302.0 0.003311 257.76077 258.35388
251.0 0.00398 257.71704 258.28488
249.0 0.00402 257.67334 258.21930
263.0 0.00380 257.62964 258.15762
282.0 0.00355 257.58585 258.09933
274.0 0.00365 257.54202 258.04315
222.0 0.00450 257.49811 257.98764
260.0 0.00385 257.45410 257.93143
266.0 0.00376 257.41006 257.87424
269.0 0.00372 257.36581 257.81714
293.0 0.003413 257.32147 257.76328
269.0 0.00372 257.27695 257.71494
247.0 0.00405 257.23227 257.67764
260.0 0.00385 257.18747 257.65796
250.0 0.00400 257.14240 257.66364
243.0 0.00412 257.09711 257.70483
259.0 0.00386 257.05157 257.79263
244.0 0.00410 257.00583 257.93921
285.0 0.00351 256.95981 258.15628
229.0 0.00437 256.91345 258.45361
267.0 0.00375 256.86685 258.83517
258.0 0.00388 256.81989 259.29938
258.0 0.00388 256.77258 259.83395
255.0 0.00392 256.72501 260.41562
283.0 0.00353 256.67697 261.01297
311.0 0.003215 256.62860 261.58307
273.0 0.00366 256.57977 262.07861
288.0 0.003472 256.53058 262.45096
278.0 0.00360 256.48096 262.66141
288.0 0.003472 256.43085 262.68771
297.0 0.003367 256.38034 262.55133
290.0 0.003448 256.32925 262.28302
268.0 0.00373 256.27771 261.93213
261.0 0.00383 256.22571 261.54813
273.0 0.00366 256.17313 261.16983
242.0 0.00413 256.12006 260.82385
257.0 0.00389 256.06635 260.51944
271.0 0.00369 256.01212 260.25146
255.0 0.00392 255.95734 259.98959
286.0 0.003497 255.90192 259.73404
286.0 0.003497 255.84593 259.43823
233.0 0.00429 255.78928 259.11414
265.0 0.00377 255.73201 258.74979
275.0 0.00364 255.67412 258.35574
242.0 0.00413 255.61554 257.94708
258.0 0.00388 255.55634 257.54150
256.0 0.00391 255.49640 257.15390
263.0 0.00380 255.43578 256.79694
215.0 0.00465 255.37454 256.47903
281.0 0.00356 255.31247 256.19717
218.0 0.00459 255.24977 255.96451
260.0 0.00385 255.18629 255.76648
252.0 0.00397 255.12209 255.60817
273.0 0.00366 255.05721 255.47905
259.0 0.00386 254.99147 255.37358
234.0 0.00427 254.92505 255.28784
263.0 0.00380 254.85782 255.21930
253.0 0.00395 254.78983 255.16791
252.0 0.00397 254.72115 255.13628
264.0 0.00379 254.65157 255.12990
271.0 0.00369 254.58127 255.15802
238.0 0.00420 254.51013 255.23325
274.0 0.00365 254.43823 255.37151
249.0 0.00402 254.36562 255.59076
263.0 0.00380 254.29210 255.91040
269.0 0.00372 254.21783 256.34634
239.0 0.00418 254.14273 256.91043
244.0 0.00410 254.06686 257.60352
275.0 0.00364 253.99026 258.41357
241.0 0.00415 253.91278 259.31555
257.0 0.00389 253.83455 260.26416
271.0 0.00369 253.75548 261.20270
285.0 0.00351 253.67564 262.05969
295.0 0.003390 253.59512 262.75980
294.0 0.003401 253.51370 263.23523
259.0 0.00386 253.43158 263.43884
233.0 0.00429 253.34862 263.36371
276.0 0.00362 253.26494 263.04550
290.0 0.003448 253.18059 262.55173
262.0 0.00382 253.09540 261.95911
252.0 0.00397 253.00952 261.34055
272.0 0.00368 252.92285 260.74927
278.0 0.00360 252.83549 260.21790
277.0 0.00361 252.74754 259.75403
262.0 0.00382 252.65877 259.34225
242.0 0.00413 252.56938 258.95255
237.0 0.00422 252.47925 258.54822
267.0 0.00375 252.38852 258.09973
252.0 0.00397 252.29724 257.59409
262.0 0.00382 252.20522 257.03604
274.0 0.00365 252.11264 256.45297
273.0 0.00366 252.01941 255.85536
267.0 0.00375 251.92566 255.27611
251.0 0.00398 251.83141 254.73654
241.0 0.00415 251.73651 254.25053
236.0 0.00424 251.64120 253.82654
239.0 0.00418 251.54526 253.46349
257.0 0.00389 251.44893 253.15587
262.0 0.00382 251.35220 252.89279
267.0 0.00375 251.25491 252.66113
243.0 0.00412 251.15732 252.45036
249.0 0.00402 251.05925 252.25180
236.0 0.00424 250.96083 252.06520
247.0 0.00405 250.86215 251.88252
274.0 0.00365 250.76303 251.70734
267.0 0.00375 250.66374 251.54102
237.0 0.00422 250.56407 251.38364
250.0 0.00400 250.46422 251.23495
242.0 0.00413 250.36420 251.09341
242.0 0.00413 250.26389 250.95609
264.0 0.00379 250.16353 250.82008
250.0 0.00400 250.06294 250.68207
266.0 0.00376 249.96228 250.54022
243.0 0.00412 249.86165 250.39388
217.0 0.00461 249.76079 250.24356
261.0 0.00383 249.66008 250.09148
262.0 0.00382 249.55925 249.93925
241.0 0.00415 249.45853 249.78917
274.0 0.00365 249.35797 249.63814
243.0 0.00412 249.25739 249.49695
241.0 0.00415 249.15701 249.36159
272.0 0.00368 249.05673 249.23209
213.0 0.00469 248.95670 249.10854
253.0 0.00395 248.85698 248.99026
256.0 0.00391 248.75740 248.87653
255.0 0.00392 248.65819 248.76666
217.0 0.00461 248.55922 248.65981
267.0 0.00375 248.46066 248.55544
257.0 0.00389 248.36259 248.45313
242.0 0.00413 248.26482 248.34976
241.0 0.00415 248.16756 248.25031
245.0 0.00408 248.07071 248.15179
251.0 0.00398 247.97441 248.05428
239.0 0.00418 247.87877 247.95779
230.0 0.00435 247.78358 247.86206
244.0 0.00410 247.68907 247.76726
265.0 0.00377 247.59512 247.67326
235.0 0.00426 247.50189 247.58022
264.0 0.00379 247.40947 247.48817
229.0 0.00437 247.31764 247.39694
262.0 0.00382 247.22664 247.30678
242.0 0.00413 247.13637 247.21762
253.0 0.00395 247.04694 247.12950
237.0 0.00422 246.95847 247.04263
268.0 0.00373 246.87073 246.95679
222.0 0.00450 246.78395 246.87216
238.0 0.00420 246.69806 246.78870
245.0 0.00408 246.61313 246.70662
238.0 0.00420 246.52928 246.62595
257.0 0.00389 246.44630 246.54654
233.0 0.00429 246.36443 246.46870
239.0 0.00418 246.28355 246.39238
226.0 0.00442 246.20375 246.31773
276.0 0.00362 246.12514 246.24496
248.0 0.00403 246.04750 246.17406
256.0 0.00391 245.97110 246.10545
251.0 0.00398 245.89574 246.03947
251.0 0.00398 245.82162 245.97679
247.0 0.00405 245.74870 245.91835
237.0 0.00422 245.67690 245.86569
262.0 0.00382 245.60640 245.82137
232.0 0.00431 245.53700 245.78877
263.0 0.00380 245.46893 245.77686
247.0 0.00405 245.40211 245.78497
272.0 0.00368 245.33649 245.81781
249.0 0.00402 245.27219 245.90280
241.0 0.00415 245.20908 246.04442
276.0 0.00362 245.14728 246.25571
255.0 0.00392 245.08679 246.54887
234.0 0.00427 245.02754 246.93404
241.0 0.00415 244.96960 247.41441
232.0 0.00431 244.91290 247.98698
221.0 0.00452 244.85750 248.63751
241.0 0.00415 244.80342 249.34280
258.0 0.00388 244.75053 250.06839
256.0 0.00391 244.69899 250.76622
253.0 0.00395 244.64864 251.38466
268.0 0.00373 244.59956 251.87949
233.0 0.00429 244.55177 252.20248
244.0 0.00410 244.50514 252.32881
246.0 0.00407 244.45978 252.26019
255.0 0.00392 244.41556 252.02628
252.0 0.00397 244.37256 251.67552
253.0 0.00395 244.33078 251.26190
247.0 0.00405 244.29005 250.83281
258.0 0.00388 244.25050 250.42621
239.0 0.00418 244.21204 250.06105
249.0 0.00402 244.17465 249.74326
286.0 0.003497 244.13838 249.46269
260.0 0.00385 244.10307 249.19664
264.0 0.00379 244.06880 248.92065
254.0 0.00394 244.03549 248.61050
247.0 0.00405 244.00311 248.25389
244.0 0.00410 243.97171 247.85133
221.0 0.00452 243.94112 247.41278
257.0 0.00389 243.91139 246.95602
239.0 0.00418 243.88248 246.49876
228.0 0.00439 243.85432 246.05885
247.0 0.00405 243.82695 245.65086
267.0 0.00375 243.80023 245.28398
247.0 0.00405 243.77419 244.96451
256.0 0.00391 243.74875 244.69405
242.0 0.00413 243.72389 244.47047
247.0 0.00405 243.69960 244.28931
242.0 0.00413 243.67575 244.14426
253.0 0.00395 243.65237 244.02907
236.0 0.00424 243.62939 243.93742
238.0 0.00420 243.60678 243.86391
230.0 0.00435 243.58450 243.80624
253.0 0.00395 243.56247 243.75607
257.0 0.00389 243.54066 243.71307
230.0 0.00435 243.51903 243.67525
249.0 0.00402 243.49753 243.64120
243.0 0.00412 243.47615 243.60994
249.0 0.00402 243.45477 243.58076
271.0 0.00369 243.43341 243.55327
233.0 0.00429 243.41199 243.52698
236.0 0.00424 243.39049 243.50180
250.0 0.00400 243.36885 243.47758
234.0 0.00427 243.34703 243.45425
248.0 0.00403 243.32500 243.43291
239.0 0.00418 243.30269 243.41133
241.0 0.00415 243.28009 243.39070
265.0 0.00377 243.25716 243.37099
218.0 0.00459 243.23384 243.35219
248.0 0.00403 243.21013 243.33417
248.0 0.00403 243.18597 243.31682
254.0 0.00394 243.16132 243.29977
270.0 0.00370 243.13618 243.28273
249.0 0.00402 243.11050 243.26822
242.0 0.00413 243.08429 243.24971
237.0 0.00422 243.05748 243.22963
259.0 0.00386 243.03006 243.20750
249.0 0.00402 243.00206 243.18315
248.0 0.00403 242.97340 243.15640
250.0 0.00400 242.94414 243.12762
238.0 0.00420 242.91420 243.09729
226.0 0.00442 242.88361 243.06587
241.0 0.00415 242.85242 243.03406
252.0 0.00397 242.82051 243.00208
245.0 0.00408 242.78804 242.97058
231.0 0.00433 242.75490 242.93961
229.0 0.00437 242.72116 242.91096
222.0 0.00450 242.68687 242.88170
251.0 0.00398 242.65198 242.85350
258.0 0.00388 242.61658 242.82707
234.0 0.00427 242.58067 242.80338
275.0 0.00364 242.54434 242.78413
241.0 0.00415 242.50761 242.77194
245.0 0.00408 242.47050 242.77054
254.0 0.00394 242.43312 242.78485
249.0 0.00402 242.39548 242.82123
254.0 0.00394 242.35771 242.88701
239.0 0.00418 242.31987 242.99059
255.0 0.00392 242.28200 243.14087
224.0 0.00446 242.24422 243.34575
253.0 0.00395 242.20659 243.61166
229.0 0.00437 242.16925 243.94150
261.0 0.00383 242.13234 244.33340
268.0 0.00373 242.09587 244.78099
243.0 0.00412 242.06004 245.26996
231.0 0.00433 242.02493 245.78169
261.0 0.00383 241.99071 246.29039
218.0 0.00459 241.95753 246.76730
282.0 0.00355 241.92548 247.18365
259.0 0.00386 241.89474 247.51193
199.0 0.00503 241.86545 247.73550
231.0 0.00433 241.83780 247.85165
255.0 0.00392 241.81197 247.86780
221.0 0.00452 241.78809 247.82387
233.0 0.00429 241.76636 247.74326
245.0 0.00408 241.74696 247.65318
230.0 0.00435 241.73012 247.57292
268.0 0.00373 241.71602 247.51086
240.0 0.00417 241.70482 247.46408
252.0 0.00397 241.69678 247.41966
228.0 0.00439 241.69205 247.35736
250.0 0.00400 241.69090 247.25519
267.0 0.00375 241.69351 247.09569
245.0 0.00408 241.70012 246.87112
253.0 0.00395 241.71091 246.58296
251.0 0.00398 241.72617 246.25211
216.0 0.00463 241.74603 245.89565
245.0 0.00408 241.77077 245.53497
266.0 0.00376 241.80061 245.18797
269.0 0.00372 241.83571 244.86975
252.0 0.00397 241.87640 244.58865
243.0 0.00412 241.92276 244.34828
233.0 0.00429 241.97504 244.14714
235.0 0.00426 242.03348 243.98036
256.0 0.00391 242.09818 243.84273
254.0 0.00394 242.16946 243.72998
248.0 0.00403 242.24739 243.64014
269.0 0.00372 242.33208 243.57347
254.0 0.00394 242.42384 243.53172
257.0 0.00389 242.52261 243.51830
254.0 0.00394 242.62874 243.53757
244.0 0.00410 242.74213 243.59450
213.0 0.00469 242.86279 243.69426
241.0 0.00415 242.99110 243.84218
258.0 0.00388 243.12674 244.04219
241.0 0.00415 243.26999 244.29768
235.0 0.00426 243.42064 244.60915
255.0 0.00392 243.57849 244.97458
231.0 0.00433 243.74394 245.38972
287.0 0.003484 243.91629 245.84473
220.0 0.00455 244.09579 246.32803
271.0 0.00369 244.28200 246.82307
233.0 0.00429 244.47447 247.31093
235.0 0.00426 244.67339 247.77249
251.0 0.00398 244.87794 248.18712
256.0 0.00391 245.08800 248.53943
241.0 0.00415 245.30283 248.82095
283.0 0.00353 245.52171 249.03250
283.0 0.00353 245.74455 249.18707
241.0 0.00415 245.97017 249.30322
238.0 0.00420 246.19806 249.40306
228.0 0.00439 246.42711 249.50766
257.0 0.00389 246.65619 249.63506
225.0 0.00444 246.88478 249.79922
238.0 0.00420 247.11121 250.00841
242.0 0.00413 247.33450 250.26607
243.0 0.00412 247.55302 250.57025
237.0 0.00422 247.76511 250.91364
282.0 0.00355 247.96957 251.28841
270.0 0.00370 248.16420 251.68381
263.0 0.00380 248.34732 252.08980
269.0 0.00372 248.51662 252.49533
258.0 0.00388 248.66975 252.88782
265.0 0.00377 248.80463 253.25262
254.0 0.00394 248.91835 253.57033
264.0 0.00379 249.00827 253.82060
211.0 0.00474 249.07124 253.98141
246.0 0.00407 249.10411 254.03561
291.0 0.003436 249.10347 253.97385
263.0 0.00380 249.06561 253.79814
245.0 0.00408 248.98662 253.51962
253.0 0.00395 248.86232 253.15649
242.0 0.00413 248.68848 252.72791
245.0 0.00408 248.45995 252.24847
226.0 0.00442 248.17212 251.72931
256.0 0.00391 247.81931 251.17293
268.0 0.00373 247.39630 250.57629
254.0 0.00394 246.89713 249.92862
232.0 0.00431 246.31465 249.21277
249.0 0.00402 245.64342 248.41054
276.0 0.00362 244.87463 247.50031
259.0 0.00386 244.00261 246.46756
228.0 0.00439 243.01903 245.30048
250.0 0.00400 241.91411 243.99092
261.0 0.00383 240.68127 242.53880
237.0 0.00422 239.30869 240.93987
227.0 0.00441 237.78828 239.19489
241.0 . . .
loop_
_refln_index_h
_refln_index_k
_refln_index_l
_pd_refln_wavelength_id
_refln_observed_status
_refln_F_squared_meas
_refln_F_squared_calc
_refln_phase_calc
_refln_d_spacing
_gsas_i100_meas
0 0 1 1 o 405.278 411.015 0.00 7.39742 31.89
0 0 1 2 o 395.994 411.015 0.00 7.39742 15.53
1 0 1 1 o 159.238 156.949 180.00 4.77733 29.18
1 0 1 2 o 162.707 156.949 180.00 4.77733 14.83
1 1 0 1 o 100.975 86.234 180.00 4.42448 7.39
1 1 0 2 o 100.304 86.234 180.00 4.42448 3.65
1 1 1 1 o 943.686 934.046 0.00 3.79712 100.00
1 1 1 2 o 958.942 934.046 0.00 3.79712 50.51
0 0 2 1 o 667.296 591.384 0.00 3.69871 12.22
0 0 2 2 o 563.910 591.384 0.00 3.69871 5.18
1 0 2 1 o 68.526 61.678 180.00 3.18403 4.29
1 0 2 2 o 70.873 61.678 180.00 3.18403 2.20
2 0 0 1 o 2355.369 2283.237 180.00 3.12858 58.40
2 0 0 2 o 2270.292 2283.237 180.00 3.12858 28.02
2 0 1 1 o 268.663 256.090 180.00 2.88147 18.98
2 0 1 2 o 252.979 256.090 180.00 2.88147 8.92
1 1 2 1 o 388.550 366.317 0.00 2.83775 18.38
1 1 2 2 o 380.213 366.317 0.00 2.83775 8.95
2 1 1 1 o 29.719 35.559 0.00 2.61728 2.87
2 1 1 2 o 27.420 35.559 0.00 2.61728 1.32
0 0 3 1 o 682.817 382.751 0.00 2.46581 5.06
0 0 3 2 o 612.834 382.751 0.00 2.46581 2.26
2 0 2 1 o 227.589 256.623 180.00 2.38866 9.93
2 0 2 2 o 200.669 256.623 180.00 2.38866 4.39
1 0 3 1 o 26.006 12.802 180.00 2.29410 0.75
1 0 3 2 o 22.963 12.802 180.00 2.29410 0.33
2 1 2 1 o 63.424 55.285 0.00 2.23158 3.96
2 1 2 2 o 58.229 55.285 0.00 2.23158 1.81
2 2 0 1 o 830.686 875.977 0.00 2.21224 15.06
2 2 0 2 o 773.291 875.977 0.00 2.21224 6.99
1 1 3 1 o 103.337 130.402 0.00 2.15390 2.80
1 1 3 2 o 101.825 130.402 0.00 2.15390 1.37
2 2 1 1 o 230.162 164.218 0.00 2.11949 7.66
2 2 1 2 o 203.212 164.218 0.00 2.11949 3.38
3 0 1 1 o -0.164 9.771 0.00 2.00745 0.00
3 0 1 2 o -0.164 9.771 0.00 2.00745 0.00
3 1 0 1 o 22.448 0.220 0.00 1.97869 0.41
3 1 0 2 o 14.908 0.220 0.00 1.97869 0.13
2 0 3 1 o 239.904 179.144 180.00 1.93661 5.31
2 0 3 2 o 221.439 179.144 180.00 1.93661 2.44
3 1 1 1 o 125.831 132.435 180.00 1.91149 5.66
3 1 1 2 o 118.819 132.435 180.00 1.91149 2.67
2 2 2 1 o 148.834 124.477 0.00 1.89856 3.39
2 2 2 2 o 141.705 124.477 0.00 1.89856 1.61
2 1 3 1 o -0.089 3.979 0.00 1.85003 0.00
0 0 4 1 o -2.934 12.927 0.00 1.84935 0.00
2 1 3 2 o 0.479 3.979 0.00 1.85003 0.01
0 0 4 2 o -0.055 12.927 0.00 1.84935 0.01
3 0 2 1 o 15.014 40.527 0.00 1.81677 0.37
3 0 2 2 o 23.595 40.527 0.00 1.81677 0.28
1 0 4 1 o 9.263 1.597 180.00 1.77351 0.14
1 0 4 2 o 15.121 1.597 180.00 1.77351 0.11
3 1 2 1 o 117.719 89.064 180.00 1.74472 4.86
3 1 2 2 o 109.404 89.064 180.00 1.74472 2.25
1 1 4 1 o 231.607 233.918 0.00 1.70630 3.41
1 1 4 2 o 211.596 233.918 0.00 1.70630 1.56
3 2 1 1 o 3.634 1.251 180.00 1.68955 0.13
3 2 1 2 o 7.574 1.251 180.00 1.68955 0.13
2 2 3 1 o 74.960 91.184 0.00 1.64666 1.07
2 2 3 2 o 64.469 91.184 0.00 1.64666 0.46
3 0 3 1 o -0.045 1.583 0.00 1.59244 0.00
2 0 4 1 o -1.497 4.930 180.00 1.59201 0.00
3 0 3 2 o 2.131 1.583 0.00 1.59244 0.02
2 0 4 2 o 8.931 4.930 180.00 1.59201 0.06
3 2 2 1 o 13.095 35.140 180.00 1.57108 0.39
3 2 2 2 o 23.811 35.140 180.00 1.57108 0.35
4 0 0 1 o 232.921 216.661 0.00 1.56429 1.17
4 0 0 2 o 269.248 216.661 0.00 1.56429 0.67
3 1 3 1 o 78.136 39.399 180.00 1.54325 2.18
2 1 4 1 o 3.133 1.626 0.00 1.54286 0.07
3 1 3 2 o 65.325 39.399 180.00 1.54325 0.91
2 1 4 2 o 2.516 1.626 0.00 1.54286 0.03
4 0 1 1 o 113.133 54.965 0.00 1.53044 1.36
4 0 1 2 o 98.092 54.965 0.00 1.53044 0.59
4 1 1 1 o -0.016 0.471 180.00 1.48662 0.00
4 1 1 2 o -0.016 0.471 180.00 1.48662 0.00
0 0 5 1 o -2.106 14.853 0.00 1.47948 0.00
0 0 5 2 o -2.106 14.853 0.00 1.47948 0.00
3 3 0 1 o 1.585 2.674 0.00 1.47483 0.02
3 3 0 2 o -0.979 2.674 0.00 1.47483 0.00
3 3 1 1 o 30.137 23.011 0.00 1.44636 0.41
3 3 1 2 o 22.152 23.011 0.00 1.44636 0.15
4 0 2 1 o 37.272 38.409 0.00 1.44074 0.52
1 0 5 1 o 8.728 8.595 180.00 1.43978 0.08
4 0 2 2 o 21.211 38.409 0.00 1.44074 0.16
1 0 5 2 o 0.778 8.595 180.00 1.43978 0.00
3 2 3 1 o 1.251 0.340 180.00 1.41918 0.03
2 2 4 1 o 7.484 1.671 0.00 1.41888 0.07
3 2 3 2 o -0.015 0.340 180.00 1.41918 0.00
2 2 4 2 o -0.740 1.671 0.00 1.41888 0.00
4 1 2 1 o 13.760 22.395 180.00 1.40400 0.32
1 1 5 1 o 40.715 62.057 0.00 1.40312 0.38
4 1 2 2 o 26.431 22.395 180.00 1.40400 0.30
1 1 5 2 o 86.429 62.057 0.00 1.40312 0.38
4 2 0 1 o 146.796 99.928 180.00 1.39914 1.34
4 2 0 2 o 136.355 99.928 180.00 1.39914 0.62
3 0 4 1 o 3.915 1.203 0.00 1.38374 0.04
3 0 4 2 o 2.805 1.203 0.00 1.38374 0.01
4 2 1 1 o 88.963 40.598 180.00 1.37477 1.70
4 2 1 2 o 72.805 40.598 180.00 1.37477 0.70
3 3 2 1 o 48.429 27.937 0.00 1.36994 0.54
3 3 2 2 o 41.058 27.937 0.00 1.36994 0.23
3 1 4 1 o 47.814 83.485 180.00 1.35110 0.92
3 1 4 2 o 36.745 83.485 180.00 1.35110 0.36
2 0 5 1 o -1.304 8.981 180.00 1.33747 0.00
2 0 5 2 o 6.099 8.981 180.00 1.33747 0.03
4 0 3 1 o 16.931 27.675 0.00 1.32091 0.21
4 0 3 2 o 3.640 27.675 0.00 1.32091 0.03
4 2 2 1 o 44.302 21.538 180.00 1.30864 0.85
2 1 5 1 o 6.378 3.044 0.00 1.30793 0.10
4 2 2 2 o 51.895 21.538 180.00 1.30864 0.49
2 1 5 2 o 7.547 3.044 0.00 1.30793 0.06
4 1 3 1 o 4.094 0.265 180.00 1.29242 0.08
4 1 3 2 o -0.012 0.265 180.00 1.29242 0.00
3 3 3 1 o 28.425 13.844 0.00 1.26571 0.24
3 2 4 1 o 2.291 1.171 180.00 1.26549 0.03
3 3 3 2 o 37.019 13.844 0.00 1.26571 0.16
3 2 4 2 o 3.322 1.171 180.00 1.26549 0.02
4 3 1 1 o -0.002 0.417 180.00 1.23390 0.00
5 0 1 1 o -0.003 0.048 180.00 1.23390 0.00
0 0 6 1 o -0.663 3.399 0.00 1.23290 0.00
4 3 1 2 o -0.002 0.417 180.00 1.23390 0.00
5 0 1 2 o -0.003 0.048 180.00 1.23390 0.00
0 0 6 2 o -0.663 3.399 0.00 1.23290 0.00
2 2 5 1 o -0.817 5.571 0.00 1.22981 0.00
5 1 0 1 o 0.513 0.074 0.00 1.22713 0.00
2 2 5 2 o 19.521 5.571 0.00 1.22981 0.06
5 1 0 2 o 2.472 0.074 0.00 1.22713 0.01
4 2 3 1 o 20.636 15.623 180.00 1.21689 0.35
4 2 3 2 o 28.555 15.623 180.00 1.21689 0.23
5 1 1 1 o 20.729 9.191 0.00 1.21059 0.27
1 0 6 1 o 59.979 30.308 0.00 1.20964 0.35
5 1 1 2 o 10.999 9.191 0.00 1.21059 0.07
3 0 5 1 o 1.298 1.254 0.00 1.20672 0.01
1 0 6 2 o 31.219 30.308 0.00 1.20964 0.09
3 0 5 2 o 4.834 1.254 0.00 1.20672 0.02
4 0 4 1 o 3.778 0.086 0.00 1.19433 0.03
4 0 4 2 o 1.486 0.086 0.00 1.19433 0.01
1 1 6 1 o 17.196 23.688 0.00 1.18765 0.11
5 0 2 1 o 10.035 10.212 180.00 1.18542 0.08
4 3 2 1 o 16.206 16.492 0.00 1.18542 0.26
3 1 5 1 o 18.359 19.922 180.00 1.18489 0.25
1 1 6 2 o 21.202 23.688 0.00 1.18765 0.07
5 0 2 2 o 4.787 10.212 180.00 1.18542 0.02
4 3 2 2 o 7.739 16.492 0.00 1.18542 0.06
3 1 5 2 o 10.905 19.922 180.00 1.18489 0.08
4 1 4 1 o -0.016 0.629 180.00 1.17315 0.00
4 1 4 2 o 5.475 0.629 180.00 1.17315 0.04
5 1 2 1 o 29.133 8.385 0.00 1.16470 0.44
5 1 2 2 o 10.023 8.385 0.00 1.16470 0.08
3 3 4 1 o 57.606 34.334 0.00 1.15306 0.36
3 3 4 2 o 40.400 34.334 0.00 1.15306 0.13
5 2 1 1 o 0.046 0.126 180.00 1.14785 0.00
2 0 6 1 o 0.616 2.644 180.00 1.14705 0.01
5 2 1 2 o 0.020 0.126 180.00 1.14785 0.00
2 0 6 2 o -0.463 2.644 180.00 1.14705 0.00
2 1 6 1 o 18.543 15.692 180.00 1.12825 0.21
3 2 5 1 o 0.434 0.256 180.00 1.12588 0.00
2 1 6 2 o 26.782 15.692 180.00 1.12825 0.15
3 2 5 2 o 0.565 0.256 180.00 1.12588 0.00
4 3 3 1 o 0.001 0.000 180.00 1.11594 0.00
5 0 3 1 o 2.733 0.157 180.00 1.11594 0.02
4 2 4 1 o 0.690 0.002 0.00 1.11579 0.01
4 3 3 2 o 0.000 0.000 180.00 1.11594 0.00
5 0 3 2 o 0.584 0.157 180.00 1.11594 0.00
4 2 4 2 o 0.186 0.002 0.00 1.11579 0.00
5 2 2 1 o 8.924 9.785 0.00 1.10851 0.12
4 4 0 1 o 16.022 12.896 0.00 1.10612 0.06
5 2 2 2 o 14.370 9.785 0.00 1.10851 0.09
4 4 0 2 o 51.980 12.896 0.00 1.10612 0.10
5 1 3 1 o 7.081 4.921 0.00 1.09860 0.11
5 1 3 2 o 6.618 4.921 0.00 1.09860 0.05
4 4 1 1 o 18.088 13.759 0.00 1.09396 0.14
4 4 1 2 o 22.244 13.759 0.00 1.09396 0.08
