#------------------------------------------------------------------------------
#$Date: 2016-02-18 17:37:37 +0200 (Thu, 18 Feb 2016) $
#$Revision: 176729 $
#$URL: svn://www.crystallography.net/cod/cif/1/51/67/1516797.cif $
#------------------------------------------------------------------------------
#
# This file is available in the Crystallography Open Database (COD),
# http://www.crystallography.net/
#
# All data on this site have been placed in the public domain by the
# contributors.
#
data_1516797
loop_
_publ_author_name
'Cao, Dennis'
'Hong, Michael'
'Blackburn, Anthea K.'
'Liu, Zhichang'
'Holcroft, James M.'
'Stoddart, J. Fraser'
_publ_section_title
;
 Two-point halogen bonding between 3,6-dihalopyromellitic diimides
;
_journal_issue                   11
_journal_name_full               'Chem. Sci.'
_journal_page_first              4242
_journal_paper_doi               10.1039/C4SC00999A
_journal_volume                  5
_journal_year                    2014
_chemical_formula_moiety         'C10 H2 Cl2 N2 O4'
_chemical_formula_sum            'C10 H2 Cl2 N2 O4'
_chemical_formula_weight         285.04
_chemical_name_systematic
;
 ?
;
_space_group_crystal_system      monoclinic
_space_group_IT_number           14
_space_group_name_Hall           '-P 2ybc'
_space_group_name_H-M_alt        'P 1 21/c 1'
_symmetry_space_group_name_Hall  '-P 2ybc'
_symmetry_space_group_name_H-M   'P 1 21/c 1'
_atom_sites_solution_hydrogens   geom
_atom_sites_solution_primary     direct
_audit_creation_date             2013-12-27
_audit_creation_method
;
Olex2 1.2
(compiled 2013.12.10 svn.r2853 for OlexSys, GUI svn.r4736)
;
_cell_angle_alpha                90
_cell_angle_beta                 90.693(15)
_cell_angle_gamma                90
_cell_formula_units_Z            2
_cell_length_a                   7.1051(12)
_cell_length_b                   5.4752(10)
_cell_length_c                   12.252(2)
_cell_measurement_reflns_used    1838
_cell_measurement_temperature    100(2)
_cell_measurement_theta_max      64.872
_cell_measurement_theta_min      6.229
_cell_volume                     476.59(14)
_computing_molecular_graphics    'Olex2 (Dolomanov et al., 2009)'
_computing_publication_material  'Olex2 (Dolomanov et al., 2009)'
_computing_structure_refinement  'ShelXL (Sheldrick, 2008)'
_computing_structure_solution    'ShelXS (Sheldrick, 2008)'
_diffrn_ambient_temperature      99.99
_diffrn_measured_fraction_theta_full 0.932
_diffrn_measured_fraction_theta_max 0.996
_diffrn_measurement_device_type  'Bruker APEX-II CCD'
_diffrn_measurement_method       '\f and \w scans'
_diffrn_radiation_monochromator  graphite
_diffrn_radiation_type           CuK\a
_diffrn_radiation_wavelength     1.54178
_diffrn_reflns_av_R_equivalents  0.0234
_diffrn_reflns_av_unetI/netI     0.0227
_diffrn_reflns_Laue_measured_fraction_full 0.932
_diffrn_reflns_Laue_measured_fraction_max 0.996
_diffrn_reflns_limit_h_max       7
_diffrn_reflns_limit_h_min       -8
_diffrn_reflns_limit_k_max       6
_diffrn_reflns_limit_k_min       -6
_diffrn_reflns_limit_l_max       14
_diffrn_reflns_limit_l_min       -14
_diffrn_reflns_number            2930
_diffrn_reflns_point_group_measured_fraction_full 0.932
_diffrn_reflns_point_group_measured_fraction_max 0.996
_diffrn_reflns_theta_full        67.679
_diffrn_reflns_theta_max         64.867
_diffrn_reflns_theta_min         6.229
_diffrn_standards_number         0
_exptl_absorpt_coefficient_mu    6.271
_exptl_absorpt_correction_T_max  0.7526
_exptl_absorpt_correction_T_min  0.6576
_exptl_absorpt_correction_type   multi-scan
_exptl_absorpt_process_details
;
SADABS-2012/1 (Bruker,2012) was used for absorption correction.
wR2(int) was 0.0480 before and 0.0331 after correction.
The Ratio of minimum to maximum transmission is 0.8738.
The \l/2 correction factor is 0.0015.
;
_exptl_crystal_colour            yellow
_exptl_crystal_colour_primary    yellow
_exptl_crystal_density_diffrn    1.986
_exptl_crystal_description       plate
_exptl_crystal_F_000             284
_exptl_crystal_size_max          0.105
_exptl_crystal_size_mid          0.05
_exptl_crystal_size_min          0.007
_refine_diff_density_max         0.348
_refine_diff_density_min         -0.228
_refine_diff_density_rms         0.072
_refine_ls_extinction_method     none
_refine_ls_goodness_of_fit_ref   1.099
_refine_ls_hydrogen_treatment    constr
_refine_ls_matrix_type           full
_refine_ls_number_parameters     82
_refine_ls_number_reflns         807
_refine_ls_number_restraints     0
_refine_ls_restrained_S_all      1.099
_refine_ls_R_factor_all          0.0365
_refine_ls_R_factor_gt           0.0313
_refine_ls_shift/su_max          0.000
_refine_ls_shift/su_mean         0.000
_refine_ls_structure_factor_coef Fsqd
_refine_ls_weighting_details
'w=1/[\s^2^(Fo^2^)+(0.0443P)^2^+0.5603P] where P=(Fo^2^+2Fc^2^)/3'
_refine_ls_weighting_scheme      calc
_refine_ls_wR_factor_gt          0.0813
_refine_ls_wR_factor_ref         0.0844
_reflns_Friedel_coverage         0.000
_reflns_number_gt                723
_reflns_number_total             807
_reflns_threshold_expression     'I > 2\s(I)'
_cod_data_source_file            c4sc00999a1.cif
_cod_data_source_block           p21-c
_cod_depositor_comments
'Adding full bibliography for 1516792--1516797.cif.'
_cod_original_cell_volume        476.57(14)
_cod_database_code               1516797
#BEGIN Tags that were not found in dictionaries:
_shelxl_version_number           2013-4
_shelx_space_group_comment
;
The symmetry employed for this shelxl refinement is uniquely defined
by the following loop, which should always be used as a source of
symmetry information in preference to the above space-group names.
They are only intended as comments.
;
_shelx_estimated_absorpt_t_max   0.957
_shelx_estimated_absorpt_t_min   0.559
_olex2_refinement_description
;
1. Fixed Uiso
 At 1.2 times of:
  All N(H) groups
2.a Aromatic/amide H refined with riding coordinates:
 N1(H1)
;
_shelx_res_file
;
TITL P21-c in P2(1)/c
CELL 1.54178 7.1051 5.4752 12.2515 90 90.693 90
ZERR 2 0.0012 0.001 0.0021 0 0.015 0
LATT 1
SYMM -X,0.5+Y,0.5-Z

SFAC C H N O Cl
UNIT 20 4 4 8 4

L.S. 100
PLAN  5
SIZE 0.007 0.05 0.105
TEMP -173.16
BOND
fmap 2
MORE -1
ACTA
CONF
REM <HKL>/Users/Anthea/Documents/CHEMISTRY/XRAY/n3227/work/P21-c.hkl</HKL>

WGHT    0.044300    0.560300
FVAR       0.25992
CL1   5    0.787656    0.084245    0.062873    11.00000    0.01288    0.01563 =
         0.01947    0.00180    0.00113    0.00379
O1    4    0.030155    0.632359    0.133171    11.00000    0.01287    0.02030 =
         0.01970   -0.00025    0.00793    0.00673
O2    4    0.422584   -0.013431    0.203277    11.00000    0.01913    0.01809 =
         0.01963    0.00288    0.00120    0.00001
N1    3    0.197778    0.288718    0.187395    11.00000    0.01094    0.01729 =
         0.01553    0.00159    0.00685   -0.00106
AFIX  43
H1    2    0.118901    0.233305    0.236377    11.00000   -1.20000
AFIX   0
C1    1    0.630356    0.309570    0.027566    11.00000    0.01191    0.01336 =
         0.01443   -0.00449   -0.00221   -0.00016
C2    1    0.456995    0.333032    0.078809    11.00000    0.01067    0.01221 =
         0.01120   -0.00194    0.00081   -0.00075
C3    1    0.367206    0.176211    0.163994    11.00000    0.01560    0.01844 =
         0.01436    0.00070   -0.00096   -0.00149
C4    1    0.165031    0.496595    0.126150    11.00000    0.01265    0.01841 =
         0.01331   -0.00410    0.00179   -0.00336
C5    1    0.331244    0.519304    0.052378    11.00000    0.01191    0.01352 =
         0.01325   -0.00357    0.00185   -0.00171
HKLF 4

REM  P21-c in P2(1)/c
REM R1 =  0.0313 for     723 Fo > 4sig(Fo)  and  0.0365 for all     807 data
REM     82 parameters refined using      0 restraints

END

WGHT      0.0443      0.5603

REM Highest difference peak  0.348,  deepest hole -0.228,  1-sigma level  0.072
Q1    1   0.2365  0.5218  0.0886  11.00000  0.05    0.35
Q2    1   0.4034  0.2340  0.1036  11.00000  0.05    0.33
Q3    1   0.3049  0.5885  0.0033  11.00000  0.05    0.31
Q4    1   0.6947  0.2193  0.0454  11.00000  0.05    0.30
Q5    1   0.4444  0.2892  0.1341  11.00000  0.05    0.30
;
_shelx_res_checksum              35625
_shelx_hkl_file
;
  -1   0   0   26.47    0.46
  -2   0   0   74.85    1.32
  -2   0   0   73.48    1.18
  -3   0   0   22.07    0.63
  -3   0   0   20.71    0.72
  -4   0   0    3.01    0.38
  -4   0   0    2.98    0.37
  -4   0   0    2.98    0.42
  -5   0   0  244.41    4.24
  -5   0   0  233.05    4.26
  -5   0   0  242.39    3.56
  -5   0   0  244.66    4.07
  -5   0   0  246.03    4.17
  -6   0   0    5.76    0.45
  -6   0   0    6.00    0.71
  -6   0   0    6.79    0.94
  -6   0   0    6.30    0.49
  -7   0   0   48.71    1.79
  -7   0   0   46.19    1.47
  -8   0   0   13.41    0.90
  -8   0   0   11.52    0.71
   0  -1   0   -0.19    0.15
   0   1   0    0.17    0.16
  -1  -1   0    5.24    0.37
   1   1   0    5.06    0.39
  -2  -1   0    4.55    0.39
  -2  -1   0    4.31    0.46
   2   1   0    4.73    0.42
  -3  -1   0    2.28    0.28
  -3  -1   0    2.44    0.34
  -3  -1   0    2.59    0.39
   3   1   0    2.38    0.32
  -4  -1   0   10.34    0.72
  -4  -1   0   11.04    0.50
  -4  -1   0    9.72    0.64
  -4  -1   0   10.46    0.68
  -5  -1   0    3.07    0.45
  -5  -1   0    3.38    0.53
  -5  -1   0    2.43    0.40
  -5  -1   0    2.76    0.52
  -5   1   0    3.72    0.62
  -5   1   0    4.17    0.53
  -6  -1   0   24.33    0.95
  -6  -1   0   23.37    1.01
  -6  -1   0   23.76    1.25
  -6   1   0   25.91    1.36
  -6   1   0   23.65    1.10
  -7  -1   0   -0.11    0.43
  -7   1   0    0.26    0.42
  -7   1   0    0.21    0.48
  -8  -1   0    0.42    0.34
  -8   1   0   -0.72    0.37
   0  -2   0   49.49    1.07
   0   2   0   48.20    1.03
   0   2   0   48.98    1.10
  -1  -2   0    0.35    0.29
  -1   2   0    0.82    0.21
  -1   2   0    0.83    0.20
  -1   2   0    0.63    0.16
   1   2   0    0.95    0.28
  -2  -2   0   15.44    0.67
   2   2   0   16.87    0.70
  -3  -2   0    7.27    0.57
  -3  -2   0    7.42    0.58
   3   2   0    7.42    0.61
  -4  -2   0    1.49    0.34
  -4  -2   0    1.59    0.43
  -4  -2   0    1.25    0.42
  -4   2   0    1.21    0.43
  -4   2   0    1.36    0.40
   4   2   0    1.05    0.39
  -5  -2   0    4.88    0.64
  -5   2   0    4.75    0.60
  -5   2   0    6.45    0.83
  -6  -2   0   -0.27    0.42
  -6   2   0    0.93    0.49
  -6   2   0    0.53    0.47
  -7  -2   0    0.96    0.40
  -7  -2   0    1.32    0.42
  -7  -2   0    0.48    0.35
  -7   2   0    1.79    0.49
  -7   2   0    2.81    0.60
   0  -3   0    0.55    0.30
   0   3   0   -0.01    0.22
   0   3   0   -0.04    0.28
  -1  -3   0  164.11    3.02
   1   3   0  166.30    2.98
  -1   3   0  165.45    2.83
  -1   3   0  169.63    2.81
  -1   3   0  159.20    2.64
  -2  -3   0   30.77    1.10
   2   3   0   30.70    1.06
  -3  -3   0   35.86    1.18
  -3  -3   0   33.80    1.08
  -3  -3   0   34.79    1.22
   3   3   0   34.69    1.15
   3   3   0   34.76    1.25
  -4  -3   0   40.08    1.34
  -4  -3   0   37.75    1.38
  -4  -3   0   40.39    1.15
  -4   3   0   39.62    1.33
   4   3   0   38.86    1.32
   4   3   0   39.90    1.43
  -5  -3   0   13.58    1.00
  -5   3   0   11.85    0.95
  -5   3   0   13.40    1.07
   5   3   0   12.90    0.90
  -6  -3   0   53.23    1.69
   6   3   0   52.95    1.53
  -6   3   0   51.49    1.78
  -7  -3   0    6.27    0.65
   7   3   0    5.50    0.55
  -7   3   0    5.84    0.76
   0   4   0    0.32    0.33
   0   4   0    0.39    0.26
   0   4   0    0.14    0.23
  -1  -4   0   20.05    0.99
  -1  -4   0   19.43    1.03
  -1   4   0   19.39    0.53
  -1   4   0   19.79    0.71
  -1   4   0   19.70    1.02
   1   4   0   19.94    0.90
  -1   4   0   18.93    0.68
   1   4   0   19.38    0.85
  -2  -4   0    0.63    0.40
  -2  -4   0    1.02    0.42
   2   4   0    0.87    0.39
  -2   4   0    1.30    0.32
   2   4   0    0.91    0.42
  -3  -4   0   -0.21    0.34
  -3  -4   0    0.06    0.39
  -3  -4   0    1.20    0.46
   3   4   0    0.61    0.45
   3   4   0    0.44    0.38
  -4  -4   0   24.35    1.19
  -4  -4   0   25.04    0.99
   4   4   0   24.94    1.10
  -5  -4   0    4.39    0.66
   5   4   0    4.13    0.58
   6   4   0    0.14    0.37
   0   5   0    0.12    0.35
   0   5   0    0.05    0.22
  -1  -5   0   11.39    0.87
   1   5   0   12.85    0.74
   1   5   0   13.30    0.96
  -1   5   0   13.39    0.89
  -2  -5   0    6.41    0.75
   2   5   0    5.27    0.59
  -3  -5   0    2.74    0.50
   3   5   0    1.64    0.43
   3   5   0    1.89    0.47
  -4  -5   0    8.54    0.68
   4   5   0    9.39    0.81
   4   5   0   10.21    0.70
   5   5   0    1.73    0.36
   0  -6   0    1.39    0.40
   0   6   0    1.68    0.45
  -1  -6   0   19.36    0.89
  -2  -6   0   31.19    1.07
   2   6   0   31.42    0.74
  -3  -6   0   13.87    0.68
  -8   0   1    0.48    0.43
  -7   0   1   -0.11    0.46
  -7   0   1    0.28    0.37
  -6   0   1   -0.45    0.21
  -6   0   1    0.35    0.29
  -6   0   1    0.26    0.48
  -6   0   1    0.47    0.35
  -5   0   1   -0.25    0.28
  -5   0   1    0.06    0.23
  -5   0   1   -0.05    0.24
  -5   0   1   -0.06    0.25
  -5   0   1   -0.22    0.24
  -5   0   1    0.21    0.25
  -4   0   1   -0.08    0.20
  -4   0   1   -0.21    0.22
  -3   0   1    0.10    0.14
  -3   0   1    0.14    0.18
  -3   0   1    0.19    0.27
  -2   0   1    0.17    0.16
   2   0  -1    0.15    0.18
  -2   0   1    0.19    0.16
  -1   0   1   -0.18    0.12
  -1   0  -1    0.05    0.11
  -2   0  -1   -0.08    0.15
  -2   0  -1   -0.10    0.12
  -3   0  -1    0.00    0.26
  -3   0  -1    0.25    0.18
  -4   0  -1   -0.04    0.21
  -4   0  -1    0.05    0.29
  -4   0  -1   -0.19    0.21
  -5   0  -1    0.72    0.36
  -5   0  -1    0.09    0.22
  -5   0  -1    0.09    0.23
  -5   0  -1    0.23    0.21
  -5   0  -1    0.11    0.39
  -5   0  -1    0.45    0.24
  -5   0  -1    0.27    0.24
  -6   0  -1    0.45    0.23
  -6   0  -1   -0.03    0.22
  -6   0  -1   -0.14    0.37
  -6   0  -1   -0.84    0.40
  -7   0  -1    0.23    0.39
  -7   0  -1    0.13    0.47
  -8   0  -1    0.00    0.35
  -8   0  -1    0.56    0.42
  -8  -1   1    2.09    0.46
  -8   1   1    2.12    0.50
  -7  -1   1   70.55    2.10
  -7   1   1   64.93    1.79
  -7   1   1   68.05    2.16
  -6  -1   1   60.22    1.63
  -6  -1   1   60.25    1.69
  -6  -1   1   60.27    1.45
  -6   1   1   60.89    1.72
  -6   1   1   60.34    2.02
  -5  -1   1   31.22    1.22
  -5  -1   1   33.62    1.34
  -5  -1   1   33.06    1.18
  -5  -1   1   34.28    1.23
  -5   1   1   33.93    1.41
  -5   1   1   33.64    1.17
  -4  -1   1   18.68    0.82
  -4  -1   1   19.04    0.85
  -4  -1   1   19.84    0.90
  -4  -1   1   19.19    0.67
  -4   1   1   19.24    0.50
  -3  -1   1    0.55    0.29
  -3  -1   1    0.51    0.22
  -3  -1   1    0.53    0.25
   3   1  -1    0.87    0.26
  -3   1   1    0.55    0.16
  -2  -1   1  417.96    6.28
  -2  -1   1  416.47    6.73
   2   1  -1  418.68    6.31
  -2   1   1  416.06    6.46
  -1  -1   1   37.46    0.83
  -1   1   1   38.65    0.76
   1   1  -1   38.46    0.84
   0  -1  -1    2.39    0.30
   0  -1   1    2.92    0.30
   0   1  -1    2.66    0.29
  -1  -1  -1   60.80    1.15
  -1   1  -1   62.05    1.07
  -2  -1  -1    6.56    0.48
  -2  -1  -1    4.98    0.42
   2   1   1    5.11    0.42
  -3  -1  -1  224.21    3.63
  -3  -1  -1  216.19    3.55
  -3  -1  -1  220.62    3.88
   3   1   1  223.52    3.64
  -4  -1  -1   18.26    0.62
  -4  -1  -1   18.92    0.82
  -4  -1  -1   18.17    0.84
  -5  -1  -1   31.63    1.23
  -5  -1  -1   31.97    1.11
  -5  -1  -1   31.10    1.30
  -5  -1  -1   31.88    1.21
  -5  -1  -1   30.17    1.15
  -5   1  -1   32.49    1.18
  -5   1  -1   33.30    1.36
  -6  -1  -1    3.15    0.49
  -6  -1  -1    3.20    0.46
  -6  -1  -1    2.79    0.61
  -6  -1  -1    2.93    0.52
  -6   1  -1    3.19    0.56
  -6   1  -1    2.99    0.63
  -7  -1  -1    1.76    0.52
  -7  -1  -1    1.46    0.44
  -7   1  -1    1.12    0.49
  -7   1  -1    1.08    0.55
  -8   1  -1    4.58    0.51
  -8   1  -1    4.04    0.58
  -7  -2   1    0.86    0.41
  -7  -2   1    0.24    0.41
  -7  -2   1    1.34    0.39
  -7   2   1    1.33    0.52
  -6   2   1    4.70    0.64
  -6   2   1    5.37    0.75
  -5  -2   1   45.22    1.64
  -5  -2   1   44.66    1.51
  -5   2   1   46.45    1.65
  -5   2   1   46.88    1.49
  -4  -2   1   70.42    1.74
  -4  -2   1   70.84    1.67
  -4  -2   1   71.11    1.86
  -4   2   1   71.84    1.71
  -4   2   1   68.66    1.92
   4   2  -1   69.19    1.77
  -3  -2   1   15.61    0.75
  -3  -2   1   15.24    0.70
   3   2  -1   14.03    0.74
  -2  -2   1   35.94    0.99
   2   2  -1   34.24    1.00
  -1  -2   1  157.85    2.69
  -1   2   1  155.58    2.60
   1   2  -1  159.68    2.69
  -1   2   1  155.58    2.47
  -1   2   1  158.70    2.59
   0  -2   1   43.88    0.99
   0  -2  -1   44.07    1.02
   0   2   1   43.50    1.05
   0   2  -1   43.70    1.03
   0   2  -1   43.90    0.96
   0   2   1   44.04    0.98
  -1  -2  -1    2.46    0.34
   1   2   1    2.24    0.32
  -1   2  -1    2.11    0.29
  -1   2  -1    2.20    0.24
  -1   2  -1    2.56    0.32
  -1   2  -1    1.65    0.24
  -2  -2  -1   37.17    1.03
   2   2   1   37.10    1.04
  -3  -2  -1  134.42    2.51
   3   2   1  131.13    2.56
  -4  -2  -1  136.07    2.64
  -4  -2  -1  140.90    2.79
  -4   2  -1  138.04    3.08
  -4   2  -1  138.85    2.65
  -5  -2  -1    1.36    0.51
  -5   2  -1    2.27    0.53
  -5   2  -1    2.07    0.48
  -6  -2  -1    1.23    0.53
  -6  -2  -1    0.49    0.54
  -6   2  -1    1.23    0.52
  -6   2  -1    1.65    0.51
  -7  -2  -1   12.18    0.70
  -7  -2  -1   11.37    0.74
  -7  -2  -1   12.17    0.69
  -7   2  -1   12.29    0.92
  -7   2  -1   10.72    1.00
  -7  -3   1    2.94    0.50
   7   3  -1    3.03    0.45
   6   3  -1    7.34    0.77
  -5  -3   1   50.11    1.68
   5   3  -1   50.98    1.56
  -4  -3   1    0.72    0.39
  -4  -3   1    0.62    0.34
  -4  -3   1    0.39    0.43
  -4  -3   1    0.17    0.41
   4   3  -1    0.09    0.37
   4   3  -1    0.39    0.40
  -3  -3   1    6.36    0.68
  -3  -3   1    6.61    0.65
  -3  -3   1    6.44    0.66
   3   3  -1    7.29    0.65
   3   3  -1    6.79    0.68
  -2  -3   1   31.26    1.09
   2   3  -1   32.08    1.09
  -1  -3   1    1.56    0.37
  -1   3   1    1.54    0.29
  -1   3   1    1.11    0.28
   1   3  -1    1.49    0.33
  -1   3   1    1.29    0.22
   0  -3   1   11.93    0.66
   0  -3  -1   11.86    0.67
   0   3  -1   11.16    0.64
   0   3   1   11.36    0.58
   0   3   1   11.95    0.67
   0   3  -1   11.25    0.56
  -1  -3  -1    4.04    0.55
   1   3   1    4.20    0.51
  -1   3  -1    4.74    0.42
  -1   3  -1    4.61    0.39
  -2  -3  -1   27.20    1.04
   2   3   1   27.44    1.04
  -3  -3  -1    6.56    0.72
  -3  -3  -1    6.20    0.61
  -3   3  -1    7.14    0.68
   3   3   1    7.32    0.74
   3   3   1    6.31    0.67
  -4  -3  -1   28.97    1.17
  -4  -3  -1   26.97    1.19
  -4  -3  -1   29.12    1.00
  -4   3  -1   27.13    1.27
   4   3   1   28.97    1.25
   4   3   1   28.27    1.13
  -4   3  -1   29.08    1.17
  -5  -3  -1   13.33    0.98
  -5   3  -1   14.02    1.07
   5   3   1   12.83    0.88
  -5   3  -1   13.80    0.98
  -6  -3  -1    4.80    0.70
   6   3   1    4.92    0.60
  -6   3  -1    4.72    0.69
  -7  -3  -1    1.43    0.42
   7   3   1    2.28    0.42
   6   4  -1   53.20    1.39
  -5  -4   1    4.25    0.65
   5   4  -1    4.25    0.56
  -4  -4   1    0.19    0.35
  -4  -4   1    0.77    0.48
   4   4  -1    0.15    0.39
  -3  -4   1   39.32    1.38
  -3  -4   1   41.93    1.36
  -3  -4   1   43.99    1.55
   3   4  -1   44.58    1.62
   3   4  -1   43.48    1.36
  -2  -4   1    5.05    0.63
  -2  -4   1    6.90    0.74
   2   4  -1    6.44    0.72
   2   4  -1    6.70    0.69
  -2   4   1    5.83    0.58
  -1  -4   1   58.52    1.62
  -1   4   1   59.56    1.13
   1   4  -1   60.95    1.60
  -1   4   1   60.83    1.34
  -1   4   1   60.48    1.32
  -1   4   1   61.12    1.76
   0   4  -1    7.98    0.53
   0   4   1    7.37    0.69
   0   4   1    7.50    0.56
   0   4  -1    8.43    0.57
   0   4  -1    7.58    0.70
   0   4   1    7.78    0.57
  -1  -4  -1   28.82    1.10
  -1  -4  -1   25.96    1.14
  -1   4  -1   27.48    1.13
  -1   4  -1   26.90    0.80
  -1   4  -1   26.95    0.78
   1   4   1   26.75    0.99
  -1   4  -1   26.34    0.58
   1   4   1   26.89    1.04
  -2  -4  -1   20.12    0.95
  -2  -4  -1   18.97    1.07
   2   4   1   17.81    0.92
   2   4   1   18.40    1.00
   2   4   1   18.84    0.89
  -3  -4  -1    1.06    0.41
  -3  -4  -1    0.67    0.46
  -3  -4  -1    1.97    0.53
   3   4   1    1.22    0.42
  -4  -4  -1   33.98    1.18
  -4  -4  -1   32.31    1.37
   4   4   1   34.73    1.24
  -5  -4  -1    2.10    0.55
   5   4   1    2.83    0.50
   6   4   1   44.12    1.27
   5   5  -1    4.18    0.50
  -4  -5   1    1.87    0.42
   4   5  -1    2.19    0.47
   4   5  -1    2.22    0.44
  -3  -5   1   27.11    1.09
   3   5  -1   26.79    1.11
  -2  -5   1   13.45    0.91
   2   5  -1   15.38    0.88
  -1  -5   1    1.47    0.45
  -1   5   1    2.70    0.54
   1   5  -1    3.02    0.56
   1   5  -1    2.33    0.41
   0  -5  -1   65.82    1.80
   0   5  -1   66.30    1.28
   0   5   1   67.33    1.60
   0   5  -1   65.98    1.57
   0   5   1   66.99    1.36
  -1  -5  -1    1.67    0.48
   1   5   1    2.78    0.59
   1   5   1    1.00    0.36
  -1   5  -1    1.82    0.47
  -2  -5  -1   67.97    1.80
   2   5   1   71.78    1.76
  -3  -5  -1    6.77    0.76
   3   5   1    7.20    0.67
   3   5   1    7.77    0.76
  -4  -5  -1   -0.28    0.31
   4   5   1    0.53    0.39
   4   5   1    0.61    0.38
   5   5   1   31.72    0.91
  -2  -6   1    2.59    0.42
   2   6  -1    2.03    0.24
  -1  -6   1    3.08    0.45
   0  -6  -1    6.24    0.63
   0  -6   1    8.33    0.67
   0   6   1    7.42    0.75
  -1  -6  -1   -0.46    0.35
  -2  -6  -1    7.08    0.67
   2   6   1    6.76    0.42
  -8   0   2   27.12    1.18
  -7   0   2    0.68    0.54
  -6   0   2    0.50    0.26
  -6   0   2    0.86    0.24
  -6   0   2    0.59    0.28
  -6   0   2    1.12    0.42
  -5   0   2   -0.26    0.26
  -5   0   2    0.44    0.29
  -5   0   2   -0.15    0.23
  -5   0   2    0.11    0.29
  -5   0   2    0.40    0.30
  -5   0   2    0.51    0.43
  -5   0   2    1.19    0.31
  -4   0   2   22.17    0.71
  -4   0   2   21.57    0.72
  -4   0   2   23.15    0.79
  -3   0   2  183.44    2.92
  -3   0   2  188.13    3.21
  -2   0   2  195.16    3.06
  -2   0   2  196.57    3.27
   2   0  -2  195.95    3.08
   1   0  -2   38.18    0.78
  -1   0   2   36.88    0.78
   0   0  -2   91.50    1.51
   0   0   2   90.62    1.51
   1   0   2   87.70    1.47
  -1   0  -2   88.45    1.45
  -2   0  -2   14.91    0.47
   2   0   2   14.15    0.48
  -2   0  -2   14.64    0.51
  -2   0  -2   14.75    0.41
  -3   0  -2  163.10    2.67
  -3   0  -2  156.08    2.39
  -4   0  -2    1.57    0.27
  -4   0  -2    2.24    0.29
  -4   0  -2    1.82    0.38
  -4   0  -2    2.06    0.29
  -5   0  -2    4.41    0.47
  -5   0  -2    5.03    0.47
  -5   0  -2    4.27    0.46
  -5   0  -2    4.44    0.43
  -5   0  -2    4.66    0.46
  -5   0  -2    4.86    0.58
  -5   0  -2    5.81    0.80
  -6   0  -2   18.96    1.19
  -6   0  -2   18.46    0.70
  -6   0  -2   19.71    0.66
  -6   0  -2   19.25    1.06
  -7   0  -2  106.53    2.75
  -7   0  -2  104.45    2.36
  -8   0  -2   21.08    1.01
  -8   0  -2   19.21    0.85
  -8  -1   2   11.20    0.78
  -8   1   2   11.05    0.84
  -7  -1   2   22.67    1.24
  -7   1   2   22.34    1.06
  -7   1   2   20.04    1.24
  -6  -1   2   36.00    1.11
  -6  -1   2   33.60    1.25
  -6  -1   2   35.03    1.26
  -6   1   2   36.51    1.58
  -6   1   2   36.21    1.32
  -5  -1   2    1.29    0.47
  -5  -1   2    1.55    0.39
  -5  -1   2    2.14    0.46
  -5   1   2    1.02    0.38
  -4  -1   2   18.77    0.92
  -4  -1   2   19.00    0.70
  -4  -1   2   17.85    0.83
  -4  -1   2   18.21    0.85
  -4   1   2   18.84    0.49
  -4   1   2   18.43    0.47
  -4   1   2   18.07    0.61
  -3  -1   2  117.75    2.36
  -3  -1   2  113.33    2.12
  -3  -1   2  122.64    2.21
  -3   1   2  121.24    2.10
   3   1  -2  119.57    2.21
  -3   1   2  115.41    1.81
  -2  -1   2   72.58    1.42
  -2  -1   2   73.53    1.56
   2   1  -2   73.59    1.45
  -2   1   2   72.28    1.38
  -2   1   2   74.34    1.22
  -1  -1   2   21.52    0.63
   1  -1  -2   20.38    0.57
   1   1  -2   21.04    0.64
  -1   1   2   20.71    0.61
   0  -1   2  169.71    2.68
   0  -1  -2  172.09    2.71
   0   1  -2  170.65    2.67
  -1  -1  -2  514.51    7.55
  -1   1  -2  506.92    7.39
  -1   1  -2  502.96    7.92
  -1   1  -2  511.28    7.72
  -2  -1  -2   84.92    1.76
  -2  -1  -2   87.73    1.61
  -2   1  -2   87.51    1.52
  -3  -1  -2   13.80    0.59
  -3  -1  -2   14.70    0.70
  -3  -1  -2   14.27    0.67
  -3   1  -2   15.15    0.44
  -3   1  -2   14.50    0.38
   3   1   2   14.45    0.63
  -4  -1  -2    2.86    0.37
  -4  -1  -2    3.30    0.43
  -4  -1  -2    2.31    0.43
  -5  -1  -2   41.19    1.37
  -5  -1  -2   40.88    1.49
  -5  -1  -2   41.95    1.39
  -5  -1  -2   39.19    1.31
  -5   1  -2   42.28    1.58
  -5   1  -2   42.63    1.36
  -6  -1  -2   38.07    1.28
  -6  -1  -2   38.50    1.26
  -6  -1  -2   34.76    1.50
  -6  -1  -2   38.96    1.35
  -6   1  -2   38.77    1.41
  -6   1  -2   35.61    1.61
  -7  -1  -2   11.74    0.92
  -7  -1  -2   13.04    0.85
  -7   1  -2   13.73    0.97
  -7   1  -2   11.90    1.06
  -8   1  -2    2.55    0.46
  -8   1  -2    2.80    0.51
  -7  -2   2   13.99    0.85
  -7  -2   2   14.38    0.76
  -7  -2   2   13.61    0.80
  -7  -2   2   13.84    1.00
  -7   2   2   14.45    1.04
  -6   2   2    1.39    0.56
  -5  -2   2    4.42    0.64
  -5  -2   2    5.70    0.71
  -5   2   2    4.85    0.61
   5   2  -2    4.90    0.57
  -5   2   2    3.83    0.62
  -4  -2   2   22.53    1.10
  -4  -2   2   25.66    0.94
  -4  -2   2   21.45    0.98
   4   2  -2   22.30    0.97
  -4   2   2   23.88    0.99
  -4   2   2   21.55    1.03
  -3  -2   2    5.83    0.55
  -3  -2   2    6.02    0.56
  -3   2   2    5.70    0.30
   3   2  -2    5.59    0.56
  -2  -2   2  152.43    2.59
  -2  -2   2  150.44    2.71
   2   2  -2  151.45    2.73
   1  -2  -2   23.35    0.68
  -1  -2   2   25.14    0.78
  -1   2   2   23.38    0.67
  -1   2   2   23.43    0.68
   1   2  -2   23.05    0.77
  -1   2   2   23.04    0.61
   0  -2  -2   11.77    0.58
   0  -2   2   12.88    0.55
   0   2  -2   11.98    0.54
   0   2  -2   12.88    0.59
   0   2   2   10.68    0.52
  -1  -2  -2   70.85    1.49
  -1   2  -2   69.98    1.34
  -1   2  -2   69.38    1.24
  -1   2  -2   70.14    1.45
   1   2   2   71.52    1.47
  -1   2  -2   71.45    1.33
  -2  -2  -2   41.66    1.12
  -2   2  -2   40.10    0.89
   2   2   2   41.34    1.10
  -3  -2  -2   36.10    1.10
   3   2   2   36.50    1.14
  -4  -2  -2    1.22    0.42
  -4  -2  -2    0.64    0.33
  -4   2  -2    0.75    0.39
  -4   2  -2    1.13    0.41
  -5  -2  -2   15.50    1.01
  -5   2  -2   15.90    0.98
  -5   2  -2   17.51    1.12
  -6  -2  -2   37.67    1.49
  -6  -2  -2   36.24    1.46
  -6   2  -2   34.85    1.41
  -6   2  -2   32.75    1.54
  -7  -2  -2   18.91    0.77
  -7  -2  -2   18.73    0.79
  -7  -2  -2   18.30    0.76
  -7   2  -2   20.23    1.06
  -7   2  -2   17.67    1.12
  -7  -3   2    9.52    0.73
   7   3  -2    6.83    0.64
   6   3  -2    1.39    0.45
  -5  -3   2   18.13    1.06
  -5  -3   2   16.44    1.14
   5   3  -2   18.00    1.02
  -4  -3   2    0.06    0.33
  -4  -3   2    0.94    0.44
  -4  -3   2    0.10    0.40
  -4  -3   2   -0.05    0.34
   4   3  -2    0.18    0.37
   4   3  -2    0.47    0.38
  -3  -3   2  105.73    2.24
  -3  -3   2  105.13    2.39
  -3  -3   2  108.32    2.40
  -3  -3   2  108.97    2.19
   3   3  -2  105.79    2.41
   3   3  -2  106.97    2.18
  -2  -3   2   13.27    0.76
  -2  -3   2   13.15    0.67
   2   3  -2   13.43    0.78
  -1  -3   2   15.98    0.78
  -1   3   2   16.33    0.56
  -1   3   2   16.79    0.67
  -1   3   2   16.56    0.67
   1   3  -2   16.63    0.76
   0  -3  -2    0.78    0.32
   0   3   2    0.55    0.31
   0   3  -2    1.08    0.33
   0   3   2    0.39    0.25
   0   3  -2    0.52    0.25
  -1  -3  -2   16.46    0.81
  -1   3  -2   17.22    0.64
  -1   3  -2   16.14    0.62
   1   3   2   16.50    0.78
  -2  -3  -2   84.17    1.98
   2   3   2   85.85    1.97
  -3  -3  -2   -0.16    0.35
  -3  -3  -2    0.54    0.34
   3   3   2    0.44    0.35
  -3   3  -2    0.39    0.36
   3   3   2    0.22    0.34
  -4  -3  -2   23.49    1.07
  -4  -3  -2   22.12    1.13
  -4  -3  -2   22.83    0.94
   4   3   2   23.91    1.06
   4   3   2   22.24    1.14
  -4   3  -2   21.89    1.06
  -4   3  -2   22.41    1.19
  -5  -3  -2    1.18    0.55
  -5   3  -2    0.81    0.50
  -5   3  -2    0.39    0.47
   5   3   2    1.13    0.43
  -6  -3  -2   18.92    1.08
  -6   3  -2   18.91    1.08
  -6   3  -2   19.13    1.19
   6   3   2   20.12    1.01
  -7  -3  -2   14.73    0.78
   7   3   2   16.27    0.80
   6   4  -2    9.00    0.67
   5   4  -2   35.61    1.24
  -4  -4   2   40.66    1.26
   4   4  -2   41.01    1.38
  -3  -4   2    2.45    0.47
   3   4  -2    2.80    0.52
  -2  -4   2    5.86    0.68
  -2  -4   2    5.30    0.62
   2   4  -2    5.09    0.57
  -2   4   2    5.57    0.60
   2   4  -2    6.65    0.75
  -1  -4   2   38.39    1.29
  -1   4   2   41.50    1.12
   1   4  -2   39.75    1.26
  -1   4   2   38.51    0.89
  -1   4   2   40.48    1.03
  -1   4   2   38.08    1.41
   0   4   2   21.21    0.85
   0   4   2   20.73    0.80
   0   4   2   19.24    0.93
   0   4  -2   20.62    0.81
   0   4  -2   21.56    0.94
  -1  -4  -2   25.69    1.04
  -1  -4  -2   25.92    1.17
  -1   4  -2   25.22    0.75
   1   4   2   25.17    0.99
   1   4   2   23.67    1.02
  -1   4  -2   24.03    1.14
  -1   4  -2   25.11    0.76
  -2  -4  -2    0.55    0.42
  -2  -4  -2    0.39    0.40
   2   4   2    0.33    0.40
   2   4   2    0.37    0.38
   2   4   2    0.02    0.37
  -3  -4  -2   50.63    1.48
   3   4   2   50.32    1.48
  -4  -4  -2   13.41    1.01
  -4  -4  -2   12.48    0.83
   4   4   2   11.99    0.86
   5   4   2    3.09    0.51
   6   4   2    0.47    0.37
   5   5  -2   12.74    0.62
  -4  -5   2    2.32    0.41
   4   5  -2    2.70    0.43
   4   5  -2    2.53    0.46
  -3  -5   2   11.10    0.80
   3   5  -2   10.98    0.82
  -2  -5   2   -0.06    0.39
   2   5  -2    0.71    0.36
  -1  -5   2   46.17    1.49
   1   5  -2   45.46    1.27
   1   5  -2   45.40    1.52
  -1   5   2   47.81    1.57
   0  -5  -2    2.51    0.54
   0   5   2    1.74    0.31
   0   5   2    1.60    0.45
   0   5  -2    1.49    0.24
   0   5  -2    1.63    0.39
  -1  -5  -2    3.06    0.57
   1   5   2    3.95    0.48
  -2  -5  -2   12.18    0.89
   2   5   2   10.93    0.81
  -3  -5  -2    2.45    0.53
   3   5   2    1.83    0.43
   3   5   2    2.59    0.49
  -4  -5  -2   16.55    0.77
   4   5   2   18.13    0.94
   4   5   2   17.28    0.81
   5   5   2    0.83    0.34
  -2  -6   2   12.10    0.68
  -1  -6   2   27.33    0.99
   0  -6   2    8.40    0.68
   0  -6  -2    8.21    0.74
   0   6   2    8.60    0.78
  -1  -6  -2   52.85    1.44
  -2  -6  -2    4.86    0.61
   2   6   2    4.02    0.38
  -8   0   3   -0.22    0.39
  -7   0   3   -0.33    0.47
  -6   0   3    0.20    0.27
  -6   0   3   -0.11    0.27
  -6   0   3    0.00    0.28
  -5   0   3    0.43    0.32
  -5   0   3   -0.13    0.26
  -5   0   3    0.13    0.35
  -5   0   3    0.98    0.44
  -5   0   3   -0.20    0.31
  -4   0   3    0.63    0.35
  -4   0   3    0.16    0.24
  -4   0   3   -0.03    0.28
  -3   0   3   -0.02    0.22
  -3   0   3   -0.22    0.19
  -3   0   3    0.18    0.22
   2   0  -3   -0.17    0.22
  -2   0   3   -0.09    0.21
  -2   0   3   -0.04    0.21
   1   0  -3   -0.04    0.24
  -1   0   3    0.31    0.24
   0   0  -3    0.25    0.25
   0   0   3   -0.15    0.22
  -1   0  -3   -0.04    0.21
   1   0   3   -0.30    0.21
   2   0   3    0.12    0.20
  -2   0  -3   -0.38    0.19
  -2   0  -3    0.03    0.17
  -2   0  -3   -0.06    0.22
  -3   0  -3   -0.09    0.21
  -3   0  -3    0.03    0.20
  -3   0  -3    0.18    0.24
  -3   0  -3   -0.20    0.14
  -4   0  -3    0.21    0.30
  -4   0  -3    0.36    0.27
  -5   0  -3    0.21    0.25
  -5   0  -3   -0.07    0.26
  -5   0  -3   -0.16    0.36
  -5   0  -3   -0.13    0.40
  -5   0  -3    0.49    0.28
  -5   0  -3   -0.24    0.24
  -6   0  -3    0.39    0.27
  -6   0  -3   -0.25    0.42
  -6   0  -3    0.69    0.48
  -6   0  -3    0.01    0.22
  -7   0  -3   -0.10    0.45
  -7   0  -3    0.08    0.43
  -8   0  -3    1.24    0.38
  -8   0  -3   -0.03    0.35
  -8  -1   3    6.71    0.70
  -8   1   3    6.26    0.72
  -7  -1   3   22.52    0.62
  -7  -1   3   22.61    0.64
  -7  -1   3   21.84    1.22
  -7   1   3   20.66    1.25
  -6  -1   3    7.85    0.81
  -6  -1   3    6.40    0.78
  -6  -1   3    7.12    0.74
  -6  -1   3    6.72    0.72
  -6   1   3    8.63    0.99
  -6   1   3    7.35    0.79
  -5  -1   3    0.13    0.43
  -5   1   3    0.47    0.24
  -5   1   3    0.19    0.37
  -4  -1   3  167.32    3.30
  -4  -1   3  170.67    2.98
  -4   1   3  168.06    3.02
  -4   1   3  166.75    2.59
  -3  -1   3   14.53    0.64
  -3  -1   3   16.58    0.71
   3   1  -3   16.31    0.72
  -3   1   3   15.68    0.59
  -3   1   3   16.44    0.64
  -2  -1   3   27.06    0.80
  -2  -1   3   26.19    0.77
   2   1  -3   27.29    0.84
  -2   1   3   25.51    0.66
  -2   1   3   25.50    0.61
  -2   1   3   27.20    0.77
   1  -1  -3   13.92    0.57
  -1  -1   3   13.21    0.57
   1   1  -3   13.89    0.60
  -1   1   3   13.78    0.50
  -1   1   3   13.73    0.60
   0  -1   3    2.64    0.30
   0  -1  -3    2.65    0.32
   0   1   3    2.75    0.31
   0   1  -3    2.65    0.29
   1  -1   3  986.06   14.30
  -1  -1  -3 1000.00   14.35
  -1   1  -3  982.03   14.23
  -1   1  -3  964.03   15.24
  -1   1  -3  986.36   14.83
  -2  -1  -3    7.08    0.49
  -2  -1  -3    6.62    0.57
  -2   1  -3    7.12    0.32
  -2   1  -3    7.02    0.41
  -3  -1  -3   55.39    1.33
  -3  -1  -3   52.20    1.20
  -3   1  -3   52.89    0.99
  -3   1  -3   53.93    1.14
  -4  -1  -3    1.76    0.41
  -4  -1  -3    2.41    0.32
  -4  -1  -3    2.26    0.39
  -4   1  -3    2.61    0.53
  -4   1  -3    2.45    0.28
  -4   1  -3    2.11    0.45
  -4   1  -3    2.06    0.25
  -5  -1  -3   31.74    1.22
  -5  -1  -3   33.52    1.25
  -5  -1  -3   32.57    1.24
  -5   1  -3   32.86    1.44
  -5   1  -3   32.09    1.25
  -6  -1  -3   41.64    1.29
  -6  -1  -3   38.53    1.40
  -6  -1  -3   38.01    1.32
  -6  -1  -3   37.30    1.30
  -6   1  -3   37.16    1.43
  -6   1  -3   37.64    1.62
  -7  -1  -3    2.98    0.53
  -7   1  -3    3.06    0.63
  -7   1  -3    4.21    0.60
  -8   1  -3   16.59    0.93
  -8   1  -3   18.83    0.84
  -7  -2   3   14.75    0.84
  -7  -2   3   15.35    0.82
  -7  -2   3   15.03    0.87
  -7  -2   3   15.26    0.94
  -7   2   3   15.20    1.03
  -6  -2   3    9.40    1.06
   6   2  -3   10.19    0.83
  -6   2   3    8.61    0.96
  -5  -2   3   81.21    2.25
   5   2  -3   82.61    1.98
  -5   2   3   81.29    2.28
  -4  -2   3   32.67    1.29
  -4  -2   3   32.08    1.11
  -4  -2   3   32.60    1.15
   4   2  -3   30.93    1.18
   4   2  -3   32.27    1.13
  -3  -2   3    2.86    0.42
  -3  -2   3    2.75    0.47
  -3  -2   3    3.24    0.42
  -3   2   3    3.73    0.36
   3   2  -3    2.91    0.43
  -2  -2   3   28.85    0.84
  -2  -2   3   27.22    0.91
  -2   2   3   29.29    0.68
   2   2  -3   28.05    0.94
  -2   2   3   28.31    0.74
  -2   2   3   28.15    0.68
  -1  -2   3  104.42    2.00
   1  -2  -3  107.13    1.94
   1   2  -3  105.25    1.99
  -1   2   3   97.03    2.02
   0  -2   3  107.60    1.97
   0  -2  -3  105.49    1.98
   0   2  -3  103.91    1.91
   0   2  -3  105.08    2.03
  -1  -2  -3   32.68    0.96
  -1   2  -3   32.78    0.93
  -1   2  -3   32.74    0.83
  -1   2  -3   32.06    0.75
  -1   2  -3   32.31    0.83
  -2  -2  -3   89.12    1.88
   2   2   3   90.41    1.89
  -2   2  -3   92.32    1.74
  -3  -2  -3    4.94    0.58
  -3   2  -3    4.63    0.32
   3   2   3    4.52    0.56
  -4  -2  -3   14.20    0.87
  -4  -2  -3   15.89    0.80
  -4   2  -3   14.41    0.86
  -4   2  -3   15.58    1.01
   4   2   3   13.69    0.83
  -5  -2  -3   19.11    1.09
  -5   2  -3   19.43    1.22
  -5   2  -3   19.00    1.06
  -6  -2  -3    6.79    0.78
  -6  -2  -3    8.20    0.97
  -6  -2  -3    8.28    0.96
  -6   2  -3    8.57    0.91
  -6   2  -3    7.50    0.95
  -7  -2  -3   28.56    0.82
  -7  -2  -3   28.41    0.84
  -7   2  -3   28.36    1.17
  -7   2  -3   31.32    1.35
  -7  -3   3    0.97    0.41
   7   3  -3   -0.04    0.32
   6   3  -3   -0.33    0.37
  -5  -3   3   11.94    1.04
   5   3  -3    9.83    0.84
  -4  -3   3    9.61    0.95
  -4  -3   3   10.42    0.71
  -4  -3   3    9.20    0.80
  -4  -3   3    9.19    0.78
   4   3  -3   10.14    0.86
   4   3  -3    8.71    0.76
  -3  -3   3    0.08    0.34
  -3  -3   3    0.68    0.38
  -3  -3   3    0.41    0.36
  -3  -3   3    0.44    0.35
  -3   3   3    0.50    0.22
   3   3  -3    0.70    0.33
   3   3  -3    0.24    0.36
  -3   3   3    0.38    0.20
  -2  -3   3    0.26    0.33
   2   3  -3    0.73    0.36
  -2   3   3    0.42    0.29
  -1  -3   3   38.97    1.22
  -1   3   3   42.99    0.99
  -1   3   3   42.95    1.01
   1   3  -3   42.40    1.21
  -1   3   3   41.62    1.11
   0  -3  -3    4.14    0.57
   0   3   3    4.42    0.52
   0   3  -3    5.31    0.48
   0   3   3    4.54    0.60
   0   3  -3    5.58    0.61
  -1  -3  -3    5.62    0.63
  -1   3  -3    5.82    0.48
  -1   3  -3    5.50    0.46
   1   3   3    4.85    0.60
  -2  -3  -3   24.72    1.06
   2   3   3   23.24    1.02
  -3  -3  -3   -0.16    0.34
  -3  -3  -3    0.09    0.37
   3   3   3   -0.51    0.29
   3   3   3    0.09    0.39
  -4  -3  -3   17.74    1.02
  -4  -3  -3   18.60    1.08
  -4  -3  -3   18.70    0.85
   4   3   3   18.41    0.98
  -4   3  -3   18.42    1.16
   4   3   3   18.48    1.08
  -5  -3  -3   15.45    1.06
   5   3   3   16.60    0.97
  -5   3  -3   16.21    1.05
  -6   3  -3    5.03    0.64
   6   3   3    5.68    0.63
  -7  -3  -3    4.96    0.59
  -7  -3  -3    7.82    0.58
   7   3   3    6.94    0.59
   6   4  -3    2.78    0.44
   5   4  -3   19.17    0.98
  -4  -4   3    0.78    0.39
   4   4  -3    0.85    0.45
  -3  -4   3   38.10    1.37
   3   4  -3   40.88    1.34
  -2  -4   3    0.58    0.39
  -2  -4   3    0.89    0.44
   2   4  -3    1.26    0.44
  -2   4   3    1.29    0.37
   2   4  -3    0.85    0.41
  -1  -4   3    0.46    0.40
  -1   4   3    0.82    0.25
  -1   4   3    0.45    0.31
   1   4  -3    0.47    0.34
   0  -4  -3   70.32    1.74
   0   4  -3   68.36    1.75
   0   4   3   67.52    1.53
   0   4   3   68.45    1.79
   0   4   3   70.24    1.67
  -1  -4  -3   21.67    1.00
  -1  -4  -3   21.42    1.11
   1   4   3   22.20    1.03
   1   4   3   20.94    0.95
  -1   4  -3   21.58    0.72
  -1   4  -3   21.79    1.06
  -1   4  -3   21.51    0.71
  -2  -4  -3   37.99    1.47
  -2  -4  -3   37.36    1.29
   2   4   3   36.04    1.29
   2   4   3   37.46    1.23
   2   4   3   38.79    1.43
  -2   4  -3   37.46    1.11
  -3  -4  -3    0.12    0.43
   3   4   3   -0.01    0.40
  -4  -4  -3   28.06    1.02
  -4  -4  -3   28.61    1.30
   4   4   3   25.79    1.15
   5   4   3    9.97    0.79
   6   4   3   10.53    0.69
  -4  -5   3    3.23    0.42
   4   5  -3    4.51    0.52
   4   5  -3    4.39    0.51
  -3  -5   3   60.96    1.61
   3   5  -3   60.17    1.59
  -2  -5   3    7.90    0.78
   2   5  -3    5.97    0.68
  -1  -5   3   37.36    1.37
  -1   5   3   38.70    1.43
   1   5  -3   38.06    1.36
   1   5  -3   39.27    1.12
   0  -5  -3   20.91    1.14
   0   5  -3   23.77    0.84
   0   5   3   22.35    0.92
   0   5   3   22.83    0.78
  -1  -5  -3    0.63    0.49
   1   5   3    1.22    0.37
  -2  -5  -3   14.93    1.01
   2   5   3   16.79    0.92
  -3  -5  -3    2.26    0.48
   3   5   3    2.47    0.48
   3   5   3    1.44    0.41
  -4  -5  -3   10.39    0.62
   4   5   3   11.19    0.69
   4   5   3   10.75    0.77
  -2  -6   3    1.23    0.36
  -1  -6   3   11.85    0.70
   0  -6  -3   -0.20    0.32
   0  -6   3   -0.15    0.29
   0   6   3   -0.69    0.37
  -1  -6  -3    1.63    0.41
  -2  -6  -3    1.31    0.39
  -8   0   4   12.93    0.84
  -7   0   4    0.59    0.51
  -6   0   4  216.83    4.08
  -6   0   4  213.80    3.89
  -6   0   4  222.47    4.37
  -6   0   4  218.71    3.91
  -6   0   4  225.24    3.39
  -6   0   4  221.62    3.34
  -5   0   4   20.44    0.87
  -5   0   4   20.28    1.14
  -5   0   4   20.20    1.02
  -5   0   4   19.50    0.94
  -4   0   4   71.03    1.30
  -4   0   4   69.65    1.73
  -4   0   4   73.40    1.84
  -4   0   4   71.86    1.56
  -3   0   4   28.35    0.95
  -3   0   4   28.19    0.81
  -2   0   4   76.76    1.54
  -2   0   4   75.72    1.67
   2   0  -4   78.23    1.59
   1   0  -4  927.07   13.72
  -1   0   4  940.76   13.71
   0   0   4   52.67    1.16
   0   0  -4   54.51    1.16
  -1   0  -4  120.65    2.08
   1   0   4  117.95    2.11
  -2   0  -4    0.21    0.25
   2   0   4   -0.03    0.24
  -2   0  -4    0.01    0.19
  -3   0  -4   12.52    0.55
  -3   0  -4   10.89    0.43
  -5   0  -4    0.62    0.29
  -5   0  -4    0.06    0.31
  -5   0  -4    0.45    0.29
  -5   0  -4    0.57    0.28
  -5   0  -4    0.48    0.40
  -5   0  -4    0.56    0.44
  -6   0  -4   81.87    1.70
  -6   0  -4   80.98    1.65
  -6   0  -4   79.27    2.09
  -6   0  -4   80.24    2.35
  -7   0  -4    7.96    0.83
  -7   0  -4    7.24    0.84
  -7  -1   4    8.02    0.93
  -7  -1   4    7.06    0.44
  -7  -1   4    7.41    0.47
  -7   1   4    6.40    0.91
  -6  -1   4    1.67    0.63
  -6  -1   4    4.64    0.66
  -6  -1   4    3.15    0.54
  -6   1   4    2.96    0.65
  -5  -1   4    2.41    0.58
  -5   1   4    1.77    0.28
  -5   1   4    1.84    0.34
  -5   1   4    1.98    0.29
  -5   1   4    2.61    0.29
  -5   1   4    1.93    0.28
  -4  -1   4    0.64    0.31
  -4  -1   4    1.26    0.32
  -4  -1   4    1.19    0.46
  -4   1   4    0.64    0.30
  -4   1   4    0.96    0.33
  -4   1   4    1.46    0.32
  -4   1   4    1.58    0.36
  -3  -1   4    1.52    0.33
   3   1  -4    1.55    0.36
  -3   1   4    1.45    0.23
  -3   1   4    1.84    0.33
  -3   1   4    1.85    0.34
  -2  -1   4   19.62    0.74
  -2   1   4   19.01    0.68
  -2   1   4   20.51    0.64
  -2   1   4   20.77    0.76
   2   1  -4   20.97    0.78
   1  -1  -4    0.44    0.29
  -1  -1   4    0.19    0.24
   1   1  -4    0.13    0.28
  -1   1   4    0.56    0.25
  -1   1   4    0.16    0.27
   0  -1  -4   25.44    0.81
   0  -1   4   24.51    0.78
   0   1  -4   24.64    0.77
   0   1   4   26.37    0.79
   1  -1   4   21.02    0.70
  -1  -1  -4   21.96    0.75
  -1   1  -4   20.85    0.71
   1   1   4   21.83    0.75
  -1   1  -4   21.31    0.64
  -2  -1  -4   62.97    1.36
  -2   1  -4   61.46    1.11
  -2   1  -4   63.07    1.37
  -2   1  -4   64.98    1.23
  -3  -1  -4   10.72    0.68
  -3  -1  -4    9.85    0.56
  -3   1  -4    9.65    0.54
  -3   1  -4   11.42    0.55
  -4  -1  -4   25.94    1.02
  -4  -1  -4   25.60    0.97
  -4  -1  -4   24.27    1.03
  -4  -1  -4   25.93    0.81
  -4   1  -4   27.16    0.79
  -4   1  -4   25.40    0.61
  -4   1  -4   26.84    1.22
  -4   1  -4   27.15    1.05
  -4   1  -4   24.91    0.64
  -4   1  -4   25.94    0.68
  -5  -1  -4   17.85    0.99
  -5  -1  -4   19.31    0.99
  -5  -1  -4   17.28    1.00
  -5   1  -4   18.73    1.16
  -5   1  -4   17.73    1.04
  -6  -1  -4    2.15    0.46
  -6  -1  -4    2.20    0.54
  -6  -1  -4    2.10    0.45
  -6   1  -4    1.84    0.57
  -6   1  -4    2.02    0.53
  -7  -1  -4    0.40    0.40
  -7   1  -4    0.40    0.47
  -7   1  -4   -0.25    0.40
  -7  -2   4    1.71    0.45
  -7  -2   4    1.13    0.46
  -7  -2   4    1.43    0.37
  -7   2   4    1.63    0.50
  -6  -2   4    1.41    0.61
   6   2  -4    1.99    0.46
  -6   2   4    2.17    0.56
  -5  -2   4   43.00    1.67
   5   2  -4   44.07    1.44
  -5   2   4   43.41    1.65
  -4  -2   4   52.35    1.67
  -4  -2   4   54.40    1.52
  -4  -2   4   53.26    1.43
   4   2  -4   53.71    1.62
   4   2  -4   53.05    1.50
  -4   2   4   54.28    0.99
  -3  -2   4    2.11    0.46
  -3  -2   4    2.35    0.41
  -3  -2   4    3.41    0.49
  -3   2   4    2.28    0.32
   3   2  -4    2.56    0.43
  -2  -2   4    2.12    0.37
   2   2  -4    2.25    0.39
  -2   2   4    2.04    0.34
  -2   2   4    3.02    0.38
   1  -2  -4    6.11    0.55
  -1  -2   4    6.93    0.57
   1   2  -4    6.34    0.53
   0  -2   4   -0.16    0.25
   0  -2  -4   -0.13    0.27
   0   2  -4    0.21    0.25
   0   2  -4    0.06    0.27
  -1  -2  -4   14.88    0.73
  -1   2  -4   15.39    0.63
  -1   2  -4   14.77    0.55
  -2  -2  -4   13.92    0.73
  -2   2  -4   13.45    0.43
  -2   2  -4   13.35    0.62
  -3  -2  -4    7.47    0.68
  -3   2  -4    8.73    0.81
   3   2   4    6.44    0.65
  -3   2  -4    8.97    0.48
  -4  -2  -4   21.06    1.07
  -4  -2  -4   23.11    1.26
  -4  -2  -4   24.81    0.97
   4   2   4   21.36    0.98
  -4   2  -4   22.89    1.02
  -4   2  -4   24.81    1.22
  -5  -2  -4   31.80    1.32
   5   2   4   30.42    1.20
  -5   2  -4   28.47    1.41
  -5   2  -4   28.79    1.25
  -6  -2  -4    5.31    0.61
  -6  -2  -4    3.75    0.70
  -6  -2  -4    4.44    0.65
  -6   2  -4    4.28    0.63
  -6   2  -4    4.39    0.72
  -7  -2  -4    1.10    0.38
  -7   2  -4    1.10    0.46
  -7  -3   4   32.67    1.08
   7   3  -4   32.77    1.01
   6   3  -4    8.40    0.80
  -5  -3   4   48.39    1.75
   5   3  -4   49.10    1.51
  -4  -3   4   15.68    0.86
  -4  -3   4   15.86    1.13
  -4  -3   4   18.19    1.05
   4   3  -4   17.52    1.06
   4   3  -4   16.45    0.93
  -3  -3   4   65.16    1.81
  -3  -3   4   65.76    1.65
  -3  -3   4   65.20    1.86
  -3   3   4   65.79    1.52
  -3   3   4   66.27    1.30
   3   3  -4   64.30    1.65
   3   3  -4   60.55    1.82
  -2  -3   4   53.30    1.54
  -2  -3   4   54.04    1.43
  -2  -3   4   53.80    1.52
  -2   3   4   53.21    1.55
   2   3  -4   53.46    1.55
  -2   3   4   52.37    1.09
   2   3  -4   54.39    1.40
  -2   3   4   51.55    1.07
  -2   3   4   52.10    0.93
  -2   3   4   53.25    1.30
  -1  -3   4    6.65    0.62
  -1   3   4    5.98    0.49
  -1   3   4    5.92    0.59
   1   3  -4    6.82    0.63
  -1   3   4    7.38    0.53
   0  -3  -4  108.56    2.40
   0   3   4  119.72    2.17
   0   3   4  118.66    2.31
   0   3   4  112.42    2.45
   0   3  -4  115.69    2.40
   0   3  -4  119.13    2.26
  -1  -3  -4   13.24    0.84
   1   3   4   13.44    0.78
  -1   3  -4   13.25    0.64
   1   3   4   12.65    0.76
  -2  -3  -4   61.00    1.56
  -2  -3  -4   62.04    1.70
   2   3   4   59.28    1.52
   2   3   4   59.72    1.68
  -3  -3  -4   34.29    1.29
  -3  -3  -4   32.42    1.13
   3   3   4   31.05    1.16
   3   3   4   33.67    1.35
  -4  -3  -4   29.46    1.34
   4   3   4   28.40    1.35
   4   3   4   30.80    1.21
  -5  -3  -4   68.16    2.00
  -5   3  -4   60.33    1.80
   5   3   4   65.52    1.80
   6   3   4    0.17    0.40
  -6   3  -4    0.04    0.41
   6   4  -4    6.84    0.59
   5   4  -4    0.17    0.40
  -4  -4   4   11.81    0.79
   4   4  -4    9.70    0.83
  -3  -4   4    0.60    0.44
   3   4  -4    0.72    0.42
  -2  -4   4   26.86    1.16
  -2  -4   4   26.39    1.22
   2   4  -4   26.29    1.05
   2   4  -4   27.00    1.17
  -2   4   4   26.78    1.08
  -1  -4   4    9.72    0.83
  -1   4   4    7.75    0.51
  -1   4   4    9.27    0.66
   1   4  -4    9.19    0.75
   0  -4  -4    8.50    0.82
   0   4   4    7.57    0.66
   0   4   4    6.98    0.64
   0   4   4    7.63    0.79
   0   4  -4    7.14    0.72
  -1  -4  -4    8.11    0.82
  -1  -4  -4    7.50    0.88
  -1   4  -4    6.96    0.50
   1   4   4    7.95    0.72
   1   4   4    8.07    0.76
  -1   4  -4    8.13    0.50
  -2  -4  -4    1.73    0.55
  -2  -4  -4    1.80    0.52
   2   4   4    2.20    0.48
  -2   4  -4    1.23    0.34
   2   4   4    1.48    0.43
  -3  -4  -4   48.94    1.47
   3   4   4   49.63    1.49
  -4  -4  -4   -0.10    0.34
  -4  -4  -4    0.28    0.48
   4   4   4   -0.49    0.35
   5   4   4    5.79    0.61
   6   4   4   13.74    0.72
  -4  -5   4    2.51    0.36
   4   5  -4    2.13    0.42
  -3  -5   4    0.96    0.42
  -2  -5   4    1.96    0.50
  -2   5   4    2.17    0.32
  -1  -5   4    0.11    0.40
  -1   5   4    0.29    0.47
   1   5  -4    0.33    0.29
   0  -5  -4    1.67    0.54
   0  -5   4    2.05    0.49
   0   5   4    1.40    0.31
   0   5   4    1.37    0.40
   0   5  -4    1.50    0.34
  -1  -5  -4    1.21    0.49
   1   5   4    0.52    0.34
  -2  -5  -4   14.71    0.94
   2   5   4   14.61    0.88
  -3  -5  -4    0.57    0.42
   3   5   4    1.28    0.43
   4   5   4   -0.24    0.32
   4   5   4    0.46    0.34
  -1  -6   4   12.79    0.69
   0  -6  -4    1.05    0.39
   0  -6   4    1.55    0.38
   0   6   4    0.64    0.42
  -1  -6  -4   30.05    1.03
  -7   0   5    0.06    0.49
  -6   0   5   -0.13    0.31
  -6   0   5    0.23    0.29
  -6   0   5    0.58    0.57
  -6   0   5    0.13    0.30
  -6   0   5   -0.25    0.32
  -5   0   5   -0.10    0.48
  -5   0   5   -0.61    0.32
  -5   0   5    0.21    0.37
  -5   0   5   -0.03    0.41
  -4   0   5   -0.16    0.41
  -4   0   5    0.00    0.24
  -4   0   5    0.54    0.33
  -3   0   5   -0.05    0.24
  -3   0   5    0.33    0.31
  -2   0   5   -0.14    0.22
   2   0  -5    0.00    0.27
   1   0  -5   -0.04    0.31
  -1   0   5   -0.03    0.25
   0   0  -5    0.19    0.31
   0   0   5    0.09    0.27
   1   0   5   -0.35    0.25
  -1   0  -5   -0.36    0.26
  -1   0  -5    0.03    0.29
   2   0   5    0.27    0.29
  -2   0  -5    0.05    0.29
  -2   0  -5    0.11    0.22
  -3   0  -5    0.30    0.30
  -3   0  -5   -0.19    0.17
  -4   0  -5    0.23    0.23
  -4   0  -5    0.57    0.35
  -4   0  -5   -0.19    0.37
  -5   0  -5    0.10    0.29
  -5   0  -5    0.13    0.28
  -5   0  -5   -0.52    0.25
  -5   0  -5   -0.39    0.39
  -5   0  -5    0.53    0.35
  -6   0  -5    0.15    0.46
  -6   0  -5   -0.15    0.42
  -7   0  -5   -0.48    0.39
  -7   0  -5   -0.04    0.38
  -7   1   5   21.40    1.16
  -6  -1   5   13.91    0.97
  -6  -1   5   14.69    1.08
  -6  -1   5   16.29    1.23
  -5  -1   5    1.69    0.58
  -5   1   5    1.49    0.33
  -5   1   5    0.74    0.32
  -5   1   5    0.90    0.30
  -5   1   5    0.99    0.31
  -5   1   5    1.51    0.34
  -4  -1   5    1.19    0.49
  -4  -1   5    1.26    0.37
  -4  -1   5    1.52    0.36
  -4   1   5    1.50    0.42
  -4   1   5    1.40    0.35
  -4   1   5    1.18    0.35
  -3  -1   5   54.49    1.55
  -3  -1   5   55.08    1.43
  -3   1   5   51.25    1.20
  -3   1   5   54.19    1.12
  -3   1   5   52.32    1.40
   3   1  -5   50.97    1.45
  -3   1   5   52.09    1.38
   2  -1  -5   94.53    1.92
  -2  -1   5   91.12    1.95
  -2   1   5   95.73    2.04
   2   1  -5   95.32    1.98
  -2   1   5   93.85    1.84
   1  -1  -5  153.74    2.74
  -1  -1   5  155.80    2.78
  -1   1   5  147.70    2.71
   1   1  -5  155.06    2.77
   0  -1  -5   34.19    1.01
   0  -1   5   34.73    0.99
   0   1  -5   33.66    0.96
   0   1   5   33.03    0.98
   1  -1   5   24.75    0.83
  -1  -1  -5   24.28    0.87
  -1   1  -5   23.89    0.81
   1   1   5   24.51    0.87
  -1   1  -5   22.09    0.74
  -2  -1  -5   22.51    0.82
  -2   1  -5   23.62    0.65
  -2   1  -5   24.29    0.74
  -3  -1  -5   28.63    1.04
  -3  -1  -5   28.90    0.93
  -3   1  -5   28.89    0.96
  -4  -1  -5   27.82    1.07
  -4  -1  -5   29.89    1.07
  -4   1  -5   29.36    0.83
  -4   1  -5   29.50    0.84
  -4   1  -5   27.74    0.88
  -4   1  -5   30.78    1.15
  -4   1  -5   31.49    1.33
  -4   1  -5   30.38    0.96
  -5  -1  -5    1.47    0.49
  -5   1  -5   -0.23    0.43
  -5   1  -5    0.69    0.23
  -5   1  -5    0.39    0.45
  -6  -1  -5   10.42    0.75
  -6  -1  -5   10.89    0.95
  -6  -1  -5   11.41    0.75
  -6   1  -5    9.86    0.93
  -6   1  -5   10.48    1.01
  -7  -1  -5   18.83    0.97
  -7   1  -5   19.90    1.00
  -7  -2   5   10.62    0.82
  -7  -2   5   11.29    0.66
  -7  -2   5   11.30    0.63
   7   2  -5   11.07    0.72
  -6  -2   5    2.79    0.63
   6   2  -5    2.74    0.51
  -5  -2   5   11.02    1.08
   5   2  -5    9.55    0.86
  -4  -2   5   34.65    1.26
  -4  -2   5   32.45    1.20
  -4  -2   5   36.34    1.45
   4   2  -5   32.60    1.22
  -4   2   5   32.44    0.98
   4   2  -5   31.81    1.30
  -4   2   5   33.29    0.97
  -4   2   5   34.59    0.88
  -3  -2   5   49.18    1.40
  -3  -2   5   49.69    1.46
  -3  -2   5   50.16    1.29
  -3  -2   5   49.23    1.55
  -3   2   5   47.41    1.42
   3   2  -5   49.55    1.48
  -3   2   5   50.29    1.21
  -3   2   5   50.77    1.46
   3   2  -5   48.50    1.36
  -2  -2   5   74.58    1.86
  -2  -2   5   75.94    1.80
  -2   2   5   77.45    1.89
   2   2  -5   75.51    1.81
   1  -2  -5    1.18    0.36
  -1  -2   5    2.21    0.39
   1   2  -5    1.78    0.37
   0  -2   5    0.88    0.32
   0  -2  -5    0.26    0.32
   0   2  -5    1.26    0.33
   0   2  -5    0.91    0.32
  -1  -2  -5   24.04    0.93
  -1   2  -5   24.88    0.84
  -1   2  -5   25.12    0.76
  -2  -2  -5  174.74    3.19
  -2   2  -5  162.05    2.81
  -2   2  -5  165.99    2.80
  -3  -2  -5   72.96    1.80
   3   2   5   73.07    1.76
  -3   2  -5   75.82    1.65
  -3   2  -5   73.08    1.59
  -3   2  -5   71.37    1.59
  -4  -2  -5    0.77    0.39
   4   2   5    0.50    0.38
  -4   2  -5    0.90    0.43
  -4   2  -5    0.67    0.48
  -5  -2  -5    7.84    0.88
   5   2   5    8.30    0.85
  -5   2  -5    7.45    0.85
  -5   2  -5    8.09    1.02
  -6  -2  -5   -0.02    0.40
  -6  -2  -5   -0.30    0.43
  -6   2  -5    0.11    0.42
  -7  -2  -5   15.45    0.78
  -7   2  -5   16.77    0.86
  -6  -3   5    4.66    0.69
   6   3  -5    4.60    0.58
  -5  -3   5    6.55    0.81
   5   3  -5    6.80    0.78
  -4  -3   5   45.85    1.34
  -4  -3   5   45.01    1.69
   4   3  -5   46.12    1.49
  -3  -3   5    3.65    0.54
  -3  -3   5    2.53    0.55
  -3  -3   5    2.20    0.49
   3   3  -5    3.60    0.53
  -3   3   5    2.47    0.40
   3   3  -5    3.14    0.53
  -3   3   5    2.47    0.44
  -2  -3   5    6.06    0.67
  -2  -3   5    5.26    0.63
  -2  -3   5    6.58    0.68
  -2   3   5    6.27    0.49
   2   3  -5    7.84    0.75
  -2   3   5    5.75    0.68
  -2   3   5    5.99    0.41
   2   3  -5    6.11    0.68
  -2   3   5    6.35    0.49
  -1  -3   5    3.85    0.54
  -1  -3   5    3.76    0.52
  -1  -3   5    4.61    0.62
   1   3  -5    3.13    0.46
  -1   3   5    3.34    0.40
  -1   3   5    4.12    0.42
  -1   3   5    2.98    0.47
   0  -3  -5   15.78    0.89
   0   3  -5   15.07    0.86
   0   3   5   16.65    0.81
   0   3   5   15.45    0.81
   0   3  -5   16.86    0.78
  -1  -3  -5    0.74    0.43
  -1  -3  -5   -0.12    0.35
  -1   3  -5    0.16    0.29
   1   3   5    0.43    0.33
   1   3   5    0.15    0.34
   1   3   5    1.03    0.38
  -2  -3  -5   11.88    0.78
  -2  -3  -5   11.30    0.86
   2   3   5   11.66    0.78
   2   3   5   11.45    0.83
  -3  -3  -5    6.69    0.75
  -3  -3  -5    8.19    0.85
   3   3   5    6.26    0.73
  -3   3  -5    7.08    0.53
   3   3   5    6.55    0.69
   4   3   5    1.91    0.50
  -5  -3  -5    9.75    0.99
   5   3   5    8.66    0.83
   6   3   5    2.02    0.48
   5   4  -5   12.48    0.79
  -4  -4   5    5.24    0.66
   4   4  -5    5.91    0.75
  -3  -4   5   13.43    0.94
   3   4  -5   13.06    0.91
  -2  -4   5   76.05    1.98
  -2   4   5   75.26    2.01
   2   4  -5   74.73    1.77
  -1  -4   5    9.59    0.85
  -1   4   5   11.96    0.75
  -1   4   5   10.29    0.55
   1   4  -5    8.60    0.75
   0  -4  -5   90.07    2.12
   0   4  -5   87.01    2.09
   0   4   5   88.51    2.24
   0   4   5   91.68    1.94
   0   4   5   88.32    2.06
  -1  -4  -5   -0.50    0.45
  -1  -4  -5    0.06    0.40
   1   4   5    0.61    0.38
   1   4   5    0.11    0.36
  -1   4  -5    0.08    0.25
  -1   4  -5   -0.22    0.24
  -2  -4  -5    0.18    0.42
  -2   4  -5   -0.04    0.30
   2   4   5    1.10    0.44
   2   4   5    1.05    0.45
  -3  -4  -5   26.04    1.12
   3   4   5   26.78    1.13
  -4  -4  -5    1.24    0.53
   4   4   5    0.42    0.43
   5   4   5   21.52    0.95
  -4  -5   5   28.19    0.80
   4   5  -5   29.60    0.98
  -3  -5   5   32.27    1.13
  -2  -5   5   14.48    0.93
  -2   5   5   13.61    0.61
  -1  -5   5    9.45    0.84
   1   5  -5   10.30    0.62
  -1   5   5    9.79    0.92
   0  -5   5   10.42    0.82
   0  -5  -5    9.65    0.90
   0   5   5   10.12    0.53
  -1  -5  -5   39.58    1.36
   1   5   5   37.69    1.17
  -2  -5  -5   17.82    0.99
   2   5   5   17.19    0.89
  -3  -5  -5    1.68    0.41
   3   5   5    2.28    0.46
   4   5   5   30.51    1.02
   0  -6   5    0.42    0.33
   0  -6  -5    1.71    0.36
   0   6   5    1.46    0.39
  -7   0   6    1.12    0.52
  -6   0   6   31.39    1.45
  -6   0   6   32.09    1.01
  -6   0   6   32.69    0.95
  -6   0   6   29.94    1.00
  -6   0   6   32.11    0.95
  -5   0   6    0.98    0.50
  -5   0   6    1.15    0.44
  -5   0   6    2.63    0.64
  -5   0   6    1.14    0.48
  -4   0   6   21.94    1.19
  -4   0   6   23.16    0.78
  -3   0   6   97.23    2.26
  -3   0   6   99.71    2.04
  -3   0   6   97.34    1.89
   2   0  -6   22.35    0.92
  -2   0   6   23.44    0.85
   1   0  -6   24.28    0.92
   0   0   6    5.53    0.54
   0   0  -6    6.47    0.59
  -1   0  -6   27.52    0.92
   1   0   6   27.92    0.95
   2   0   6  136.78    2.61
  -2   0  -6  132.06    2.61
  -2   0  -6  129.93    2.42
  -3   0  -6    7.80    0.65
  -3   0  -6    7.54    0.49
  -4   0  -6   48.63    1.54
  -4   0  -6   49.01    1.11
  -4   0  -6   48.24    1.62
  -5   0  -6    0.27    0.34
  -5   0  -6    0.15    0.43
  -5   0  -6   -0.01    0.34
  -5   0  -6    0.22    0.31
  -5   0  -6   -0.05    0.32
  -6   0  -6   61.88    1.81
  -7   0  -6    5.32    0.59
  -7   1   6    8.11    0.83
  -6  -1   6   14.47    0.99
  -6  -1   6   14.38    1.20
  -5  -1   6   44.03    1.71
  -5   1   6   43.22    1.28
  -5   1   6   43.92    1.28
  -5   1   6   43.11    1.14
  -5   1   6   44.62    1.38
  -4  -1   6   27.80    1.06
  -4  -1   6   25.66    1.32
  -4  -1   6   27.88    0.99
  -4   1   6   27.45    1.14
  -4   1   6   25.30    0.98
   4   1  -6   24.74    1.08
  -4   1   6   26.71    1.11
  -3  -1   6   18.22    0.88
  -3  -1   6   19.78    0.88
  -3  -1   6   19.90    1.07
  -3   1   6   18.29    0.71
  -3   1   6   16.82    0.89
   3   1  -6   18.09    0.93
  -3   1   6   17.92    0.68
   2  -1  -6   19.99    0.85
  -2  -1   6   19.86    0.97
  -2  -1   6   20.27    0.89
   2   1  -6   17.13    0.88
  -2   1   6   18.93    0.79
   1  -1  -6    4.53    0.56
  -1  -1   6    4.47    0.56
   1   1  -6    4.18    0.50
  -1   1   6    4.52    0.54
   0  -1   6  121.44    2.35
   0  -1  -6  118.74    2.36
   0   1   6  117.78    2.35
   0   1  -6  118.51    2.31
  -1  -1  -6   75.17    1.74
   1  -1   6   77.70    1.69
  -1   1  -6   77.76    1.61
  -1   1  -6   76.17    1.71
   1   1   6   73.43    1.73
  -2  -1  -6    0.57    0.32
  -2   1  -6    0.30    0.22
  -2   1  -6    0.36    0.28
  -3  -1  -6   30.40    1.02
  -3  -1  -6   29.93    1.14
  -3   1  -6   29.62    0.81
  -4  -1  -6    0.45    0.40
  -4   1  -6    0.24    0.30
  -4   1  -6    0.17    0.38
  -4   1  -6   -0.69    0.29
  -4   1  -6   -0.68    0.40
  -5  -1  -6    9.60    0.93
  -5   1  -6    9.04    1.02
  -5   1  -6    9.65    0.58
  -5   1  -6    9.96    0.51
  -5   1  -6   11.11    0.90
  -6  -1  -6   27.71    0.95
  -6  -1  -6   27.75    1.02
  -6  -1  -6   27.05    1.24
  -6   1  -6   27.51    1.23
  -7  -1  -6   11.66    0.80
  -7   1  -6   12.34    0.82
  -7  -2   6    9.14    0.54
  -7  -2   6    8.81    0.47
   7   2  -6    8.74    0.62
  -6  -2   6    9.40    1.05
   6   2  -6    7.93    0.80
  -5  -2   6   14.30    1.18
   5   2  -6   12.20    0.93
  -4  -2   6   19.58    1.27
  -4  -2   6   17.84    1.01
  -4  -2   6   18.21    0.98
   4   2  -6   19.79    1.03
  -4   2   6   18.89    0.80
   4   2  -6   18.53    1.10
  -4   2   6   17.83    0.85
  -4   2   6   18.02    0.87
  -3  -2   6   38.10    1.36
  -3  -2   6   40.26    1.47
  -3  -2   6   38.50    1.30
  -3  -2   6   38.62    1.18
   3   2  -6   36.96    1.37
   3   2  -6   39.17    1.26
  -3   2   6   38.73    1.41
  -3   2   6   37.85    1.19
  -3   2   6   40.08    0.92
  -3   2   6   38.21    0.77
  -2  -2   6   15.42    1.00
  -2  -2   6   16.97    0.91
   2   2  -6   16.38    0.90
  -2   2   6   15.80    0.68
  -1  -2   6    7.39    0.67
   1  -2  -6    8.74    0.72
  -1  -2   6    9.02    0.81
   1   2  -6    9.76    0.74
  -1   2   6    8.26    0.59
   0  -2   6   33.60    1.14
   0  -2   6   33.59    1.17
   0  -2  -6   33.79    1.17
   0   2  -6   35.60    1.10
   1  -2   6    0.87    0.40
  -1  -2  -6    0.45    0.35
  -1   2  -6    0.91    0.28
  -1   2  -6    1.77    0.39
  -2  -2  -6  231.56    4.14
   2  -2   6  226.60    4.17
  -2   2  -6  223.46    3.84
  -2   2  -6  231.31    3.82
  -3  -2  -6   44.90    1.40
  -3  -2  -6   42.53    1.23
  -3   2  -6   43.64    1.23
   3   2   6   44.01    1.36
  -3   2  -6   41.99    1.23
  -4  -2  -6   15.22    0.90
   4   2   6   15.55    0.94
  -4   2  -6   15.46    0.66
   5   2   6    8.76    0.86
  -5   2  -6   10.03    0.88
  -6  -2  -6    0.55    0.43
  -6  -2  -6    1.13    0.49
  -6   2  -6    1.73    0.49
  -6  -3   6   14.83    1.02
   6   3  -6   14.97    0.83
  -5  -3   6    5.22    0.73
   5   3  -6    6.73    0.74
  -4  -3   6   54.22    1.45
  -4  -3   6   52.13    1.83
   4   3  -6   53.23    1.62
  -3  -3   6    3.31    0.61
  -3  -3   6    2.59    0.50
  -3  -3   6    1.74    0.47
   3   3  -6    2.74    0.57
  -3   3   6    2.03    0.45
   3   3  -6    2.32    0.50
  -3   3   6    2.12    0.49
  -2  -3   6   12.45    1.03
  -2  -3   6   15.26    0.85
  -2  -3   6   13.28    0.89
  -2   3   6   12.24    0.68
  -2   3   6   13.09    0.69
   2   3  -6   11.89    0.83
   2   3  -6   12.89    0.89
  -2   3   6   12.95    0.57
  -1  -3   6    0.42    0.44
  -1  -3   6    0.94    0.39
  -1  -3   6    0.48    0.41
   1   3  -6    0.67    0.38
  -1   3   6   -0.38    0.23
  -1   3   6    0.37    0.30
   1   3  -6    0.69    0.36
   0  -3  -6   12.31    0.85
   0  -3  -6   13.54    0.93
   0  -3   6   12.54    0.79
   0   3  -6   12.51    0.85
   0   3   6   12.97    0.80
   0   3  -6   11.20    0.72
   0   3   6   12.11    0.79
  -1  -3  -6   61.53    1.84
  -1  -3  -6   62.05    1.65
   1   3   6   60.19    1.55
   1   3   6   65.11    1.77
   1   3   6   60.88    1.66
  -1   3  -6   59.66    1.53
  -2  -3  -6    0.47    0.41
  -2  -3  -6    0.77    0.47
   2   3   6    0.24    0.41
   2   3   6   -0.56    0.36
  -3  -3  -6   29.19    1.11
   3   3   6   29.26    1.20
   3   3   6   31.21    1.50
   4   3   6    0.48    0.44
  -5  -3  -6   18.78    1.13
   5   3   6   18.61    1.01
  -6  -3  -6    5.22    0.67
  -6  -3  -6    5.31    0.62
   6   3   6    6.36    0.68
   5   4  -6   25.26    0.94
  -4  -4   6    2.25    0.42
   4   4  -6    1.59    0.46
  -3  -4   6   12.98    0.90
  -3   4   6   12.13    0.53
   3   4  -6   11.63    0.85
  -3   4   6   12.67    0.53
  -2  -4   6   13.14    0.97
  -2   4   6   13.17    0.99
  -2   4   6   11.52    0.92
  -1  -4   6   10.56    0.86
  -1   4   6   12.27    0.79
  -1   4   6   11.87    0.60
   0  -4  -6    6.75    0.70
   0  -4   6    6.03    0.71
   0   4   6    7.81    0.71
   0   4  -6    8.18    0.79
   0   4   6    8.46    0.92
  -1  -4  -6   13.29    0.98
   1   4   6   15.26    0.89
  -2  -4  -6    0.33    0.46
  -2   4  -6    0.17    0.34
   2   4   6    0.66    0.43
   2   4   6    0.18    0.42
  -3  -4  -6   16.39    0.91
   3   4   6   17.65    0.97
   4   4   6    5.80    0.63
   5   4   6    0.03    0.36
  -3  -5   6    2.06    0.42
  -2  -5   6   18.90    0.98
  -1  -5   6    2.74    0.52
   1  -5  -6    4.29    0.62
   1   5  -6    2.53    0.31
  -1   5   6    4.14    0.62
   0  -5  -6   -0.14    0.43
   0  -5   6    0.25    0.40
   0   5   6    0.66    0.23
  -1  -5  -6    8.91    0.80
  -1   5  -6    7.83    0.73
   1   5   6    7.79    0.64
  -2  -5  -6    4.56    0.56
   2   5   6    4.49    0.53
  -3  -5  -6   14.71    0.75
   3   5   6   14.55    0.80
  -7   0   7    0.17    0.43
  -6   0   7    0.15    0.34
  -6   0   7    0.01    0.32
  -6   0   7    0.17    0.30
  -6   0   7   -0.17    0.33
  -5   0   7    0.09    0.47
  -5   0   7    0.01    0.53
  -4   0   7    0.61    0.51
  -4   0   7   -0.09    0.29
  -3   0   7   -0.39    0.29
  -3   0   7   -0.30    0.30
  -3   0   7   -0.03    0.41
  -2   0   7    0.00    0.40
  -2   0   7   -0.15    0.27
   2   0  -7    0.07    0.31
  -2   0   7   -0.02    0.31
   1   0  -7    0.05    0.32
  -1   0   7   -0.08    0.29
   0   0   7    0.16    0.32
   0   0  -7   -0.30    0.32
   1   0   7   -0.21    0.28
  -1   0  -7    0.19    0.31
  -2   0  -7    0.19    0.36
  -2   0  -7   -0.13    0.27
  -3   0  -7   -0.30    0.35
  -3   0  -7    0.37    0.26
  -4   0  -7    0.14    0.43
  -4   0  -7   -0.36    0.28
  -5   0  -7   -0.35    0.35
  -5   0  -7    0.78    0.37
  -5   0  -7   -0.21    0.30
  -6   0  -7   -0.35    0.43
  -7   0  -7   -0.09    0.37
  -7   1   7    1.14    0.46
  -6  -1   7    0.11    0.41
  -6  -1   7    0.60    0.56
  -5  -1   7   62.12    2.02
  -5   1   7   62.73    1.45
   5   1  -7   60.23    1.73
  -5   1   7   61.46    1.71
  -5   1   7   63.61    1.64
  -4  -1   7   15.30    0.84
  -4  -1   7   14.24    0.84
  -4  -1   7   16.36    1.19
  -4   1   7   15.10    1.07
   4   1  -7   14.53    0.92
  -4   1   7   13.65    0.96
  -4   1   7   13.80    0.46
  -3  -1   7   93.74    1.92
  -3  -1   7   96.93    2.21
  -3  -1   7   92.04    2.32
  -3  -1   7   92.27    2.02
   3   1  -7   94.90    2.32
  -3   1   7   91.96    1.95
  -3   1   7   95.65    1.82
   3   1  -7   94.17    2.12
  -2  -1   7    2.79    0.52
   2  -1  -7    1.54    0.39
  -2  -1   7    2.53    0.47
  -2  -1   7    2.55    0.46
   2   1  -7    1.43    0.43
  -2   1   7    2.40    0.42
  -2   1   7    2.49    0.41
  -1  -1   7   28.45    1.11
   1  -1  -7   28.16    1.06
  -1  -1   7   25.63    1.06
  -1   1   7   28.56    1.05
   1   1  -7   29.07    1.09
   0  -1  -7  124.66    2.51
   0  -1   7  113.42    2.44
   0  -1   7  122.66    2.56
   0   1   7  119.55    2.46
   0   1  -7  120.98    2.40
   1  -1   7    6.07    0.60
   1  -1   7    6.78    0.73
  -1  -1  -7    6.09    0.68
  -1   1  -7    7.14    0.67
  -1   1  -7    6.30    0.57
   1   1   7    7.42    0.69
  -2  -1  -7   21.97    0.93
  -2   1  -7   19.06    0.84
  -2   1  -7   20.74    0.76
  -3  -1  -7   -0.09    0.33
   3   1   7   -0.26    0.41
  -3   1  -7   -0.50    0.36
  -3   1  -7   -0.33    0.28
  -4  -1  -7    8.27    0.78
  -4   1  -7    7.47    0.66
  -4   1  -7    6.30    0.64
  -4   1  -7    4.88    0.60
  -5  -1  -7   51.25    1.69
  -5   1  -7   50.38    1.60
  -6  -1  -7    7.97    0.54
  -6  -1  -7    7.27    0.85
  -6  -1  -7    7.68    0.62
  -6   1  -7    8.61    0.86
  -7  -1  -7    5.94    0.64
  -7   1  -7    5.77    0.63
  -6  -2   7   40.86    1.56
   6   2  -7   41.72    1.31
  -5  -2   7   16.20    1.22
   5   2  -7   15.30    0.99
  -4  -2   7   24.32    1.41
  -4  -2   7   26.76    1.15
  -4   2   7   24.39    0.96
   4   2  -7   24.20    1.16
  -4   2   7   26.44    1.10
  -3  -2   7    0.43    0.35
  -3  -2   7    1.11    0.45
  -3  -2   7    0.03    0.41
  -3  -2   7   -0.87    0.42
  -3   2   7   -0.59    0.42
  -3   2   7    0.14    0.21
   3   2  -7   -0.23    0.35
   3   2  -7    0.04    0.41
  -3   2   7    0.15    0.29
  -2  -2   7   16.79    0.97
  -2  -2   7   17.61    0.90
  -2  -2   7   17.77    1.11
  -2   2   7   18.38    0.77
   2   2  -7   18.36    0.91
   2   2  -7   18.54    1.01
  -1  -2   7   98.78    2.13
  -1  -2   7  102.16    2.38
  -1  -2   7   98.02    2.34
   1  -2  -7   96.44    2.31
   1   2  -7   99.46    2.06
   1   2  -7  101.84    2.28
  -1   2   7  100.27    1.97
   0  -2   7   -0.04    0.35
   0  -2   7    0.46    0.35
   0  -2  -7    0.76    0.38
   0   2   7    0.12    0.32
   0   2  -7    1.09    0.36
  -1  -2  -7   51.31    1.40
  -1  -2  -7   49.19    1.51
   1   2   7   50.03    1.35
  -1   2  -7   48.66    1.27
  -1   2  -7   49.49    1.39
  -2  -2  -7    0.17    0.38
  -2  -2  -7    0.16    0.40
   2  -2   7    0.91    0.43
  -2   2  -7    0.77    0.32
   2   2   7    0.78    0.42
  -3  -2  -7    7.81    0.71
   3  -2   7    6.95    0.78
  -3  -2  -7    7.84    0.78
   3   2   7    7.96    0.80
  -3   2  -7    8.42    0.72
   4   2   7   16.81    1.01
   5   2   7   12.80    0.93
  -6  -2  -7   27.70    1.10
  -6  -2  -7   27.00    1.12
   6   2   7   27.63    1.08
   6   3  -7   -0.35    0.33
  -5  -3   7    0.08    0.49
   5   3  -7   -0.10    0.36
  -4  -3   7    7.23    0.89
  -4  -3   7    6.05    0.66
  -4  -3   7    6.98    0.81
   4   3  -7    6.26    0.79
  -4   3   7    7.33    0.49
  -3  -3   7    6.36    0.80
  -3  -3   7    9.93    0.85
  -3  -3   7    7.17    0.76
  -3   3   7    7.62    0.77
   3   3  -7    8.62    0.86
  -3   3   7    8.11    0.87
  -2  -3   7   14.20    0.96
  -2  -3   7   11.82    1.08
  -2  -3   7   13.86    0.89
   2   3  -7   13.22    0.97
  -2   3   7   14.86    0.75
   2   3  -7   12.51    0.85
  -2   3   7   14.11    0.63
  -1  -3   7   13.34    0.96
   1  -3  -7   13.87    0.91
  -1  -3   7   12.09    0.99
  -1  -3   7   13.26    0.93
  -1   3   7   12.54    0.79
  -1   3   7   12.70    0.71
   1   3  -7   13.71    0.91
   1   3  -7   13.07    0.77
   0  -3  -7    6.90    0.90
   0  -3   7    7.87    0.93
   0  -3   7    7.75    0.76
   0  -3  -7    8.26    0.79
   0   3   7    8.49    0.74
   0   3  -7    6.59    0.79
   0   3  -7    7.58    0.68
  -1  -3  -7   23.79    1.26
  -1  -3  -7   25.03    1.08
   1   3   7   24.39    1.04
   1   3   7   24.23    1.08
  -1   3  -7   26.26    0.98
   1   3   7   24.77    1.17
  -2  -3  -7   25.47    1.11
  -2  -3  -7   25.79    1.26
   2   3   7   26.50    1.29
   2   3   7   26.54    1.13
  -3  -3  -7   37.25    1.25
   3   3   7   36.14    1.34
  -4  -3  -7   22.39    1.21
   4   3   7   20.95    1.10
   5   3   7    6.00    0.64
  -6  -3  -7    6.01    0.73
   6   3   7    5.37    0.61
   5   4  -7    0.20    0.31
  -4  -4   7   16.06    0.73
   4   4  -7   18.15    0.85
  -3  -4   7   10.57    0.82
  -3   4   7    9.70    0.51
  -3   4   7   11.11    0.51
   3   4  -7    9.90    0.77
  -2  -4   7   45.21    1.52
  -2   4   7   45.57    1.63
  -1  -4   7    1.27    0.45
   1  -4  -7    2.49    0.54
  -1   4   7    2.28    0.47
  -1   4   7    1.42    0.32
   0  -4   7    9.38    0.80
   0  -4  -7   10.74    0.90
   0   4  -7   11.84    0.83
   0   4   7   11.42    0.74
  -1  -4  -7   16.33    1.00
   1   4   7   14.22    0.92
  -2  -4  -7   -0.10    0.42
   2   4   7   -0.04    0.37
   2   4   7    0.56    0.45
  -2   4  -7   -0.24    0.31
  -3  -4  -7   28.46    1.08
   3   4   7   28.83    1.22
   3   4   7   29.33    1.10
   4   4   7    5.19    0.67
   5   4   7   15.85    0.74
  -3  -5   7    0.32    0.31
  -2  -5   7   21.83    0.95
  -1  -5   7   13.64    0.86
   1  -5  -7   14.01    0.89
  -1   5   7   14.08    0.91
   0  -5  -7   22.83    1.07
   0  -5   7   24.16    1.03
  -1  -5  -7    0.04    0.41
   1   5   7    0.62    0.30
  -1   5  -7    0.07    0.33
  -2  -5  -7    7.27    0.72
   2   5   7    6.66    0.60
  -3  -5  -7    5.26    0.50
   3   5   7    5.81    0.57
  -6   0   8   17.09    0.70
  -6   0   8   15.77    0.72
  -6   0   8   16.83    0.70
  -6   0   8   16.81    0.71
  -5   0   8   60.98    1.91
  -5   0   8   61.15    1.93
  -4   0   8    1.38    0.60
   4   0  -8    0.73    0.44
  -4   0   8    1.87    0.39
  -3   0   8   14.14    1.03
  -3   0   8   14.58    0.86
  -3   0   8   13.94    0.81
   3   0  -8   14.43    0.90
   2   0  -8  137.93    2.69
  -2   0   8  137.95    2.94
  -2   0   8  137.88    2.54
  -2   0   8  141.40    2.85
   2   0  -8  137.49    2.92
  -2   0   8  138.36    2.65
   1   0  -8   35.26    1.25
  -1   0   8   33.96    1.29
  -1   0   8   33.31    1.19
   0   0  -8  140.79    2.82
   0   0   8  138.72    2.83
   0   0   8  137.57    2.86
   1   0   8   41.31    1.45
   1   0   8   41.22    1.38
  -1   0  -8   40.85    1.31
  -2   0  -8   38.54    1.19
   2   0   8   39.94    1.25
  -3   0  -8   63.42    1.71
  -4   0  -8   40.31    1.57
  -4   0  -8   43.49    1.07
  -5   0  -8   13.99    0.78
  -5   0  -8   15.60    0.82
  -6   0  -8    0.42    0.42
  -6  -1   8    0.29    0.40
  -6  -1   8    0.82    0.54
   6   1  -8   -0.81    0.34
  -6   1   8    0.30    0.44
  -5  -1   8    2.19    0.67
  -5   1   8    2.22    0.47
   5   1  -8    2.08    0.51
  -5   1   8    2.30    0.44
  -4  -1   8    4.71    0.56
  -4  -1   8    4.51    0.74
   4   1  -8    5.14    0.65
  -4   1   8    4.97    0.55
  -4   1   8    4.92    0.38
  -4   1   8    4.48    0.74
  -3  -1   8   35.38    1.12
  -3  -1   8   34.84    1.25
  -3  -1   8   35.06    1.27
  -3  -1   8   38.16    1.49
   3   1  -8   34.70    1.42
  -3   1   8   33.52    1.06
   3   1  -8   33.62    1.28
   2  -1  -8    8.57    0.77
  -2  -1   8   10.39    0.77
   2  -1  -8    7.73    0.70
  -2  -1   8    8.29    0.88
  -2  -1   8    8.57    0.71
  -2  -1   8    9.13    0.78
   2   1  -8    8.88    0.74
   2   1  -8    8.15    0.82
  -2   1   8    8.54    0.71
  -2   1   8    7.95    0.70
  -1  -1   8    7.30    0.66
  -1  -1   8    7.13    0.81
   1  -1  -8    6.51    0.71
  -1  -1   8    7.11    0.71
   1  -1  -8    7.09    0.74
  -1   1   8    7.70    0.64
  -1   1   8    7.10    0.74
  -1   1   8    7.57    0.72
   1   1  -8    7.40    0.67
   1   1  -8    7.95    0.77
   0  -1   8    1.53    0.40
   0  -1  -8    2.21    0.45
   0  -1   8    1.79    0.48
   0  -1  -8    1.31    0.45
   0   1   8    1.74    0.37
   0   1   8    1.35    0.39
   0   1  -8    0.95    0.38
   1  -1   8    2.12    0.43
   1  -1   8    2.92    0.53
  -1  -1  -8    2.43    0.44
  -1  -1  -8    2.84    0.49
  -1   1  -8    2.31    0.41
   1   1   8    2.47    0.45
   1   1   8    3.41    0.57
   1   1   8    2.87    0.52
  -2  -1  -8    0.63    0.38
   2  -1   8    0.48    0.50
  -2  -1  -8    0.44    0.32
  -2   1  -8   -0.05    0.36
  -2   1  -8    0.84    0.29
   2   1   8    0.23    0.44
  -3  -1  -8    0.58    0.37
  -3   1  -8    1.00    0.47
  -3   1  -8    1.32    0.38
   3   1   8    1.53    0.50
  -4  -1  -8   24.21    1.08
   4   1   8   23.56    1.16
  -4   1  -8   22.52    1.06
  -4   1  -8   24.28    1.03
  -5  -1  -8    1.17    0.50
  -5   1  -8    1.47    0.48
  -6  -1  -8    1.12    0.45
  -6   1  -8    1.91    0.46
  -6  -2   8    5.06    0.64
   6   2  -8    5.23    0.63
  -5  -2   8    5.49    0.76
   5   2  -8    4.36    0.62
  -4  -2   8   -0.14    0.55
  -4  -2   8   -0.49    0.41
  -4   2   8   -0.09    0.40
   4   2  -8   -0.28    0.41
  -4   2   8    0.10    0.38
  -3  -2   8   12.02    1.11
  -3  -2   8   11.33    0.96
  -3  -2   8   11.94    0.79
  -3   2   8   12.09    0.55
  -3   2   8   10.82    0.75
   3   2  -8   13.20    0.88
  -2  -2   8    1.01    0.43
   2  -2  -8    1.11    0.44
  -2  -2   8    1.11    0.53
  -2  -2   8    0.60    0.40
  -2   2   8    0.86    0.36
   2   2  -8    0.92    0.42
   2   2  -8    0.15    0.43
  -1  -2   8    6.60    0.76
   1  -2  -8    6.71    0.82
   1  -2  -8    5.82    0.64
  -1  -2   8    7.34    0.80
  -1  -2   8    7.40    0.74
  -1   2   8    6.29    0.67
   1   2  -8    5.67    0.66
   1   2  -8    6.13    0.74
   0  -2  -8    7.48    0.81
   0  -2   8    7.74    0.79
   0  -2   8    6.75    0.83
   0  -2  -8    8.27    0.77
   0  -2   8    8.95    0.80
   0   2   8    7.65    0.68
   0   2   8    8.41    0.70
   0   2  -8    8.43    0.70
  -1  -2  -8    2.23    0.53
  -1  -2  -8    3.24    0.52
   1  -2   8    2.88    0.56
  -1   2  -8    2.99    0.42
   1   2   8    3.00    0.49
  -1   2  -8    2.22    0.46
   2  -2   8    1.65    0.53
  -2  -2  -8    0.38    0.40
  -2  -2  -8    0.01    0.40
  -2   2  -8    0.59    0.35
   2   2   8    0.96    0.43
   3  -2   8    1.76    0.54
  -3   2  -8    2.59    0.51
   3   2   8    2.62    0.55
   4  -2   8    6.74    0.79
   4   2   8    5.44    0.66
   5  -2   8   -0.21    0.50
   5   2   8    0.67    0.46
  -6  -2  -8    3.82    0.53
  -6  -2  -8    6.75    0.62
  -6  -2  -8    3.95    0.51
   6   2   8    5.09    0.57
  -5  -3   8    2.30    0.57
   5   3  -8    2.20    0.42
  -4  -3   8   48.41    1.71
  -4  -3   8   47.56    1.49
  -4   3   8   46.83    1.00
   4   3  -8   44.55    1.42
  -3  -3   8   12.14    1.09
  -3  -3   8   17.22    1.21
  -3  -3   8   14.42    0.94
   3   3  -8   15.42    0.95
  -3   3   8   16.40    0.96
  -3   3   8   15.27    1.04
  -2  -3   8    5.45    0.75
  -2  -3   8    7.25    0.78
   2   3  -8    7.31    0.77
  -2   3   8    6.77    0.54
  -2   3   8    6.74    0.67
  -1  -3   8   65.33    1.82
  -1  -3   8   61.86    1.95
   1  -3  -8   62.74    1.78
  -1   3   8   65.75    1.55
   0  -3   8    1.11    0.53
   0  -3   8    2.10    0.47
   0  -3  -8    3.19    0.63
   0  -3  -8    1.87    0.52
   0   3   8    2.52    0.46
   0   3  -8    1.64    0.38
   1  -3   8   63.15    1.93
  -1  -3  -8   62.78    1.77
  -1   3  -8   64.31    1.61
   1   3   8   62.71    1.75
   1   3   8   65.65    1.60
  -2  -3  -8    7.28    0.83
   2   3   8    6.46    0.70
  -3  -3  -8   42.68    1.26
   3   3   8   44.06    1.43
   4   3   8   32.68    1.24
   5   3   8    1.08    0.40
   4   4  -8    0.58    0.31
  -3  -4   8   40.26    1.23
  -2  -4   8    8.67    0.84
  -2   4   8    9.65    0.95
   1  -4  -8    0.25    0.45
  -1  -4   8   -0.27    0.37
  -1   4   8    0.06    0.27
   0  -4  -8   -0.35    0.43
   0  -4   8    0.18    0.37
   0   4   8    0.15    0.31
  -1  -4  -8    2.71    0.58
   1   4   8    2.01    0.48
  -2  -4  -8   14.31    0.90
   2   4   8   14.98    0.97
   2   4   8   13.69    0.78
  -2   4  -8   14.08    0.67
  -3  -4  -8   12.71    0.71
   3   4   8   11.82    0.86
   3   4   8   11.99    0.75
   4   4   8   -0.59    0.34
  -2  -5   8    4.48    0.57
   2   5  -8    3.00    0.34
   1  -5  -8    9.64    0.72
  -1  -5   8   10.16    0.72
  -1   5   8   10.77    0.79
   0  -5   8    0.85    0.36
   0  -5  -8    0.60    0.37
  -1  -5  -8   14.64    0.78
   1   5   8   12.92    0.54
  -2  -5  -8    0.68    0.34
   2   5   8    0.86    0.29
  -5   0   9    0.48    0.47
   5   0  -9    0.41    0.42
  -4   0   9    0.32    0.33
  -4   0   9   -0.27    0.57
   4   0  -9    0.07    0.40
   3   0  -9   -0.28    0.37
  -3   0   9    0.11    0.37
  -3   0   9    0.46    0.56
  -3   0   9    0.00    0.38
  -2   0   9   -0.38    0.45
  -2   0   9    0.39    0.39
   2   0  -9    0.65    0.41
  -2   0   9    0.39    0.40
  -2   0   9    0.19    0.35
   2   0  -9    1.00    0.48
  -1   0   9    0.03    0.36
  -1   0   9    1.23    0.40
   1   0  -9   -0.34    0.36
  -1   0   9   -0.53    0.44
   1   0  -9    0.47    0.37
  -1   0   9    0.44    0.42
   0   0   9    0.90    0.39
   0   0  -9    0.83    0.36
   0   0  -9   -0.42    0.35
   0   0   9    0.48    0.46
   0   0   9   -0.10    0.39
   1   0   9   -0.29    0.43
   1   0   9   -0.02    0.33
  -1   0  -9   -0.65    0.34
   1   0   9    0.07    0.42
  -1   0  -9   -0.40    0.32
   2   0   9    0.50    0.56
   2   0   9   -0.11    0.40
  -2   0  -9    0.23    0.32
   3   0   9    0.03    0.44
  -3   0  -9    0.47    0.50
  -4   0  -9    0.74    0.54
  -5   0  -9    0.04    0.34
  -5   0  -9    0.02    0.40
  -5   0  -9    0.14    0.34
  -6   0  -9   -0.93    0.35
  -6  -1   9    2.06    0.54
  -6  -1   9    2.30    0.42
   6   1  -9    2.88    0.45
  -5  -1   9   27.19    1.39
  -5   1   9   26.05    1.05
   5   1  -9   26.80    1.11
  -5   1   9   26.54    0.97
  -4  -1   9   18.60    0.94
  -4  -1   9   18.87    1.29
   4   1  -9   18.42    1.07
  -3  -1   9    0.62    0.35
   3  -1  -9    1.00    0.48
  -3  -1   9    1.33    0.60
  -3  -1   9    0.87    0.42
   3   1  -9    0.73    0.44
  -3   1   9    1.05    0.38
   2  -1  -9   27.60    1.17
  -2  -1   9   29.59    1.24
   2  -1  -9   29.24    1.21
  -2  -1   9   29.72    1.25
  -2  -1   9   28.23    1.09
  -2  -1   9   30.57    1.41
   2   1  -9   28.47    1.30
  -2   1   9   31.26    1.12
  -2   1   9   32.15    1.22
   2   1  -9   30.24    1.16
  -1  -1   9   10.40    0.83
  -1  -1   9   10.67    0.82
   1  -1  -9   11.24    0.80
  -1  -1   9   11.18    1.04
   1  -1  -9   10.70    0.78
   1  -1  -9   11.22    0.93
   1   1  -9    9.47    0.78
   1   1  -9   11.72    0.90
  -1   1   9   10.49    0.88
  -1   1   9   10.96    0.86
  -1   1   9   10.88    0.74
   0  -1  -9   23.99    1.00
   0  -1   9   23.28    1.13
   0  -1  -9   23.88    1.19
   0  -1   9   24.47    1.23
   0  -1   9   23.13    1.03
   0   1  -9   24.14    0.96
   0   1  -9   25.51    1.10
   0   1   9   22.97    1.01
   0   1   9   23.71    1.11
  -1  -1  -9   25.80    1.14
  -1  -1  -9   24.22    0.96
  -1  -1  -9   24.63    0.99
   1  -1   9   26.21    1.29
   1  -1   9   24.00    1.07
   1   1   9   24.67    1.20
   1   1   9   24.26    1.06
  -1   1  -9   22.61    1.00
   1   1   9   22.50    1.16
  -2  -1  -9   19.44    0.84
   2  -1   9   19.15    1.18
  -2  -1  -9   16.86    0.97
  -2   1  -9   18.39    0.98
   2   1   9   19.06    0.99
   3  -1   9   64.77    2.09
  -3   1  -9   65.65    1.51
  -3   1  -9   65.21    1.99
   3   1   9   63.48    1.79
  -4  -1  -9    2.92    0.55
  -4   1  -9    2.86    0.50
   4   1   9    2.72    0.57
  -5  -1  -9   26.83    1.19
  -6  -1  -9    1.72    0.43
   6  -1   9    1.98    0.56
   6   2  -9    8.76    0.58
  -5  -2   9   17.94    1.18
   5   2  -9   19.47    0.97
  -4  -2   9   35.58    1.60
  -4  -2   9   34.28    1.25
  -4   2   9   34.81    1.30
   4   2  -9   33.66    1.30
  -4   2   9   32.92    1.14
  -3  -2   9   26.42    1.43
  -3  -2   9   26.63    1.06
  -3  -2   9   26.99    1.26
  -3   2   9   27.60    0.78
   3   2  -9   28.41    1.19
  -2  -2   9   -0.05    0.53
   2  -2  -9    0.05    0.40
  -2  -2   9    0.62    0.44
   2   2  -9    1.04    0.45
  -2   2   9    0.50    0.38
  -1  -2   9   14.81    0.95
  -1  -2   9   14.61    1.15
   1  -2  -9   15.52    1.06
   1  -2  -9   15.05    0.96
  -1  -2   9   14.85    1.02
   1   2  -9   15.56    0.97
   1   2  -9   15.70    0.86
  -1   2   9   15.87    0.93
   0  -2   9    3.25    0.62
   0  -2   9    1.90    0.50
   0  -2  -9    2.30    0.53
   0  -2  -9    3.47    0.58
   0   2  -9    2.00    0.45
   0   2   9    2.47    0.47
   0   2   9    2.04    0.43
   1  -2   9   24.71    1.11
   1  -2   9   24.26    1.26
  -1  -2  -9   24.95    1.12
  -1  -2  -9   28.30    1.27
   1   2   9   23.80    1.10
  -1   2  -9   24.19    1.11
  -2  -2  -9   79.05    1.84
   2  -2   9   75.16    2.20
   2   2   9   77.92    1.95
  -2   2  -9   77.91    1.78
   3  -2   9   10.00    1.11
  -3   2  -9   10.88    0.86
   3   2   9    8.93    0.89
   4  -2   9    9.91    1.04
   4   2   9    9.84    0.89
   5  -2   9    3.49    0.62
   5   2   9    5.04    0.59
  -5  -3   9    1.75    0.53
   5   3  -9    2.12    0.38
  -4  -3   9    9.01    1.01
   4   3  -9   10.01    0.73
  -3  -3   9    3.81    0.69
  -3  -3   9    4.91    0.72
  -3  -3   9    4.25    0.55
   3   3  -9    4.54    0.55
  -3   3   9    3.59    0.62
  -2  -3   9    8.08    1.04
  -2  -3   9    8.93    0.80
   2  -3  -9    9.22    0.93
   2   3  -9    7.85    0.73
  -2   3   9    8.83    0.55
  -2   3   9    8.74    0.68
   1  -3  -9   39.64    1.41
  -1  -3   9   39.25    1.44
  -1  -3   9   40.39    1.58
  -1   3   9   38.91    1.23
   0  -3   9    5.69    0.76
   0  -3  -9    6.44    0.73
   0  -3   9    6.76    0.76
   0   3   9    6.79    0.72
   1  -3   9    2.91    0.62
  -1  -3  -9    3.86    0.59
   1  -3   9    3.67    0.58
  -1   3  -9    4.91    0.65
   1   3   9    4.41    0.60
   1   3   9    4.03    0.55
   2  -3   9    4.40    0.69
  -2  -3  -9    4.20    0.57
   2   3   9    3.36    0.52
   3   3   9   29.85    1.18
   4   3   9   36.12    1.22
   5   3   9    0.39    0.34
  -3  -4   9   38.55    1.11
   2  -4  -9    0.02    0.39
  -2  -4   9    0.23    0.39
  -2   4   9    0.56    0.47
   1  -4  -9   28.87    1.18
  -1  -4   9   27.83    1.12
  -1   4   9   26.96    0.68
   0  -4  -9    6.64    0.77
   0  -4   9    6.65    0.73
   0   4   9    7.09    0.61
  -1  -4  -9    7.32    0.79
   1   4   9    7.65    0.70
  -2  -4  -9    6.61    0.67
   2   4   9    7.40    0.72
   3   4   9    0.22    0.34
   3   4   9    0.55    0.38
   0  -5   9   22.51    0.82
   0  -5  -9   22.00    0.86
   5   0 -10   -0.80    0.36
  -5   0  10    0.97    0.47
   4   0 -10    8.64    0.85
  -4   0  10   10.21    0.65
   3   0 -10   33.05    1.30
  -3   0  10   32.69    1.17
  -3   0  10   31.86    1.48
  -2   0  10  126.02    2.48
   2   0 -10  132.71    2.70
  -2   0  10  126.78    2.65
  -2   0  10  131.68    2.97
  -1   0  10    0.76    0.45
  -1   0  10   -0.49    0.37
  -1   0  10    0.14    0.44
   1   0 -10    0.30    0.46
  -1   0  10    0.47    0.52
   1   0 -10   -0.52    0.39
   0   0 -10   25.05    1.19
   0   0  10   25.42    1.25
   0   0 -10   24.03    1.03
   0   0  10   24.97    1.09
   0   0  10   26.02    1.30
   1   0  10   26.03    1.28
   1   0  10   26.64    1.14
  -1   0 -10   25.74    1.17
   1   0  10   26.68    1.38
  -1   0 -10   24.06    0.96
   2   0  10    4.91    0.64
   2   0  10    7.11    0.99
   3   0  10    5.92    0.85
   3   0  10    6.35    0.77
  -3   0 -10    5.77    0.83
   4   0  10    0.95    0.67
  -4   0 -10    0.63    0.50
   5   0  10   16.93    1.16
  -5   0 -10   17.56    0.93
  -5  -1  10   23.36    1.22
  -5   1  10   23.67    0.89
  -5   1  10   22.82    0.92
   5   1 -10   23.00    1.00
  -4  -1  10    1.03    0.41
  -4  -1  10    0.27    0.60
   4  -1 -10    1.08    0.46
   4   1 -10    0.53    0.47
  -3  -1  10   18.12    1.31
  -3  -1  10   18.42    1.00
   3  -1 -10   18.76    1.04
   3   1 -10   21.54    1.08
  -3   1  10   18.54    0.86
  -2  -1  10    3.12    0.49
   2  -1 -10    2.80    0.56
  -2  -1  10    3.55    0.68
  -2  -1  10    3.90    0.57
   2   1 -10    3.92    0.61
  -2   1  10    2.70    0.49
  -1  -1  10   21.86    1.06
   1  -1 -10   22.06    1.05
  -1  -1  10   21.72    1.15
   1  -1 -10   18.54    1.21
  -1  -1  10   21.09    1.29
  -1   1  10   21.74    1.11
  -1   1  10   21.06    0.93
   1   1 -10   21.12    1.02
  -1   1  10   20.86    1.06
   1   1 -10   19.00    1.13
   0  -1  10   38.84    1.33
   0  -1  10   38.41    1.55
   0  -1  10   38.65    1.48
   0  -1 -10   39.15    1.52
   0  -1 -10   36.92    1.31
   0  -1 -10   37.67    1.27
   0   1  10   37.39    1.43
   0   1 -10   37.91    1.19
   0   1  10   38.50    1.30
   0   1 -10   36.30    1.38
  -1  -1 -10    3.43    0.50
   1  -1  10    4.04    0.71
   1  -1  10    3.63    0.55
   1   1  10    3.80    0.55
   1   1  10    3.98    0.62
   1   1  10    3.76    0.67
  -1   1 -10    2.36    0.49
   2  -1  10    7.32    0.86
   2  -1  10    8.90    0.85
  -2   1 -10    9.28    0.87
   2   1  10    9.52    0.99
   2   1  10    9.07    0.86
   3  -1  10    0.39    0.58
  -3   1 -10    0.54    0.34
  -3   1 -10    0.20    0.50
  -3   1 -10    0.17    0.32
   3   1  10    0.29    0.58
   3   1  10    0.29    0.47
   4  -1  10   29.82    1.41
  -4   1 -10   28.78    1.05
   4   1  10   27.97    1.21
  -4   1 -10   27.62    1.04
  -5  -1 -10    2.37    0.49
   5  -1  10    1.36    0.56
   5   1  10    1.86    0.48
   5   1  10    1.48    0.60
  -5  -2  10    2.12    0.55
   5   2 -10    2.36    0.43
  -4  -2  10   43.73    1.29
  -4  -2  10   40.81    1.63
   4   2 -10   44.64    1.34
  -4   2  10   43.67    1.38
  -4   2  10   40.49    1.24
  -3  -2  10    1.48    0.63
  -3  -2  10    1.25    0.52
   3  -2 -10    1.88    0.52
  -3  -2  10    0.83    0.37
   3   2 -10    1.24    0.46
  -3   2  10    1.27    0.25
   2  -2 -10   24.05    1.13
  -2  -2  10   22.61    1.11
  -2  -2  10   25.18    1.37
   2  -2 -10   23.60    1.14
   2   2 -10   24.90    1.05
  -2   2  10   23.04    0.96
   1  -2 -10   12.58    0.91
  -1  -2  10   13.99    0.94
  -1  -2  10   13.78    1.16
  -1   2  10   14.53    0.91
   1   2 -10   13.31    0.81
   0  -2  10    4.36    0.70
   0  -2 -10    4.20    0.60
   0  -2  10    4.14    0.60
   0   2  10    3.61    0.53
   0   2  10    4.58    0.60
  -1  -2 -10   59.18    1.61
   1  -2  10   56.56    1.67
   1  -2  10   57.21    1.88
   1   2  10   59.18    1.59
  -1   2 -10   56.58    1.70
  -2  -2 -10   14.47    0.84
   2  -2  10   14.34    1.18
  -2  -2 -10   15.59    0.84
  -2   2 -10   15.20    0.76
   2   2  10   14.25    1.01
   3  -2  10    3.12    0.68
   3   2  10    1.68    0.51
  -3   2 -10    2.05    0.48
   4  -2  10    4.06    0.70
   4   2  10    4.31    0.59
  -5  -2 -10    0.37    0.41
   5   2  10   -0.47    0.36
  -4  -3  10    1.04    0.49
   4   3 -10    1.27    0.34
  -3  -3  10   10.14    0.72
  -3  -3  10   11.32    1.07
   3  -3 -10   11.59    0.82
  -3  -3  10   11.39    0.90
   3   3 -10   11.56    0.69
  -3   3  10   11.24    0.89
  -2  -3  10    0.41    0.40
  -2  -3  10   -0.07    0.52
   2  -3 -10    1.02    0.43
  -2   3  10   -0.28    0.22
   1  -3 -10   21.08    1.08
  -1  -3  10   21.38    1.10
  -1  -3  10   21.03    1.24
  -1   3  10   21.80    0.91
   0  -3 -10   21.08    1.08
   0  -3  10   23.13    1.11
   0  -3  10   22.12    1.25
   0   3  10   20.31    0.99
   1  -3  10    3.87    0.68
   1  -3  10    2.81    0.52
  -1  -3 -10    2.85    0.51
   1   3  10    3.77    0.48
   1   3  10    3.12    0.52
   2  -3  10   11.91    1.01
  -2  -3 -10   12.06    0.76
   2   3  10   13.06    0.80
   2   3  10   12.14    0.91
  -2   3 -10   13.20    0.86
   3   3  10    2.77    0.51
   4   3  10   11.62    0.73
  -3  -4  10    0.09    0.26
   2  -4 -10    1.36    0.41
  -2  -4  10    1.18    0.39
   2  -4 -10    2.15    0.40
  -2   4  10    1.73    0.44
   1  -4 -10    1.06    0.41
  -1  -4  10    0.62    0.40
   0  -4  10    9.86    0.77
   0  -4 -10    9.24    0.78
   0   4  10    9.09    0.58
   1  -4  10    5.07    0.62
  -1  -4 -10    4.28    0.53
   1   4  10    5.04    0.57
  -2  -4 -10    0.72    0.30
   2   4  10    1.42    0.36
   5   0 -11    0.18    0.35
  -5   0  11   -0.53    0.31
  -4   0  11    0.21    0.29
   4   0 -11    0.26    0.40
  -3   0  11    0.37    0.40
   3   0 -11   -0.67    0.41
  -3   0  11    0.24    0.52
  -2   0  11   -0.20    0.52
  -2   0  11    0.47    0.35
  -2   0  11    0.73    0.43
   2   0 -11    0.24    0.45
  -1   0  11    0.55    0.43
  -1   0  11    0.06    0.45
   1   0 -11    0.02    0.42
  -1   0  11   -0.86    0.53
   0   0  11    0.50    0.55
   0   0  11    0.33    0.45
   0   0 -11   -0.15    0.38
   1   0  11    0.31    0.56
   1   0  11    0.66    0.47
   2   0  11   -0.59    0.56
   2   0  11    0.37    0.43
   3   0  11   -0.40    0.58
   3   0  11   -0.21    0.44
   4   0  11    0.00    0.55
   4   0  11    0.46    0.41
  -4   0 -11    0.15    0.42
   5   0  11    1.52    0.53
   5  -1 -11    4.84    0.58
   5   1 -11    5.98    0.58
  -5   1  11    5.30    0.43
  -5   1  11    4.73    0.40
  -4  -1  11   38.34    1.11
  -4  -1  11   36.18    1.47
   4  -1 -11   40.14    1.27
   4   1 -11   38.63    1.25
  -4   1  11   38.82    1.51
  -3  -1  11    4.15    0.71
   3  -1 -11    2.71    0.53
  -3  -1  11    2.53    0.52
  -3   1  11    3.12    0.43
   3   1 -11    2.30    0.52
  -2  -1  11    0.39    0.39
  -2  -1  11    0.26    0.45
   2  -1 -11   -0.09    0.43
  -2  -1  11   -0.37    0.54
  -2   1  11   -0.58    0.39
   2   1 -11    0.13    0.40
  -1  -1  11   35.10    1.59
  -1  -1  11   36.41    1.29
   1  -1 -11   34.33    1.33
   1   1 -11   36.39    1.21
  -1   1  11   36.72    1.18
  -1   1  11   35.62    1.37
   0  -1 -11    1.81    0.50
   0  -1  11    1.17    0.61
   0  -1  11    1.93    0.51
   0   1  11    2.19    0.49
   0   1 -11    1.50    0.41
   0   1  11    2.32    0.59
   1  -1  11   20.04    1.07
  -1  -1 -11   20.96    0.95
   1  -1  11   19.87    1.25
   1   1  11   20.73    1.21
   1   1  11   19.35    1.08
   2  -1  11    9.25    1.12
   2  -1  11    7.04    0.84
  -2   1 -11    6.70    0.81
   2   1  11    5.64    0.75
   2   1  11    6.43    0.81
   3  -1  11   19.77    1.04
   3  -1  11   19.96    1.29
   3   1  11   17.91    0.99
   3   1  11   18.41    1.20
  -3   1 -11   19.25    1.12
   4  -1  11    5.52    0.75
  -4   1 -11    5.22    0.54
  -4   1 -11    5.81    0.51
   4   1  11    3.72    0.54
   4   1  11    6.64    0.86
  -5  -1 -11   13.91    0.75
  -5  -1 -11   16.27    0.65
  -5  -1 -11   13.94    0.66
   5   1  11   14.21    0.75
   4  -2 -11    1.33    0.42
  -4  -2  11    0.91    0.39
  -4  -2  11    1.49    0.53
  -4   2  11    2.10    0.40
   4   2 -11    1.35    0.40
   3  -2 -11   14.38    0.91
  -3  -2  11   14.91    0.71
  -3  -2  11   14.27    0.87
  -3  -2  11   14.56    1.13
   3   2 -11   13.38    0.81
   2  -2 -11   25.11    1.14
  -2  -2  11   25.37    1.36
  -2  -2  11   24.17    1.05
  -2   2  11   24.72    0.93
   2   2 -11   25.39    1.01
  -1  -2  11    0.37    0.41
   1  -2 -11    0.50    0.43
  -1  -2  11    0.37    0.56
   1  -2 -11   -0.20    0.44
  -1   2  11    0.09    0.41
   0  -2 -11   35.20    1.27
   0  -2 -11   35.37    1.27
   0  -2  11   36.75    1.32
   0  -2  11   33.43    1.53
   0   2  11   36.71    1.35
   0   2  11   34.66    1.14
   1  -2  11    0.08    0.54
  -1  -2 -11    0.57    0.42
   1  -2  11    0.20    0.43
  -1  -2 -11   -0.42    0.34
   1   2  11    0.55    0.44
   1   2  11   -0.22    0.44
   2  -2  11   34.06    1.47
   2  -2  11   33.65    1.26
   2   2  11   35.31    1.21
  -2   2 -11   30.33    1.58
   3  -2  11    2.47    0.62
   3   2  11    0.60    0.42
  -3   2 -11    0.98    0.40
  -3   2 -11    0.79    0.37
   4  -2  11    1.26    0.50
   4   2  11    1.83    0.43
  -3  -3  11    4.49    0.53
   3  -3 -11    5.07    0.61
  -3  -3  11    3.59    0.61
  -3  -3  11    4.99    0.47
  -3   3  11    6.56    0.66
  -2  -3  11   12.81    0.77
   2  -3 -11   13.96    0.81
  -2  -3  11   12.86    1.01
   1  -3 -11   -0.38    0.38
  -1  -3  11    0.85    0.51
  -1  -3  11    0.27    0.40
   1  -3 -11    0.33    0.38
  -1   3  11    0.79    0.35
   0  -3 -11    3.42    0.52
   0  -3  11    2.35    0.52
   0  -3  11    2.56    0.60
   0  -3 -11    3.02    0.49
   0   3  11    2.80    0.49
   1  -3  11    3.54    0.54
   1  -3  11    3.76    0.63
  -1  -3 -11    2.78    0.44
  -1  -3 -11    3.54    0.49
   1   3  11    3.66    0.51
   2  -3  11    0.02    0.49
  -2  -3 -11    0.04    0.31
  -2   3 -11   -0.39    0.35
   2   3  11   -0.35    0.34
   2   3  11    0.48    0.35
   3   3  11    8.25    0.62
  -1  -4  11    9.69    0.64
   1  -4 -11    9.56    0.66
   1  -4 -11   10.37    0.66
   0  -4 -11    9.03    0.63
   0  -4  11    8.39    0.62
   0  -4 -11    9.15    0.63
   0   4  11    7.73    0.43
  -1  -4 -11    1.74    0.36
  -1  -4 -11    1.40    0.34
   1  -4  11    1.09    0.35
  -1   4 -11    1.19    0.29
   1   4  11    1.77    0.32
  -1   4 -11    1.73    0.35
   4   0 -12   42.39    1.22
   3   0 -12   51.83    1.46
  -3   0  12   52.19    1.30
   2   0 -12   22.29    1.04
  -2   0  12   20.50    1.20
  -2   0  12   24.38    1.07
  -1   0  12    8.41    1.04
   1   0 -12    8.19    0.77
  -1   0  12    8.64    0.73
  -1   0  12    9.06    0.92
   0   0  12    8.37    1.03
   0   0  12   10.95    0.87
   0   0 -12    9.45    0.74
   1   0  12   42.49    1.58
   1   0  12   40.35    1.41
   2   0  12   25.00    1.15
   2   0  12   24.87    1.29
   3   0  12   23.46    1.24
   3   0  12   22.09    1.05
   4   0  12   49.98    1.53
   4   0  12   50.85    1.36
  -4   0 -12   51.54    1.33
   4  -1 -12    2.17    0.44
  -4  -1  12    3.29    0.35
   4   1 -12    3.09    0.44
  -4   1  12    2.69    0.45
   3  -1 -12    0.63    0.42
  -3  -1  12    0.66    0.39
  -3  -1  12    1.06    0.55
  -3   1  12    0.03    0.26
   3   1 -12   -0.09    0.36
  -2  -1  12   13.98    0.93
   2  -1 -12   14.09    0.91
  -2  -1  12   12.89    0.77
  -2  -1  12   14.37    1.15
  -2   1  12   13.86    0.83
   2   1 -12   13.68    0.84
  -1  -1  12    2.58    0.50
   1  -1 -12    1.37    0.48
  -1  -1  12    1.96    0.62
  -1   1  12    3.14    0.53
  -1   1  12    2.29    0.42
   1   1 -12    2.36    0.44
   0  -1  12    0.03    0.45
   0  -1  12    0.42    0.57
   0  -1 -12    1.05    0.43
   0   1  12    0.18    0.44
   0   1  12   -0.12    0.38
   1  -1  12    4.60    0.61
  -1  -1 -12    5.02    0.61
   1  -1  12    2.87    0.66
   1   1  12    4.52    0.59
   2  -1  12    0.35    0.42
   2  -1  12    0.37    0.56
   2   1  12    1.28    0.56
   2   1  12    0.40    0.45
   3  -1  12   21.00    0.96
   3  -1  12   21.00    1.14
   3   1  12   20.20    0.99
   3   1  12   18.54    1.08
  -3   1 -12   20.72    1.01
   4  -1  12    2.75    0.56
  -4  -1 -12    2.53    0.48
   4   1  12    2.54    0.45
   3  -2 -12    0.30    0.39
  -3  -2  12    1.23    0.41
  -3  -2  12    0.99    0.51
   3   2 -12    0.93    0.33
  -2  -2  12    0.41    0.34
  -2  -2  12   -0.50    0.41
  -2  -2  12    0.08    0.53
   2  -2 -12   -0.33    0.39
   2   2 -12   -0.25    0.30
  -2   2  12    0.72    0.32
   1  -2 -12    9.98    0.82
  -1  -2  12   12.99    1.11
  -1  -2  12   11.51    0.82
  -1   2  12   11.04    0.77
   0  -2  12   20.01    0.98
   0  -2 -12   20.17    0.96
   0  -2  12   18.85    1.20
   0   2  12   18.49    0.99
   1  -2  12   -0.01    0.40
  -1  -2 -12   -0.61    0.31
   1  -2  12    0.86    0.54
   1   2  12   -0.22    0.35
   1   2  12   -0.47    0.44
   2  -2  12   -0.59    0.36
   2  -2  12    0.47    0.54
   2   2  12   -0.19    0.39
  -2   2 -12   -0.33    0.42
   3  -2  12    0.26    0.45
   3   2  12    0.93    0.39
   2  -3 -12   28.89    0.94
  -2  -3  12   26.87    0.87
  -1  -3  12   -0.50    0.31
  -1  -3  12   -0.08    0.45
   1  -3 -12    0.86    0.38
  -1   3  12    0.07    0.24
   0  -3 -12   33.10    1.06
   0  -3  12   34.68    1.12
   0  -3  12   34.09    1.26
   0   3  12   34.71    1.02
   1  -3  12    0.90    0.39
  -1  -3 -12    0.87    0.34
   1  -3  12    0.96    0.48
  -1   3 -12    0.58    0.41
   1   3  12    0.06    0.34
   2  -3  12   23.98    0.89
   3   0 -13    0.22    0.33
  -3   0  13    0.76    0.29
   2   0 -13   -0.37    0.34
  -2   0  13   -0.22    0.34
  -1   0  13   -0.72    0.46
   1   0 -13   -0.07    0.34
  -1   0  13   -0.74    0.38
  -1   0  13   -0.05    0.31
   0   0  13   -0.31    0.38
   0   0  13    0.00    0.52
   1   0  13    0.01    0.39
   1   0  13    1.03    0.52
   2   0  13   -0.99    0.35
   2   0  13    0.02    0.49
   3   0  13    0.02    0.36
  -3   0 -13   -0.24    0.44
  -3  -1  13   11.64    0.63
   3  -1 -13   12.52    0.71
   3   1 -13   11.56    0.62
  -2  -1  13    1.18    0.55
   2  -1 -13    1.14    0.39
  -2  -1  13    2.22    0.43
   2   1 -13    1.51    0.35
  -2   1  13    2.12    0.38
  -1  -1  13   56.46    1.41
  -1  -1  13   56.58    1.74
   1  -1 -13   55.16    1.42
  -1   1  13   58.07    1.48
   0  -1  13    5.92    0.75
   0  -1 -13    5.66    0.61
   0  -1  13    7.79    0.72
   0   1  13    6.07    0.77
   0   1  13    5.14    0.63
   1  -1  13   14.12    0.88
   1  -1  13   14.09    1.07
   1   1  13   14.04    0.80
   2  -1  13   28.09    1.25
   2  -1  13   27.97    1.06
   2   1  13   28.65    1.03
   3  -1  13    6.69    0.64
   3   1  13    7.06    0.60
  -3   1 -13    6.41    0.61
   2  -2 -13    6.74    0.58
  -2  -2  13    5.25    0.48
  -1  -2  13    1.15    0.50
  -1  -2  13    1.20    0.39
   1  -2 -13    1.01    0.38
  -1   2  13    1.09    0.34
   0  -2 -13   27.37    0.90
   0  -2  13   27.89    1.22
   0  -2  13   26.24    1.00
   0   2  13   29.07    0.99
   1  -2  13   10.90    0.90
   1  -2  13   12.05    0.72
   1   2  13    9.27    0.58
   1   2  13   10.34    0.75
   2  -2  13    5.05    0.57
  -2   2 -13    4.18    0.61
   2   2  13    5.25    0.54
   2   0 -14    0.27    0.27
  -1   0  14    0.51    0.35
   0   0  14   14.99    0.69
   1   0  14    0.64    0.35
  -1  -1  14    0.49    0.29
   1  -1 -14   -0.02    0.26
  -1   1  14   -0.28    0.29
   0  -1  14    0.73    0.33
   0   1  14    0.06    0.33
   1  -1  14   13.19    0.70
   1   1  14   12.77    0.62
   0   0   0    0.00    0.00
;
_shelx_hkl_checksum              91451
#END Tags that were not found in dictionaries
loop_
_space_group_symop_operation_xyz
'x, y, z'
'-x, y+1/2, -z+1/2'
'-x, -y, -z'
'x, -y-1/2, z-1/2'
loop_
_atom_site_label
_atom_site_type_symbol
_atom_site_fract_x
_atom_site_fract_y
_atom_site_fract_z
_atom_site_U_iso_or_equiv
_atom_site_adp_type
_atom_site_occupancy
_atom_site_site_symmetry_order
_atom_site_calc_flag
_atom_site_refinement_flags_posn
Cl1 Cl 0.78766(8) 0.08424(11) 0.06287(5) 0.0160(2) Uani 1 1 d .
O1 O 0.0302(2) 0.6324(3) 0.13317(14) 0.0176(4) Uani 1 1 d .
O2 O 0.4226(3) -0.0134(3) 0.20328(14) 0.0189(4) Uani 1 1 d .
N1 N 0.1978(3) 0.2887(4) 0.18740(16) 0.0145(5) Uani 1 1 d .
H1 H 0.1189 0.2333 0.2364 0.017 Uiso 1 1 calc R
C1 C 0.6304(3) 0.3096(5) 0.02757(19) 0.0133(5) Uani 1 1 d .
C2 C 0.4570(3) 0.3330(5) 0.07881(19) 0.0114(5) Uani 1 1 d .
C3 C 0.3672(4) 0.1762(5) 0.1640(2) 0.0161(6) Uani 1 1 d .
C4 C 0.1650(4) 0.4966(5) 0.1261(2) 0.0148(6) Uani 1 1 d .
C5 C 0.3312(3) 0.5193(5) 0.05238(19) 0.0129(5) Uani 1 1 d .
loop_
_atom_site_aniso_label
_atom_site_aniso_U_11
_atom_site_aniso_U_22
_atom_site_aniso_U_33
_atom_site_aniso_U_23
_atom_site_aniso_U_13
_atom_site_aniso_U_12
Cl1 0.0129(3) 0.0156(4) 0.0195(4) 0.0018(2) 0.0011(2) 0.0038(2)
O1 0.0129(9) 0.0203(10) 0.0197(9) -0.0002(8) 0.0079(7) 0.0067(8)
O2 0.0191(10) 0.0181(10) 0.0196(9) 0.0029(8) 0.0012(8) 0.0000(9)
N1 0.0109(11) 0.0173(12) 0.0155(11) 0.0016(9) 0.0069(9) -0.0011(9)
C1 0.0119(12) 0.0134(13) 0.0144(12) -0.0045(10) -0.0022(10) -0.0002(11)
C2 0.0107(12) 0.0122(13) 0.0112(12) -0.0019(10) 0.0008(10) -0.0008(11)
C3 0.0156(13) 0.0184(14) 0.0144(12) 0.0007(11) -0.0010(10) -0.0015(12)
C4 0.0126(12) 0.0184(13) 0.0133(12) -0.0041(11) 0.0018(10) -0.0034(12)
C5 0.0119(12) 0.0135(13) 0.0133(12) -0.0036(10) 0.0019(10) -0.0017(11)
loop_
_atom_type_symbol
_atom_type_description
_atom_type_scat_dispersion_real
_atom_type_scat_dispersion_imag
_atom_type_scat_source
C C 0.0181 0.0091 'International Tables Vol C Tables 4.2.6.8 and 6.1.1.4'
H H 0.0000 0.0000 'International Tables Vol C Tables 4.2.6.8 and 6.1.1.4'
N N 0.0311 0.0180 'International Tables Vol C Tables 4.2.6.8 and 6.1.1.4'
O O 0.0492 0.0322 'International Tables Vol C Tables 4.2.6.8 and 6.1.1.4'
Cl Cl 0.3639 0.7018 'International Tables Vol C Tables 4.2.6.8 and 6.1.1.4'
loop_
_geom_angle_atom_site_label_1
_geom_angle_atom_site_label_2
_geom_angle_atom_site_label_3
_geom_angle
_geom_angle_site_symmetry_1
C4 N1 C3 113.3(2) .
C2 C1 Cl1 121.9(2) .
C5 C1 Cl1 122.1(2) 3_665
C5 C1 C2 116.0(2) 3_665
C1 C2 C3 130.2(2) .
C5 C2 C1 122.0(2) .
C5 C2 C3 107.7(2) .
O2 C3 N1 125.4(2) .
O2 C3 C2 129.0(2) .
N1 C3 C2 105.5(2) .
O1 C4 N1 126.3(2) .
O1 C4 C5 128.2(2) .
N1 C4 C5 105.5(2) .
C1 C5 C2 121.9(2) 3_665
C1 C5 C4 130.2(2) 3_665
C2 C5 C4 107.9(2) .
loop_
_geom_bond_atom_site_label_1
_geom_bond_atom_site_label_2
_geom_bond_distance
_geom_bond_site_symmetry_2
Cl1 C1 1.717(3) .
O1 C4 1.217(3) .
O2 C3 1.208(3) .
N1 C3 1.385(3) .
N1 C4 1.381(3) .
C1 C2 1.395(4) .
C1 C5 1.385(4) 3_665
C2 C3 1.500(4) .
C2 C5 1.392(4) .
C4 C5 1.501(3) .
C5 C1 1.385(4) 3_665
loop_
_geom_torsion_atom_site_label_1
_geom_torsion_atom_site_label_2
_geom_torsion_atom_site_label_3
_geom_torsion_atom_site_label_4
_geom_torsion
_geom_torsion_site_symmetry_1
_geom_torsion_site_symmetry_4
Cl1 C1 C2 C3 -3.8(4) . .
Cl1 C1 C2 C5 178.29(19) . .
O1 C4 C5 C1 -2.8(5) . 3_665
O1 C4 C5 C2 175.4(2) . .
N1 C4 C5 C1 178.3(2) . 3_665
N1 C4 C5 C2 -3.5(3) . .
C1 C2 C3 O2 -4.0(4) . .
C1 C2 C3 N1 178.3(2) . .
C1 C2 C5 C1 1.0(4) . 3_665
C1 C2 C5 C4 -177.4(2) . .
C3 N1 C4 O1 -177.6(2) . .
C3 N1 C4 C5 1.3(3) . .
C3 C2 C5 C1 -177.4(2) . 3_665
C3 C2 C5 C4 4.3(3) . .
C4 N1 C3 O2 -176.5(2) . .
C4 N1 C3 C2 1.3(3) . .
C5 C1 C2 C3 177.0(2) 3_665 .
C5 C1 C2 C5 -0.9(4) 3_665 .
C5 C2 C3 O2 174.1(3) . .
C5 C2 C3 N1 -3.5(3) . .
