#------------------------------------------------------------------------------
#$Date: 2016-02-18 17:37:37 +0200 (Thu, 18 Feb 2016) $
#$Revision: 176729 $
#$URL: svn://www.crystallography.net/cod/cif/1/51/67/1516796.cif $
#------------------------------------------------------------------------------
#
# This file is available in the Crystallography Open Database (COD),
# http://www.crystallography.net/
#
# All data on this site have been placed in the public domain by the
# contributors.
#
data_1516796
loop_
_publ_author_name
'Cao, Dennis'
'Hong, Michael'
'Blackburn, Anthea K.'
'Liu, Zhichang'
'Holcroft, James M.'
'Stoddart, J. Fraser'
_publ_section_title
;
 Two-point halogen bonding between 3,6-dihalopyromellitic diimides
;
_journal_issue                   11
_journal_name_full               'Chem. Sci.'
_journal_page_first              4242
_journal_paper_doi               10.1039/C4SC00999A
_journal_volume                  5
_journal_year                    2014
_chemical_formula_moiety         'C10 H2 Br2 N2 O4'
_chemical_formula_sum            'C10 H2 Br2 N2 O4'
_chemical_formula_weight         373.96
_chemical_name_systematic
;
 ?
;
_space_group_crystal_system      monoclinic
_space_group_IT_number           14
_space_group_name_Hall           '-P 2ybc'
_space_group_name_H-M_alt        'P 1 21/c 1'
_symmetry_space_group_name_Hall  '-P 2ybc'
_symmetry_space_group_name_H-M   'P 1 21/c 1'
_atom_sites_solution_hydrogens   geom
_atom_sites_solution_primary     direct
_audit_creation_date             2013-12-27
_audit_creation_method
;
Olex2 1.2
(compiled 2013.12.10 svn.r2853 for OlexSys, GUI svn.r4736)
;
_cell_angle_alpha                90
_cell_angle_beta                 92.257(2)
_cell_angle_gamma                90
_cell_formula_units_Z            2
_cell_length_a                   7.3668(2)
_cell_length_b                   5.4181(2)
_cell_length_c                   12.5250(4)
_cell_measurement_reflns_used    9958
_cell_measurement_temperature    100(2)
_cell_measurement_theta_max      30.490
_cell_measurement_theta_min      3.256
_cell_volume                     499.54(3)
_computing_molecular_graphics    'Olex2 (Dolomanov et al., 2009)'
_computing_publication_material  'Olex2 (Dolomanov et al., 2009)'
_computing_structure_refinement  'ShelXL (Sheldrick, 2008)'
_computing_structure_solution    'ShelXS (Sheldrick, 2008)'
_diffrn_ambient_temperature      99.9
_diffrn_measured_fraction_theta_full 0.997
_diffrn_measured_fraction_theta_max 0.997
_diffrn_measurement_device_type  'Bruker APEX-II CCD'
_diffrn_measurement_method       '\f and \w scans'
_diffrn_radiation_monochromator  graphite
_diffrn_radiation_type           MoK\a
_diffrn_radiation_wavelength     0.71073
_diffrn_reflns_av_R_equivalents  0.0610
_diffrn_reflns_av_unetI/netI     0.0232
_diffrn_reflns_Laue_measured_fraction_full 0.997
_diffrn_reflns_Laue_measured_fraction_max 0.997
_diffrn_reflns_limit_h_max       10
_diffrn_reflns_limit_h_min       -10
_diffrn_reflns_limit_k_max       7
_diffrn_reflns_limit_k_min       -7
_diffrn_reflns_limit_l_max       17
_diffrn_reflns_limit_l_min       -17
_diffrn_reflns_number            17489
_diffrn_reflns_point_group_measured_fraction_full 0.997
_diffrn_reflns_point_group_measured_fraction_max 0.997
_diffrn_reflns_theta_full        26.000
_diffrn_reflns_theta_max         30.540
_diffrn_reflns_theta_min         2.767
_diffrn_standards_number         0
_exptl_absorpt_coefficient_mu    8.122
_exptl_absorpt_correction_T_max  0.7461
_exptl_absorpt_correction_T_min  0.5562
_exptl_absorpt_correction_type   multi-scan
_exptl_absorpt_process_details
;
SADABS-2012/1 (Bruker,2012) was used for absorption correction.
wR2(int) was 0.1010 before and 0.0724 after correction.
The Ratio of minimum to maximum transmission is 0.7455.
The \l/2 correction factor is 0.0015.
;
_exptl_crystal_colour            yellow
_exptl_crystal_colour_primary    yellow
_exptl_crystal_density_diffrn    2.486
_exptl_crystal_description       plate
_exptl_crystal_F_000             356
_exptl_crystal_size_max          0.227
_exptl_crystal_size_mid          0.139
_exptl_crystal_size_min          0.054
_refine_diff_density_max         0.601
_refine_diff_density_min         -0.535
_refine_diff_density_rms         0.104
_refine_ls_extinction_method     none
_refine_ls_goodness_of_fit_ref   1.124
_refine_ls_hydrogen_treatment    constr
_refine_ls_matrix_type           full
_refine_ls_number_parameters     82
_refine_ls_number_reflns         1527
_refine_ls_number_restraints     0
_refine_ls_restrained_S_all      1.124
_refine_ls_R_factor_all          0.0241
_refine_ls_R_factor_gt           0.0216
_refine_ls_shift/su_max          0.000
_refine_ls_shift/su_mean         0.000
_refine_ls_structure_factor_coef Fsqd
_refine_ls_weighting_details
'w=1/[\s^2^(Fo^2^)+(0.0239P)^2^+0.6474P] where P=(Fo^2^+2Fc^2^)/3'
_refine_ls_weighting_scheme      calc
_refine_ls_wR_factor_gt          0.0550
_refine_ls_wR_factor_ref         0.0568
_reflns_Friedel_coverage         0.000
_reflns_number_gt                1422
_reflns_number_total             1527
_reflns_threshold_expression     'I > 2\s(I)'
_cod_data_source_file            c4sc00999a1.cif
_cod_data_source_block           p21-c
_cod_depositor_comments
'Adding full bibliography for 1516792--1516797.cif.'
_cod_database_code               1516796
#BEGIN Tags that were not found in dictionaries:
_shelxl_version_number           2013-4
_shelx_space_group_comment
;
The symmetry employed for this shelxl refinement is uniquely defined
by the following loop, which should always be used as a source of
symmetry information in preference to the above space-group names.
They are only intended as comments.
;
_shelx_estimated_absorpt_t_max   0.668
_shelx_estimated_absorpt_t_min   0.260
_olex2_refinement_description
;
1. Fixed Uiso
 At 1.2 times of:
  All N(H) groups
2.a Aromatic/amide H refined with riding coordinates:
 N1(H1)
;
_shelx_res_file
;
TITL P21-c in P2(1)/c
CELL 0.71073 7.3668 5.4181 12.525 90 92.257 90
ZERR 2 0.0002 0.0002 0.0004 0 0.002 0
LATT 1
SYMM -X,0.5+Y,0.5-Z

SFAC C H N O Br
UNIT 20 4 4 8 4

L.S. 20
PLAN  5
SIZE 0.054 0.139 0.227
TEMP -173.25
BOND
MORE -1
fmap 2
acta 52
CONF
REM <HKL>/Users/Anthea/Documents/CHEMISTRY/XRAY/n3228a/work/P21-c.hkl</HKL>

WGHT    0.023900    0.647400
FVAR       0.16581
BR1   5    0.792943    0.071052    0.432995    11.00000    0.00969    0.01428 =
         0.01463   -0.00158    0.00003    0.00371
O1    4    0.420605   -0.007290    0.293828    11.00000    0.01660    0.01645 =
         0.01790   -0.00481    0.00057    0.00004
O2    4    0.039457    0.634323    0.363865    11.00000    0.01117    0.01987 =
         0.01692   -0.00055   -0.00561    0.00464
N1    3    0.199526    0.290290    0.311545    11.00000    0.01127    0.01693 =
         0.01299   -0.00142   -0.00427   -0.00017
AFIX  43
H1    2    0.119807    0.233099    0.263554    11.00000   -1.20000
AFIX   0
C1    1    0.665246    0.478570    0.553955    11.00000    0.00866    0.01142 =
         0.00987    0.00090   -0.00129    0.00087
C2    1    0.625780    0.311400    0.472082    11.00000    0.00829    0.01111 =
         0.01055    0.00076    0.00052    0.00229
C3    1    0.456972    0.336271    0.419592    11.00000    0.00864    0.01122 =
         0.00928    0.00058   -0.00099    0.00084
C4    1    0.367138    0.180173    0.334023    11.00000    0.01011    0.01463 =
         0.01264   -0.00011   -0.00024   -0.00033
C5    1    0.170906    0.497928    0.371992    11.00000    0.00975    0.01519 =
         0.01177    0.00181   -0.00214   -0.00021
HKLF 4

REM  P21-c in P2(1)/c
REM R1 =  0.0216 for    1422 Fo > 4sig(Fo)  and  0.0241 for all    1527 data
REM     82 parameters refined using      0 restraints

END

WGHT      0.0239      0.6479

REM Highest difference peak  0.601,  deepest hole -0.535,  1-sigma level  0.104
Q1    1   0.4007  0.4208  0.4346  11.00000  0.05    0.60
Q2    1   0.0403  0.7515  0.3770  11.00000  0.05    0.54
Q3    1   0.7644 -0.0195  0.4743  11.00000  0.05    0.53
Q4    1   0.6647  0.3971  0.5113  11.00000  0.05    0.51
Q5    1   0.5352  0.3049  0.4384  11.00000  0.05    0.45
;
_shelx_res_checksum              41200
_shelx_hkl_file
;
   1   0   0   -0.27    0.02
   1   0   0   -0.26    0.03
   1   0   0   -0.29    0.02
  -1   0   0   -0.30    0.03
  -1   0   0   -0.27    0.02
   1   0   0   -0.16    0.04
  -1   0   0   -0.18    0.03
  -1   0   0   -0.33    0.02
  -2   0   0  202.23   13.98
   2   0   0  212.64   14.74
   2   0   0  209.47   13.89
   2   0   0  225.06   15.44
   2   0   0  194.50   14.27
  -2   0   0  208.96   14.74
   2   0   0  211.63   13.98
  -2   0   0  208.29   14.27
  -3   0   0  109.34    7.98
  -3   0   0  116.13    8.33
   3   0   0  123.99    7.92
   3   0   0  117.26    7.98
  -3   0   0  102.49    8.41
   3   0   0  121.78    8.81
   3   0   0  110.33    8.41
   3   0   0  130.71    8.34
  -3   0   0  128.60    8.14
   3   0   0  125.32    8.14
  -3   0   0  122.25    7.92
  -4   0   0   18.61    1.28
  -4   0   0   18.69    1.22
   4   0   0   15.31    1.34
   4   0   0   15.43    1.22
   4   0   0   18.20    1.20
   4   0   0   17.10    1.22
   4   0   0   19.37    1.28
   4   0   0   16.62    1.29
  -4   0   0   17.39    1.29
  -4   0   0   18.73    1.27
  -4   0   0   17.11    1.23
  -4   0   0   14.40    1.19
   5   0   0  298.33   26.00
   5   0   0  359.46   23.40
   5   0   0  323.49   24.59
  -5   0   0  380.97   24.84
  -5   0   0  377.49   24.60
  -5   0   0  376.54   26.59
  -5   0   0  391.51   24.62
  -5   0   0  315.34   24.03
   5   0   0  312.95   24.02
   5   0   0  320.41   23.56
  -5   0   0  354.26   23.56
  -5   0   0  367.52   23.40
   5   0   0  398.14   24.85
  -6   0   0    4.25    0.45
  -6   0   0    4.01    0.43
   6   0   0    4.20    0.41
   6   0   0    4.28    0.47
   6   0   0    3.86    0.40
  -6   0   0    3.97    0.40
  -6   0   0    3.26    0.46
  -6   0   0    3.95    0.41
   6   0   0    3.77    0.42
  -6   0   0    4.92    0.47
   6   0   0    4.06    0.44
   6   0   0    4.52    0.47
   7   0   0  137.05    8.74
  -7   0   0  112.29    8.73
   7   0   0  118.36    8.82
  -7   0   0  120.26    8.82
  -7   0   0  126.31    8.51
  -7   0   0  125.21    9.46
  -7   0   0  136.75    8.30
   7   0   0  135.59    9.24
   7   0   0  115.97    8.50
   7   0   0  110.07    8.28
  -8   0   0   45.00    2.90
  -8   0   0   43.61    3.12
   8   0   0   41.07    3.23
  -8   0   0   41.70    2.96
  -8   0   0   34.98    3.30
   8   0   0   42.30    3.11
   8   0   0   44.79    2.96
   8   0   0   41.74    2.88
   8   0   0   40.36    3.06
  -9   0   0   20.01    1.69
  -9   0   0   22.69    2.01
   9   0   0   23.96    1.74
  -9   0   0   23.04    1.73
  -9   0   0   26.00    1.88
   9   0   0   24.36    1.70
 -10   0   0   19.98    1.56
 -10   0   0   20.64    1.84
  10   0   0   19.64    1.55
  10   0   0   21.09    1.54
   0  -1   0    0.08    0.07
   0  -1   0    0.22    0.09
   0  -1   0    0.12    0.08
  -1  -1   0   29.74    1.99
   1  -1   0   26.16    1.88
   1  -1   0   27.77    1.88
   1  -1   0   27.32    1.98
   1  -1   0   28.47    1.98
  -1  -1   0   26.50    1.93
  -1  -1   0   29.67    1.72
  -1  -1   0   26.33    1.99
  -1  -1   0   29.09    1.89
   1  -1   0   29.82    2.00
   1  -1   0   26.25    1.72
   1  -1   0   30.52    1.93
  -1  -1   0   27.77    2.13
   1  -1   0   23.74    1.87
  -1  -1   0   29.72    1.88
   2  -1   0   19.15    1.20
  -2  -1   0   18.08    1.30
  -2  -1   0   19.75    1.30
   2  -1   0   18.31    1.39
   2  -1   0   18.98    1.31
   2  -1   0   17.88    1.32
  -2  -1   0   17.39    1.34
   2  -1   0   21.53    1.30
  -2  -1   0   18.86    1.32
  -2  -1   0   20.14    1.50
   2  -1   0   20.41    1.45
   2  -1   0   18.81    1.34
   2  -1   0   19.33    1.30
  -2  -1   0   18.29    1.38
  -2  -1   0   19.11    1.39
  -2   1   0   20.78    1.38
  -2   1   0   21.08    1.39
   2   1   0   17.50    1.45
   2   1   0   20.14    1.39
   2   1   0   18.99    1.38
  -2   1   0   20.85    1.34
   2   1   0   18.49    1.34
  -3  -1   0    8.77    0.57
   3  -1   0    6.90    0.54
  -3  -1   0    8.09    0.54
  -3  -1   0    6.52    0.58
   3  -1   0    7.35    0.56
   3  -1   0    6.42    0.53
   3  -1   0    7.80    0.54
   3  -1   0    8.08    0.61
   3  -1   0    6.78    0.54
  -3  -1   0    6.33    0.64
  -3  -1   0    7.33    0.53
  -3  -1   0    8.18    0.59
  -3  -1   0    6.77    0.54
   3  -1   0    6.28    0.54
   3  -1   0    7.39    0.59
  -3   1   0    7.68    0.54
  -3   1   0    7.52    0.58
   3   1   0    8.04    0.61
   3   1   0    7.18    0.59
   3   1   0    7.61    0.56
   3   1   0    7.98    0.56
  -3   1   0    8.01    0.55
  -3   1   0    8.13    0.56
   3   1   0    7.20    0.54
   3   1   0    8.01    0.59
  -3   1   0    7.21    0.59
   4  -1   0    1.16    0.19
  -4  -1   0    1.32    0.17
  -4  -1   0    1.14    0.23
   4  -1   0    1.42    0.22
  -4  -1   0    1.13    0.19
   4  -1   0    1.05    0.15
  -4  -1   0    0.95    0.18
  -4  -1   0    1.02    0.16
  -4  -1   0    1.42    0.20
   4  -1   0    0.92    0.19
  -4  -1   0    1.28    0.17
   4  -1   0    1.58    0.20
  -4  -1   0    1.03    0.18
   4  -1   0    1.29    0.18
   4  -1   0    0.95    0.16
   4   1   0    1.23    0.19
  -4   1   0    1.15    0.17
  -4   1   0    1.21    0.20
  -4   1   0    1.41    0.18
  -4   1   0    1.45    0.19
   4   1   0    1.14    0.17
   4   1   0    1.20    0.20
  -4   1   0    1.03    0.19
   4   1   0    0.98    0.19
   4   1   0    0.97    0.21
   4   1   0    1.19    0.19
   5  -1   0    2.43    0.31
  -5  -1   0    3.05    0.33
   5  -1   0    2.59    0.29
  -5  -1   0    2.73    0.32
  -5  -1   0    2.69    0.37
  -5  -1   0    2.35    0.31
   5  -1   0    2.56    0.32
  -5  -1   0    2.25    0.27
   5  -1   0    3.10    0.28
  -5  -1   0    2.59    0.32
   5  -1   0    2.72    0.31
   5  -1   0    3.26    0.36
   5  -1   0    2.25    0.26
  -5  -1   0    2.20    0.27
   5   1   0    2.41    0.32
  -5   1   0    2.12    0.30
   5   1   0    2.48    0.30
  -5   1   0    2.62    0.28
  -5   1   0    2.04    0.28
   5   1   0    3.36    0.31
   5   1   0    2.29    0.32
  -5   1   0    2.53    0.32
   5   1   0    2.45    0.28
   5   1   0    3.35    0.35
  -5   1   0    2.71    0.30
  -6  -1   0   34.38    2.99
   6  -1   0   36.93    2.59
   6  -1   0   36.12    2.75
  -6  -1   0   43.96    2.78
  -6  -1   0   35.15    2.76
   6  -1   0   38.42    2.66
  -6  -1   0   38.02    2.65
  -6  -1   0   38.96    2.80
   6  -1   0   38.30    2.79
  -6  -1   0   37.74    2.67
   6  -1   0   35.95    2.65
  -6  -1   0   40.18    2.61
   6  -1   0   34.69    2.91
  -6   1   0   39.68    2.77
  -6   1   0   42.23    2.80
   6   1   0   35.16    2.92
   6   1   0   38.21    2.80
  -6   1   0   41.03    2.69
   6   1   0   43.25    2.69
   6   1   0   37.32    2.61
   6   1   0   35.38    2.76
   7  -1   0    1.34    0.32
  -7  -1   0    1.36    0.31
   7  -1   0    1.77    0.32
  -7  -1   0    0.57    0.21
  -7  -1   0    0.93    0.24
  -7  -1   0    0.89    0.33
  -7  -1   0    0.74    0.29
  -7  -1   0    0.97    0.26
   7  -1   0    1.56    0.25
  -7  -1   0    1.12    0.29
   7  -1   0    0.60    0.23
   7   1   0    1.39    0.27
   7   1   0    0.53    0.27
  -7   1   0    0.90    0.31
  -7   1   0    0.95    0.29
  -7   1   0    1.56    0.28
   7   1   0    1.24    0.32
  -8  -1   0    1.63    0.44
  -8  -1   0    1.65    0.29
   8  -1   0    0.98    0.28
  -8  -1   0    1.54    0.30
   8  -1   0    1.41    0.35
   8  -1   0    1.72    0.28
   8  -1   0    1.66    0.39
  -8  -1   0    1.87    0.38
   8   1   0    1.61    0.38
  -8   1   0    1.38    0.39
  -8   1   0    1.39    0.37
  -8   1   0    1.79    0.32
   8   1   0    1.44    0.37
   8   1   0    1.11    0.29
  -9  -1   0    4.12    0.47
   9  -1   0    4.38    0.57
   9  -1   0    3.97    0.45
  -9  -1   0    3.96    0.63
   9  -1   0    4.56    0.49
  -9  -1   0    3.36    0.54
  -9  -1   0    3.54    0.46
   9   1   0    3.63    0.55
  -9   1   0    4.31    0.58
   9   1   0    3.80    0.48
   9   1   0    3.18    0.54
  -9   1   0    4.18    0.49
  -9   1   0    3.73    0.62
 -10  -1   0    3.37    0.44
 -10  -1   0    2.99    0.55
 -10  -1   0    2.81    0.58
  10  -1   0    3.42    0.47
 -10  -1   0    2.66    0.45
  10  -1   0    2.29    0.52
  10  -1   0    2.87    0.40
  10   1   0    3.05    0.47
 -10   1   0    2.51    0.42
 -10   1   0    3.14    0.63
 -10   1   0    2.56    0.52
   0  -2   0  120.05    8.84
   0  -2   0  126.96    9.49
   0  -2   0  120.85    8.59
   0  -2   0  134.51    7.66
   1  -2   0    2.13    0.17
  -1  -2   0    2.17    0.18
  -1  -2   0    2.26    0.23
   1  -2   0    1.53    0.21
  -1  -2   0    2.24    0.17
  -1  -2   0    1.85    0.19
  -1  -2   0    2.42    0.23
  -1  -2   0    1.87    0.25
   1  -2   0    1.51    0.18
   1  -2   0    2.01    0.17
   1  -2   0    1.94    0.25
   1  -2   0    2.20    0.22
   1   2   0    2.08    0.18
   2  -2   0   75.51    4.61
   2  -2   0   71.08    5.05
   2  -2   0   76.55    5.32
   2  -2   0   84.54    5.17
   2  -2   0   76.69    5.34
  -2  -2   0   77.15    5.28
  -2  -2   0   78.63    5.06
  -2  -2   0   81.49    5.33
  -2  -2   0   74.18    5.72
   2  -2   0   65.57    5.32
  -2  -2   0   77.06    5.33
   2  -2   0   81.87    5.06
   2  -2   0   70.86    5.03
  -2  -2   0   74.40    5.05
  -2  -2   0   77.86    5.17
  -2  -2   0   69.63    4.60
   2   2   0   69.05    5.27
   2   2   0   74.96    5.58
  -2   2   0   73.95    5.27
   3  -2   0   41.85    2.54
  -3  -2   0   45.19    3.17
   3  -2   0   37.00    2.85
   3  -2   0   37.69    2.79
   3  -2   0   40.73    2.98
  -3  -2   0   36.52    2.92
  -3  -2   0   46.82    2.95
   3  -2   0   45.67    2.95
  -3  -2   0   44.22    2.86
  -3  -2   0   38.61    2.80
   3  -2   0   40.14    2.78
  -3  -2   0   46.33    2.95
   3  -2   0   45.46    2.94
  -3  -2   0   34.92    2.53
   3   2   0   37.46    2.92
   3   2   0   40.16    2.95
   3   2   0   46.40    3.09
  -3   2   0   38.28    2.92
   3   2   0   39.87    2.84
  -3   2   0   41.38    2.83
   4  -2   0   11.98    0.85
  -4  -2   0   10.76    0.93
   4  -2   0   10.11    0.80
  -4  -2   0   10.34    0.85
   4  -2   0   13.55    0.83
  -4  -2   0   10.70    0.82
  -4  -2   0   12.40    0.86
  -4   2   0    9.84    0.80
   4   2   0   10.61    0.89
   4   2   0    9.95    0.85
   4   2   0   10.30    0.86
  -4   2   0   10.78    0.85
  -4   2   0   10.29    0.85
   4   2   0   11.79    0.81
  -5  -2   0   45.94    3.42
   5  -2   0   50.97    3.45
  -5  -2   0   44.64    3.35
  -5  -2   0   48.58    3.60
   5  -2   0   50.02    3.42
  -5  -2   0   45.81    3.86
  -5  -2   0   50.42    3.35
  -5  -2   0   53.15    3.57
   5  -2   0   51.32    3.59
   5   2   0   51.98    3.47
  -5   2   0   49.21    3.56
  -5   2   0   51.58    3.47
   5   2   0   50.17    3.57
   5   2   0   54.98    3.78
  -6  -2   0    0.29    0.25
   6  -2   0    0.18    0.23
  -6  -2   0    0.24    0.23
  -6  -2   0    0.06    0.22
  -6  -2   0    0.28    0.22
   6  -2   0    0.32    0.21
  -6  -2   0    0.22    0.15
   6   2   0    0.25    0.18
  -6   2   0    0.10    0.16
   6   2   0    0.06    0.23
  -6   2   0    0.37    0.19
   6   2   0   -0.07    0.22
  -6   2   0    0.40    0.24
  -7  -2   0   11.87    1.04
  -7  -2   0   12.33    0.92
   7  -2   0   11.82    1.00
  -7  -2   0   12.18    1.04
  -7  -2   0   11.73    1.13
  -7  -2   0   12.25    1.00
   7  -2   0   12.63    1.03
  -7   2   0   12.04    1.05
   7   2   0   12.61    1.06
   7   2   0   11.57    0.97
  -7   2   0   13.87    0.98
   7   2   0   11.02    1.08
   8  -2   0   16.77    1.40
  -8  -2   0   17.00    1.35
  -8  -2   0   16.00    1.51
   8  -2   0   16.89    1.35
  -8  -2   0   17.87    1.41
  -8  -2   0   16.58    1.26
  -8  -2   0   15.89    1.40
   8   2   0   19.25    1.34
  -8   2   0   17.15    1.32
   8   2   0   18.15    1.43
   8   2   0   18.40    1.48
  -8   2   0   15.92    1.42
  -8   2   0   16.18    1.49
  -9  -2   0   14.10    1.28
  -9  -2   0   13.20    1.17
   9  -2   0   10.89    1.13
  -9  -2   0   12.73    1.01
   9  -2   0   12.65    1.13
   9   2   0   11.31    1.18
   9   2   0   13.91    1.08
   9   2   0   13.85    1.21
  -9   2   0   11.75    1.24
  -9   2   0   12.74    1.19
  -9   2   0   12.82    1.09
 -10  -2   0    8.94    1.04
 -10  -2   0    9.21    0.96
  10  -2   0    9.38    0.95
 -10  -2   0   10.19    0.87
  10   2   0    9.97    1.02
 -10   2   0    8.84    0.99
  10   2   0    8.43    0.88
 -10   2   0    8.53    0.88
 -10   2   0    7.46    0.98
   0  -3   0   -0.03    0.13
   0  -3   0   -0.16    0.14
   0  -3   0    0.08    0.18
   0  -3   0    0.12    0.14
   1  -3   0  267.64   16.92
   1  -3   0  207.76   18.14
  -1  -3   0  248.65   18.15
  -1  -3   0  261.33   16.06
  -1  -3   0  230.12   16.43
  -1  -3   0  218.55   16.90
  -1  -3   0  262.09   14.64
   1  -3   0  227.38   14.64
   1  -3   0  230.37   16.42
  -1  -3   0  249.25   16.06
   2  -3   0   58.87    4.43
  -2  -3   0   64.67    4.44
  -2  -3   0   61.90    4.51
   2  -3   0   64.64    4.50
   2  -3   0   69.59    4.32
   2  -3   0   65.16    4.32
  -2  -3   0   64.43    4.32
  -2  -3   0   65.83    4.32
  -2  -3   0   60.90    4.90
  -2  -3   0   71.19    4.61
   2  -3   0   62.41    3.96
  -2  -3   0   55.18    3.94
   2  -3   0   70.48    4.60
   2   3   0   66.35    4.77
  -2   3   0   62.28    4.50
   2   3   0   64.16    4.51
  -3  -3   0   76.59    5.05
   3  -3   0   70.92    5.09
  -3  -3   0   68.32    4.92
   3  -3   0   64.68    4.91
  -3  -3   0   69.48    4.81
  -3  -3   0   74.77    5.45
   3  -3   0   69.85    5.05
  -3  -3   0   79.49    5.02
   3  -3   0   72.22    4.39
  -3  -3   0   66.12    4.37
   3  -3   0   70.99    4.78
  -3  -3   0   78.43    5.06
   3  -3   0   69.67    4.80
   3  -3   0   74.14    5.05
  -3  -3   0   65.31    4.80
  -3   3   0   68.61    5.01
   3   3   0   67.05    5.01
   3   3   0   75.00    5.30
  -4  -3   0   99.78    7.25
   4  -3   0   95.06    7.02
  -4  -3   0  103.72    7.19
  -4  -3   0  105.85    6.25
  -4  -3   0  107.54    7.79
   4  -3   0  100.42    7.28
   4  -3   0  102.73    6.26
   4  -3   0  103.32    6.88
   4  -3   0  102.58    6.85
  -4  -3   0   93.38    6.88
   4  -3   0  105.07    7.24
   4   3   0  102.14    7.19
  -4   3   0   98.58    7.18
   4   3   0  109.49    7.60
  -5  -3   0    6.46    0.61
  -5  -3   0    6.22    0.60
   5  -3   0    7.12    0.62
   5  -3   0    6.63    0.57
  -5  -3   0    5.88    0.62
   5  -3   0    6.59    0.70
   5  -3   0    7.03    0.59
  -5  -3   0    5.71    0.67
   5   3   0    6.05    0.63
  -5   3   0    7.08    0.62
   5   3   0    7.55    0.66
   6  -3   0  103.95    8.32
  -6  -3   0  120.19    8.35
   6  -3   0  114.99    7.92
  -6  -3   0  124.07    8.96
  -6  -3   0  128.58    8.29
   6  -3   0  129.76    8.40
  -6  -3   0  123.15    7.93
   6   3   0  109.43    8.74
  -6   3   0  113.57    8.26
   6   3   0  106.20    8.26
   7  -3   0   16.02    1.24
   7  -3   0   14.90    1.44
   7  -3   0   15.62    1.26
  -7  -3   0   16.63    1.30
  -7  -3   0   14.84    1.28
  -7  -3   0   15.22    1.24
  -7  -3   0   17.26    1.42
   7   3   0   16.14    1.31
   7   3   0   16.23    1.36
   7   3   0   15.85    1.23
  -7   3   0   13.86    1.28
  -8  -3   0   44.04    2.88
  -8  -3   0   44.24    3.13
  -8  -3   0   35.93    2.87
   8  -3   0   35.49    3.00
   8  -3   0   39.30    2.86
  -8  -3   0   37.62    2.74
   8  -3   0   39.08    2.75
  -8   3   0   40.03    2.89
   8   3   0   36.37    3.01
   8   3   0   35.80    2.75
   8   3   0   34.96    2.86
  -8   3   0   38.61    3.08
  -9  -3   0   22.38    2.15
  -9  -3   0   27.98    1.97
   9  -3   0   22.39    2.19
  -9  -3   0   23.44    2.00
   9  -3   0   27.75    1.95
   9  -3   0   25.54    1.98
  -9   3   0   25.71    2.04
   9   3   0   25.84    2.11
   9   3   0   24.86    1.91
   9   3   0   27.97    2.05
  -9   3   0   24.98    2.16
   0  -4   0    0.27    0.18
   0  -4   0    0.39    0.25
   0  -4   0    0.22    0.22
   0  -4   0    0.15    0.17
  -1  -4   0    8.65    0.66
  -1  -4   0    9.00    0.79
   1  -4   0    8.24    0.81
   1  -4   0    9.68    0.67
   1  -4   0    9.84    0.76
  -1  -4   0    8.05    0.81
  -1  -4   0    8.19    0.75
   1  -4   0    8.66    0.75
   2  -4   0    1.42    0.33
  -2  -4   0    1.18    0.26
   2  -4   0    0.45    0.20
  -2  -4   0    0.55    0.15
  -2  -4   0    0.57    0.14
  -2  -4   0    0.51    0.14
   2  -4   0    1.15    0.26
   2  -4   0    0.69    0.14
  -2  -4   0    1.09    0.30
   2  -4   0    0.64    0.14
  -2  -4   0    0.60    0.19
  -2  -4   0    0.95    0.25
   2  -4   0    0.65    0.13
   2   4   0    0.84    0.15
  -2   4   0    0.51    0.14
   3  -4   0    0.38    0.17
   3  -4   0    0.46    0.21
  -3  -4   0    0.45    0.18
  -3  -4   0    0.43    0.23
  -3  -4   0    0.63    0.19
   3  -4   0    0.11    0.21
   3  -4   0    0.19    0.31
   3  -4   0    0.37    0.16
  -3  -4   0    0.29    0.23
  -3  -4   0    0.62    0.20
  -3   4   0    0.73    0.19
   3   4   0    0.07    0.18
  -4  -4   0    6.30    0.54
  -4  -4   0    6.79    0.53
  -4  -4   0    6.26    0.60
   4  -4   0    6.79    0.61
  -4  -4   0    7.04    0.64
  -4  -4   0    6.02    0.57
   4  -4   0    6.30    0.69
   4  -4   0    6.12    0.56
  -4  -4   0    7.00    0.69
   4  -4   0    6.37    0.55
   4  -4   0    6.29    0.57
   4   4   0    5.40    0.59
  -4   4   0    5.74    0.59
   4   4   0    6.11    0.60
  -5  -4   0    1.12    0.24
  -5  -4   0    1.23    0.35
   5  -4   0    0.95    0.24
   5  -4   0    0.98    0.27
  -5  -4   0    0.64    0.28
  -5  -4   0    0.52    0.27
   5  -4   0    1.27    0.24
   5  -4   0    1.51    0.30
   5  -4   0    0.43    0.40
   5   4   0    1.05    0.29
  -5   4   0    0.73    0.28
   5   4   0    0.78    0.30
  -6  -4   0    0.34    0.31
   6  -4   0    0.48    0.30
   6  -4   0    0.67    0.45
  -6  -4   0    0.34    0.35
   6  -4   0    0.13    0.24
  -6  -4   0    0.45    0.24
  -6  -4   0    0.43    0.29
   6   4   0    0.31    0.30
  -6   4   0    0.43    0.32
   6   4   0    0.41    0.31
   7  -4   0    3.26    0.46
  -7  -4   0    3.19    0.48
   7  -4   0    3.50    0.67
  -7  -4   0    3.57    0.56
  -7  -4   0    3.08    0.48
  -7  -4   0    2.91    0.43
   7  -4   0    3.15    0.42
  -7   4   0    2.37    0.47
   7   4   0    2.31    0.48
   7   4   0    2.72    0.49
  -8  -4   0    0.14    0.41
  -8  -4   0   -0.18    0.37
  -8  -4   0   -0.18    0.38
   8  -4   0    0.22    0.31
  -8  -4   0    0.44    0.33
   8  -4   0    0.50    0.34
   8  -4   0    0.65    0.60
  -8   4   0    0.27    0.42
   8   4   0    0.11    0.41
   8   4   0   -0.68    0.35
   9  -4   0    0.14    0.36
  -9  -4   0   -0.16    0.43
  -9  -4   0    0.38    0.47
  -9  -4   0    0.98    0.40
   9  -4   0   -0.26    0.40
  -9   4   0    0.38    0.47
   9   4   0    0.13    0.51
   0  -5   0   -0.47    0.26
   0  -5   0    0.48    0.25
   0  -5   0    0.48    0.35
  -1  -5   0   63.24    3.99
  -1  -5   0   69.90    4.49
  -1  -5   0   59.34    4.64
   1  -5   0   62.69    4.64
   1  -5   0   65.31    3.99
   1  -5   0   62.70    4.48
   2  -5   0    3.45    0.46
  -2  -5   0    3.72    0.45
   2  -5   0    2.38    0.36
  -2  -5   0    2.84    0.36
   2  -5   0    3.17    0.51
  -2  -5   0    2.98    0.30
  -2  -5   0    2.56    0.50
  -2  -5   0    3.16    0.30
   2  -5   0    2.73    0.28
   2   5   0    3.00    0.31
  -3  -5   0   22.21    1.61
   3  -5   0   23.36    1.53
  -3  -5   0   21.54    1.72
   3  -5   0   23.44    1.60
  -3  -5   0   22.64    1.67
  -3  -5   0   24.66    1.52
   3  -5   0   22.18    1.85
   3  -5   0   22.70    1.72
  -3   5   0   23.86    1.67
   3   5   0   21.27    1.67
   4  -5   0   42.41    2.77
  -4  -5   0   48.94    2.77
  -4  -5   0   46.71    3.14
   4  -5   0   43.88    3.31
  -4  -5   0   44.44    3.00
   4  -5   0   41.42    2.99
  -4  -5   0   40.47    3.13
   4  -5   0   42.80    3.11
  -4   5   0   42.62    3.13
   4   5   0   43.75    3.14
   5  -5   0    1.72    0.36
   5  -5   0    1.61    0.35
  -5  -5   0    1.99    0.37
  -5  -5   0    2.29    0.38
   5  -5   0    2.49    0.43
   5  -5   0    2.77    0.63
  -5   5   0    2.15    0.39
   5   5   0    2.09    0.40
  -6  -5   0   16.63    1.44
  -6  -5   0   18.39    1.39
   6  -5   0   17.72    1.37
  -6  -5   0   18.89    1.37
   6  -5   0   16.37    1.66
   6   5   0   18.37    1.47
  -6   5   0   17.71    1.45
   7  -5   0    1.42    0.38
  -7  -5   0    2.17    0.46
  -7  -5   0    1.75    0.34
   7  -5   0    0.73    0.62
  -7  -5   0    1.55    0.44
   7  -5   0    1.73    0.32
   7   5   0    0.94    0.45
  -7   5   0    1.35    0.48
   8  -5   0   25.37    1.97
  -8  -5   0   26.12    2.08
  -8  -5   0   27.64    2.01
   8  -5   0   26.88    2.32
  -8  -5   0   23.40    1.97
   8  -5   0   26.40    1.99
  -8   5   0   25.53    2.11
   8   5   0   26.57    2.19
   8   5   0   28.34    2.12
   0  -6   0    7.46    0.73
   0  -6   0    9.43    0.96
   0  -6   0    9.36    0.91
   1  -6   0   18.60    1.52
   1  -6   0   16.07    1.36
  -1  -6   0   17.01    1.37
  -1  -6   0   15.64    1.19
  -1  -6   0   15.46    1.49
   1  -6   0   15.94    1.21
  -2  -6   0   41.15    2.80
  -2  -6   0   41.75    3.00
   2  -6   0   41.84    2.66
  -2  -6   0   40.75    2.92
   2  -6   0   38.00    2.98
  -2  -6   0   38.55    3.15
   2  -6   0   42.49    3.15
  -2  -6   0   44.16    2.65
  -3  -6   0   25.52    1.95
   3  -6   0   25.91    1.80
   3  -6   0   25.40    2.02
   3  -6   0   25.89    2.20
  -3  -6   0   27.61    1.87
  -3  -6   0   26.31    2.04
   3  -6   0   26.46    1.84
  -3  -6   0   27.31    1.79
  -3   6   0   27.65    1.94
   3   6   0   26.60    1.95
   4  -6   0   17.23    1.63
  -4  -6   0   16.36    1.34
  -4  -6   0   16.08    1.22
   4  -6   0   17.03    1.26
  -4  -6   0   17.48    1.28
  -4  -6   0   16.81    1.44
   4  -6   0   17.28    1.41
   4  -6   0   16.63    1.25
  -4   6   0   17.93    1.33
   4   6   0   16.24    1.33
   5  -6   0   20.38    1.54
  -5  -6   0   22.17    1.57
   5  -6   0   23.50    1.97
   5  -6   0   21.91    1.67
  -5  -6   0   18.39    1.63
  -5   6   0   20.47    1.65
   5   6   0   21.35    1.65
  -6  -6   0   -0.07    0.35
   6  -6   0    0.36    0.73
   6  -6   0   -0.17    0.35
  -6  -6   0   -0.14    0.38
  -6   6   0   -0.61    0.38
   6   6   0    0.40    0.41
   0  -7   0   -0.39    0.35
   0  -7   0   -0.12    0.45
   0  -7   0    0.20    0.57
  -1  -7   0   -0.89    0.59
   1  -7   0   -0.31    0.36
  -1  -7   0    0.02    0.36
   1  -7   0   -0.32    0.45
  -1  -7   0   -0.01    0.45
   1  -7   0    0.46    0.57
  -2  -7   0    1.01    0.41
  -2  -7   0    0.83    0.60
   2  -7   0    0.74    0.48
   2  -7   0    1.36    0.42
  -2  -7   0    0.01    0.45
   2  -7   0    0.30    0.65
  -3  -7   0    0.48    0.27
  -3  -7   0    0.24    0.37
   3  -7   0    0.20    0.39
   3  -7   0    0.97    0.67
  -3  -7   0    0.02    0.30
   3  -7   0    0.18    0.50
  -3  -7   0    0.12    0.51
   4  -7   0   -0.48    0.39
   4  -7   0    0.96    0.64
   4  -7   0    0.29    0.50
  -4  -7   0    0.38    0.36
  -4  -7   0    0.00    0.31
   4  -7   0    0.77    0.29
   4   7   0   -0.45    0.34
 -10   0   1    0.14    0.30
  10   0  -1   -0.08    0.31
  10   0  -1   -0.26    0.31
 -10   0   1    0.10    0.37
  -9   0   1    0.30    0.30
  -9   0   1    0.03    0.28
  -9   0   1   -0.01    0.24
  -9   0   1   -0.38    0.35
   9   0  -1    0.00    0.24
   9   0  -1   -0.05    0.27
  -8   0   1    0.36    0.32
  -8   0   1   -0.10    0.22
  -8   0   1    0.11    0.28
   8   0  -1   -0.24    0.26
  -8   0   1    0.20    0.24
  -8   0   1    0.15    0.32
   8   0  -1    0.00    0.24
   8   0  -1    0.11    0.23
   8   0  -1   -0.01    0.28
  -7   0   1    0.44    0.21
  -7   0   1    0.52    0.24
  -7   0   1    0.52    0.26
  -7   0   1    0.52    0.21
   7   0  -1    0.07    0.19
   7   0  -1    0.10    0.22
   7   0  -1    0.35    0.24
  -7   0   1    0.45    0.28
   7   0  -1    0.67    0.25
   7   0  -1    0.36    0.26
   6   0  -1    0.02    0.16
   6   0  -1   -0.23    0.19
   6   0  -1    0.00    0.15
   6   0  -1    0.07    0.17
   6   0  -1    0.17    0.18
  -6   0   1   -0.05    0.18
  -6   0   1    0.23    0.17
  -6   0   1    0.12    0.22
   6   0  -1   -0.01    0.18
  -6   0   1   -0.08    0.16
  -6   0   1   -0.01    0.20
  -6   0   1    0.23    0.20
   5   0  -1    0.64    0.16
  -5   0   1    0.39    0.17
   5   0  -1    0.39    0.18
  -5   0   1    0.53    0.17
   5   0  -1    0.56    0.17
  -5   0   1    0.44    0.15
   5   0  -1    0.61    0.20
  -5   0   1    0.62    0.17
   5   0  -1    0.51    0.19
  -5   0   1    0.26    0.19
   5   0  -1    0.69    0.19
  -5   0   1    0.65    0.19
  -5   0   1    0.33    0.15
  -4   0   1    0.00    0.15
  -4   0   1    0.08    0.12
  -4   0   1    0.03    0.14
   4   0  -1    0.03    0.14
  -4   0   1    0.07    0.13
  -4   0   1   -0.12    0.12
   4   0  -1    0.17    0.14
   4   0  -1    0.08    0.13
   4   0  -1   -0.04    0.10
  -4   0   1   -0.05    0.11
   4   0  -1    0.19    0.12
   4   0  -1    0.05    0.15
  -4   0   1   -0.11    0.11
  -3   0   1    0.23    0.12
  -3   0   1    0.37    0.13
  -3   0   1    0.44    0.13
   3   0  -1    0.22    0.12
   3   0  -1    0.50    0.13
  -3   0   1    0.52    0.15
   3   0  -1    0.43    0.12
   3   0  -1    0.42    0.11
  -3   0   1    0.32    0.12
   3   0  -1    0.33    0.13
  -3   0   1    0.35    0.13
   3   0  -1    0.67    0.15
  -3   0   1    0.56    0.12
  -3   0   1    0.69    0.12
   2   0  -1    0.03    0.08
  -2   0   1    0.09    0.08
   2   0  -1    0.22    0.08
  -2   0   1    0.12    0.10
  -2   0   1    0.11    0.08
  -2   0   1    0.10    0.08
  -2   0   1    0.25    0.09
  -2   0   1    0.06    0.09
   2   0  -1   -0.07    0.07
   2   0  -1   -0.02    0.07
   2   0  -1    0.09    0.09
  -1   0   1   -0.01    0.02
  -1   0   1   -0.11    0.04
  -1   0   1    0.02    0.03
   1   0  -1    0.01    0.05
  -1   0   1   -0.03    0.02
  -1   0   1   -0.03    0.03
   1   0  -1   -0.01    0.02
   1   0  -1   -0.02    0.04
   1   0  -1    0.03    0.02
   0   0   1   -0.02    0.01
   0   0   1    0.01    0.01
   0   0   1   -0.04    0.02
   0   0   1    0.00    0.01
   0   0  -1    0.00    0.01
   0   0  -1    0.00    0.01
   0   0  -1   -0.04    0.04
   0   0  -1    0.02    0.02
   0   0   1    0.06    0.04
   0   0   1   -0.01    0.01
   1   0   1   -0.49    0.04
  -1   0  -1   -0.48    0.03
   1   0   1   -0.48    0.02
  -1   0  -1   -0.51    0.02
   1   0   1   -0.52    0.02
  -1   0  -1   -0.27    0.05
  -1   0  -1   -0.52    0.02
   1   0   1   -0.24    0.05
  -2   0  -1    0.45    0.11
   2   0   1    0.45    0.10
  -2   0  -1    0.48    0.12
  -2   0  -1    0.51    0.13
   2   0   1    0.73    0.13
   2   0   1    0.52    0.11
   2   0   1    0.39    0.11
  -2   0  -1    0.38    0.11
   2   0   1    0.37    0.11
  -2   0  -1    0.76    0.13
   2   0   1    0.55    0.13
   3   0   1    0.00    0.10
  -3   0  -1    0.18    0.11
   3   0   1    0.07    0.09
  -3   0  -1   -0.06    0.10
   3   0   1   -0.03    0.11
   3   0   1   -0.06    0.11
  -3   0  -1    0.16    0.12
   3   0   1   -0.21    0.09
  -3   0  -1   -0.14    0.09
  -3   0  -1   -0.02    0.10
  -3   0  -1   -0.15    0.09
   3   0   1    0.03    0.11
  -4   0  -1    0.03    0.13
  -4   0  -1   -0.11    0.13
  -4   0  -1    0.02    0.13
   4   0   1    0.29    0.14
   4   0   1    0.25    0.15
   4   0   1    0.05    0.11
  -4   0  -1    0.16    0.13
  -4   0  -1   -0.09    0.11
  -4   0  -1   -0.18    0.10
   4   0   1   -0.15    0.10
   4   0   1    0.09    0.12
   4   0   1    0.16    0.13
  -5   0  -1    0.23    0.16
   5   0   1    0.00    0.14
   5   0   1    0.13    0.17
   5   0   1    0.08    0.17
  -5   0  -1    0.16    0.18
   5   0   1    0.09    0.16
  -5   0  -1    0.39    0.16
  -5   0  -1    0.07    0.16
  -5   0  -1    0.23    0.15
  -5   0  -1    0.10    0.15
   5   0   1    0.13    0.14
   5   0   1    0.09    0.16
  -6   0  -1    0.10    0.19
   6   0   1    0.40    0.21
   6   0   1    0.09    0.18
  -6   0  -1    0.05    0.20
   6   0   1   -0.16    0.14
   6   0   1   -0.04    0.19
  -6   0  -1   -0.24    0.19
  -6   0  -1   -0.13    0.19
   6   0   1   -0.21    0.16
   6   0   1   -0.05    0.17
  -6   0  -1   -0.12    0.18
  -6   0  -1    0.22    0.17
  -7   0  -1   -0.07    0.19
   7   0   1    0.19    0.24
   7   0   1    0.24    0.24
   7   0   1    0.13    0.24
  -7   0  -1    0.12    0.24
  -7   0  -1    0.23    0.24
   7   0   1    0.22    0.21
   7   0   1    0.13    0.21
  -7   0  -1    0.24    0.25
  -7   0  -1    0.24    0.19
  -8   0  -1    0.03    0.27
   8   0   1   -0.13    0.23
  -8   0  -1   -0.08    0.23
   8   0   1   -0.32    0.26
   8   0   1   -0.05    0.27
  -8   0  -1   -0.07    0.27
  -8   0  -1   -0.08    0.30
  -8   0  -1   -0.06    0.25
   8   0   1    0.09    0.22
   8   0   1    0.21    0.28
  -9   0  -1   -0.15    0.27
  -9   0  -1    0.36    0.37
  -9   0  -1   -0.15    0.26
   9   0   1   -0.14    0.33
   9   0   1    0.21    0.26
   9   0   1    0.15    0.27
  10   0   1   -0.05    0.30
 -10   0  -1   -0.48    0.29
 -10   0  -1   -0.43    0.43
  10   0   1   -0.68    0.30
  10  -1  -1   37.26    3.02
 -10  -1   1   34.57    3.03
  10  -1  -1   39.69    2.80
 -10  -1   1   42.89    2.81
 -10  -1   1   40.52    3.27
  10  -1  -1   41.37    2.84
 -10  -1   1   42.03    2.86
 -10   1   1   38.31    2.88
  10   1  -1   38.06    2.88
 -10   1   1   43.44    3.04
 -10   1   1   40.33    3.27
  -9  -1   1    7.33    0.87
  -9  -1   1    7.32    0.69
  -9  -1   1    7.38    0.81
   9  -1  -1    6.96    0.68
   9  -1  -1    6.32    0.75
   9  -1  -1    7.71    0.68
  -9  -1   1    7.19    0.68
   9   1  -1    7.72    0.72
  -9   1   1    5.99    0.75
   9   1  -1    7.39    0.80
  -9   1   1    6.34    0.83
  -9   1   1    6.91    0.72
  -8  -1   1   36.93    2.85
   8  -1  -1   34.96    2.49
   8  -1  -1   35.98    2.52
  -8  -1   1   38.59    2.50
   8  -1  -1   36.28    2.65
   8  -1  -1   35.81    2.44
  -8  -1   1   38.15    2.66
  -8  -1   1   31.18    2.44
  -8   1   1   34.27    2.83
  -8   1   1   36.13    2.53
   8   1  -1   32.81    2.51
   8   1  -1   37.10    2.63
  -8   1   1   29.93    2.60
   8   1  -1   34.85    2.75
  -7  -1   1   14.67    1.12
  -7  -1   1   14.57    1.06
   7  -1  -1   12.41    1.05
   7  -1  -1   14.93    1.08
  -7  -1   1   13.98    1.26
  -7  -1   1   13.95    1.16
   7  -1  -1   15.34    1.14
  -7  -1   1   14.45    1.18
   7  -1  -1   13.36    1.16
  -7  -1   1   14.12    1.08
  -7  -1   1   15.14    1.16
   7   1  -1   15.28    1.22
   7   1  -1   13.32    1.09
  -7   1   1   17.04    1.19
  -7   1   1   15.31    1.27
   7   1  -1   12.01    1.16
  -7   1   1   13.74    1.09
  -6  -1   1   10.77    0.77
  -6  -1   1    9.31    0.85
  -6  -1   1   11.09    0.85
  -6  -1   1   10.80    0.93
   6  -1  -1   10.46    0.85
   6  -1  -1    9.12    0.76
  -6  -1   1   10.29    0.78
   6  -1  -1   10.22    0.82
   6  -1  -1    9.91    0.83
   6  -1  -1    8.74    0.77
  -6  -1   1   10.57    0.86
  -6  -1   1    9.26    0.81
   6   1  -1    9.69    0.85
  -6   1   1   10.58    0.85
   6   1  -1   11.20    0.89
   6   1  -1   11.24    0.88
  -6   1   1    8.89    0.90
  -6   1   1    8.91    0.79
   6   1  -1   10.25    0.78
   6   1  -1   10.09    0.80
  -6   1   1   10.99    0.86
  -5  -1   1  110.34    8.50
   5  -1  -1  129.47    8.50
  -5  -1   1  114.16    8.86
   5  -1  -1  141.63    8.87
  -5  -1   1  116.22    8.96
  -5  -1   1  137.41    8.43
  -5  -1   1  128.82    8.65
   5  -1  -1  131.75    8.43
   5  -1  -1  132.22    8.96
  -5  -1   1  122.72    8.88
   5  -1  -1  109.67    8.64
  -5  -1   1  125.73    9.60
   5   1  -1  122.53    8.43
   5   1  -1  144.73    8.97
  -5   1   1  139.15    8.66
  -5   1   1  126.76    8.50
  -5   1   1  127.80    8.66
  -5   1   1  127.11    8.44
   5   1  -1  143.77    8.89
   5   1  -1  110.53    8.65
  -5   1   1  126.88    8.88
   5   1  -1  121.01    8.50
   5   1  -1  119.33    9.38
  -5   1   1  125.15    9.59
  -5   1   1  122.00    8.96
   4  -1  -1    9.47    0.75
   4  -1  -1    9.57    0.74
  -4  -1   1   10.73    0.70
  -4  -1   1    9.26    0.75
  -4  -1   1   10.63    0.75
   4  -1  -1    9.87    0.70
   4  -1  -1    9.59    0.73
  -4  -1   1   10.21    0.69
  -4  -1   1    9.80    0.82
  -4  -1   1    9.49    0.75
   4  -1  -1    9.05    0.68
  -4  -1   1    8.21    0.71
  -4  -1   1    9.02    0.70
   4  -1  -1    9.11    0.68
  -4   1   1    9.40    0.71
   4   1  -1    9.81    0.72
  -4   1   1    9.21    0.75
   4   1  -1    9.88    0.79
   4   1  -1   10.06    0.70
  -4   1   1    8.53    0.74
  -4   1   1   10.52    0.70
  -4   1   1    9.61    0.71
   4   1  -1    8.50    0.75
   4   1  -1    8.83    0.71
   4   1  -1    7.73    0.74
   3  -1  -1  319.44   23.39
   3  -1  -1  328.31   22.63
   3  -1  -1  354.40   22.03
  -3  -1   1  380.67   23.19
  -3  -1   1  310.05   22.03
  -3  -1   1  348.50   22.04
  -3  -1   1  302.87   22.19
  -3  -1   1  335.35   22.63
  -3  -1   1  306.69   25.04
   3  -1  -1  317.55   22.03
  -3  -1   1  334.04   23.39
   3  -1  -1  301.82   22.19
   3   1  -1  340.64   22.19
  -3   1   1  354.29   23.39
  -3   1   1  295.77   22.18
   3   1  -1  345.00   23.17
  -3   1   1  345.22   23.17
   3   1  -1  312.36   24.50
  -3   1   1  305.95   22.04
   3   1  -1  347.77   22.04
   3   1  -1  351.11   23.40
  -3   1   1  352.16   22.64
   3   1  -1  340.09   22.64
  -2  -1   1   11.76    0.87
   2  -1  -1   11.88    0.86
  -2  -1   1   11.60    0.80
   2  -1  -1   12.44    0.80
  -2  -1   1   13.88    0.81
   2  -1  -1   12.24    0.83
  -2  -1   1    9.84    0.85
  -2  -1   1   12.66    0.82
  -2  -1   1   11.81    0.82
   2  -1  -1   11.22    0.80
  -2  -1   1   12.66    0.94
   2   1  -1   11.65    0.86
   2   1  -1   10.53    0.90
  -2   1   1   11.42    0.86
  -2   1   1   10.88    0.82
   2   1  -1   10.26    0.83
  -2   1   1   13.38    0.86
  -1  -1   1  127.75    9.85
  -1  -1   1  137.91   10.17
  -1  -1   1  146.48    9.65
  -1  -1   1  149.47    9.65
   1  -1  -1  148.76   10.17
  -1  -1   1  137.29   10.14
   1  -1  -1  145.88    9.65
  -1  -1   1  135.50   10.08
  -1  -1   1  163.39   10.90
   1  -1  -1  152.80   10.17
  -1  -1   1  149.70   10.17
   1  -1  -1  132.98    9.65
   1  -1  -1  148.19   10.13
   0  -1   1   66.22    4.75
   0  -1   1   73.78    5.10
   0  -1  -1   65.19    4.11
   0  -1  -1   65.12    4.50
   0  -1  -1   70.61    4.74
   0  -1  -1   65.17    4.75
   0  -1  -1   68.42    4.50
   0  -1   1   67.28    4.75
   0  -1   1   61.47    4.74
   0  -1  -1   65.06    4.61
   0  -1   1   67.97    4.51
   0  -1   1   65.87    4.50
   0  -1   1   76.29    4.61
   0  -1  -1   64.56    4.75
  -1  -1  -1   26.82    1.75
   1  -1   1   22.58    1.86
   1  -1   1   28.46    1.60
  -1  -1  -1   25.32    1.60
  -1  -1  -1   25.31    1.76
  -1  -1  -1   23.88    1.80
   1  -1   1   25.86    1.85
   1  -1   1   28.45    1.76
  -1  -1  -1   24.19    1.76
  -1  -1  -1   23.76    1.85
   1  -1   1   27.88    1.99
   1  -1   1   29.09    1.75
   1  -1   1   24.67    1.80
  -1  -1  -1   27.49    1.85
   1  -1   1   29.40    1.76
  -1  -1  -1   25.54    1.98
   1  -1   1   22.70    1.85
  -1  -1  -1   24.15    1.83
   1   1   1   23.83    1.83
   2  -1   1  561.95   35.18
   2  -1   1  453.27   34.26
   2  -1   1  473.00   34.49
   2  -1   1  500.08   31.36
   2  -1   1  531.96   34.37
  -2  -1  -1  537.79   34.50
  -2  -1  -1  548.97   35.20
   2  -1   1  509.75   34.26
  -2  -1  -1  568.05   36.05
  -2  -1  -1  498.75   36.36
  -2  -1  -1  563.77   34.26
  -2  -1  -1  456.61   35.18
   2  -1   1  512.61   36.36
  -2  -1  -1  561.31   38.92
   2   1   1  512.63   36.01
  -2   1  -1  502.69   36.01
   2   1   1  476.36   36.36
   2   1   1  559.10   38.09
   2   1   1  467.13   35.20
  -2   1  -1  516.51   35.20
  -2   1  -1  530.07   36.36
   3  -1   1   16.23    1.16
  -3  -1  -1   17.57    1.16
   3  -1   1   16.53    1.16
  -3  -1  -1   18.76    1.35
   3  -1   1   16.61    1.30
   3  -1   1   17.60    1.19
   3  -1   1   15.99    1.19
  -3  -1  -1   16.34    1.16
  -3  -1  -1   15.42    1.23
  -3  -1  -1   18.76    1.26
   3  -1   1   17.12    1.06
  -3  -1  -1   17.97    1.19
   3  -1   1   15.66    1.18
   3  -1   1   16.25    1.25
  -3  -1  -1   15.57    1.19
  -3   1  -1   17.81    1.20
  -3   1  -1   19.84    1.24
  -3   1  -1   19.01    1.18
   3   1   1   15.17    1.16
  -3   1  -1   19.64    1.20
   3   1   1   15.13    1.30
  -3   1  -1   14.28    1.16
   3   1   1   18.39    1.24
   3   1   1   17.98    1.20
   3   1   1   16.33    1.18
   3   1   1   15.32    1.25
  -3   1  -1   17.28    1.25
   4  -1   1   88.66    5.68
   4  -1   1   84.93    6.32
   4  -1   1   80.42    5.98
  -4  -1  -1   86.84    6.47
   4  -1   1   86.87    5.73
  -4  -1  -1   90.89    5.68
   4  -1   1   81.94    5.67
  -4  -1  -1   97.48    5.68
   4  -1   1   89.83    5.71
   4  -1   1   93.15    5.83
  -4  -1  -1   82.40    5.73
  -4  -1  -1   79.58    6.04
  -4  -1  -1   91.70    5.99
   4  -1   1   81.82    6.04
  -4   1  -1   87.21    5.73
  -4   1  -1   85.84    5.98
  -4   1  -1   84.31    5.84
  -4   1  -1   91.52    6.05
  -4   1  -1   72.88    5.68
   4   1   1   78.37    6.32
   4   1   1   80.72    5.84
   4   1   1   73.80    5.68
   4   1   1   74.60    5.98
   4   1   1   94.09    6.05
  -5  -1  -1  101.07    6.54
   5  -1   1   97.43    6.47
  -5  -1  -1   97.51    6.83
   5  -1   1  106.76    6.54
  -5  -1  -1  106.39    6.83
  -5  -1  -1   98.75    6.65
  -5  -1  -1   92.98    6.47
   5  -1   1   91.50    6.89
   5  -1   1   89.41    6.64
   5  -1   1   85.07    7.20
  -5  -1  -1   85.00    7.37
   5  -1   1   93.85    6.82
  -5  -1  -1  102.08    6.90
  -5   1  -1   93.44    6.48
   5   1   1  102.55    6.83
  -5   1  -1  102.42    6.90
   5   1   1  105.81    6.54
  -5   1  -1   94.28    6.53
   5   1   1  101.41    6.66
   5   1   1  105.63    6.49
  -5   1  -1   81.41    6.65
   5   1   1   96.42    6.90
   6  -1   1   42.66    3.35
   6  -1   1   48.48    3.27
   6  -1   1   45.36    3.32
   6  -1   1   46.92    3.51
  -6  -1  -1   48.53    3.33
  -6  -1  -1   51.35    3.51
  -6  -1  -1   51.40    3.37
  -6  -1  -1   48.03    3.77
  -6  -1  -1   44.02    3.46
  -6  -1  -1   48.92    3.47
  -6  -1  -1   48.94    3.28
   6  -1   1   48.63    3.67
   6  -1   1   46.58    3.47
   6   1   1   54.76    3.69
  -6   1  -1   56.53    3.39
   6   1   1   46.83    3.52
   6   1   1   43.34    3.28
  -6   1  -1   43.84    3.51
   6   1   1   45.28    3.47
   6   1   1   52.81    3.38
  -6   1  -1   53.33    3.49
   7  -1   1  119.94    9.12
   7  -1   1  100.78    8.25
  -7  -1  -1  132.44    8.65
  -7  -1  -1  122.01    8.72
  -7  -1  -1  104.37    8.18
   7  -1   1  131.14    8.73
  -7  -1  -1  117.40    9.34
  -7  -1  -1  127.42    8.66
   7  -1   1  129.54    8.40
  -7  -1  -1  115.09    8.27
   7  -1   1  128.19    8.18
  -7   1  -1  134.08    8.65
   7   1   1  126.74    9.14
   7   1   1  125.76    8.42
  -7   1  -1  122.74    8.43
   7   1   1  119.15    8.63
  -8  -1  -1    0.36    0.32
  -8  -1  -1    0.00    0.28
   8  -1   1   -0.03    0.24
  -8  -1  -1    0.09    0.22
   8  -1   1    0.08    0.22
   8  -1   1    0.57    0.31
  -8  -1  -1   -0.10    0.22
   8  -1   1    0.35    0.24
   8   1   1    0.05    0.24
   8   1   1    0.25    0.28
  -8   1  -1    0.14    0.29
   8   1   1    0.34    0.29
  -8   1  -1    0.01    0.30
  -8   1  -1    0.12    0.25
   9  -1   1   29.00    2.07
   9  -1   1   30.87    2.27
  -9  -1  -1   27.40    2.11
  -9  -1  -1   29.77    2.27
   9  -1   1   29.07    2.10
  -9  -1  -1   28.40    2.45
  -9  -1  -1   29.51    2.07
  -9   1  -1   30.88    2.15
  -9   1  -1   27.83    2.42
   9   1   1   28.08    2.34
   9   1   1   26.84    2.13
  -9   1  -1   33.70    2.26
   9   1   1   28.95    2.25
 -10  -1  -1   22.84    1.79
 -10  -1  -1   27.28    1.83
  10  -1   1   26.62    1.82
 -10  -1  -1   22.43    2.13
  10  -1   1   23.37    1.97
  10  -1   1   24.79    1.81
 -10  -1  -1   21.43    1.97
  10   1   1   23.09    1.85
 -10   1  -1   26.10    1.87
 -10   1  -1   29.45    2.01
  10   1   1   23.10    2.04
 -10   1  -1   23.63    2.13
 -10  -2   1    0.66    0.35
 -10  -2   1    0.38    0.38
 -10  -2   1   -0.13    0.40
  10  -2  -1    0.03    0.39
 -10   2   1    0.87    0.33
  10   2  -1    0.75    0.47
 -10   2   1    0.21    0.42
  10   2  -1    0.68    0.37
 -10   2   1   -0.22    0.44
  -9  -2   1   35.17    2.27
   9  -2  -1   31.11    2.45
   9  -2  -1   30.19    2.35
  -9  -2   1   31.09    2.47
  -9  -2   1   32.88    2.66
   9   2  -1   32.90    2.47
   9   2  -1   30.12    2.56
  -9   2   1   34.89    2.36
  -9   2   1   26.12    2.61
  -9   2   1   36.09    2.49
   9   2  -1   32.38    2.35
  -8  -2   1   21.90    1.85
  -8  -2   1   22.30    1.72
   8  -2  -1   20.57    1.69
  -8  -2   1   19.74    1.69
  -8  -2   1   19.18    1.62
  -8  -2   1   21.73    1.55
   8  -2  -1   20.42    1.63
   8   2  -1   20.86    1.63
   8   2  -1   22.86    1.79
  -8   2   1   22.86    1.62
  -8   2   1   20.34    1.71
  -8   2   1   23.15    1.85
   8   2  -1   25.00    1.74
  -7  -2   1   42.12    2.98
   7  -2  -1   38.52    2.75
  -7  -2   1   35.88    2.74
   7  -2  -1   35.92    2.54
   7  -2  -1   35.49    2.63
  -7  -2   1   36.25    2.76
  -7  -2   1   39.66    2.63
  -7  -2   1   34.76    2.54
   7   2  -1   36.22    2.75
  -7   2   1   39.42    2.74
  -7   2   1   40.79    2.65
   7   2  -1   35.55    2.88
   7   2  -1   34.81    2.64
  -7   2   1   36.74    2.95
  -6  -2   1   19.83    1.61
   6  -2  -1   22.83    1.62
   6  -2  -1   20.69    1.55
  -6  -2   1   23.08    1.49
  -6  -2   1   22.36    1.56
  -6  -2   1   22.83    1.64
  -6  -2   1   23.39    1.76
   6   2  -1   20.07    1.62
  -6   2   1   19.30    1.61
  -6   2   1   20.30    1.54
   6   2  -1   21.15    1.70
   6   2  -1   19.57    1.54
   5  -2  -1    1.02    0.24
  -5  -2   1    1.32    0.24
  -5  -2   1    1.35    0.19
   5  -2  -1    0.97    0.20
  -5  -2   1    1.38    0.28
  -5  -2   1    1.21    0.24
  -5  -2   1    1.20    0.24
  -5  -2   1    1.34    0.20
   5  -2  -1    1.63    0.25
  -5   2   1    0.94    0.25
   5   2  -1    1.29    0.27
   5   2  -1    1.48    0.22
   5   2  -1    1.23    0.26
  -5   2   1    1.54    0.22
   4  -2  -1  170.22   11.73
  -4  -2   1  144.84   11.63
  -4  -2   1  171.07   11.14
  -4  -2   1  153.66   12.57
   4  -2  -1  158.87   11.34
  -4  -2   1  171.08   11.74
   4  -2  -1  165.56   11.14
  -4   2   1  183.84   11.74
   4   2  -1  164.74   12.29
  -4   2   1  162.52   11.35
   4   2  -1  183.64   11.63
  -4   2   1  170.96   11.62
   4   2  -1  139.61   11.73
   4   2  -1  182.15   11.35
   3  -2  -1   78.21    4.98
  -3  -2   1   74.31    5.47
  -3  -2   1   78.23    5.77
   3  -2  -1   75.20    5.58
   3  -2  -1   92.29    5.77
  -3  -2   1   76.80    5.77
  -3  -2   1   81.36    5.72
   3  -2  -1   86.34    5.48
   3  -2  -1   85.07    5.77
  -3  -2   1   79.14    6.19
   3   2  -1   76.97    5.71
   3   2  -1   89.11    6.05
   3   2  -1   87.02    5.58
  -3   2   1   69.96    5.71
  -3   2   1   82.56    5.57
   3   2  -1   88.99    5.78
  -2  -2   1   84.86    6.07
   2  -2  -1   90.98    5.53
   2  -2  -1   82.58    6.39
   2  -2  -1   90.41    6.06
  -2  -2   1   88.29    6.20
   2  -2  -1   96.88    6.06
  -2  -2   1   89.22    6.07
   2  -2  -1   97.37    6.39
  -2  -2   1   89.46    6.86
  -2  -2   1   90.75    6.39
   2  -2  -1   91.21    6.39
  -2  -2   1   77.31    6.33
   2  -2  -1   94.88    6.20
  -2  -2   1   99.97    6.39
  -2   2   1   98.33    6.33
   2   2  -1   79.72    6.69
   2   2  -1   95.24    6.33
  -1  -2   1   36.60    2.47
   1  -2  -1   35.19    2.31
  -1  -2   1   32.53    2.41
   1  -2  -1   35.44    2.31
  -1  -2   1   34.61    2.31
  -1  -2   1   38.62    2.64
  -1  -2   1   34.88    2.31
   1  -2  -1   34.66    2.39
   1  -2  -1   28.62    2.46
   1  -2  -1   32.56    2.13
   1   2  -1   34.23    2.41
   0  -2   1   56.28    3.29
   0  -2   1   53.34    3.80
   0  -2  -1   49.14    3.80
   0  -2   1   47.75    3.69
   0  -2  -1   60.41    3.69
   0  -2   1   57.41    4.08
   0  -2  -1   50.50    3.28
  -1  -2  -1  171.07   11.91
   1  -2   1  197.55   13.37
  -1  -2  -1  196.84   13.08
  -1  -2  -1  206.97   14.77
   1  -2   1  195.26   11.92
   1  -2   1  194.82   13.76
   1  -2   1  208.27   14.78
  -1  -2  -1  187.06   13.08
   1  -2   1  204.78   13.08
  -1  -2  -1  205.21   13.76
  -1  -2  -1  224.19   13.37
  -1  -2  -1  183.05   13.67
   1  -2   1  182.85   13.08
  -1   2  -1  193.22   13.65
   1   2   1  186.48   13.65
  -2  -2  -1   23.70    1.65
   2  -2   1   26.94    1.67
  -2  -2  -1   21.77    1.44
   2  -2   1   24.05    1.46
   2  -2   1   23.05    1.57
  -2  -2  -1   22.45    1.66
   2  -2   1   24.24    1.58
  -2  -2  -1   22.57    1.66
  -2  -2  -1   26.09    1.80
   2  -2   1   22.10    1.71
  -2  -2  -1   21.27    1.58
  -2  -2  -1   24.69    1.63
   2  -2   1   23.18    1.66
  -2  -2  -1   21.54    1.58
   2  -2   1   21.06    1.62
   2  -2   1   22.74    1.58
   2   2   1   22.36    1.74
  -2   2  -1   24.97    1.65
   2   2   1   21.90    1.65
   3  -2   1   82.79    5.03
  -3  -2  -1   76.26    4.94
   3  -2   1   70.39    4.49
   3  -2   1   70.42    4.92
  -3  -2  -1   77.38    4.92
   3  -2   1   73.89    5.20
   3  -2   1   72.77    5.20
  -3  -2  -1   72.20    5.58
  -3  -2  -1   74.41    5.16
  -3  -2  -1   62.28    5.19
   3  -2   1   75.94    5.23
  -3  -2  -1   80.96    5.20
   3  -2   1   70.86    4.94
  -3  -2  -1   76.19    5.03
  -3  -2  -1   71.07    4.48
   3   2   1   65.92    5.02
   3   2   1   73.35    5.45
   3   2   1   71.63    5.21
   3   2   1   71.65    5.15
  -3   2  -1   75.23    5.02
  -3   2  -1   73.90    5.15
  -4  -2  -1  108.81    7.12
   4  -2   1  106.96    7.09
   4  -2   1   96.35    7.12
   4  -2   1  111.19    6.46
  -4  -2  -1  105.92    8.05
  -4  -2  -1  101.44    7.50
  -4  -2  -1  112.80    7.44
   4  -2   1  111.58    7.24
  -4  -2  -1  108.45    7.10
   4   2   1  109.95    7.51
  -4   2  -1  113.47    7.51
   4   2   1   93.77    7.43
  -4   2  -1   99.66    7.25
   4   2   1  105.53    7.25
  -4   2  -1  100.75    7.43
  -5  -2  -1   42.96    3.07
   5  -2   1   38.70    2.91
   5  -2   1   40.36    2.90
  -5  -2  -1   45.73    2.86
  -5  -2  -1   35.69    3.03
  -5  -2  -1   43.33    2.85
  -5  -2  -1   43.50    3.30
   5  -2   1   45.79    3.07
  -5  -2  -1   40.92    2.91
  -5   2  -1   45.34    2.96
  -5   2  -1   42.18    2.95
   5   2   1   39.26    3.04
   5   2   1   42.59    2.95
   5   2   1   46.83    3.22
  -5   2  -1   41.74    3.04
  -6  -2  -1   29.71    2.25
  -6  -2  -1   30.09    2.18
   6  -2   1   32.57    2.36
   6  -2   1   34.55    2.26
  -6  -2  -1   34.43    2.35
  -6  -2  -1   31.67    2.37
  -6  -2  -1   32.48    2.56
   6   2   1   33.04    2.28
   6   2   1   30.62    2.48
  -6   2  -1   33.09    2.27
   6   2   1   33.50    2.35
  -6   2  -1   28.65    2.34
  -7  -2  -1    0.70    0.28
  -7  -2  -1    0.34    0.31
  -7  -2  -1   -0.17    0.25
   7  -2   1    0.40    0.25
  -7  -2  -1    0.36    0.25
  -7  -2  -1    0.26    0.19
   7  -2   1    0.72    0.28
   7   2   1    0.00    0.27
   7   2   1    0.29    0.24
  -7   2  -1    0.03    0.27
  -7   2  -1    0.13    0.25
   7   2   1    0.52    0.30
  -8  -2  -1   40.76    2.83
  -8  -2  -1   40.55    3.30
   8  -2   1   39.53    3.05
  -8  -2  -1   44.25    3.06
  -8  -2  -1   38.20    2.91
  -8  -2  -1   43.52    3.08
   8  -2   1   44.34    2.92
   8   2   1   37.79    3.20
   8   2   1   41.91    3.05
   8   2   1   43.73    2.94
  -8   2  -1   43.55    2.95
  -8   2  -1   36.43    3.03
  -9  -2  -1   18.06    1.62
  -9  -2  -1   18.94    1.33
  -9  -2  -1   16.37    1.47
   9  -2   1   18.30    1.49
   9  -2   1   16.44    1.46
  -9   2  -1   15.47    1.57
  -9   2  -1   18.65    1.41
  -9   2  -1   18.03    1.51
   9   2   1   17.61    1.39
   9   2   1   17.34    1.54
   9   2   1   20.07    1.54
 -10  -2  -1    8.07    0.74
 -10  -2  -1    6.75    0.86
 -10  -2  -1    8.18    0.99
  10  -2   1    7.97    0.88
  10   2   1    7.96    0.81
  10   2   1    9.70    0.98
 -10   2  -1    6.90    0.79
 -10   2  -1    9.02    0.94
 -10   2  -1    8.55    0.99
  10   2   1    9.39    0.98
  -9  -3   1    3.93    0.69
  -9  -3   1    3.42    0.57
   9  -3  -1    4.74    0.80
   9  -3  -1    2.50    0.52
   9  -3  -1    4.01    0.57
  -9  -3   1    2.41    0.49
   9   3  -1    3.00    0.46
   9   3  -1    2.90    0.57
   9   3  -1    3.27    0.61
  -9   3   1    3.15    0.58
  -9   3   1    4.52    0.64
  -8  -3   1    2.41    0.43
  -8  -3   1    1.88    0.42
   8  -3  -1    2.00    0.44
  -8  -3   1    2.24    0.51
  -8  -3   1    2.35    0.46
   8  -3  -1    3.01    0.64
   8  -3  -1    2.16    0.42
   8   3  -1    1.67    0.38
   8   3  -1    2.25    0.49
  -8   3   1    2.03    0.46
  -8   3   1    3.15    0.51
   8   3  -1    2.19    0.45
   7  -3  -1    5.24    0.59
  -7  -3   1    5.44    0.72
  -7  -3   1    4.92    0.60
  -7  -3   1    5.37    0.62
   7  -3  -1    6.57    0.80
   7  -3  -1    5.63    0.63
  -7  -3   1    6.87    0.66
   7   3  -1    6.31    0.67
  -7   3   1    6.50    0.71
  -7   3   1    7.00    0.68
   7   3  -1    5.43    0.67
   7   3  -1    6.36    0.63
   6  -3  -1    0.96    0.27
   6  -3  -1    1.40    0.42
  -6  -3   1    2.03    0.31
  -6  -3   1    1.51    0.31
  -6  -3   1    1.15    0.31
  -6  -3   1    1.63    0.37
   6  -3  -1    1.35    0.31
  -6   3   1    1.15    0.32
   6   3  -1    1.41    0.33
   6   3  -1    1.13    0.33
   5  -3  -1    0.26    0.19
  -5  -3   1    0.42    0.20
   5  -3  -1   -0.14    0.20
  -5  -3   1    0.20    0.22
  -5  -3   1    0.23    0.22
   5  -3  -1    0.00    0.29
  -5  -3   1    0.12    0.26
   5  -3  -1    0.04    0.22
  -5  -3   1   -0.05    0.16
  -5   3   1    0.52    0.23
   5   3  -1    0.12    0.23
   5   3  -1    0.03    0.22
   4  -3  -1   13.17    1.07
  -4  -3   1   13.78    1.00
   4  -3  -1   12.98    0.98
  -4  -3   1   12.73    0.85
   4  -3  -1   12.28    0.96
  -4  -3   1   11.64    1.09
  -4  -3   1   13.30    0.99
   4  -3  -1   13.14    0.98
  -4  -3   1   12.83    0.96
   4   3  -1   13.13    1.05
   4   3  -1   11.39    0.99
  -4   3   1   13.80    1.00
   3  -3  -1   26.17    1.77
   3  -3  -1   26.46    1.70
  -3  -3   1   24.91    1.78
   3  -3  -1   25.19    1.85
  -3  -3   1   24.12    1.70
   3  -3  -1   24.96    1.78
   3  -3  -1   25.82    1.71
  -3  -3   1   23.42    1.78
   3  -3  -1   25.24    1.78
  -3  -3   1   21.65    1.55
  -3  -3   1   24.43    1.71
   3  -3  -1   24.62    1.57
  -3  -3   1   25.85    1.78
  -3  -3   1   27.49    1.96
  -3  -3   1   24.19    1.78
  -3   3   1   21.45    1.77
   3   3  -1   25.58    1.78
   3   3  -1   23.83    1.88
  -2  -3   1    1.70    0.25
   2  -3  -1    1.68    0.21
  -2  -3   1    2.50    0.29
   2  -3  -1    1.43    0.18
  -2  -3   1    1.47    0.18
   2  -3  -1    2.01    0.25
   2  -3  -1    1.66    0.18
  -2  -3   1    1.83    0.19
   2  -3  -1    1.55    0.18
   2  -3  -1    1.75    0.29
  -2  -3   1    1.50    0.20
  -2  -3   1    1.37    0.28
  -2  -3   1    1.69    0.19
   2   3  -1    1.83    0.19
  -2   3   1    1.66    0.19
   2   3  -1    1.89    0.20
   1  -3  -1    0.67    0.21
  -1  -3   1    0.83    0.17
   1  -3  -1    0.47    0.15
   1  -3  -1    0.76    0.09
  -1  -3   1    1.34    0.22
  -1  -3   1    0.87    0.11
  -1  -3   1    0.93    0.19
  -1  -3   1    0.71    0.10
   1  -3  -1    0.70    0.09
  -1  -3   1    1.25    0.24
   1  -3  -1    0.34    0.17
   0  -3   1   27.34    2.19
   0  -3   1   27.03    1.77
   0  -3  -1   29.83    2.06
   0  -3  -1   27.89    1.77
   0  -3  -1   29.52    2.16
   0  -3   1   29.87    2.07
   0  -3   1   26.79    1.99
   0  -3  -1   26.55    1.98
   1  -3   1    2.22    0.25
   1  -3   1    1.81    0.24
   1  -3   1    1.45    0.15
   1  -3   1    1.70    0.22
  -1  -3  -1    1.77    0.23
  -1  -3  -1    1.61    0.27
   1  -3   1    1.74    0.17
  -1  -3  -1    1.42    0.15
   1  -3   1    1.32    0.28
  -1  -3  -1    1.47    0.15
  -1  -3  -1    1.36    0.19
  -1  -3  -1    1.86    0.22
   2  -3   1    0.30    0.14
  -2  -3  -1    0.08    0.11
   2  -3   1    0.14    0.11
   2  -3   1    0.32    0.12
  -2  -3  -1    0.29    0.23
  -2  -3  -1    0.29    0.16
   2  -3   1    0.38    0.12
   2  -3   1    0.31    0.22
  -2  -3  -1    0.25    0.11
  -2  -3  -1    0.26    0.13
   2  -3   1    0.35    0.17
  -2  -3  -1    0.13    0.11
  -2  -3  -1    0.09    0.16
  -2   3  -1    0.27    0.12
   2   3   1    0.21    0.12
   2   3   1    0.14    0.12
   3  -3   1    0.83    0.17
   3  -3   1    0.92    0.21
  -3  -3  -1    0.96    0.18
  -3  -3  -1    0.94    0.18
   3  -3   1    1.01    0.17
  -3  -3  -1    0.94    0.18
   3  -3   1    1.03    0.18
  -3  -3  -1    0.96    0.22
  -3  -3  -1    1.17    0.17
  -3  -3  -1    0.92    0.16
  -3  -3  -1    1.08    0.21
   3  -3   1    1.19    0.29
   3  -3   1    1.05    0.19
  -3  -3  -1    0.87    0.16
   3  -3   1    1.28    0.18
   3  -3   1    1.16    0.16
  -3   3  -1    0.81    0.18
   3   3   1    1.03    0.19
   3   3   1    0.78    0.18
   4  -3   1    4.18    0.44
  -4  -3  -1    4.30    0.44
   4  -3   1    4.35    0.39
   4  -3   1    4.28    0.42
  -4  -3  -1    4.87    0.42
  -4  -3  -1    4.08    0.42
  -4  -3  -1    4.58    0.43
   4  -3   1    3.16    0.49
   4  -3   1    4.71    0.41
  -4  -3  -1    4.90    0.50
   4  -3   1    3.81    0.41
  -4  -3  -1    4.55    0.44
  -4  -3  -1    4.35    0.36
  -4   3  -1    4.28    0.44
   4   3   1    4.23    0.45
   4   3   1    3.85    0.42
   5  -3   1   41.79    2.87
   5  -3   1   44.79    2.91
   5  -3   1   42.96    2.86
  -5  -3  -1   40.14    2.87
   5  -3   1   39.10    3.01
   5  -3   1   39.74    3.09
  -5  -3  -1   39.45    3.00
   5  -3   1   44.53    2.60
  -5  -3  -1   39.12    3.02
  -5  -3  -1   45.86    3.27
  -5   3  -1   43.76    3.00
   5   3   1   43.44    3.17
   5   3   1   36.81    2.99
  -6  -3  -1    9.82    0.88
   6  -3   1   11.15    0.89
  -6  -3  -1   11.56    0.93
   6  -3   1   13.02    1.11
  -6  -3  -1   12.25    1.03
  -6  -3  -1   10.03    0.91
   6  -3   1   10.13    0.90
   6   3   1   11.96    0.94
   6   3   1   10.26    0.97
  -6   3  -1    8.96    0.92
  -7  -3  -1    1.07    0.34
  -7  -3  -1    0.87    0.31
   7  -3   1    1.75    0.35
   7  -3   1    1.06    0.31
  -7  -3  -1    1.03    0.34
  -7  -3  -1    1.52    0.41
   7  -3   1    1.10    0.50
   7   3   1    1.43    0.36
  -7   3  -1    0.85    0.35
   7   3   1    0.75    0.32
   7   3   1    1.16    0.30
  -8  -3  -1    1.20    0.37
   8  -3   1    0.99    0.57
   8  -3   1    0.81    0.37
  -8  -3  -1    0.74    0.38
  -8  -3  -1    1.37    0.47
  -8  -3  -1    0.55    0.33
   8  -3   1    1.23    0.35
   8   3   1    0.90    0.30
   8   3   1    1.12    0.42
  -8   3  -1    1.40    0.40
   8   3   1    1.01    0.39
  -9  -3  -1   -0.06    0.35
   9  -3   1   -0.40    0.58
  -9  -3  -1    0.37    0.39
  -9  -3  -1    0.71    0.42
   9  -3   1   -0.27    0.36
   9  -3   1    0.62    0.36
   9   3   1    0.02    0.44
  -9   3  -1   -0.08    0.44
  -9   3  -1    0.10    0.40
   9   3   1    0.23    0.42
   9   3   1    0.76    0.33
  -9  -4   1   29.83    2.22
   9  -4  -1   26.02    2.45
   9  -4  -1   26.24    2.23
  -9  -4   1   32.86    2.32
   9  -4  -1   29.21    2.19
  -9  -4   1   29.33    2.50
  -9  -4   1   27.54    2.25
  -9   4   1   31.11    2.34
   9   4  -1   30.49    2.33
  -8  -4   1    3.42    0.64
  -8  -4   1    3.72    0.52
  -8  -4   1    3.30    0.57
   8  -4  -1    4.31    0.58
   8  -4  -1    3.73    0.52
  -8  -4   1    4.34    0.60
   8  -4  -1    4.72    0.76
   8   4  -1    4.92    0.65
   8   4  -1    3.42    0.61
  -8   4   1    4.17    0.62
  -7  -4   1   12.94    1.06
   7  -4  -1   10.46    0.96
  -7  -4   1   10.80    1.12
   7  -4  -1   10.06    0.98
   7  -4  -1   12.14    1.17
  -7  -4   1   11.53    1.01
  -7  -4   1   10.04    0.96
  -7   4   1   12.98    1.07
   7   4  -1   10.25    1.05
   7   4  -1   11.04    1.05
   6  -4  -1   85.17    5.64
  -6  -4   1   82.26    6.00
   6  -4  -1   80.43    5.29
  -6  -4   1   70.50    5.29
  -6  -4   1   76.70    5.54
   6  -4  -1   74.27    5.53
  -6  -4   1   75.26    5.53
   6   4  -1   76.08    5.52
  -6   4   1   76.61    5.52
   6   4  -1   79.07    5.84
  -5  -4   1    8.61    0.79
  -5  -4   1    7.98    0.72
   5  -4  -1    8.24    0.71
   5  -4  -1    9.31    0.75
   5  -4  -1    7.45    0.85
  -5  -4   1    9.80    0.90
  -5  -4   1    8.27    0.75
   5  -4  -1    9.15    0.76
  -5   4   1    8.66    0.78
   5   4  -1    9.70    0.82
   5   4  -1    8.08    0.79
   4  -4  -1  105.39    6.34
  -4  -4   1   99.89    6.95
   4  -4  -1  115.15    7.38
   4  -4  -1  115.06    7.29
  -4  -4   1   99.78    7.30
  -4  -4   1  111.35    7.27
  -4  -4   1   98.08    6.33
   4  -4  -1  100.65    6.95
  -4  -4   1   94.45    7.87
   4  -4  -1   99.31    7.11
   4   4  -1  103.58    7.67
   4   4  -1   93.39    7.25
  -4   4   1  103.98    7.25
   3  -4  -1    1.04    0.33
  -3  -4   1    1.27    0.22
  -3  -4   1    1.75    0.24
   3  -4  -1    1.70    0.23
   3  -4  -1    1.34    0.25
  -3  -4   1    1.27    0.24
   3  -4  -1    1.66    0.30
  -3  -4   1    1.64    0.31
  -3  -4   1    1.15    0.30
   3   4  -1    1.34    0.23
  -3   4   1    1.16    0.22
  -2  -4   1   76.80    5.52
  -2  -4   1   78.67    4.91
   2  -4  -1   75.60    5.52
  -2  -4   1   83.27    5.36
   2  -4  -1   78.38    5.35
   2  -4  -1   81.88    5.71
   2  -4  -1   76.31    5.35
  -2  -4   1   85.32    5.60
  -2  -4   1   84.47    5.36
   2  -4  -1   75.86    5.59
  -2  -4   1   81.58    6.10
   2  -4  -1   79.56    4.92
   2   4  -1   83.27    5.59
  -2   4   1   74.92    5.59
   1  -4  -1   88.09    5.63
  -1  -4   1   78.36    6.21
  -1  -4   1   74.95    5.01
   1  -4  -1   78.30    5.81
   1  -4  -1   79.41    5.01
  -1  -4   1   79.08    5.45
  -1  -4   1   79.93    5.45
  -1  -4   1   93.18    5.83
  -1  -4   1   82.59    5.63
   0  -4   1   27.24    1.76
   0  -4  -1   29.87    1.99
   0  -4   1   27.63    2.07
   0  -4  -1   25.68    2.12
   0  -4  -1   30.79    2.08
   0  -4   1   27.81    1.99
   0  -4  -1   27.42    1.76
   0  -4   1   25.67    2.16
  -1  -4  -1  140.50   10.70
   1  -4   1  144.27    9.71
   1  -4   1  143.57   10.01
  -1  -4  -1  131.04    8.64
  -1  -4  -1  136.71    9.70
   1  -4   1  155.73   10.72
  -1  -4  -1  140.20   10.01
  -1  -4  -1  143.01    9.45
   1  -4   1  136.39    8.65
  -2  -4  -1    0.18    0.21
   2  -4   1    0.25    0.13
  -2  -4  -1    0.27    0.19
  -2  -4  -1    0.25    0.13
   2  -4   1    0.38    0.23
   2  -4   1    0.35    0.29
  -2  -4  -1    0.13    0.13
   2  -4   1    0.11    0.12
   2  -4   1   -0.01    0.18
  -2  -4  -1    0.27    0.18
  -2  -4  -1    0.19    0.13
  -2  -4  -1    0.56    0.29
   2  -4   1    0.08    0.13
  -2   4  -1    0.25    0.13
   2   4   1    0.11    0.14
  -3  -4  -1  121.65    7.70
   3  -4   1  115.99    7.51
   3  -4   1  111.06    7.48
  -3  -4  -1  106.35    7.84
  -3  -4  -1  107.45    7.48
   3  -4   1  116.55    7.97
  -3  -4  -1  114.28    6.85
   3  -4   1  109.12    7.69
  -3  -4  -1  107.17    8.50
  -3  -4  -1  112.09    7.51
   3  -4   1  118.53    6.87
   3   4   1  105.17    7.84
  -3   4  -1  108.39    7.83
   4  -4   1   18.54    1.25
  -4  -4  -1   18.37    1.23
   4  -4   1   17.49    1.37
  -4  -4  -1   19.21    1.41
  -4  -4  -1   18.24    1.35
  -4  -4  -1   19.64    1.34
  -4  -4  -1   17.64    1.40
   4  -4   1   19.02    1.54
   4  -4   1   19.75    1.35
   4  -4   1   17.49    1.33
  -4  -4  -1   17.97    1.38
   4  -4   1   18.82    1.40
  -4  -4  -1   19.87    1.55
   4   4   1   19.18    1.48
   4   4   1   18.44    1.41
  -4   4  -1   20.89    1.42
  -5  -4  -1   23.52    1.91
  -5  -4  -1   23.38    1.72
  -5  -4  -1   23.36    1.74
   5  -4   1   21.92    1.70
   5  -4   1   23.48    1.65
   5  -4   1   23.70    1.52
   5  -4   1   21.74    1.87
  -5  -4  -1   23.21    1.67
   5  -4   1   26.05    1.71
   5  -4   1   22.64    1.65
   5   4   1   24.05    1.84
   5   4   1   22.51    1.74
  -5   4  -1   21.23    1.73
   6  -4   1   91.49    6.86
  -6  -4  -1   96.46    6.46
  -6  -4  -1   88.76    7.30
  -6  -4  -1  100.15    6.75
   6  -4   1  100.68    6.77
  -6  -4  -1   93.10    6.78
   6  -4   1   92.00    6.45
  -6   4  -1   96.32    6.74
   6   4   1   92.61    6.74
   6   4   1   97.60    7.13
  -7  -4  -1    6.46    0.69
  -7  -4  -1    5.73    0.64
   7  -4   1    6.44    0.65
   7  -4   1    5.38    0.84
  -7  -4  -1    5.94    0.66
   7  -4   1    7.35    0.69
  -7  -4  -1    6.76    0.80
  -7   4  -1    7.95    0.76
   7   4   1    6.78    0.73
   7   4   1    6.37    0.74
  -8  -4  -1   39.56    3.04
  -8  -4  -1   39.19    3.05
  -8  -4  -1   42.29    3.33
   8  -4   1   37.47    3.21
  -8  -4  -1   41.61    2.93
   8  -4   1   41.02    2.91
   8  -4   1   43.10    3.03
  -8   4  -1   42.71    3.07
   8   4   1   37.42    3.21
   8   4   1   44.17    3.08
  -8  -5   1    9.43    0.90
   8  -5  -1    9.61    0.88
  -8  -5   1    8.38    0.90
   8  -5  -1    7.98    0.85
   8  -5  -1    8.31    1.10
  -8  -5   1    8.85    0.87
  -8  -5   1    8.50    1.04
   8   5  -1    9.78    0.97
  -8   5   1    9.12    0.98
   8   5  -1    8.60    0.98
  -7  -5   1   18.66    1.56
  -7  -5   1   18.27    1.47
   7  -5  -1   17.33    1.76
   7  -5  -1   19.77    1.46
  -7  -5   1   17.85    1.49
   7  -5  -1   20.45    1.50
  -7  -5   1   19.02    1.71
   7   5  -1   18.52    1.58
  -7   5   1   19.02    1.58
  -6  -5   1   14.51    1.26
   6  -5  -1   15.68    1.50
  -6  -5   1   15.49    1.20
   6  -5  -1   13.91    1.19
  -6  -5   1   15.19    1.21
  -6  -5   1   15.03    1.18
  -6  -5   1   16.73    1.42
  -6   5   1   13.66    1.26
   6   5  -1   14.60    1.28
  -5  -5   1   28.89    2.33
   5  -5  -1   34.02    2.32
   5  -5  -1   30.75    2.51
   5  -5  -1   32.36    2.24
  -5  -5   1   33.64    2.58
  -5  -5   1   28.49    2.24
   5   5  -1   33.30    2.35
  -5   5   1   31.88    2.34
   4  -5  -1   -0.18    0.25
  -4  -5   1    0.58    0.32
   4  -5  -1    0.24    0.29
  -4  -5   1   -0.19    0.23
   4  -5  -1   -0.12    0.23
  -4  -5   1    0.34    0.26
   4  -5  -1    0.51    0.48
  -4  -5   1    0.05    0.24
  -4   5   1    0.35    0.26
   4   5  -1   -0.19    0.25
   3  -5  -1   14.71    1.05
   3  -5  -1   14.26    1.04
  -3  -5   1   13.53    1.19
  -3  -5   1   14.24    1.03
   3  -5  -1   13.51    1.16
  -3  -5   1   14.77    1.10
  -3  -5   1   13.22    1.26
   3  -5  -1   15.54    1.32
  -3  -5   1   12.56    1.05
  -3   5   1   15.44    1.10
   3   5  -1   15.63    1.10
   2  -5  -1   38.30    2.96
   2  -5  -1   40.52    2.52
   2  -5  -1   38.60    2.68
  -2  -5   1   37.41    3.11
  -2  -5   1   36.88    2.97
  -2  -5   1   41.86    2.69
  -2  -5   1   37.51    2.81
  -2  -5   1   40.61    2.52
   2  -5  -1   44.37    2.85
  -2  -5   1   38.38    2.84
   2   5  -1   40.61    2.81
   1  -5  -1    8.47    0.84
  -1  -5   1    7.84    0.69
   1  -5  -1    8.77    0.79
  -1  -5   1    7.21    0.82
   1  -5  -1    8.54    0.69
  -1  -5   1    8.60    0.80
   0  -5  -1   54.74    3.41
   0  -5   1   51.78    3.98
   0  -5  -1   55.43    3.84
   0  -5   1   55.92    3.84
   0  -5  -1   55.69    3.99
   0  -5   1   52.88    3.41
  -1  -5  -1    1.66    0.36
  -1  -5  -1    1.26    0.29
  -1  -5  -1    1.55    0.41
   1  -5   1    1.02    0.28
   1  -5   1    1.52    0.36
   1  -5   1    1.54    0.41
  -2  -5  -1   20.40    1.73
  -2  -5  -1   20.48    1.42
   2  -5   1   20.92    1.61
   2  -5   1   20.99    1.44
   2  -5   1   22.77    1.74
  -2  -5  -1   20.66    1.54
  -2  -5  -1   24.50    1.64
   2  -5   1   21.09    1.47
  -2  -5  -1   20.94    1.48
  -2   5  -1   21.78    1.54
   2   5   1   20.80    1.54
  -3  -5  -1   24.13    1.69
  -3  -5  -1   22.81    1.58
   3  -5   1   25.34    1.68
  -3  -5  -1   24.35    1.67
   3  -5   1   22.83    1.95
   3  -5   1   22.83    1.79
   3  -5   1   23.26    1.60
  -3  -5  -1   26.66    1.82
  -3  -5  -1   22.75    1.76
   3   5   1   24.28    1.76
  -3   5  -1   24.64    1.76
  -4  -5  -1    5.28    0.48
  -4  -5  -1    5.42    0.54
   4  -5   1    6.47    0.80
   4  -5   1    5.76    0.52
   4  -5   1    4.94    0.57
   4  -5   1    4.89    0.51
   4  -5   1    5.31    0.50
  -4  -5  -1    5.46    0.60
  -4  -5  -1    5.21    0.52
  -4   5  -1    5.16    0.54
   4   5   1    5.21    0.54
   5  -5   1   13.23    1.00
  -5  -5  -1   13.17    1.07
  -5  -5  -1   12.49    1.10
   5  -5   1   14.24    1.13
   5  -5   1   14.23    1.06
   5  -5   1   14.19    1.39
   5   5   1   13.68    1.12
  -5   5  -1   13.25    1.13
  -6  -5  -1    0.37    0.32
   6  -5   1    0.35    0.58
  -6  -5  -1    0.04    0.33
   6  -5   1   -0.50    0.29
  -6  -5  -1    0.18    0.24
  -6   5  -1    0.07    0.35
   6   5   1   -0.02    0.34
   7  -5   1   11.19    0.92
   7  -5   1    9.90    1.18
  -7  -5  -1   11.70    0.94
   7  -5   1    9.61    0.97
  -7  -5  -1    9.95    1.03
  -7  -5  -1   11.08    1.01
   7   5   1   11.43    1.09
  -7   5  -1    9.87    1.07
   6  -6  -1    6.67    0.98
  -6  -6   1    6.96    0.69
  -6  -6   1    5.57    0.72
   6  -6  -1    6.38    0.66
   6   6  -1    6.63    0.74
  -6   6   1    6.06    0.69
   5  -6  -1    5.59    0.57
   5  -6  -1    4.42    0.68
  -5  -6   1    5.23    0.59
   5  -6  -1    5.85    0.88
  -5  -6   1    6.13    0.64
  -5   6   1    6.04    0.63
   5   6  -1    4.87    0.64
  -4  -6   1    7.59    0.75
  -4  -6   1    7.96    0.71
  -4  -6   1    7.71    0.79
   4  -6  -1    8.11    0.74
   4  -6  -1    7.69    0.72
   4  -6  -1    8.17    0.97
   4  -6  -1    8.01    0.83
  -4   6   1    7.91    0.76
   4   6  -1    8.38    0.78
  -3  -6   1    5.21    0.68
   3  -6  -1    6.63    0.69
  -3  -6   1    4.94    0.51
  -3  -6   1    4.87    0.52
   3  -6  -1    5.44    0.53
   3  -6  -1    4.45    0.57
   3  -6  -1    6.81    0.83
  -3  -6   1    5.49    0.57
  -3   6   1    5.62    0.57
   3   6  -1    6.11    0.59
  -2  -6   1   19.47    1.39
  -2  -6   1   21.28    1.75
  -2  -6   1   19.88    1.46
  -2  -6   1   16.96    1.58
   2  -6  -1   20.56    1.41
   2  -6  -1   20.31    1.74
  -2  -6   1   19.72    1.40
   2  -6  -1   20.79    1.61
   1  -6  -1    9.77    0.95
   1  -6  -1   10.36    0.86
   1  -6  -1    9.02    1.02
  -1  -6   1   10.31    1.08
  -1  -6   1    9.41    1.00
  -1  -6   1   11.52    0.89
   0  -6  -1    0.68    0.49
   0  -6   1    0.20    0.32
   0  -6  -1    0.09    0.35
   0  -6   1    0.64    0.46
   0  -6  -1   -0.45    0.28
   0  -6   1    0.17    0.37
  -1  -6  -1    3.62    0.48
   1  -6   1    4.58    0.52
   1  -6   1    4.16    0.57
  -1  -6  -1    4.58    0.58
   1  -6   1    4.39    0.68
  -1  -6  -1    3.26    0.64
   2  -6   1    2.35    0.42
  -2  -6  -1    2.60    0.31
   2  -6   1    2.43    0.49
  -2  -6  -1    2.79    0.51
   2  -6   1    2.65    0.59
  -2  -6  -1    2.42    0.30
  -2  -6  -1    2.56    0.63
  -2  -6  -1    2.18    0.38
   3  -6   1    9.03    0.87
   3  -6   1    7.81    0.74
  -3  -6  -1    9.50    0.74
  -3  -6  -1    7.13    0.76
  -3  -6  -1    9.84    0.73
   3  -6   1    7.77    0.98
   3  -6   1    8.88    0.72
  -3  -6  -1    7.66    0.85
  -3  -6  -1    9.41    0.79
   3   6   1    9.72    0.77
  -3   6  -1    9.60    0.76
  -4  -6  -1    8.16    0.79
  -4  -6  -1    7.00    0.65
   4  -6   1    6.30    0.73
  -4  -6  -1    6.15    0.60
   4  -6   1    6.17    0.64
   4  -6   1    6.84    0.90
   4  -6   1    6.50    0.64
   4   6   1    6.82    0.66
  -4   6  -1    6.64    0.70
   5  -6   1    5.97    0.68
  -5  -6  -1    5.39    0.60
  -5  -6  -1    4.87    0.56
   5  -6   1    5.86    0.61
   5  -6   1    4.91    0.55
   5  -6   1    6.43    0.91
   5   6   1    5.58    0.64
  -5   6  -1    5.51    0.62
   6  -6   1    3.93    0.91
   6  -6   1    5.59    0.58
  -6  -6  -1    4.38    0.58
  -6  -6  -1    4.96    0.62
   6   6   1    5.43    0.67
  -6   6  -1    5.38    0.64
   4  -7  -1   -0.26    0.67
   4  -7  -1    0.13    0.26
  -4  -7   1    0.26    0.37
   4  -7  -1    0.52    0.48
  -4  -7   1    0.05    0.31
   4   7  -1   -0.30    0.33
   3  -7  -1   32.70    2.41
   3  -7  -1   33.29    2.61
  -3  -7   1   31.96    2.31
  -3  -7   1   29.92    2.18
  -3  -7   1   33.68    2.13
  -3  -7   1   28.97    2.42
   3  -7  -1   29.85    2.12
  -2  -7   1   14.15    1.10
  -2  -7   1   14.45    1.43
   2  -7  -1   11.98    1.28
  -2  -7   1   13.36    1.05
   2  -7  -1   11.41    1.31
   2  -7  -1   12.79    1.11
  -2  -7   1   14.32    1.32
   1  -7  -1   19.90    1.58
  -1  -7   1   17.46    1.74
  -1  -7   1   16.84    1.35
  -1  -7   1   16.62    1.55
   1  -7  -1   18.28    1.35
   1  -7  -1   18.52    1.73
   0  -7   1   39.60    3.18
   0  -7  -1   40.49    3.01
   0  -7   1   40.95    2.67
   0  -7  -1   41.81    2.67
   0  -7   1   41.89    3.02
   0  -7  -1   38.80    3.17
   1  -7   1    0.72    0.40
  -1  -7  -1    1.36    0.62
   1  -7   1    0.08    0.45
  -1  -7  -1    0.18    0.39
  -1  -7  -1    0.20    0.49
   1  -7   1    0.05    0.58
  -2  -7  -1   28.36    1.85
   2  -7   1   25.37    1.86
  -2  -7  -1   25.33    2.11
   2  -7   1   28.31    2.14
   2  -7   1   29.11    2.32
  -2  -7  -1   26.15    1.95
   3  -7   1    4.62    0.69
   3  -7   1    3.02    0.52
  -3  -7  -1    3.93    0.64
  -3  -7  -1    3.56    0.45
   3  -7   1    4.58    0.82
  -3  -7  -1    3.97    0.42
  -3  -7  -1    3.53    0.52
  -4  -7  -1   27.91    2.22
   4  -7   1   29.30    2.52
  -4  -7  -1   29.53    2.11
  -4  -7  -1   30.04    2.33
   4  -7   1   29.26    2.05
   4  -7   1   32.31    2.35
   4  -7   1   30.31    2.09
   4   7   1   30.55    2.23
  10   0  -2   22.53    1.72
 -10   0   2   21.99    1.71
  10   0  -2   24.47    1.69
 -10   0   2   20.66    1.95
  -9   0   2    0.90    0.31
  -9   0   2    1.28    0.43
   9   0  -2    1.45    0.35
   9   0  -2    1.10    0.32
  -9   0   2    0.83    0.32
  -9   0   2    1.26    0.42
   8   0  -2   64.86    4.34
  -8   0   2   62.88    4.98
   8   0  -2   74.50    4.61
  -8   0   2   57.98    4.58
  -8   0   2   65.75    4.34
  -8   0   2   61.97    4.65
  -8   0   2   61.28    4.45
   8   0  -2   60.13    4.63
   8   0  -2   64.43    4.45
   7   0  -2   69.41    4.94
   7   0  -2   64.45    5.13
  -7   0   2   68.24    4.94
   7   0  -2   72.84    4.82
  -7   0   2   80.05    5.10
  -7   0   2   65.28    5.14
  -7   0   2   76.60    4.83
   7   0  -2   77.23    5.10
  -7   0   2   67.81    5.51
   6   0  -2   70.86    5.06
   6   0  -2   71.98    4.92
   6   0  -2   77.41    4.86
  -6   0   2   65.45    4.92
  -6   0   2   77.21    5.07
   6   0  -2   82.32    4.80
  -6   0   2   76.05    4.86
   6   0  -2   70.28    5.11
  -6   0   2   59.09    5.46
  -6   0   2   71.31    5.11
  -6   0   2   61.79    4.79
   5   0  -2   47.66    3.71
  -5   0   2   57.79    3.63
  -5   0   2   58.89    4.15
  -5   0   2   59.27    3.67
   5   0  -2   54.96    3.86
   5   0  -2   52.59    3.66
  -5   0   2   55.97    3.87
  -5   0   2   49.69    3.82
   5   0  -2   46.96    3.61
  -5   0   2   53.99    3.82
   4   0  -2   13.59    1.06
  -4   0   2   16.13    1.16
  -4   0   2   13.40    1.06
  -4   0   2   15.25    1.02
   4   0  -2   12.15    1.01
  -4   0   2   14.20    1.06
  -4   0   2   15.38    1.06
  -4   0   2   13.52    1.02
   4   0  -2   13.58    1.06
  -4   0   2   14.32    0.99
   4   0  -2   14.61    0.99
  -4   0   2   13.38    1.01
   4   0  -2   13.05    1.02
   3   0  -2  338.19   23.72
   3   0  -2  353.80   24.51
  -3   0   2  333.80   23.09
  -3   0   2  325.64   23.72
  -3   0   2  363.64   24.51
   3   0  -2  330.91   24.26
  -3   0   2  353.93   26.23
  -3   0   2  379.90   24.30
   3   0  -2  347.08   23.09
  -2   0   2   12.81    0.90
  -2   0   2   12.80    0.87
   2   0  -2   11.05    0.90
  -2   0   2   11.24    0.93
   2   0  -2   11.55    0.89
   2   0  -2   11.82    0.87
   2   0  -2   13.30    0.93
   2   0  -2   12.80    0.92
  -2   0   2   11.23    1.00
  -2   0   2   13.28    0.94
  -2   0   2   12.26    0.89
  -2   0  -2  382.18   23.51
  -2   0  -2  287.08   22.51
   2   0   2  308.54   23.73
   2   0   2  357.20   22.97
   2   0   2  341.09   22.51
   2   0   2  366.83   24.86
   2   0   2  322.49   22.36
  -2   0  -2  351.34   22.36
   2   0   2  343.15   23.50
  -2   0  -2  306.16   22.97
   3   0   2   68.19    4.87
   3   0   2   74.21    4.84
  -3   0  -2   83.70    4.88
  -3   0  -2   62.95    5.13
  -3   0  -2   72.18    5.09
   3   0   2   71.48    5.09
  -3   0  -2   74.31    5.09
  -3   0  -2   67.56    4.96
  -3   0  -2   64.69    4.83
   3   0   2   71.93    5.38
   3   0   2   80.69    5.15
  -4   0  -2  162.03   10.24
  -4   0  -2  157.78   10.34
  -4   0  -2  139.97    9.80
   4   0   2  149.28    9.73
   4   0   2  127.08    9.98
  -4   0  -2  138.88    9.99
  -4   0  -2  153.49   10.23
   4   0   2  127.29    9.79
   4   0   2  161.80   10.82
  -4   0  -2  150.40    9.73
   4   0   2  137.38   10.23
   5   0   2   28.84    1.89
  -5   0  -2   24.92    1.83
  -5   0  -2   26.96    1.86
   5   0   2   26.79    1.95
   5   0   2   30.56    1.98
  -5   0  -2   26.64    1.97
   5   0   2   29.90    1.84
   5   0   2   22.13    2.04
   5   0   2   24.35    1.86
  -5   0  -2   28.12    1.95
  -5   0  -2   22.29    1.87
  -5   0  -2   28.63    1.95
  -6   0  -2   24.09    1.67
   6   0   2   21.96    1.65
   6   0   2   20.96    1.63
  -6   0  -2   22.23    1.56
  -6   0  -2   21.05    1.57
   6   0   2   24.92    1.73
  -6   0  -2   21.21    1.53
   6   0   2   20.81    1.56
   6   0   2   21.51    1.52
   6   0   2   20.16    1.55
  -6   0  -2   19.94    1.62
   7   0   2   39.41    2.74
  -7   0  -2   39.32    3.14
   7   0   2   41.66    2.92
   7   0   2   41.11    2.95
   7   0   2   39.96    2.81
  -7   0  -2   36.67    2.93
  -7   0  -2   36.78    2.80
   7   0   2   41.46    3.07
  -7   0  -2   44.23    2.76
  -7   0  -2   37.49    2.89
  -8   0  -2   13.44    1.02
  -8   0  -2   14.13    1.02
   8   0   2   11.89    1.01
  -8   0  -2   11.11    1.16
   8   0   2   11.93    1.12
  -8   0  -2   13.04    1.10
  -8   0  -2   12.64    1.11
   8   0   2   13.03    1.10
   8   0   2   11.63    0.98
   8   0   2   12.85    1.11
   9   0   2   74.30    4.66
  -9   0  -2   68.88    4.76
  -9   0  -2   63.89    5.33
  -9   0  -2   63.08    4.64
   9   0   2   69.19    4.76
   9   0   2   69.00    5.20
  10   0   2    0.22    0.33
  10   0   2    0.03    0.31
 -10   0  -2    0.41    0.34
  10   0   2   -0.34    0.35
 -10   0  -2    1.11    0.47
 -10  -1   2    4.59    0.69
 -10  -1   2    6.12    0.65
 -10  -1   2    6.31    0.61
 -10  -1   2    5.97    0.80
  10  -1  -2    5.79    0.57
  10  -1  -2    6.18    0.76
  10  -1  -2    5.15    0.60
 -10   1   2    5.04    0.74
 -10   1   2    5.13    0.75
  10   1  -2    4.96    0.64
 -10   1   2    5.53    0.62
  -9  -1   2   12.86    1.17
  -9  -1   2   12.69    1.02
   9  -1  -2   12.02    1.02
   9  -1  -2   14.49    1.16
   9  -1  -2   12.21    1.04
  -9  -1   2   14.39    1.05
  -9  -1   2   12.65    1.25
   9   1  -2   12.91    1.16
   9   1  -2   13.48    1.08
  -9   1   2   11.37    1.05
  -9   1   2   12.98    1.25
  -9   1   2   10.80    1.12
   8  -1  -2    1.00    0.36
  -8  -1   2    0.92    0.35
  -8  -1   2    1.19    0.36
   8  -1  -2    1.20    0.29
   8  -1  -2    1.70    0.30
   8  -1  -2    1.16    0.32
  -8  -1   2    1.72    0.31
  -8  -1   2    1.58    0.29
  -8   1   2    1.15    0.32
  -8   1   2    0.70    0.34
   8   1  -2    0.78    0.32
   8   1  -2    1.61    0.35
  -8   1   2    0.78    0.38
  -7  -1   2   17.64    1.43
   7  -1  -2   17.59    1.31
  -7  -1   2   16.43    1.53
  -7  -1   2   17.22    1.37
  -7  -1   2   17.78    1.44
  -7  -1   2   16.30    1.41
   7  -1  -2   18.06    1.33
  -7  -1   2   16.65    1.33
   7  -1  -2   19.00    1.43
  -7  -1   2   17.68    1.32
   7  -1  -2   18.91    1.38
  -7   1   2   19.51    1.44
   7   1  -2   20.99    1.46
  -7   1   2   19.84    1.55
  -7   1   2   19.26    1.35
   7   1  -2   17.90    1.36
   6  -1  -2   27.12    1.89
   6  -1  -2   26.52    1.97
  -6  -1   2   28.14    2.01
  -6  -1   2   26.70    1.98
   6  -1  -2   27.16    1.84
  -6  -1   2   25.15    2.14
  -6  -1   2   26.70    1.85
  -6  -1   2   29.79    1.98
  -6  -1   2   21.53    1.88
  -6  -1   2   29.78    1.90
   6  -1  -2   29.97    1.91
   6  -1  -2   26.68    1.99
  -6   1   2   27.16    1.91
  -6   1   2   25.14    1.90
  -6   1   2   25.22    1.99
   6   1  -2   24.57    2.07
   6   1  -2   23.58    1.85
   6   1  -2   27.60    2.00
   6   1  -2   26.48    1.90
   6   1  -2   29.93    2.00
  -6   1   2   26.42    1.98
  -6   1   2   25.39    2.13
  -5  -1   2   50.48    3.58
  -5  -1   2   44.15    3.53
   5  -1  -2   51.69    3.55
   5  -1  -2   50.84    3.58
  -5  -1   2   48.92    3.69
  -5  -1   2   49.98    3.49
   5  -1  -2   55.14    3.49
  -5  -1   2   53.68    3.74
   5  -1  -2   53.25    3.73
  -5  -1   2   56.72    3.71
  -5  -1   2   50.72    4.00
   5  -1  -2   56.22    3.70
   5   1  -2   54.32    3.50
  -5   1   2   45.22    3.69
  -5   1   2   52.07    3.50
  -5   1   2   45.91    3.53
   5   1  -2   53.86    3.60
  -5   1   2   51.57    3.59
   5   1  -2   51.33    3.54
   5   1  -2   55.04    3.91
   5   1  -2   56.36    3.71
   5   1  -2   53.44    3.73
  -5   1   2   48.90    3.73
  -5   1   2   53.49    4.00
   4  -1  -2   20.49    1.64
  -4  -1   2   22.79    1.55
   4  -1  -2   22.29    1.58
  -4  -1   2   25.60    1.65
  -4  -1   2   22.01    1.79
   4  -1  -2   24.73    1.59
  -4  -1   2   21.21    1.55
   4  -1  -2   20.98    1.54
   4  -1  -2   23.46    1.55
  -4  -1   2   20.82    1.66
  -4  -1   2   24.80    1.65
   4  -1  -2   24.72    1.67
  -4  -1   2   20.32    1.58
  -4  -1   2   22.22    1.58
   4   1  -2   23.04    1.74
   4   1  -2   21.66    1.55
  -4   1   2   22.28    1.78
   4   1  -2   21.91    1.66
  -4   1   2   21.95    1.56
  -4   1   2   19.07    1.59
  -4   1   2   21.59    1.57
  -4   1   2   24.84    1.65
  -4   1   2   21.65    1.66
   4   1  -2   24.63    1.58
   4   1  -2   26.11    1.60
   4   1  -2   23.53    1.65
   3  -1  -2   11.39    0.85
  -3  -1   2   11.52    0.98
   3  -1  -2   12.84    0.91
   3  -1  -2   11.95    0.87
  -3  -1   2   12.08    0.91
   3  -1  -2   11.95    0.84
  -3  -1   2   12.96    0.90
  -3  -1   2   11.95    0.84
  -3  -1   2   12.38    0.90
   3  -1  -2   12.45    0.84
  -3  -1   2   10.62    0.85
  -3  -1   2   13.33    0.87
  -3  -1   2   11.14    0.84
  -3   1   2   10.39    0.85
   3   1  -2   11.82    0.84
   3   1  -2   12.42    0.90
   3   1  -2   11.27    0.86
  -3   1   2   12.52    0.85
  -3   1   2   13.07    0.90
  -3   1   2   12.92    0.86
  -3   1   2   12.40    0.91
  -3   1   2   11.48    0.97
   3   1  -2   11.67    0.94
   3   1  -2   12.15    0.91
   2  -1  -2   94.09    6.02
  -2  -1   2   77.20    6.07
  -2  -1   2   95.46    6.03
  -2  -1   2   91.91    6.03
  -2  -1   2   81.62    6.86
  -2  -1   2   86.62    6.19
   2  -1  -2   85.86    6.03
   2  -1  -2   97.44    6.08
  -2  -1   2   87.97    6.41
   2  -1  -2   87.30    6.40
  -2  -1   2   97.80    6.35
   2   1  -2   90.00    6.71
   2   1  -2   85.73    6.07
  -2   1   2   90.45    6.85
   2   1  -2  101.06    6.20
  -2   1   2   99.68    6.20
   2   1  -2   91.39    6.41
  -2   1   2   94.69    6.41
   2   1  -2   81.84    6.34
   1  -1  -2  245.83   16.33
  -1  -1   2  259.70   17.28
   1  -1  -2  274.59   17.19
  -1  -1   2  216.74   18.50
  -1  -1   2  214.71   17.19
  -1  -1   2  257.07   17.13
  -1  -1   2  271.25   17.28
   1  -1  -2  243.71   17.27
  -1  -1   2  275.43   16.39
   1  -1  -2  221.98   16.38
   1   1  -2  262.35   17.11
  -1   1   2  242.00   18.48
  -1   1   2  233.33   17.11
   1   1  -2  213.26   16.72
   0  -1  -2  119.43    8.61
   0  -1  -2  117.30    8.17
   0  -1  -2  117.72    8.21
   0  -1   2  127.92    8.65
   0  -1  -2  110.75    8.20
   0  -1  -2  131.91    8.57
   0  -1   2  120.77    8.61
   0  -1  -2  122.74    8.65
   0  -1   2  130.59    8.21
   0  -1   2  111.81    8.17
   0  -1   2  128.46    8.65
   0  -1   2  110.09    8.20
   0  -1  -2  134.51    8.65
   0  -1  -2  124.99    8.21
   0  -1   2  134.20    9.28
   0   1  -2  127.80    8.57
   0   1   2  114.42    8.57
  -1  -1  -2   31.87    2.38
   1  -1   2   34.58    2.51
   1  -1   2   34.34    2.38
   1  -1   2   34.74    2.38
  -1  -1  -2   40.26    2.43
   1  -1   2   37.44    2.70
  -1  -1  -2   33.36    2.51
   1  -1   2   36.21    2.51
  -1  -1  -2   34.16    2.37
   1  -1   2   37.63    2.43
  -1  -1  -2   33.44    2.49
   1   1   2   34.25    2.42
   1   1   2   39.07    2.52
   1   1   2   32.12    2.49
  -1   1  -2   36.95    2.49
  -1   1  -2   35.40    2.42
   2  -1   2   47.68    3.30
   2  -1   2   47.33    3.15
   2  -1   2   44.21    2.98
   2  -1   2   42.86    3.03
   2  -1   2   44.96    2.95
  -2  -1  -2   46.57    3.04
  -2  -1  -2   43.30    2.96
  -2  -1  -2   47.00    3.12
   2  -1   2   39.81    2.98
   2  -1   2   39.11    3.04
  -2  -1  -2   45.10    3.15
  -2  -1  -2   41.62    2.99
  -2  -1  -2   47.75    2.96
   2  -1   2   38.21    2.96
  -2  -1  -2   39.45    3.03
   2   1   2   40.75    3.15
   2   1   2   45.78    3.12
   2   1   2   47.16    3.30
   2   1   2   40.56    3.04
   2   1   2   44.25    2.99
  -2   1  -2   46.56    3.15
  -2   1  -2   49.68    3.12
   2   1   2   42.96    2.96
  -2   1  -2   47.16    3.04
  -3  -1  -2   91.04    6.74
  -3  -1  -2   98.79    7.10
  -3  -1  -2  104.55    7.10
  -3  -1  -2   93.12    6.80
   3  -1   2   96.03    6.74
  -3  -1  -2   90.72    7.17
  -3  -1  -2  114.48    6.93
   3  -1   2  109.01    6.80
   3  -1   2   92.51    7.17
   3  -1   2   84.44    6.77
   3  -1   2   97.84    6.75
   3  -1   2   95.92    6.93
  -3  -1  -2  116.63    6.75
   3  -1   2  114.22    7.51
   3  -1   2  106.31    6.17
   3   1   2  100.78    7.51
  -3   1  -2   98.11    6.93
  -3   1  -2   96.35    6.75
  -3   1  -2   87.73    7.10
   3   1   2   93.26    6.93
   3   1   2  114.49    6.80
   3   1   2  105.99    6.75
   3   1   2   94.41    7.17
  -3   1  -2  116.67    6.81
  -3   1  -2  112.56    7.18
   3   1   2  105.74    7.10
  -4  -1  -2   15.28    1.10
  -4  -1  -2   15.54    1.08
  -4  -1  -2   14.22    1.16
   4  -1   2   16.23    1.10
   4  -1   2   15.20    1.09
  -4  -1  -2   15.51    1.15
   4  -1   2   15.80    1.07
   4  -1   2   16.44    1.15
  -4  -1  -2   16.85    1.08
  -4  -1  -2   14.42    1.10
   4  -1   2   16.06    1.16
   4  -1   2   13.61    1.20
   4  -1   2   15.32    1.09
  -4  -1  -2   16.93    1.15
   4  -1   2   15.58    1.07
   4   1   2   14.24    1.07
  -4   1  -2   15.26    1.11
  -4   1  -2   15.41    1.16
  -4   1  -2   14.34    1.08
   4   1   2   12.96    1.20
   4   1   2   17.61    1.17
  -4   1  -2   14.23    1.15
  -4   1  -2   14.02    1.09
   4   1   2   14.99    1.15
   4   1   2   17.42    1.10
   4   1   2   15.59    1.11
   5  -1   2   14.74    1.05
  -5  -1  -2   13.28    1.08
   5  -1   2   15.41    1.08
   5  -1   2   13.49    1.19
   5  -1   2   15.11    1.08
   5  -1   2   15.48    1.14
  -5  -1  -2   15.19    1.16
   5  -1   2   16.66    1.10
  -5  -1  -2   14.19    1.06
   5  -1   2   15.34    1.16
  -5  -1  -2   16.58    1.24
  -5  -1  -2   13.11    1.13
  -5  -1  -2   14.59    1.13
  -5  -1  -2   15.93    1.09
   5   1   2   14.24    1.07
   5   1   2   14.00    1.19
   5   1   2   15.47    1.14
  -5   1  -2   15.72    1.10
  -5   1  -2   16.21    1.16
  -5   1  -2   12.47    1.13
   5   1   2   14.49    1.09
   5   1   2   14.04    1.08
   5   1   2   15.92    1.16
  -5   1  -2   15.23    1.09
   6  -1   2   48.47    3.13
  -6  -1  -2   43.97    2.78
  -6  -1  -2   40.27    2.98
  -6  -1  -2   43.23    2.85
   6  -1   2   40.71    2.84
   6  -1   2   42.18    2.99
   6  -1   2   40.99    2.77
   6  -1   2   43.72    2.82
  -6  -1  -2   41.78    2.95
   6  -1   2   40.93    2.95
  -6  -1  -2   41.12    3.19
  -6  -1  -2   35.88    2.93
  -6  -1  -2   43.80    2.83
   6   1   2   35.36    3.10
   6   1   2   40.34    2.86
   6   1   2   36.44    2.98
  -6   1  -2   40.47    2.87
  -6   1  -2   38.93    2.98
   6   1   2   39.27    2.95
   6   1   2   39.09    2.80
  -6   1  -2   38.10    2.94
  -7  -1  -2   12.71    1.03
  -7  -1  -2   14.00    1.23
   7  -1   2   12.60    1.17
   7  -1   2   14.24    1.04
  -7  -1  -2   14.36    1.08
   7  -1   2   13.54    1.08
   7  -1   2   13.44    1.14
  -7  -1  -2   14.39    1.15
   7  -1   2   11.45    1.01
  -7  -1  -2   14.02    1.06
  -7   1  -2   14.14    1.08
   7   1   2   13.02    1.07
  -7   1  -2   15.12    1.14
   7   1   2   14.11    1.19
   7   1   2   16.37    1.15
  -8  -1  -2   13.55    1.29
   8  -1   2   15.65    1.21
   8  -1   2   14.41    1.23
  -8  -1  -2   11.13    1.05
   8  -1   2   14.88    1.06
   8  -1   2   13.43    1.07
  -8  -1  -2   13.62    1.09
  -8  -1  -2   11.86    1.17
   8   1   2   14.73    1.19
  -8   1  -2   14.30    1.18
   8   1   2   13.09    1.22
  -8   1  -2   15.58    1.13
   8   1   2   14.83    1.11
  -9  -1  -2   -0.12    0.33
  -9  -1  -2    0.28    0.27
  -9  -1  -2   -0.16    0.32
   9  -1   2    0.66    0.34
   9  -1   2    0.05    0.26
  -9  -1  -2   -0.04    0.27
   9  -1   2    0.22    0.29
   9  -1   2    0.34    0.38
   9   1   2    0.03    0.34
   9   1   2   -0.18    0.26
   9   1   2    0.33    0.35
  -9   1  -2   -0.30    0.36
  -9   1  -2    0.10    0.30
  -9   1  -2    0.34    0.35
 -10  -1  -2    4.54    0.54
 -10  -1  -2    4.68    0.52
 -10  -1  -2    4.31    0.63
 -10  -1  -2    3.89    0.72
  10  -1   2    5.05    0.51
  10  -1   2    4.87    0.65
  10  -1   2    4.54    0.56
 -10   1  -2    3.72    0.54
  10   1   2    5.91    0.73
 -10   1  -2    4.52    0.66
 -10   1  -2    3.49    0.67
  10   1   2    3.44    0.53
 -10  -2   2   10.99    1.23
 -10  -2   2   13.43    1.04
 -10  -2   2   11.14    1.13
  10  -2  -2   11.33    1.15
 -10   2   2    9.69    1.02
  10   2  -2   12.49    1.19
 -10   2   2   11.91    1.23
 -10   2   2   13.21    1.22
  10   2  -2   10.69    1.05
  -9  -2   2    0.95    0.38
   9  -2  -2    1.30    0.38
  -9  -2   2    1.16    0.34
   9  -2  -2    2.07    0.45
  -9  -2   2    1.47    0.47
   9   2  -2    0.99    0.34
   9   2  -2    0.73    0.43
  -9   2   2    1.00    0.36
  -9   2   2    0.85    0.40
  -9   2   2    1.52    0.47
  -8  -2   2   40.96    3.14
  -8  -2   2   44.14    2.99
  -8  -2   2   41.36    3.37
  -8  -2   2   43.10    2.90
   8  -2  -2   42.08    2.99
   8  -2  -2   42.79    3.12
  -8  -2   2   40.89    3.13
  -8   2   2   43.42    3.12
  -8   2   2   44.23    3.00
   8   2  -2   41.36    3.00
  -8   2   2   40.57    3.35
   8   2  -2   39.49    3.11
   7  -2  -2   21.55    1.68
  -7  -2   2   23.15    1.71
  -7  -2   2   20.95    1.83
  -7  -2   2   21.59    1.55
  -7  -2   2   25.47    1.65
   7  -2  -2   22.34    1.63
  -7  -2   2   19.84    1.70
  -7   2   2   21.86    1.82
   7   2  -2   19.23    1.76
   7   2  -2   22.03    1.71
  -7   2   2   19.97    1.69
  -7   2   2   24.60    1.62
  -7   2   2   21.32    1.62
   7   2  -2   23.55    1.63
  -6  -2   2   51.54    4.24
  -6  -2   2   56.90    4.29
  -6  -2   2   70.58    4.09
   6  -2  -2   62.05    4.11
   6  -2  -2   58.29    4.07
   6  -2  -2   58.71    4.27
  -6  -2   2   52.88    4.59
  -6  -2   2   59.60    4.00
   6   2  -2   60.87    4.49
  -6   2   2   55.96    4.12
  -6   2   2   57.65    4.58
   6   2  -2   60.48    4.13
  -6   2   2   59.50    4.25
   6   2  -2   66.55    4.27
  -5  -2   2   41.38    3.30
  -5  -2   2   48.44    3.60
  -5  -2   2   45.39    3.34
  -5  -2   2   44.70    3.17
  -5  -2   2   44.83    3.11
  -5  -2   2   46.51    3.11
   5  -2  -2   47.52    3.33
   5  -2  -2   41.78    3.20
   5  -2  -2   47.17    3.18
   5   2  -2   42.24    3.30
  -5   2   2   48.42    3.57
   5   2  -2   43.71    3.49
   5   2  -2   51.90    3.22
  -5   2   2   53.35    3.22
  -5   2   2   45.19    3.31
  -4  -2   2    2.49    0.33
   4  -2  -2    2.18    0.26
  -4  -2   2    2.01    0.27
   4  -2  -2    2.16    0.33
  -4  -2   2    2.13    0.26
   4  -2  -2    1.92    0.26
   4  -2  -2    2.24    0.27
  -4  -2   2    2.39    0.28
   4   2  -2    2.81    0.27
   4   2  -2    1.95    0.28
  -4   2   2    2.11    0.26
   4   2  -2    2.49    0.30
  -4   2   2    2.20    0.24
  -4   2   2    1.90    0.27
   4   2  -2    2.38    0.27
   3  -2  -2   89.13    6.86
  -3  -2   2   87.50    6.87
  -3  -2   2   92.46    7.38
  -3  -2   2   85.97    6.52
   3  -2  -2  107.47    6.87
  -3  -2   2  104.13    6.82
   3  -2  -2  101.55    6.87
   3  -2  -2   99.52    6.66
   3  -2  -2  109.11    6.53
   3   2  -2   94.07    7.20
   3   2  -2  102.92    6.80
  -3   2   2   88.58    6.81
   3   2  -2  111.00    6.65
  -3   2   2   82.16    6.64
   3   2  -2   99.53    6.88
   2  -2  -2   24.07    1.80
  -2  -2   2   26.42    1.84
  -2  -2   2   26.19    1.76
   2  -2  -2   25.28    1.84
   2  -2  -2   28.11    1.84
   2  -2  -2   26.12    1.86
  -2  -2   2   25.66    1.83
   2  -2  -2   25.15    1.75
  -2  -2   2   25.49    1.75
   2  -2  -2   24.52    1.75
  -2  -2   2   27.48    1.84
  -2  -2   2   22.98    2.00
   2   2  -2   24.72    1.93
  -2   2   2   26.50    1.82
   2   2  -2   25.73    1.82
   1  -2  -2  128.72    9.43
   1  -2  -2  137.47    9.17
   1  -2  -2  126.54    8.97
  -1  -2   2  129.55    8.97
  -1  -2   2  153.02    9.45
  -1  -2   2  130.52    9.17
  -1  -2   2  137.12    9.46
   1  -2  -2  139.67    9.45
  -1  -2   2  124.86   10.14
  -1  -2   2  128.61    8.97
  -1  -2   2  132.55    9.37
  -1  -2   2  140.19    9.45
   1  -2  -2  134.60    8.97
   1   2  -2  122.65    9.36
  -1   2   2  144.93    9.36
   0  -2  -2   48.60    3.23
   0  -2  -2   49.26    3.13
   0  -2   2   43.15    3.32
   0  -2   2   43.52    3.22
   0  -2  -2   50.30    3.14
   0  -2   2   45.16    3.13
   0  -2   2   42.18    3.57
   0  -2   2   49.08    3.14
   0  -2  -2   50.49    3.32
   0  -2  -2   47.24    2.87
   0   2   2   45.17    3.27
   0   2  -2   45.66    3.27
   1  -2   2    1.41    0.20
  -1  -2  -2    1.24    0.21
   1  -2   2    1.14    0.15
   1  -2   2    1.01    0.13
   1  -2   2    0.94    0.12
  -1  -2  -2    1.19    0.14
   1  -2   2    1.90    0.22
  -1  -2  -2    0.93    0.14
  -1  -2  -2    1.07    0.13
  -1  -2  -2    1.27    0.14
  -1  -2  -2    1.10    0.15
  -1  -2  -2    1.04    0.12
   1  -2   2    1.41    0.15
  -1  -2  -2    1.14    0.13
  -1  -2  -2    1.03    0.16
  -1  -2  -2    0.99    0.12
   1  -2   2    1.36    0.15
   1  -2   2    1.29    0.17
   1   2   2    1.32    0.14
  -1   2  -2    1.06    0.13
  -2  -2  -2  205.07   13.61
  -2  -2  -2  191.72   14.39
   2  -2   2  234.69   12.43
  -2  -2  -2  194.65   13.66
  -2  -2  -2  191.10   13.66
  -2  -2  -2  232.39   13.94
   2  -2   2  188.03   13.94
  -2  -2  -2  189.19   15.41
   2  -2   2  215.75   15.07
  -2  -2  -2  200.24   12.42
   2  -2   2  205.71   13.61
  -2  -2  -2  200.91   14.27
   2  -2   2  205.15   13.66
  -2  -2  -2  229.97   14.40
   2  -2   2  201.91   14.39
   2  -2   2  233.25   14.40
   2  -2   2  194.75   14.36
  -2   2  -2  209.14   14.26
   2   2   2  187.69   14.26
   2   2   2  171.89   15.08
   3  -2   2    2.47    0.25
   3  -2   2    3.03    0.37
  -3  -2  -2    2.96    0.28
   3  -2   2    2.11    0.26
   3  -2   2    3.05    0.29
   3  -2   2    2.83    0.28
   3  -2   2    2.42    0.25
  -3  -2  -2    2.42    0.26
  -3  -2  -2    2.70    0.31
  -3  -2  -2    2.50    0.26
  -3  -2  -2    3.26    0.29
   3  -2   2    2.72    0.29
  -3  -2  -2    2.77    0.29
  -3  -2  -2    2.36    0.22
   3  -2   2    2.39    0.23
  -3   2  -2    2.64    0.28
   3   2   2    2.80    0.29
   3   2   2    2.43    0.25
  -3   2  -2    2.95    0.26
   3   2   2    2.37    0.27
  -3   2  -2    2.60    0.27
   3   2   2    2.76    0.28
   4  -2   2   64.51    4.77
   4  -2   2   77.50    5.27
  -4  -2  -2   64.70    5.04
   4  -2   2   79.75    4.34
  -4  -2  -2   75.38    4.78
  -4  -2  -2   65.79    4.85
  -4  -2  -2   73.13    4.99
  -4  -2  -2   76.71    4.77
  -4  -2  -2   73.42    5.40
   4  -2   2   67.40    4.85
   4  -2   2   67.30    4.76
   4  -2   2   71.84    5.04
   4   2   2   68.31    4.99
   4   2   2   68.10    4.86
  -4   2  -2   72.63    5.06
   4   2   2   66.77    5.28
  -4   2  -2   70.65    4.86
  -4   2  -2   67.14    4.86
  -4   2  -2   71.77    4.99
  -5  -2  -2    1.00    0.16
   5  -2   2    1.19    0.23
   5  -2   2    1.20    0.24
  -5  -2  -2    1.16    0.24
  -5  -2  -2    1.34    0.20
   5  -2   2    1.46    0.17
  -5  -2  -2    1.25    0.24
  -5  -2  -2    1.24    0.28
  -5  -2  -2    1.20    0.24
   5  -2   2    1.50    0.25
   5  -2   2    0.95    0.22
   5   2   2    1.62    0.28
   5   2   2    1.42    0.26
   5   2   2    1.44    0.23
  -5   2  -2    1.24    0.22
  -5   2  -2    1.34    0.26
  -6  -2  -2   13.03    1.04
   6  -2   2   14.62    1.09
   6  -2   2   12.63    1.04
   6  -2   2   13.67    1.00
  -6  -2  -2   13.93    1.05
  -6  -2  -2   12.38    1.14
  -6  -2  -2   12.09    0.92
  -6  -2  -2   12.56    1.00
   6   2   2   12.62    0.98
   6   2   2   11.92    1.04
   6   2   2   12.54    1.10
  -6   2  -2   14.06    1.00
  -6   2  -2   10.88    1.04
  -7  -2  -2   41.89    2.72
  -7  -2  -2   38.19    2.63
   7  -2   2   40.22    2.97
   7  -2   2   38.59    2.62
   7  -2   2   39.76    2.85
  -7  -2  -2   39.03    3.08
  -7  -2  -2   41.32    2.83
  -7  -2  -2   37.66    2.85
   7  -2   2   35.90    2.70
   7   2   2   34.78    2.82
   7   2   2   39.19    2.73
   7   2   2   38.08    2.98
  -7   2  -2   35.06    2.82
  -7   2  -2   38.92    2.74
   8  -2   2    5.75    0.62
  -8  -2  -2    5.15    0.62
   8  -2   2    5.50    0.60
  -8  -2  -2    5.15    0.70
  -8  -2  -2    4.48    0.49
  -8  -2  -2    5.16    0.60
   8   2   2    5.79    0.67
   8   2   2    4.96    0.57
  -8   2  -2    5.09    0.57
  -8   2  -2    5.46    0.63
   8   2   2    6.23    0.65
  -9  -2  -2   21.56    1.52
  -9  -2  -2   20.29    1.69
   9  -2   2   20.77    1.68
  -9  -2  -2   18.71    1.83
  -9   2  -2   21.80    1.71
   9   2   2   22.67    1.73
  -9   2  -2   18.16    1.79
   9   2   2   21.08    1.59
   9   2   2   19.24    1.75
  -9   2  -2   23.23    1.62
 -10  -2  -2    1.68    0.52
 -10  -2  -2    0.69    0.41
  10  -2   2    1.39    0.42
  10   2   2    1.22    0.51
  10   2   2    1.16    0.38
 -10   2  -2    1.44    0.41
 -10   2  -2    1.39    0.52
 -10   2  -2    0.77    0.47
  10   2   2    1.28    0.47
   9  -3  -2   38.92    2.96
  -9  -3   2   37.75    2.70
   9  -3  -2   38.74    2.70
   9  -3  -2   37.40    2.79
  -9  -3   2   34.16    2.78
  -9  -3   2   37.18    3.04
  -9   3   2   35.99    3.01
   9   3  -2   36.56    2.68
  -9   3   2   34.43    2.80
   9   3  -2   38.33    2.83
   8  -3  -2    1.36    0.40
   8  -3  -2    1.72    0.41
  -8  -3   2    1.48    0.39
  -8  -3   2    2.19    0.46
   8  -3  -2    0.94    0.55
  -8  -3   2    2.18    0.49
  -8  -3   2    1.34    0.40
   8   3  -2    1.86    0.36
  -8   3   2    1.98    0.46
  -8   3   2    1.60    0.44
   8   3  -2    1.76    0.48
   7  -3  -2   51.07    3.95
   7  -3  -2   54.87    3.78
  -7  -3   2   53.89    3.96
  -7  -3   2   49.36    4.28
  -7  -3   2   56.57    3.80
  -7  -3   2   56.80    3.96
   7  -3  -2   61.56    4.06
   7   3  -2   55.01    3.83
  -7   3   2   57.04    4.26
  -7   3   2   54.23    3.95
   7   3  -2   55.77    4.17
   7   3  -2   49.15    3.94
  -6  -3   2   27.40    2.19
  -6  -3   2   24.76    2.37
  -6  -3   2   31.12    2.21
  -6  -3   2   33.02    2.12
   6  -3  -2   27.38    2.18
   6  -3  -2   30.28    2.28
   6  -3  -2   30.13    2.11
   6  -3  -2   28.55    2.11
   6   3  -2   31.60    2.21
  -6   3   2   29.45    2.35
   6   3  -2   30.63    2.31
  -6   3   2   30.82    2.20
  -5  -3   2   30.20    2.30
  -5  -3   2   26.73    2.10
   5  -3  -2   28.29    2.02
   5  -3  -2   22.50    2.15
   5  -3  -2   28.10    2.04
   5  -3  -2   31.52    2.11
  -5  -3   2   28.52    2.11
  -5  -3   2   28.50    2.02
   5   3  -2   29.32    2.22
   5   3  -2   30.51    2.11
  -5   3   2   29.99    2.10
  -4  -3   2   95.47    6.28
   4  -3  -2   96.35    6.41
   4  -3  -2  101.45    6.63
   4  -3  -2   92.99    6.28
   4  -3  -2   87.76    6.60
  -4  -3   2   87.84    7.10
  -4  -3   2   98.07    6.56
  -4  -3   2   89.27    6.61
   4   3  -2   89.69    6.93
   4   3  -2   91.50    6.55
  -4   3   2   93.63    6.55
  -3  -3   2    2.77    0.28
   3  -3  -2    2.88    0.32
   3  -3  -2    2.94    0.29
   3  -3  -2    3.19    0.29
   3  -3  -2    3.16    0.29
  -3  -3   2    2.90    0.31
  -3  -3   2    2.53    0.28
  -3  -3   2    2.81    0.30
   3  -3  -2    2.90    0.30
  -3  -3   2    2.63    0.37
   3  -3  -2    2.69    0.37
  -3   3   2    2.92    0.31
   3   3  -2    2.77    0.31
   3   3  -2    2.46    0.29
   2  -3  -2  141.38   11.82
  -2  -3   2  160.78   11.82
  -2  -3   2  178.11   11.50
  -2  -3   2  172.69   11.74
   2  -3  -2  173.75   10.24
   2  -3  -2  160.79   11.23
  -2  -3   2  174.10   11.24
   2  -3  -2  164.44   11.23
  -2  -3   2  180.88   11.85
  -2  -3   2  193.23   11.84
   2  -3  -2  171.91   11.49
  -2  -3   2  163.63   11.23
  -2   3   2  154.37   11.72
   2   3  -2  168.94   11.72
   2   3  -2  157.31   12.40
   1  -3  -2   37.32    2.38
   1  -3  -2   32.10    2.20
  -1  -3   2   32.25    2.03
  -1  -3   2   32.17    2.20
   1  -3  -2   33.59    2.04
   1  -3  -2   32.04    2.20
  -1  -3   2   31.67    2.20
  -1  -3   2   32.42    2.38
  -1  -3   2   32.11    2.30
  -1  -3   2   34.38    2.54
  -1  -3   2   27.45    2.30
  -1   3   2   32.46    2.30
   1   3  -2   34.99    2.30
   0  -3   2   44.07    3.30
   0  -3  -2   48.18    3.03
   0  -3   2   47.25    3.03
   0  -3   2   52.92    3.53
   0  -3  -2   50.29    3.29
   0  -3   2   50.53    3.41
   0  -3  -2   52.78    3.52
   0  -3  -2   47.72    3.29
   0  -3  -2   52.14    3.41
   0  -3   2   46.78    3.29
   1  -3   2   91.24    5.91
  -1  -3  -2   85.43    5.40
  -1  -3  -2   83.04    6.26
  -1  -3  -2   80.34    6.17
  -1  -3  -2   83.26    6.18
  -1  -3  -2   88.99    5.91
   1  -3   2   96.16    6.72
   1  -3   2   93.95    6.07
  -1  -3  -2   77.95    6.06
  -1  -3  -2   88.86    6.67
  -1  -3  -2   88.17    5.92
   1  -3   2   96.91    5.42
   1  -3   2   89.85    6.27
   1  -3   2   92.15    5.92
  -1   3  -2   87.97    6.17
   1   3   2   87.91    6.17
   2  -3   2   18.39    1.40
  -2  -3  -2   19.05    1.24
   2  -3   2   18.08    1.34
   2  -3   2   20.44    1.34
   2  -3   2   19.87    1.34
  -2  -3  -2   19.97    1.40
  -2  -3  -2   20.42    1.40
  -2  -3  -2   19.25    1.34
  -2  -3  -2   18.60    1.34
  -2  -3  -2   19.38    1.53
   2  -3   2   19.74    1.40
   2  -3   2   19.46    1.49
  -2  -3  -2   20.72    1.34
   2  -3   2   17.41    1.25
  -2  -3  -2   20.99    1.41
  -2  -3  -2   19.78    1.40
   2   3   2   18.25    1.48
   2   3   2   19.89    1.40
  -2   3  -2   18.88    1.40
  -3  -3  -2  156.05   12.64
  -3  -3  -2  178.44   11.01
  -3  -3  -2  163.77   12.36
  -3  -3  -2  184.98   12.07
   3  -3   2  190.15   12.76
  -3  -3  -2  185.03   13.67
   3  -3   2  184.11   12.10
  -3  -3  -2  181.04   12.75
   3  -3   2  182.28   11.03
   3  -3   2  183.72   12.07
   3  -3   2  178.84   12.75
   3  -3   2  169.54   12.36
  -3  -3  -2  200.74   12.11
  -3  -3  -2  158.57   12.75
   3   3   2  188.24   12.64
  -3   3  -2  190.42   12.64
   3   3   2  196.13   13.37
  -4  -3  -2    4.12    0.39
   4  -3   2    3.76    0.38
  -4  -3  -2    4.03    0.39
   4  -3   2    3.81    0.37
   4  -3   2    3.87    0.35
  -4  -3  -2    3.84    0.34
   4  -3   2    3.42    0.38
  -4  -3  -2    3.84    0.38
  -4  -3  -2    3.42    0.38
   4  -3   2    2.51    0.46
  -4  -3  -2    4.05    0.40
  -4  -3  -2    4.66    0.48
   4  -3   2    4.37    0.40
   4   3   2    4.18    0.42
  -4   3  -2    3.89    0.40
   4   3   2    4.11    0.44
  -5  -3  -2   66.26    4.36
   5  -3   2   63.05    4.12
  -5  -3  -2   58.10    4.67
   5  -3   2   64.72    3.75
   5  -3   2   59.46    4.19
   5  -3   2   59.97    4.42
  -5  -3  -2   64.87    4.32
   5  -3   2   55.36    4.34
  -5  -3  -2   64.04    4.14
   5  -3   2   62.28    4.13
   5   3   2   54.02    4.56
  -5   3  -2   58.81    4.32
   5   3   2   57.05    4.31
  -6  -3  -2   27.39    1.94
   6  -3   2   23.52    2.13
  -6  -3  -2   25.12    2.01
  -6  -3  -2   25.47    2.03
   6  -3   2   29.68    1.94
   6  -3   2   27.49    2.02
  -6  -3  -2   25.92    2.20
   6  -3   2   29.01    1.94
  -6   3  -2   24.47    2.03
   6   3   2   28.55    2.03
   6   3   2   31.16    2.16
   7  -3   2   10.17    1.13
  -7  -3  -2   11.49    0.98
   7  -3   2   10.06    0.93
  -7  -3  -2   10.07    1.04
  -7  -3  -2   12.65    0.96
   7  -3   2   12.23    0.94
  -7  -3  -2   11.11    0.97
   7   3   2   10.56    0.90
   7   3   2   10.82    1.00
   7   3   2    9.95    1.01
  -7   3  -2    8.99    0.97
  -8  -3  -2   50.86    3.34
  -8  -3  -2   56.44    3.80
   8  -3   2   42.01    3.30
   8  -3   2   41.80    3.46
   8  -3   2   37.09    3.58
  -8  -3  -2   44.57    3.48
  -8  -3  -2   53.43    3.48
  -8   3  -2   47.08    3.47
   8   3   2   42.66    3.65
   8   3   2   55.17    3.51
   8   3   2   49.37    3.36
  -9  -3  -2   -0.70    0.40
   9  -3   2   -0.95    0.36
   9  -3   2   -0.06    0.34
  -9  -3  -2   -0.12    0.35
  -9  -3  -2   -0.19    0.43
   9  -3   2   -0.73    0.57
   9   3   2    0.50    0.40
  -9   3  -2   -0.36    0.40
   9   3   2    0.07    0.41
   9   3   2    0.49    0.34
  -8  -4   2    4.19    0.55
  -8  -4   2    4.44    0.62
   8  -4  -2    3.10    0.71
   8  -4  -2    3.91    0.56
   8  -4  -2    3.61    0.52
  -8  -4   2    4.20    0.68
  -8  -4   2    3.82    0.58
  -8   4   2    4.59    0.65
   8   4  -2    5.10    0.67
  -7  -4   2    1.06    0.40
   7  -4  -2    0.29    0.36
   7  -4  -2    0.83    0.33
  -7  -4   2    0.43    0.36
  -7  -4   2    0.91    0.36
  -7  -4   2    1.00    0.31
   7  -4  -2    0.55    0.51
   7   4  -2    1.07    0.39
  -7   4   2    0.90    0.39
   7   4  -2    0.52    0.40
   6  -4  -2    0.72    0.28
   6  -4  -2    0.26    0.42
  -6  -4   2    0.70    0.27
  -6  -4   2    0.28    0.29
   6  -4  -2    0.75    0.32
  -6  -4   2    0.76    0.39
  -6  -4   2    0.58    0.33
   6  -4  -2    0.96    0.27
   6   4  -2    0.65    0.33
   6   4  -2    0.33    0.31
  -6   4   2    0.10    0.30
   5  -4  -2    0.40    0.27
  -5  -4   2   -0.10    0.28
  -5  -4   2    0.22    0.21
  -5  -4   2    0.08    0.24
   5  -4  -2    0.45    0.21
   5  -4  -2    0.29    0.36
  -5  -4   2    0.25    0.25
   5  -4  -2   -0.03    0.24
  -5  -4   2    0.35    0.23
   5   4  -2    0.42    0.25
   5   4  -2    0.13    0.24
  -5   4   2    0.28    0.25
   4  -4  -2   12.75    0.96
   4  -4  -2   11.67    0.90
  -4  -4   2   11.88    0.90
  -4  -4   2   13.10    0.92
  -4  -4   2   11.57    0.84
   4  -4  -2   11.47    1.05
  -4  -4   2   11.34    0.90
  -4  -4   2   10.50    1.05
  -4  -4   2   11.46    0.93
   4  -4  -2   12.72    0.89
   4   4  -2   11.19    0.97
  -4   4   2    9.43    0.93
   4   4  -2   11.27    0.93
  -3  -4   2   22.93    1.51
   3  -4  -2   23.31    1.52
   3  -4  -2   25.81    1.72
   3  -4  -2   20.17    1.80
  -3  -4   2   22.80    1.88
  -3  -4   2   22.86    1.70
  -3  -4   2   26.18    1.63
   3  -4  -2   21.61    1.62
   3   4  -2   22.80    1.69
  -3   4   2   24.11    1.70
  -2  -4   2    0.64    0.25
   2  -4  -2    0.36    0.13
   2  -4  -2    0.42    0.14
  -2  -4   2    0.59    0.29
  -2  -4   2    0.47    0.14
   2  -4  -2    0.70    0.28
  -2  -4   2    0.35    0.24
  -2  -4   2    0.44    0.16
  -2  -4   2    0.08    0.19
   2  -4  -2    0.35    0.19
  -2  -4   2    0.49    0.16
   2  -4  -2    0.17    0.15
   2  -4  -2    0.44    0.24
   2   4  -2    0.47    0.14
  -2   4   2    0.37    0.14
  -1  -4   2    9.34    0.80
   1  -4  -2   10.54    0.70
  -1  -4   2    9.19    0.68
  -1  -4   2    9.11    0.68
   1  -4  -2    9.06    0.68
  -1  -4   2   10.48    0.88
   1  -4  -2    9.34    0.80
   1  -4  -2    9.86    0.67
  -1  -4   2    9.51    0.71
   1  -4  -2   11.20    0.87
  -1  -4   2    8.78    0.86
   0  -4   2    8.83    0.67
   0  -4   2    9.20    0.76
   0  -4  -2    8.52    0.76
   0  -4  -2    9.10    0.81
   0  -4   2    8.43    0.65
   0  -4   2    8.24    0.82
   0  -4   2    8.76    0.83
   0  -4   2    9.38    0.63
   0  -4  -2   10.54    0.68
   1  -4   2   18.78    1.43
   1  -4   2   18.19    1.24
  -1  -4  -2   16.92    1.24
   1  -4   2   18.14    1.35
   1  -4   2   17.86    1.21
   1  -4   2   18.91    1.25
   1  -4   2   19.32    1.48
  -1  -4  -2   17.82    1.42
  -1  -4  -2   16.76    1.34
  -1  -4  -2   18.10    1.19
  -1  -4  -2   18.18    1.24
   2  -4   2    1.75    0.21
  -2  -4  -2    1.70    0.25
   2  -4   2    2.00    0.24
  -2  -4  -2    2.31    0.39
  -2  -4  -2    2.01    0.23
   2  -4   2    1.79    0.28
   2  -4   2    2.02    0.40
   2  -4   2    2.01    0.31
  -2  -4  -2    2.09    0.31
  -2  -4  -2    1.66    0.22
  -2  -4  -2    2.32    0.29
   2  -4   2    2.02    0.22
  -2   4  -2    1.74    0.23
   2   4   2    1.57    0.22
   3  -4   2    0.90    0.20
  -3  -4  -2    1.10    0.21
  -3  -4  -2    1.28    0.22
  -3  -4  -2    0.84    0.21
   3  -4   2    1.65    0.22
  -3  -4  -2    1.05    0.27
   3  -4   2    0.96    0.24
  -3  -4  -2    1.20    0.28
  -3  -4  -2    1.28    0.22
   3  -4   2    1.29    0.29
   3  -4   2    1.32    0.37
   3   4   2    1.19    0.22
  -3   4  -2    1.30    0.23
  -4  -4  -2   16.55    1.05
   4  -4   2   16.54    1.21
  -4  -4  -2   15.98    1.21
   4  -4   2   15.92    1.08
  -4  -4  -2   17.62    1.34
   4  -4   2   15.24    1.16
   4  -4   2   16.71    1.15
  -4  -4  -2   15.92    1.20
  -4  -4  -2   15.30    1.18
   4  -4   2   15.81    1.15
  -4  -4  -2   14.74    1.15
   4  -4   2   14.30    1.33
   4   4   2   14.66    1.26
   4   4   2   14.94    1.20
  -4   4  -2   15.67    1.21
  -5  -4  -2   23.64    1.65
   5  -4   2   23.32    1.64
  -5  -4  -2   21.65    1.66
   5  -4   2   20.32    1.45
  -5  -4  -2   19.80    1.59
   5  -4   2   22.76    1.60
   5  -4   2   24.49    1.64
   5  -4   2   20.95    1.81
  -5  -4  -2   21.78    1.83
  -5  -4  -2   22.49    1.66
   5  -4   2   23.50    1.59
   5   4   2   23.56    1.77
   5   4   2   21.03    1.66
  -5   4  -2   20.15    1.67
  -6  -4  -2    2.92    0.51
   6  -4   2    2.88    0.40
   6  -4   2    3.12    0.38
   6  -4   2    2.66    0.59
   6  -4   2    2.90    0.38
   6  -4   2    3.15    0.42
  -6  -4  -2    2.79    0.41
  -6  -4  -2    2.81    0.40
  -6  -4  -2    2.14    0.40
  -6   4  -2    2.80    0.44
   6   4   2    3.15    0.47
   6   4   2    3.00    0.45
  -7  -4  -2    1.28    0.37
   7  -4   2    0.89    0.31
  -7  -4  -2    0.62    0.34
   7  -4   2    0.83    0.32
  -7  -4  -2    1.26    0.43
   7  -4   2    0.49    0.51
  -7  -4  -2    0.93    0.32
   7   4   2    0.65    0.39
   7   4   2    0.61    0.37
  -7   4  -2    0.83    0.40
  -8  -4  -2    0.10    0.39
   8  -4   2    0.65    0.34
   8  -4   2    0.99    0.39
  -8  -4  -2    0.84    0.41
   8  -4   2    1.01    0.63
  -8  -4  -2    0.53    0.35
  -8  -4  -2    1.41    0.49
  -8   4  -2    0.80    0.44
   8   4   2    1.35    0.46
   8   4   2    0.20    0.39
  -8  -5   2    1.58    0.47
   7  -5  -2   29.01    2.15
   7  -5  -2   30.94    2.17
  -7  -5   2   28.91    2.20
  -7  -5   2   27.43    2.17
  -7  -5   2   31.15    2.47
  -7  -5   2   29.24    2.25
  -7  -5   2   26.86    2.14
   7  -5  -2   31.30    2.41
  -7   5   2   28.04    2.24
   7   5  -2   28.55    2.27
   6  -5  -2   14.09    1.35
  -6  -5   2   12.11    1.06
  -6  -5   2   10.88    1.09
  -6  -5   2   11.90    1.02
  -6  -5   2   13.66    1.24
   6  -5  -2   11.47    1.05
   6   5  -2   11.70    1.13
  -6   5   2   12.90    1.11
  -5  -5   2   10.33    1.07
  -5  -5   2   11.31    0.92
   5  -5  -2   10.40    0.97
   5  -5  -2   11.21    0.91
  -5  -5   2   11.58    0.96
   5  -5  -2    8.67    1.03
  -5   5   2   11.56    0.97
   5   5  -2    9.52    0.96
  -4  -5   2   51.56    3.76
   4  -5  -2   52.87    3.75
   4  -5  -2   55.19    4.07
  -4  -5   2   55.71    3.93
  -4  -5   2   57.85    3.46
   4  -5  -2   51.71    3.88
  -4  -5   2   58.82    4.31
   4   5  -2   52.78    3.92
  -4   5   2   58.87    3.93
  -3  -5   2    0.30    0.22
  -3  -5   2    0.11    0.21
   3  -5  -2   -0.07    0.30
   3  -5  -2    0.06    0.19
   3  -5  -2    0.20    0.27
  -3  -5   2   -0.13    0.31
   3  -5  -2    0.15    0.39
  -3  -5   2   -0.28    0.31
  -3  -5   2    0.07    0.25
   3   5  -2   -0.21    0.20
  -3   5   2   -0.14    0.20
   2  -5  -2   53.23    4.04
  -2  -5   2   57.38    3.75
  -2  -5   2   50.68    4.06
   2  -5  -2   55.39    3.74
  -2  -5   2   50.33    4.30
   2  -5  -2   63.04    3.92
   2  -5  -2   54.93    3.47
  -2  -5   2   56.59    3.92
  -2  -5   2   53.57    3.47
  -2  -5   2   52.33    3.91
  -2   5   2   60.90    3.91
   2   5  -2   54.70    3.90
  -1  -5   2    1.98    0.46
   1  -5  -2    1.73    0.29
   1  -5  -2    1.97    0.37
  -1  -5   2    1.79    0.38
  -1  -5   2    1.79    0.21
  -1  -5   2    2.51    0.42
   1  -5  -2    2.45    0.45
  -1  -5   2    1.99    0.33
   0  -5   2   26.33    1.72
   0  -5  -2   26.81    1.71
   0  -5   2   25.10    2.10
   0  -5  -2   24.53    2.02
   0  -5  -2   28.50    1.93
   0  -5   2   27.48    1.94
   0  -5   2   23.22    2.02
   1  -5   2   70.72    5.78
   1  -5   2   82.77    4.99
  -1  -5  -2   82.90    4.98
   1  -5   2   82.06    5.60
   1  -5   2   79.59    6.16
  -1  -5  -2   78.32    5.79
  -1  -5  -2   80.37    5.60
  -1  -5  -2   84.61    5.40
   2  -5   2    3.18    0.45
  -2  -5  -2    3.78    0.56
   2  -5   2    3.16    0.41
   2  -5   2    3.12    0.32
  -2  -5  -2    3.51    0.34
  -2  -5  -2    3.50    0.36
  -2  -5  -2    2.70    0.44
   2  -5   2    3.60    0.57
  -2  -5  -2    3.68    0.39
  -2   5  -2    3.29    0.33
   2   5   2    3.66    0.35
  -3  -5  -2   52.64    3.68
   3  -5   2   49.30    3.52
  -3  -5  -2   52.72    3.69
   3  -5   2   53.41    3.68
  -3  -5  -2   52.33    3.54
  -3  -5  -2   51.51    3.26
   3  -5   2   51.67    3.53
   3  -5   2   50.09    3.28
   3  -5   2   52.28    3.87
  -3  -5  -2   52.62    3.53
  -3   5  -2   53.45    3.69
   3   5   2   52.12    3.70
  -4  -5  -2    0.15    0.24
   4  -5   2    0.15    0.24
   4  -5   2    0.61    0.48
  -4  -5  -2    0.30    0.32
   4  -5   2   -0.39    0.28
   4  -5   2   -0.16    0.25
   4  -5   2    0.36    0.23
  -4  -5  -2   -0.27    0.23
  -4  -5  -2    0.24    0.24
  -4   5  -2    0.16    0.26
   4   5   2    0.01    0.27
   5  -5   2   40.66    2.78
  -5  -5  -2   41.12    2.89
   5  -5   2   40.66    3.10
   5  -5   2   42.36    2.87
   5  -5   2   36.67    2.76
   5  -5   2   41.45    2.56
  -5  -5  -2   36.17    2.90
  -5  -5  -2   39.84    2.78
  -5   5  -2   40.89    2.91
   5   5   2   40.90    2.92
  -6  -5  -2    8.08    0.82
   6  -5   2    8.20    0.76
   6  -5   2    8.30    1.04
  -6  -5  -2    9.06    0.76
   6  -5   2    9.48    0.82
  -6  -5  -2    7.55    0.84
  -6   5  -2    9.02    0.90
   6   5   2    8.62    0.90
   7  -5   2    3.34    0.49
  -7  -5  -2    2.40    0.42
  -7  -5  -2    2.16    0.49
   7  -5   2    2.76    0.76
  -7  -5  -2    3.43    0.53
   7  -5   2    3.80    0.44
  -7   5  -2    4.13    0.59
   7   5   2    4.28    0.61
   6  -6  -2   11.45    1.30
   6  -6  -2   11.57    1.06
  -6  -6   2   13.01    1.10
  -6  -6   2   11.74    1.16
   6   6  -2   12.89    1.19
  -6   6   2   12.32    1.14
   5  -6  -2   23.97    1.98
   5  -6  -2   26.70    2.21
  -5  -6   2   27.51    1.97
  -5  -6   2   23.81    1.86
   5  -6  -2   24.55    1.85
  -5   6   2   25.09    1.94
   5   6  -2   26.90    1.97
  -4  -6   2   10.49    0.97
   4  -6  -2   10.41    1.02
   4  -6  -2   12.11    1.18
  -4  -6   2   11.85    0.94
  -4  -6   2   10.39    0.93
   4  -6  -2   10.74    0.91
  -4   6   2   11.22    0.97
   4   6  -2   11.68    0.98
   3  -6  -2   32.79    2.35
   3  -6  -2   31.48    2.16
  -3  -6   2   30.17    2.28
   3  -6  -2   30.52    2.07
  -3  -6   2   31.44    2.18
  -3  -6   2   29.38    2.07
   3  -6  -2   29.01    2.46
   3   6  -2   32.00    2.27
  -3   6   2   33.09    2.27
   2  -6  -2    1.78    0.46
   2  -6  -2    2.49    0.58
   2  -6  -2    2.58    0.43
  -2  -6   2    2.20    0.40
  -2  -6   2    1.83    0.48
  -2  -6   2    1.92    0.29
  -2  -6   2    2.08    0.29
  -2  -6   2    1.85    0.60
   2   6  -2    2.04    0.28
  -1  -6   2   62.11    4.51
   1  -6  -2   60.53    3.83
   1  -6  -2   58.85    4.31
  -1  -6   2   65.86    3.85
  -1  -6   2   57.64    4.32
   1  -6  -2   60.10    4.48
   0  -6  -2   17.30    1.26
   0  -6  -2   17.40    1.55
   0  -6  -2   20.15    1.46
   0  -6   2   15.13    1.42
   0  -6   2   18.05    1.27
   0  -6   2   16.97    1.56
  -1  -6  -2   25.92    1.76
  -1  -6  -2   25.41    2.14
   1  -6   2   26.74    1.79
   1  -6   2   26.46    2.15
   1  -6   2   28.03    2.02
  -1  -6  -2   25.27    2.00
  -2  -6  -2   32.85    2.09
   2  -6   2   35.67    2.40
  -2  -6  -2   33.26    2.38
   2  -6   2   33.42    2.54
   2  -6   2   29.42    2.11
  -2  -6  -2   28.84    2.51
  -2  -6  -2   31.22    2.28
  -2  -6  -2   31.62    2.19
   2  -6   2   32.04    2.18
   2   6   2   31.02    2.29
  -3  -6  -2    1.64    0.31
   3  -6   2    1.63    0.47
   3  -6   2    2.53    0.42
   3  -6   2    2.24    0.31
  -3  -6  -2    1.69    0.30
  -3  -6  -2    1.93    0.31
  -3  -6  -2    1.86    0.38
  -3  -6  -2    2.68    0.51
   3  -6   2    0.82    0.56
  -3   6  -2    2.06    0.32
   3   6   2    1.72    0.35
   4  -6   2   40.84    3.33
   4  -6   2   46.20    2.78
   4  -6   2   41.63    2.96
  -4  -6  -2   41.46    3.12
  -4  -6  -2   43.01    2.97
   4  -6   2   45.69    3.13
   4  -6   2   42.57    2.95
  -4  -6  -2   40.87    3.10
  -4   6  -2   44.76    3.10
   4   6   2   42.35    3.11
  -5  -6  -2   14.31    1.08
   5  -6   2   12.64    1.05
   5  -6   2   12.21    1.37
  -5  -6  -2   11.95    1.20
  -5  -6  -2   13.24    1.13
   5  -6   2   12.12    1.05
   5   6   2   12.63    1.15
  -5   6  -2   13.44    1.14
   6  -6   2   16.64    1.78
  -6  -6  -2   20.20    1.47
   6  -6   2   17.09    1.43
  -6  -6  -2   17.34    1.51
  -6   6  -2   19.58    1.55
   6   6   2   19.41    1.57
   4  -7  -2    0.62    0.63
  -4  -7   2    0.90    0.34
   4  -7  -2    0.64    0.30
   4  -7  -2    0.78    0.47
  -4  -7   2    0.59    0.39
   4   7  -2    0.28    0.36
   3  -7  -2    0.53    0.49
  -3  -7   2   -0.14    0.33
  -3  -7   2   -0.11    0.38
   3  -7  -2    0.55    0.63
  -3  -7   2    0.00    0.28
  -2  -7   2    2.35    0.60
  -2  -7   2    2.64    0.49
   2  -7  -2    2.79    0.56
  -2  -7   2    2.31    0.73
   2  -7  -2    1.41    0.46
   2  -7  -2    2.28    0.64
  -1  -7   2    1.88    0.56
   1  -7  -2    2.50    0.70
   1  -7  -2    2.86    0.56
   1  -7  -2    1.73    0.45
  -1  -7   2    2.58    0.46
  -1  -7   2    1.54    0.69
   0  -7  -2    0.71    0.53
   0  -7   2    0.97    0.66
   0  -7   2    1.78    0.56
   0  -7  -2    0.39    0.58
   0  -7  -2    1.29    0.43
   0  -7   2    1.66    0.46
   1  -7   2    1.04    0.39
  -1  -7  -2    0.15    0.57
   1  -7   2   -0.23    0.62
  -1  -7  -2    0.03    0.36
   1  -7   2    0.66    0.47
  -1  -7  -2   -0.02    0.48
   2  -7   2    0.72    0.48
   2  -7   2    0.76    0.65
  -2  -7  -2   -0.94    0.45
   2  -7   2    0.46    0.42
  -2  -7  -2   -0.18    0.36
  -2  -7  -2    0.03    0.26
  -3  -7  -2    0.09    0.26
   3  -7   2    0.59    0.63
  -3  -7  -2   -0.17    0.31
  -3  -7  -2    0.26    0.42
   3  -7   2    0.14    0.27
  -3  -7  -2   -0.90    0.38
   3  -7   2   -0.56    0.43
   3  -7   2   -0.17    0.40
  -4  -7  -2    0.30    0.32
  -4  -7  -2    1.29    0.39
   4  -7   2    1.64    0.34
  -4  -7  -2    1.29    0.52
   4  -7   2    1.15    0.51
   4  -7   2    1.24    0.43
   4  -7   2    1.62    0.70
   4   7   2    0.52    0.38
  10   0  -3   -0.26    0.32
 -10   0   3   -0.06    0.43
  10   0  -3    0.45    0.33
 -10   0   3    0.16    0.30
   9   0  -3    0.02    0.29
  -9   0   3   -0.08    0.26
  -9   0   3    0.00    0.27
  -9   0   3    0.40    0.41
   9   0  -3    0.03    0.30
  -8   0   3   -0.15    0.25
   8   0  -3   -0.04    0.25
  -8   0   3   -0.33    0.22
   8   0  -3    0.44    0.30
   8   0  -3    0.77    0.30
  -8   0   3   -0.04    0.28
   8   0  -3    0.00    0.26
  -8   0   3   -0.09    0.29
   7   0  -3    0.23    0.23
   7   0  -3   -0.06    0.26
  -7   0   3   -0.13    0.23
   7   0  -3    0.24    0.24
  -7   0   3    0.10    0.26
  -7   0   3    0.37    0.22
  -7   0   3   -0.22    0.23
   7   0  -3    0.22    0.21
  -7   0   3   -0.05    0.20
   6   0  -3    0.51    0.21
  -6   0   3    0.37    0.21
  -6   0   3    0.14    0.18
  -6   0   3    0.06    0.22
  -6   0   3    0.33    0.18
   6   0  -3    0.16    0.21
   6   0  -3    0.20    0.19
  -6   0   3    0.04    0.20
   6   0  -3    0.25    0.21
  -6   0   3    0.00    0.20
   6   0  -3    0.18    0.19
  -5   0   3   -0.24    0.15
  -5   0   3    0.05    0.16
  -5   0   3    0.07    0.15
  -5   0   3    0.04    0.15
   5   0  -3    0.06    0.15
   5   0  -3    0.00    0.14
  -5   0   3   -0.01    0.15
  -5   0   3   -0.04    0.16
  -5   0   3    0.12    0.16
  -5   0   3    0.03    0.15
   5   0  -3   -0.10    0.17
   5   0  -3   -0.07    0.14
   5   0  -3    0.30    0.18
   4   0  -3    0.22    0.13
   4   0  -3    0.22    0.15
  -4   0   3    0.57    0.18
   4   0  -3    0.01    0.13
  -4   0   3    0.19    0.15
  -4   0   3    0.47    0.16
  -4   0   3    0.42    0.14
  -4   0   3    0.44    0.13
   4   0  -3    0.16    0.12
  -4   0   3    0.31    0.15
  -4   0   3    0.08    0.13
   4   0  -3    0.48    0.17
  -3   0   3    0.05    0.11
  -3   0   3    0.16    0.12
   3   0  -3    0.25    0.12
   3   0  -3    0.11    0.13
   3   0  -3    0.12    0.11
   3   0  -3   -0.11    0.10
  -3   0   3   -0.10    0.11
  -3   0   3    0.16    0.12
   3   0  -3   -0.02    0.12
  -3   0   3    0.14    0.13
  -3   0   3    0.09    0.11
  -3   0   3   -0.03    0.12
  -2   0   3   -0.06    0.10
   2   0  -3    0.03    0.10
   2   0  -3   -0.22    0.10
   2   0  -3    0.09    0.10
  -2   0   3   -0.08    0.10
  -2   0   3   -0.05    0.10
   2   0  -3   -0.03    0.10
  -2   0   3   -0.21    0.09
  -2   0   3   -0.02    0.10
   2   0  -3   -0.07    0.11
  -2   0   3    0.09    0.12
  -1   0   3    0.03    0.11
  -1   0   3    0.36    0.11
  -1   0   3    0.14    0.10
  -1   0   3    0.31    0.11
  -1   0   3    0.16    0.11
   1   0  -3    0.37    0.11
  -1   0   3    0.33    0.11
   1   0  -3   -0.04    0.10
   1   0  -3    0.32    0.11
   1   0  -3    0.10    0.10
   0   0  -3    0.15    0.10
   0   0   3    0.07    0.10
   0   0  -3   -0.16    0.09
   0   0   3   -0.38    0.10
   0   0   3   -0.05    0.08
   0   0   3    0.11    0.09
   0   0  -3   -0.03    0.10
   0   0  -3   -0.07    0.10
   0   0   3   -0.05    0.08
  -1   0  -3    0.78    0.13
   1   0   3    0.74    0.12
  -1   0  -3    0.64    0.12
   1   0   3    0.57    0.11
  -1   0  -3    0.43    0.11
   1   0   3    0.58    0.11
  -1   0  -3    0.41    0.12
  -1   0  -3    0.54    0.12
   1   0   3    0.57    0.11
   1   0   3    0.56    0.12
   2   0   3    0.23    0.10
  -2   0  -3    0.20    0.11
   2   0   3    0.21    0.10
   2   0   3    0.10    0.09
  -2   0  -3    0.19    0.10
   2   0   3    0.10    0.09
   2   0   3    0.03    0.10
  -2   0  -3   -0.21    0.10
   2   0   3    0.06    0.11
  -2   0  -3    0.24    0.10
  -2   0  -3    0.20    0.10
   3   0   3    0.24    0.13
  -3   0  -3    0.05    0.13
  -3   0  -3    0.02    0.12
   3   0   3    0.14    0.12
   3   0   3    0.18    0.13
   3   0   3    0.18    0.13
   3   0   3    0.22    0.12
  -3   0  -3    0.42    0.13
   3   0   3    0.24    0.12
  -3   0  -3    0.06    0.13
  -3   0  -3    0.24    0.13
  -3   0  -3    0.08    0.11
   4   0   3    0.22    0.16
  -4   0  -3    0.36    0.17
  -4   0  -3    0.45    0.17
   4   0   3    0.29    0.14
   4   0   3    0.21    0.16
  -4   0  -3    0.28    0.14
  -4   0  -3    0.25    0.16
  -4   0  -3    0.46    0.16
   4   0   3    0.54    0.16
  -4   0  -3    0.29    0.14
   4   0   3    0.28    0.14
   4   0   3    0.45    0.14
  -5   0  -3    0.12    0.17
  -5   0  -3    0.19    0.19
   5   0   3    0.12    0.16
  -5   0  -3   -0.11    0.17
   5   0   3    0.30    0.18
  -5   0  -3    0.05    0.17
  -5   0  -3    0.19    0.15
  -5   0  -3   -0.08    0.15
   5   0   3    0.05    0.14
   5   0   3   -0.01    0.14
   5   0   3    0.23    0.17
   5   0   3   -0.01    0.16
   6   0   3    0.47    0.20
  -6   0  -3    0.29    0.20
  -6   0  -3    0.26    0.22
   6   0   3    0.19    0.18
  -6   0  -3    0.51    0.24
  -6   0  -3    0.35    0.19
   6   0   3    0.53    0.21
   6   0   3    0.61    0.24
   6   0   3    0.10    0.21
  -6   0  -3    0.56    0.22
   6   0   3    0.25    0.22
   7   0   3   -0.02    0.21
   7   0   3    0.04    0.23
   7   0   3   -0.24    0.24
  -7   0  -3   -0.01    0.25
  -7   0  -3   -0.20    0.22
  -7   0  -3    0.09    0.23
   7   0   3    0.10    0.20
  -7   0  -3   -0.06    0.20
   7   0   3    0.28    0.25
   8   0   3   -0.28    0.29
   8   0   3   -0.31    0.22
  -8   0  -3    0.18    0.26
  -8   0  -3   -0.08    0.30
  -8   0  -3    0.21    0.24
   8   0   3    0.40    0.30
   8   0   3    0.15    0.24
   8   0   3    0.38    0.27
  -8   0  -3    0.15    0.31
  -9   0  -3   -0.18    0.29
   9   0   3    0.48    0.37
  -9   0  -3    0.20    0.29
  -9   0  -3   -0.02    0.35
   9   0   3    0.06    0.27
   9   0   3   -0.17    0.27
 -10   0  -3   -0.20    0.30
 -10   0  -3   -0.53    0.39
  10   0   3   -0.38    0.32
  10   0   3   -0.26    0.30
  10   0   3    0.07    0.41
 -10  -1   3   21.38    1.57
  10  -1  -3   21.81    1.59
  10  -1  -3   21.43    1.74
 -10  -1   3   19.50    1.56
 -10  -1   3   21.51    1.87
  10  -1  -3   21.14    1.55
 -10  -1   3   19.36    1.73
 -10   1   3   22.20    1.75
  10   1  -3   20.03    1.61
 -10   1   3   18.39    1.82
 -10   1   3   19.76    1.60
  -9  -1   3   17.29    1.43
   9  -1  -3   18.79    1.43
   9  -1  -3   20.13    1.44
  -9  -1   3   20.51    1.45
  -9  -1   3   18.14    1.58
  -9  -1   3   16.95    1.66
   9  -1  -3   17.83    1.55
  -9   1   3   19.55    1.58
   9   1  -3   18.70    1.58
  -9   1   3   18.21    1.67
   9   1  -3   20.22    1.49
  -9   1   3   20.37    1.48
   8  -1  -3   62.49    4.57
  -8  -1   3   62.27    4.59
  -8  -1   3   61.79    4.27
   8  -1  -3   58.92    4.37
  -8  -1   3   57.13    4.37
   8  -1  -3   64.24    4.27
  -8  -1   3   70.03    4.93
   8   1  -3   67.20    4.41
  -8   1   3   57.39    4.90
   8   1  -3   69.57    4.56
  -8   1   3   64.16    4.39
  -8   1   3   60.23    4.53
  -7  -1   3    3.82    0.41
  -7  -1   3    3.29    0.44
   7  -1  -3    3.90    0.40
  -7  -1   3    4.82    0.44
  -7  -1   3    3.77    0.50
   7  -1  -3    2.98    0.43
   7  -1  -3    3.78    0.41
   7  -1  -3    3.58    0.46
  -7  -1   3    3.08    0.46
   7   1  -3    4.10    0.44
   7   1  -3    4.56    0.52
  -7   1   3    4.21    0.50
  -7   1   3    3.51    0.53
  -7   1   3    3.37    0.43
   6  -1  -3  128.20    7.92
   6  -1  -3  110.71    8.02
  -6  -1   3  115.04    8.25
  -6  -1   3  125.95    8.93
   6  -1  -3  113.77    7.81
  -6  -1   3  109.93    7.90
   6  -1  -3  119.50    8.24
   6  -1  -3  121.56    8.32
  -6  -1   3  134.85    7.83
  -6  -1   3  114.70    8.24
  -6  -1   3  114.88    8.33
  -6  -1   3  113.65    8.03
   6   1  -3  119.98    8.25
   6   1  -3  112.15    8.03
   6   1  -3  115.83    8.32
   6   1  -3  118.91    7.85
  -6   1   3  112.08    8.25
  -6   1   3  102.69    8.03
   5  -1  -3   46.86    3.12
   5  -1  -3   35.59    2.98
  -5  -1   3   43.21    3.12
  -5  -1   3   44.77    3.38
  -5  -1   3   41.55    2.95
   5  -1  -3   45.33    2.95
   5  -1  -3   44.67    3.02
  -5  -1   3   41.06    3.02
  -5  -1   3   37.19    3.11
   5  -1  -3   45.42    3.15
  -5  -1   3   41.27    3.15
  -5  -1   3   46.00    2.99
  -5   1   3   43.48    2.95
   5   1  -3   43.53    3.12
   5   1  -3   43.38    2.99
  -5   1   3   47.67    3.38
   5   1  -3   43.72    2.96
  -5   1   3   44.61    3.04
   5   1  -3   46.31    3.04
  -5   1   3   43.77    3.12
  -5   1   3   45.13    3.16
   5   1  -3   42.88    3.15
  -4  -1   3   50.04    3.52
   4  -1  -3   54.79    3.53
  -4  -1   3   49.13    3.72
   4  -1  -3   54.04    3.72
  -4  -1   3   56.38    4.04
   4  -1  -3   54.91    3.61
  -4  -1   3   52.53    3.62
  -4  -1   3   53.84    3.77
  -4  -1   3   54.79    3.53
   4  -1  -3   49.75    3.52
   4  -1  -3   55.08    3.76
   4  -1  -3   52.53    3.57
  -4  -1   3   48.08    3.56
   4   1  -3   51.13    3.57
  -4   1   3   51.48    4.02
  -4   1   3   49.66    3.76
   4   1  -3   54.97    3.72
   4   1  -3   50.71    3.76
   4   1  -3   47.75    3.62
  -4   1   3   56.10    3.53
  -4   1   3   48.75    3.63
   4   1  -3   58.32    3.54
  -4   1   3   52.44    3.73
  -4   1   3   51.46    3.56
  -3  -1   3  150.43   10.16
   3  -1  -3  150.84   10.41
  -3  -1   3  137.16    9.90
  -3  -1   3  144.56   10.52
   3  -1  -3  141.36   10.16
   3  -1  -3  149.18    9.90
  -3  -1   3  132.25   10.42
   3  -1  -3  137.92   10.52
   3  -1  -3  161.00    9.98
  -3  -1   3  143.58   11.27
  -3  -1   3  156.22   10.42
  -3  -1   3  135.80    9.98
   3  -1  -3  156.91    9.90
  -3  -1   3  141.75    9.90
  -3   1   3  146.62    9.97
  -3   1   3  127.50   10.41
  -3   1   3  145.26   10.52
   3   1  -3  163.21   10.18
  -3   1   3  145.20   11.25
   3   1  -3  146.29   10.41
   3   1  -3  155.45   10.52
  -3   1   3  167.13   10.18
   3   1  -3  162.64    9.98
   3   1  -3  161.79    9.91
  -3   1   3  158.69    9.91
  -2  -1   3    0.92    0.14
  -2  -1   3    0.61    0.13
   2  -1  -3    0.68    0.11
  -2  -1   3    0.47    0.09
  -2  -1   3    1.11    0.14
  -2  -1   3    0.72    0.13
  -2  -1   3    0.56    0.12
   2  -1  -3    0.66    0.14
   2  -1  -3    0.48    0.12
   2  -1  -3    0.91    0.14
   2  -1  -3    0.46    0.10
   2  -1  -3    0.41    0.12
  -2  -1   3    0.73    0.17
   2   1  -3    0.52    0.13
  -2   1   3    0.55    0.11
  -2   1   3    1.07    0.14
  -2   1   3    0.55    0.12
  -2   1   3    0.76    0.13
  -2   1   3    0.36    0.11
   2   1  -3    0.61    0.13
   2   1  -3    0.73    0.14
   2   1  -3    0.48    0.11
  -2   1   3    0.48    0.12
   2   1  -3    0.74    0.14
  -1  -1   3  998.35   58.55
  -1  -1   3  750.80   61.09
   1  -1  -3  927.55   61.29
  -1  -1   3  773.12   65.98
  -1  -1   3  967.99   58.05
   1  -1  -3  976.01   58.48
   1  -1  -3  888.37   58.22
   1  -1  -3  850.77   58.04
  -1  -1   3  757.62   61.27
  -1  -1   3  856.99   61.65
   1  -1  -3  922.76   58.03
   1   1  -3 1000.00   61.60
  -1   1   3  834.36   59.63
  -1   1   3  884.38   61.03
  -1   1   3  791.40   61.58
   1   1  -3  838.21   60.99
   1   1  -3  803.82   59.63
  -1   1   3  921.35   65.92
   0  -1   3   16.23    1.16
   0  -1   3   14.12    1.06
   0  -1  -3   13.41    1.06
   0  -1  -3   15.27    1.01
   0  -1  -3   14.77    1.00
   0  -1   3   14.50    1.07
   0  -1  -3   15.91    1.05
   0  -1  -3   14.51    1.07
   0  -1   3   13.83    1.02
   0  -1   3   14.53    1.00
   0  -1   3   13.78    1.05
   0   1  -3   13.44    1.07
   0   1   3   14.44    1.01
   0   1   3   13.15    1.05
   0   1   3   13.36    1.07
   0   1  -3   13.70    1.06
   0   1   3   15.95    1.12
   0   1  -3   14.33    1.01
   1  -1   3  102.46    8.15
   1  -1   3  116.59    8.57
   1  -1   3  109.55    8.77
   1  -1   3  117.63    7.70
  -1  -1  -3  116.09    7.70
   1  -1   3  123.04    7.74
  -1  -1  -3  102.49    7.76
   1  -1   3  109.12    8.18
  -1  -1  -3  112.40    7.73
   1  -1   3  120.42    7.70
  -1  -1  -3  124.54    8.19
  -1  -1  -3  122.86    8.11
   1  -1   3  127.50    7.77
  -1  -1  -3  112.14    7.70
  -1   1  -3  122.61    7.91
   1   1   3  109.88    7.91
   1   1   3  120.68    8.11
   1   1   3  120.90    8.19
  -1   1  -3  116.76    8.19
  -1   1  -3  109.34    8.10
  -2  -1  -3  109.48    6.94
  -2  -1  -3  107.91    6.64
   2  -1   3   98.89    6.58
  -2  -1  -3   91.98    6.77
   2  -1   3   97.36    7.00
   2  -1   3   88.00    6.77
   2  -1   3   98.47    7.33
   2  -1   3   98.26    6.59
  -2  -1  -3   94.24    6.76
  -2  -1  -3   98.14    6.59
   2  -1   3   92.93    6.64
  -2  -1  -3   95.26    6.58
  -2  -1  -3  105.34    7.00
   2   1   3  106.69    6.94
  -2   1  -3  101.71    6.60
  -2   1  -3  104.61    6.64
   2   1   3  101.42    6.77
   2   1   3  101.97    6.64
   2   1   3   88.10    7.00
  -2   1  -3  102.82    7.00
   2   1   3  108.88    7.34
  -2   1  -3   97.35    6.77
  -2   1  -3   85.02    6.93
   2   1   3   99.74    6.60
   3  -1   3    0.64    0.15
   3  -1   3    0.89    0.16
   3  -1   3    0.93    0.17
  -3  -1  -3    0.71    0.13
   3  -1   3    0.79    0.16
  -3  -1  -3    0.63    0.16
  -3  -1  -3    0.72    0.16
  -3  -1  -3    0.89    0.16
   3  -1   3    0.88    0.17
   3  -1   3    0.85    0.16
  -3  -1  -3    0.62    0.13
   3  -1   3    0.70    0.13
   3  -1   3    0.71    0.10
  -3  -1  -3    0.57    0.14
  -3  -1  -3    0.64    0.16
   3  -1   3    0.87    0.14
   3   1   3    0.86    0.15
  -3   1  -3    0.64    0.14
  -3   1  -3    0.50    0.14
   3   1   3    0.70    0.15
   3   1   3    0.53    0.13
  -3   1  -3    0.44    0.14
  -3   1  -3    0.63    0.16
   3   1   3    1.14    0.18
   3   1   3    0.79    0.15
  -3   1  -3    0.74    0.16
   3   1   3    0.66    0.16
   4  -1   3  298.07   18.28
   4  -1   3  274.21   17.79
  -4  -1  -3  292.58   18.90
   4  -1   3  304.82   17.93
  -4  -1  -3  253.18   18.71
  -4  -1  -3  280.17   18.73
  -4  -1  -3  293.39   17.92
   4  -1   3  278.64   17.86
  -4  -1  -3  297.45   17.79
   4  -1   3  259.45   18.89
  -4  -1  -3  236.04   17.79
  -4  -1  -3  277.76   18.27
   4  -1   3  268.48   19.78
   4  -1   3  238.10   17.79
   4  -1   3  305.19   18.72
   4   1   3  259.57   18.89
   4   1   3  252.40   19.79
   4   1   3  248.38   17.92
  -4   1  -3  257.05   18.28
  -4   1  -3  286.50   17.92
  -4   1  -3  253.20   18.70
   4   1   3  251.43   18.28
  -4   1  -3  236.78   18.89
  -4   1  -3  282.14   17.80
   4   1   3  237.18   17.79
   4   1   3  235.20   18.71
  -5  -1  -3    0.32    0.19
   5  -1   3   -0.07    0.15
  -5  -1  -3    0.15    0.15
   5  -1   3    0.08    0.14
  -5  -1  -3    0.00    0.15
  -5  -1  -3    0.25    0.19
   5  -1   3    0.47    0.17
   5  -1   3    0.00    0.17
  -5  -1  -3   -0.08    0.17
   5  -1   3    0.09    0.15
  -5  -1  -3    0.14    0.18
   5  -1   3    0.08    0.17
   5  -1   3   -0.04    0.18
  -5   1  -3    0.36    0.18
   5   1   3    0.18    0.20
   5   1   3    0.14    0.16
  -5   1  -3    0.12    0.18
  -5   1  -3   -0.01    0.17
   5   1   3    0.25    0.16
   5   1   3    0.07    0.18
   5   1   3   -0.08    0.14
   5   1   3    0.20    0.16
  -5   1  -3   -0.05    0.18
  -6  -1  -3   64.50    4.59
  -6  -1  -3   60.50    4.64
   6  -1   3   69.45    4.41
   6  -1   3   64.16    4.64
  -6  -1  -3   58.52    4.34
   6  -1   3   62.22    4.45
  -6  -1  -3   66.29    4.46
   6  -1   3   60.88    4.84
   6  -1   3   61.40    4.34
   6  -1   3   65.42    4.59
  -6  -1  -3   59.21    4.59
  -6  -1  -3   73.45    4.41
  -6   1  -3   63.13    4.59
   6   1   3   61.83    4.60
   6   1   3   63.68    4.85
   6   1   3   67.98    4.65
  -6   1  -3   72.19    4.48
   6   1   3   64.57    4.47
  -7  -1  -3   46.33    3.35
  -7  -1  -3   47.97    3.52
  -7  -1  -3   47.56    3.33
   7  -1   3   47.15    3.52
   7  -1   3   48.51    3.35
   7  -1   3   52.08    3.67
   7  -1   3   43.79    3.32
   7  -1   3   49.91    3.27
  -7  -1  -3   51.20    3.28
  -7  -1  -3   48.65    3.76
   7   1   3   49.73    3.49
   7   1   3   46.59    3.37
  -7   1  -3   42.57    3.37
   7   1   3   47.08    3.67
  -7   1  -3   49.98    3.48
   8  -1   3   13.51    1.25
  -8  -1  -3   13.70    1.16
  -8  -1  -3   14.91    1.14
   8  -1   3   15.71    1.16
  -8  -1  -3   14.44    1.37
  -8  -1  -3   15.92    1.28
   8  -1   3   15.56    1.31
   8  -1   3   15.35    1.13
  -8   1  -3   15.93    1.20
   8   1   3   13.02    1.28
  -8   1  -3   17.78    1.29
   8   1   3   15.46    1.27
   8   1   3   13.88    1.17
   9  -1   3   27.29    2.01
  -9  -1  -3   26.04    1.86
  -9  -1  -3   24.00    1.99
  -9  -1  -3   24.12    2.16
   9  -1   3   25.72    2.08
   9  -1   3   24.00    1.84
   9  -1   3   25.87    1.82
  -9  -1  -3   26.08    1.83
   9   1   3   26.85    2.00
   9   1   3   25.86    2.08
   9   1   3   23.94    1.88
  -9   1  -3   27.78    2.01
  -9   1  -3   25.22    1.88
  -9   1  -3   20.71    2.10
 -10  -1  -3    2.52    0.60
  10  -1   3    2.64    0.42
 -10  -1  -3    1.90    0.41
  10  -1   3    2.23    0.49
 -10  -1  -3    2.21    0.40
 -10   1  -3    2.35    0.56
  10   1   3    2.12    0.54
 -10   1  -3    2.22    0.55
 -10   1  -3    1.88    0.38
  10   1   3    1.95    0.40
  10  -2  -3   12.80    1.24
 -10  -2   3   14.04    1.42
 -10  -2   3   11.87    1.20
  10   2  -3   12.32    1.17
  10   2  -3   13.40    1.30
 -10   2   3   13.64    1.15
 -10   2   3   11.42    1.23
 -10   2   3   13.89    1.30
  -9  -2   3   10.97    0.91
  -9  -2   3    9.57    1.11
   9  -2  -3    9.65    1.00
  -9  -2   3   10.57    1.02
   9   2  -3   11.16    1.10
  -9   2   3   10.05    1.08
  -9   2   3   12.41    1.09
   9   2  -3    8.66    0.94
  -9   2   3    9.40    0.92
   8  -2  -3   10.19    0.92
  -8  -2   3   10.56    0.93
  -8  -2   3    8.41    0.81
   8  -2  -3    8.63    0.89
  -8  -2   3    9.36    0.89
  -8  -2   3    9.53    1.00
  -8   2   3    9.06    0.83
  -8   2   3    9.23    0.98
   8   2  -3    8.91    0.86
   8   2  -3    9.69    0.98
  -8   2   3    9.76    0.95
  -7  -2   3   64.86    5.38
  -7  -2   3   63.56    4.68
  -7  -2   3   79.99    4.79
  -7  -2   3   70.69    5.02
   7  -2  -3   72.23    5.01
   7  -2  -3   72.73    4.78
  -7  -2   3   76.54    5.00
   7   2  -3   57.40    4.96
   7   2  -3   69.62    4.83
  -7   2   3   66.26    4.98
  -7   2   3   72.30    5.38
  -7   2   3   68.54    4.83
  -6  -2   3    5.26    0.54
   6  -2  -3    4.97    0.53
  -6  -2   3    5.49    0.52
  -6  -2   3    5.54    0.62
   6  -2  -3    4.96    0.48
   6  -2  -3    4.96    0.53
  -6  -2   3    4.84    0.54
  -6  -2   3    5.02    0.46
  -6   2   3    4.22    0.52
   6   2  -3    4.52    0.49
  -6   2   3    4.91    0.50
   6   2  -3    5.41    0.57
  -6   2   3    5.16    0.58
  -5  -2   3   58.53    3.75
   5  -2  -3   56.19    4.02
  -5  -2   3   57.00    4.03
  -5  -2   3   61.85    3.83
  -5  -2   3   47.84    3.75
  -5  -2   3   57.88    4.34
  -5  -2   3   54.26    3.99
   5  -2  -3   61.04    3.83
   5   2  -3   52.72    3.88
  -5   2   3   50.90    3.88
  -5   2   3   54.19    3.99
   5   2  -3   58.22    3.99
  -5   2   3   57.67    4.31
  -4  -2   3   31.23    2.06
   4  -2  -3   28.25    2.07
  -4  -2   3   31.17    2.35
  -4  -2   3   34.61    2.18
   4  -2  -3   28.97    2.17
  -4  -2   3   28.22    2.15
   4  -2  -3   30.31    2.19
   4   2  -3   28.35    2.09
   4   2  -3   29.97    2.17
  -4   2   3   29.20    2.31
  -4   2   3   29.27    2.08
   4   2  -3   28.55    2.14
  -4   2   3   28.76    2.15
   3  -2  -3   37.30    2.43
   3  -2  -3   33.47    2.55
   3  -2  -3   38.31    2.55
  -3  -2   3   37.69    2.56
  -3  -2   3   34.10    2.43
  -3  -2   3   35.45    2.76
  -3   2   3   37.35    2.56
   3   2  -3   38.34    2.56
  -3   2   3   32.70    2.52
  -3   2   3   35.98    2.46
  -3   2   3   34.12    2.72
   3   2  -3   31.24    2.52
   2  -2  -3  148.82   11.62
   2  -2  -3  185.02   12.25
   2  -2  -3  187.75   12.21
  -2  -2   3  176.37   12.26
   2  -2  -3  181.54   12.25
  -2  -2   3  184.28   12.25
  -2  -2   3  181.51   12.25
  -2  -2   3  197.74   11.63
   2  -2  -3  168.13   11.62
  -2   2   3  175.62   13.10
   2   2  -3  153.32   12.13
  -2   2   3  170.24   11.85
   2   2  -3  166.18   11.86
  -2   2   3  154.56   12.13
  -1  -2   3   18.76    1.37
   1  -2  -3   15.09    1.34
   1  -2  -3   16.57    1.32
   1  -2  -3   19.51    1.36
  -1  -2   3   20.78    1.34
   1  -2  -3   19.84    1.28
  -1  -2   3   17.41    1.28
  -1  -2   3   16.91    1.47
   1  -2  -3   19.56    1.33
  -1  -2   3   19.10    1.34
  -1  -2   3   21.14    1.36
  -1  -2   3   19.19    1.27
   1  -2  -3   18.62    1.28
   1   2  -3   17.67    1.34
  -1   2   3   17.45    1.33
   0  -2  -3  151.68   10.36
   0  -2   3  165.64   10.36
   0  -2   3  143.64   10.91
   0  -2  -3  150.24   10.36
   0  -2  -3  149.51   10.81
   0  -2   3  165.74   10.35
   0  -2  -3  148.56   10.32
   0  -2   3  158.54   11.72
   0  -2  -3  163.36   10.91
   0  -2   3  145.32   10.58
   0  -2  -3  149.67   10.91
   0  -2  -3  143.07   10.58
   0  -2   3  161.43   10.32
   0  -2   3  166.01   10.91
   0   2  -3  169.79   10.81
   0   2   3  143.17   10.81
  -1  -2  -3  104.71    7.67
  -1  -2  -3  109.69    7.12
  -1  -2  -3  105.43    6.97
  -1  -2  -3   98.35    7.17
   1  -2   3   96.27    7.17
   1  -2   3   90.81    6.81
   1  -2   3  102.71    7.18
  -1  -2  -3  116.37    6.79
   1  -2   3   93.25    7.72
  -1  -2  -3   91.28    7.19
  -1  -2  -3  100.29    6.81
   1  -2   3  101.50    6.97
   1  -2   3   97.19    6.82
  -1  -2  -3  100.18    7.18
   1  -2   3  116.02    7.19
   1  -2   3  100.52    6.80
  -1  -2  -3  107.08    6.82
  -1   2  -3   95.57    7.11
   1   2   3  103.33    7.11
   2  -2   3   64.52    4.20
  -2  -2  -3   59.39    4.39
   2  -2   3   56.62    4.63
  -2  -2  -3   66.73    4.29
   2  -2   3   55.51    4.44
  -2  -2  -3   64.77    4.43
  -2  -2  -3   52.81    4.43
   2  -2   3   57.91    4.29
   2  -2   3   68.88    4.21
   2  -2   3   71.91    4.44
  -2  -2  -3   57.59    4.20
  -2  -2  -3   62.57    4.19
   2  -2   3   62.89    4.77
   2  -2   3   63.37    4.19
   2  -2   3   61.99    4.43
  -2  -2  -3   61.30    4.74
   2   2   3   66.04    4.28
  -2   2  -3   55.36    4.39
  -2   2  -3   59.50    4.27
   2   2   3   71.42    4.65
   2   2   3   66.03    4.40
  -2   2  -3   65.75    4.28
   3  -2   3   41.11    2.78
  -3  -2  -3   39.05    2.93
  -3  -2  -3   42.99    2.90
  -3  -2  -3   41.23    2.82
  -3  -2  -3   44.93    2.79
   3  -2   3   40.35    2.83
  -3  -2  -3   39.98    3.14
   3  -2   3   37.50    2.93
   3  -2   3   38.08    2.77
  -3  -2  -3   43.98    2.78
   3  -2   3   37.21    2.92
   3  -2   3   35.78    2.96
   3  -2   3   44.69    2.53
   3  -2   3   46.46    3.06
  -3   2  -3   45.14    2.82
   3   2   3   36.18    2.93
  -3   2  -3   44.48    2.94
   3   2   3   37.34    2.90
   3   2   3   42.84    2.83
   3   2   3   37.09    3.07
  -3   2  -3   40.18    2.90
  -4  -2  -3   17.89    1.43
   4  -2   3   18.74    1.48
  -4  -2  -3   18.30    1.53
   4  -2   3   19.20    1.36
   4  -2   3   19.73    1.22
   4  -2   3   16.01    1.35
  -4  -2  -3   19.51    1.42
  -4  -2  -3   18.95    1.36
   4  -2   3   21.19    1.37
  -4  -2  -3   18.49    1.35
   4  -2   3   21.41    1.43
  -4   2  -3   19.69    1.37
   4   2   3   20.87    1.43
  -4   2  -3   19.41    1.42
   4   2   3   19.21    1.50
   4   2   3   18.29    1.37
  -5  -2  -3  113.01    7.84
   5  -2   3  106.37    7.93
  -5  -2  -3  118.79    8.97
  -5  -2  -3  114.46    8.37
   5  -2   3  109.35    7.91
   5  -2   3  125.57    7.19
  -5  -2  -3  121.28    8.29
  -5  -2  -3  109.96    7.85
  -5  -2  -3  110.01    7.93
   5  -2   3  125.54    8.76
   5  -2   3  117.56    8.37
  -5   2  -3  128.55    8.09
   5   2   3  116.33    8.09
   5   2   3  127.04    8.30
   5   2   3  121.16    8.78
  -5   2  -3  118.97    8.29
  -6  -2  -3   19.09    1.30
   6  -2   3   17.12    1.35
  -6  -2  -3   17.74    1.47
  -6  -2  -3   17.19    1.21
   6  -2   3   14.81    1.27
  -6  -2  -3   15.61    1.35
   6  -2   3   18.96    1.41
  -6  -2  -3   16.87    1.34
  -6   2  -3   17.00    1.34
   6   2   3   18.52    1.29
   6   2   3   18.76    1.42
   6   2   3   15.72    1.34
  -6   2  -3   16.86    1.29
   7  -2   3   27.15    2.24
  -7  -2  -3   32.55    2.15
  -7  -2  -3   32.36    2.26
  -7  -2  -3   29.09    2.23
   7  -2   3   32.68    2.15
   7  -2   3   31.51    2.34
  -7  -2  -3   30.18    2.06
  -7  -2  -3   23.84    2.40
   7   2   3   29.99    2.15
  -7   2  -3   28.70    2.23
  -7   2  -3   31.72    2.17
   7   2   3   29.78    2.25
   7   2   3   28.21    2.35
  -8  -2  -3   22.97    1.87
  -8  -2  -3   18.64    1.61
   8  -2   3   22.11    1.70
   8  -2   3   22.87    1.76
  -8  -2  -3   19.67    1.69
  -8  -2  -3   19.21    1.53
   8  -2   3   20.37    1.61
  -8   2  -3   20.36    1.70
  -8   2  -3   23.01    1.63
   8   2   3   21.72    1.72
   8   2   3   23.63    1.79
   8   2   3   22.08    1.62
   9  -2   3    6.28    0.73
  -9  -2  -3    7.65    0.67
  -9  -2  -3    6.00    0.74
  -9  -2  -3    6.78    0.85
  -9   2  -3    5.34    0.73
  -9   2  -3    5.84    0.68
   9   2   3    6.65    0.78
   9   2   3    6.75    0.80
   9   2   3    7.78    0.73
  -9  -3   3    6.88    0.88
  -9  -3   3    5.65    0.73
  -9  -3   3    6.91    0.79
   9  -3  -3    5.99    0.89
   9  -3  -3    6.69    0.76
   9  -3  -3    6.29    0.77
   9   3  -3    6.52    0.72
   9   3  -3    7.99    0.86
  -9   3   3    7.63    0.84
   8  -3  -3    0.45    0.48
  -8  -3   3    0.34    0.32
  -8  -3   3    0.31    0.36
  -8  -3   3    0.77    0.39
  -8  -3   3    1.17    0.36
   8  -3  -3    0.78    0.35
   8  -3  -3    0.66    0.36
   8   3  -3    0.30    0.41
   8   3  -3    0.30    0.30
  -8   3   3   -0.40    0.37
  -8   3   3    0.45    0.38
  -7  -3   3    5.27    0.55
  -7  -3   3    3.76    0.60
   7  -3  -3    4.95    0.67
  -7  -3   3    4.25    0.54
  -7  -3   3    3.84    0.50
   7  -3  -3    4.07    0.52
   7  -3  -3    5.18    0.56
   7   3  -3    3.97    0.49
   7   3  -3    4.21    0.57
  -7   3   3    4.30    0.56
  -7   3   3    3.99    0.55
  -6  -3   3   17.80    1.30
   6  -3  -3   16.81    1.30
  -6  -3   3   16.34    1.35
  -6  -3   3   17.53    1.47
   6  -3  -3   17.83    1.34
   6  -3  -3   16.48    1.42
   6  -3  -3   17.07    1.28
  -6  -3   3   16.81    1.33
  -6   3   3   17.30    1.34
  -6   3   3   17.16    1.42
   6   3  -3   14.24    1.33
   5  -3  -3    1.13    0.24
  -5  -3   3    0.74    0.25
  -5  -3   3    0.90    0.23
   5  -3  -3    0.69    0.26
   5  -3  -3    0.85    0.24
   5  -3  -3    0.76    0.32
  -5  -3   3    0.82    0.24
  -5  -3   3    0.98    0.29
  -5   3   3    0.51    0.25
  -5   3   3    0.70    0.24
   5   3  -3    0.67    0.25
   5   3  -3    0.83    0.26
  -4  -3   3   22.57    1.46
   4  -3  -3   22.45    1.58
   4  -3  -3   19.78    1.46
   4  -3  -3   20.50    1.50
   4  -3  -3   19.53    1.51
  -4  -3   3   18.82    1.67
  -4  -3   3   19.04    1.52
  -4  -3   3   19.83    1.53
   4   3  -3   21.88    1.52
  -4   3   3   20.97    1.62
   4   3  -3   20.84    1.60
  -4   3   3   20.23    1.52
  -3  -3   3    8.49    0.67
  -3  -3   3    8.21    0.78
   3  -3  -3    9.06    0.68
   3  -3  -3    9.26    0.67
  -3  -3   3    8.14    0.66
  -3  -3   3    8.27    0.67
  -3  -3   3    9.50    0.69
   3  -3  -3    8.06    0.65
  -3  -3   3    7.57    0.68
   3  -3  -3    7.97    0.70
   3  -3  -3    8.84    0.75
   3   3  -3    7.96    0.68
  -3   3   3    8.55    0.70
  -3   3   3    8.86    0.68
  -2  -3   3    8.90    0.64
   2  -3  -3    7.29    0.70
  -2  -3   3    8.86    0.77
  -2  -3   3    8.57    0.78
  -2  -3   3    8.72    0.67
   2  -3  -3    8.16    0.64
   2  -3  -3    9.09    0.65
   2  -3  -3    8.33    0.67
  -2  -3   3    9.06    0.68
  -2  -3   3    9.03    0.66
   2  -3  -3    9.77    0.76
  -2  -3   3    9.50    0.65
  -2   3   3    7.97    0.66
   2   3  -3    8.18    0.67
   1  -3  -3   21.78    1.51
   1  -3  -3   21.27    1.40
  -1  -3   3   20.77    1.59
   1  -3  -3   24.52    1.59
  -1  -3   3   23.71    1.51
   1  -3  -3   21.08    1.50
   1  -3  -3   23.48    1.64
  -1  -3   3   19.81    1.58
  -1  -3   3   23.86    1.52
  -1  -3   3   20.10    1.64
  -1  -3   3   24.80    1.77
   1   3  -3   19.44    1.58
   0  -3  -3    0.36    0.19
   0  -3   3    0.41    0.20
   0  -3   3    0.25    0.20
   0  -3  -3    0.52    0.12
   0  -3   3    0.06    0.18
   0  -3   3    0.39    0.10
   0  -3  -3    0.23    0.14
   0  -3  -3    0.30    0.10
   0  -3  -3    0.30    0.17
   0  -3   3    0.39    0.14
   0  -3  -3    0.39    0.12
   0  -3  -3    0.45    0.10
   0   3   3    0.21    0.11
   0   3  -3    0.53    0.14
   1  -3   3   50.46    3.36
  -1  -3  -3   49.15    3.36
  -1  -3  -3   53.45    3.47
  -1  -3  -3   50.86    3.52
  -1  -3  -3   49.04    3.37
   1  -3   3   52.37    3.85
   1  -3   3   52.38    3.36
  -1  -3  -3   46.36    3.08
   1  -3   3   48.53    3.37
   1  -3   3   49.76    3.60
  -1  -3  -3   49.72    3.51
  -1  -3  -3   49.83    3.35
   1  -3   3   52.29    3.09
   1  -3   3   45.73    3.46
  -1  -3  -3   52.67    3.59
   1  -3   3   50.80    3.38
  -1   3  -3   48.76    3.51
   1   3   3   46.11    3.51
  -2  -3  -3    5.30    0.44
   2  -3   3    5.51    0.42
  -2  -3  -3    4.65    0.39
  -2  -3  -3    5.64    0.42
   2  -3   3    4.74    0.41
   2  -3   3    5.08    0.42
   2  -3   3    4.96    0.41
   2  -3   3    5.10    0.53
  -2  -3  -3    5.44    0.46
  -2  -3  -3    4.72    0.42
   2  -3   3    4.63    0.47
  -2  -3  -3    5.16    0.41
  -2  -3  -3    4.56    0.41
   2  -3   3    4.44    0.42
   2  -3   3    5.61    0.54
   2  -3   3    5.00    0.42
  -2  -3  -3    4.28    0.45
  -2  -3  -3    5.00    0.42
   2   3   3    4.75    0.44
  -2   3  -3    4.95    0.44
   2   3   3    5.02    0.44
  -3  -3  -3    3.27    0.34
   3  -3   3    3.75    0.36
  -3  -3  -3    3.97    0.39
   3  -3   3    3.42    0.36
  -3  -3  -3    3.34    0.35
   3  -3   3    4.02    0.36
  -3  -3  -3    3.98    0.41
  -3  -3  -3    3.59    0.37
   3  -3   3    3.94    0.37
  -3  -3  -3    3.19    0.34
   3  -3   3    3.79    0.46
  -3  -3  -3    3.28    0.36
  -3  -3  -3    3.56    0.33
   3  -3   3    3.72    0.33
   3  -3   3    3.64    0.36
   3   3   3    3.53    0.38
  -3   3  -3    3.64    0.38
   3   3   3    4.38    0.40
   4  -3   3    1.34    0.23
  -4  -3  -3    1.68    0.29
   4  -3   3    0.77    0.32
   4  -3   3    1.44    0.24
  -4  -3  -3    1.27    0.25
  -4  -3  -3    1.56    0.24
  -4  -3  -3    1.30    0.24
   4  -3   3    1.87    0.25
   4  -3   3    1.28    0.24
  -4  -3  -3    1.75    0.25
   4  -3   3    1.27    0.21
   4   3   3    1.50    0.26
   4   3   3    1.46    0.25
  -4   3  -3    1.28    0.25
  -5  -3  -3    5.31    0.54
   5  -3   3    4.52    0.49
   5  -3   3    4.89    0.65
  -5  -3  -3    5.19    0.55
   5  -3   3    5.76    0.46
  -5  -3  -3    5.42    0.53
   5  -3   3    5.02    0.53
   5  -3   3    5.38    0.53
  -5  -3  -3    5.50    0.62
  -5   3  -3    5.20    0.53
   5   3   3    5.97    0.59
   5   3   3    5.55    0.55
  -6  -3  -3    6.75    0.71
   6  -3   3    5.75    0.61
   6  -3   3    5.93    0.57
   6  -3   3    5.86    0.57
   6  -3   3    4.94    0.73
  -6  -3  -3    4.85    0.55
  -6  -3  -3    5.59    0.58
  -6  -3  -3    6.14    0.62
   6   3   3    5.85    0.61
   6   3   3    6.00    0.65
  -6   3  -3    5.64    0.59
   7  -3   3    0.99    0.29
   7  -3   3    0.85    0.32
  -7  -3  -3    1.51    0.35
  -7  -3  -3    1.04    0.33
   7  -3   3    0.40    0.47
  -7  -3  -3    0.71    0.33
  -7  -3  -3    0.91    0.36
   7   3   3    0.82    0.30
  -7   3  -3    0.75    0.35
   7   3   3    1.24    0.37
   7   3   3    0.34    0.34
  -8  -3  -3   11.78    1.10
   8  -3   3    9.61    0.95
   8  -3   3   10.05    0.96
   8  -3   3    9.17    1.13
  -8  -3  -3   10.06    1.01
  -8  -3  -3    9.97    0.99
  -8  -3  -3    9.28    0.96
   8   3   3   11.46    1.07
  -8   3  -3   11.30    1.05
   8   3   3   10.48    0.92
   8   3   3   10.56    1.05
  -9  -3  -3    0.48    0.45
   9  -3   3    0.94    0.44
   9  -3   3    1.50    0.41
  -9  -3  -3    1.44    0.50
   9  -3   3    1.64    0.68
  -9  -3  -3    1.53    0.40
   9   3   3    1.34    0.47
   9   3   3    1.26    0.38
  -9   3  -3    0.69    0.48
  -9   3  -3    0.03    0.40
   9   3   3    0.99    0.50
  -8  -4   3    2.09    0.41
   8  -4  -3    1.65    0.48
   8  -4  -3    1.59    0.41
  -8  -4   3    1.44    0.45
   8  -4  -3    1.42    0.58
  -8  -4   3    2.56    0.59
  -8  -4   3    2.05    0.49
  -8   4   3    2.16    0.52
   8   4  -3    2.02    0.52
   7  -4  -3   52.45    3.27
  -7  -4   3   40.16    3.38
  -7  -4   3   47.73    3.27
   7  -4  -3   52.35    3.52
   7  -4  -3   46.69    3.39
  -7  -4   3   45.33    3.41
  -7  -4   3   48.02    3.72
   7   4  -3   40.18    3.39
  -7   4   3   47.07    3.41
   6  -4  -3    6.41    0.65
   6  -4  -3    6.98    0.78
  -6  -4   3    6.46    0.77
  -6  -4   3    6.56    0.65
   6  -4  -3    6.70    0.64
  -6  -4   3    7.20    0.66
  -6  -4   3    6.56    0.69
   6  -4  -3    6.21    0.65
   6   4  -3    6.21    0.68
  -6   4   3    6.28    0.68
  -5  -4   3   50.67    4.25
   5  -4  -3   52.03    3.90
  -5  -4   3   51.37    3.89
   5  -4  -3   52.02    3.81
  -5  -4   3   56.94    3.91
   5  -4  -3   53.53    3.98
  -5  -4   3   56.54    3.39
  -5  -4   3   58.73    3.74
  -5  -4   3   51.56    3.91
   5  -4  -3   57.96    3.74
   5   4  -3   55.89    3.90
  -5   4   3   54.66    3.90
  -4  -4   3   62.19    4.45
  -4  -4   3   65.62    4.85
   4  -4  -3   63.65    4.46
  -4  -4   3   63.21    3.88
  -4  -4   3   64.91    4.47
   4  -4  -3   59.51    4.26
  -4  -4   3   58.95    4.25
   4  -4  -3   61.89    4.53
   4  -4  -3   57.77    4.36
  -4   4   3   67.76    4.45
   4   4  -3   62.39    4.44
   3  -4  -3   14.15    1.23
  -3  -4   3   15.01    1.08
  -3  -4   3   14.41    1.01
  -3  -4   3   15.58    1.27
  -3  -4   3   14.69    1.11
   3  -4  -3   14.85    1.14
   3  -4  -3   13.98    1.06
  -3   4   3   15.61    1.12
   3   4  -3   13.68    1.10
   2  -4  -3  108.79    8.03
  -2  -4   3  124.58    8.65
   2  -4  -3   99.30    7.79
  -2  -4   3  122.31    6.95
  -2  -4   3  118.88    8.07
  -2  -4   3  107.69    7.94
   2  -4  -3  117.49    7.60
  -2  -4   3  105.97    7.60
  -2   4   3  111.39    7.93
   2   4  -3  116.97    7.93
  -1  -4   3    6.86    0.76
   1  -4  -3    7.80    0.57
  -1  -4   3    7.53    0.75
   1  -4  -3    8.01    0.60
   1  -4  -3    7.79    0.57
   1  -4  -3    7.15    0.73
  -1  -4   3    7.86    0.58
   1  -4  -3    8.59    0.69
  -1  -4   3    8.02    0.70
  -1  -4   3    8.31    0.61
  -1  -4   3    6.68    0.60
   1  -4  -3    8.14    0.58
  -1  -4   3    7.37    0.56
  -1   4   3    6.82    0.60
   1   4  -3    7.28    0.61
   0  -4  -3  132.29    9.97
   0  -4   3  142.21   10.28
   0  -4  -3  144.30   10.15
   0  -4   3  143.96    9.73
   0  -4  -3  129.71   10.26
   0  -4  -3  152.95   10.15
   0  -4   3  154.80    9.72
   0  -4  -3  143.02    8.88
   0  -4   3  142.84   11.04
   0  -4  -3  144.85    9.73
   0  -4  -3  163.92    9.73
   0   4  -3  144.35   10.15
   0   4   3  144.81   10.14
   1  -4   3   20.31    1.39
  -1  -4  -3   20.20    1.39
   1  -4   3   18.85    1.64
  -1  -4  -3   18.00    1.47
   1  -4   3   21.32    1.58
  -1  -4  -3   20.22    1.44
   1  -4   3   20.61    1.40
   1  -4   3   19.55    1.49
   1  -4   3   20.82    1.33
  -1  -4  -3   21.56    1.57
  -1  -4  -3   18.76    1.45
  -1  -4  -3   20.28    1.31
  -1   4  -3   20.09    1.45
   1   4   3   20.94    1.45
   2  -4   3   29.91    2.35
  -2  -4  -3   31.96    1.96
  -2  -4  -3   31.74    2.12
   2  -4   3   35.64    2.46
   2  -4   3   29.22    2.12
   2  -4   3   32.20    2.12
  -2  -4  -3   30.78    2.21
   2  -4   3   28.58    1.98
  -2  -4  -3   28.23    2.12
  -2  -4  -3   31.76    2.21
   2  -4   3   30.20    2.22
   2   4   3   31.04    2.22
  -2   4  -3   32.08    2.22
  -3  -4  -3  105.79    7.30
  -3  -4  -3   97.80    6.42
   3  -4   3   94.47    6.43
  -3  -4  -3   95.81    6.60
   3  -4   3   96.97    6.42
  -3  -4  -3   94.63    5.86
  -3  -4  -3   88.35    6.43
   3  -4   3   91.59    6.84
   3  -4   3   96.33    5.89
  -3  -4  -3   92.73    6.72
   3  -4   3  104.39    6.60
  -3  -4  -3   96.65    6.77
  -3   4  -3   96.56    6.72
   3   4   3   96.50    7.11
   3   4   3   85.30    6.72
  -4  -4  -3    0.03    0.18
  -4  -4  -3    0.28    0.26
   4  -4   3    0.12    0.21
  -4  -4  -3   -0.13    0.16
  -4  -4  -3    0.07    0.21
   4  -4   3    0.00    0.24
   4  -4   3    0.20    0.20
   4  -4   3   -0.05    0.19
  -4  -4  -3    0.22    0.22
   4  -4   3    0.27    0.16
   4  -4   3   -0.12    0.35
  -4  -4  -3    0.11    0.24
  -4   4  -3    0.30    0.23
   4   4   3    0.02    0.22
   4   4   3    0.19    0.22
  -5  -4  -3   71.92    5.01
  -5  -4  -3   74.77    5.56
  -5  -4  -3   71.64    5.15
   5  -4   3   65.22    5.23
   5  -4   3   70.47    5.14
  -5  -4  -3   72.31    5.12
   5  -4   3   68.04    4.90
   5  -4   3   72.09    4.47
  -5  -4  -3   73.19    4.91
   5  -4   3   78.16    4.90
   5   4   3   69.63    5.42
   5   4   3   76.80    5.14
  -5   4  -3   71.93    5.12
   6  -4   3   10.61    0.90
   6  -4   3   10.29    1.08
  -6  -4  -3    9.91    0.90
  -6  -4  -3   11.08    0.94
  -6  -4  -3   10.60    1.02
  -6  -4  -3   11.11    0.91
   6  -4   3   11.86    0.90
   6  -4   3    9.87    0.88
   6   4   3   10.23    0.97
   6   4   3    8.63    0.95
  -6   4  -3   10.55    0.96
  -7  -4  -3   37.59    2.79
  -7  -4  -3   32.23    2.54
   7  -4   3   34.59    2.44
  -7  -4  -3   32.47    2.43
  -7  -4  -3   36.56    2.55
   7  -4   3   33.96    2.53
  -7   4  -3   36.95    2.57
   7   4   3   36.22    2.58
   7   4   3   26.85    2.66
   8  -4   3   20.52    1.72
   8  -4   3   16.28    1.95
  -8  -4  -3   23.33    1.79
  -8  -4  -3   20.39    1.75
  -8  -4  -3   22.84    1.72
  -8  -4  -3   22.13    1.93
   8  -4   3   23.23    1.71
   8   4   3   23.01    1.88
   8   4   3   22.97    1.84
  -8   4  -3   24.51    1.82
  -7  -5   3    0.69    0.35
   7  -5  -3   -0.40    0.33
  -7  -5   3    0.26    0.38
   7  -5  -3    0.48    0.39
  -7  -5   3    0.24    0.42
   7  -5  -3   -0.62    0.52
  -7  -5   3   -0.19    0.46
   7   5  -3    0.42    0.45
  -7   5   3   -0.26    0.39
  -6  -5   3   22.63    2.05
  -6  -5   3   26.20    1.90
  -6  -5   3   24.79    1.80
   6  -5  -3   24.16    2.04
   6  -5  -3   23.86    1.79
  -6  -5   3   24.03    1.83
   6  -5  -3   21.76    1.83
  -6   5   3   24.89    1.89
   6   5  -3   24.80    1.90
   5  -5  -3    3.41    0.67
   5  -5  -3    4.80    0.53
  -5  -5   3    4.32    0.64
  -5  -5   3    4.72    0.54
   5  -5  -3    6.36    0.64
  -5  -5   3    5.14    0.57
  -5   5   3    5.24    0.56
   5   5  -3    4.97    0.57
   4  -5  -3   22.45    1.84
  -4  -5   3   23.43    1.61
   4  -5  -3   22.34    1.60
   4  -5  -3   21.02    1.69
  -4  -5   3   22.14    1.68
  -4  -5   3   21.87    1.50
  -4  -5   3   22.45    1.89
  -4   5   3   22.39    1.68
   4   5  -3   21.88    1.67
   3  -5  -3    5.14    0.66
   3  -5  -3    5.56    0.54
  -3  -5   3    5.14    0.57
  -3  -5   3    6.21    0.56
   3  -5  -3    6.50    0.64
  -3  -5   3    7.43    0.76
  -3  -5   3    6.01    0.54
   3   5  -3    5.87    0.56
  -3   5   3    4.92    0.52
  -2  -5   3   15.71    1.39
  -2  -5   3   13.73    1.12
   2  -5  -3   19.12    1.39
  -2  -5   3   16.45    1.19
   2  -5  -3   16.54    1.14
  -2  -5   3   15.96    1.30
  -2  -5   3   17.50    1.42
  -2  -5   3   16.40    1.15
   2  -5  -3   12.79    1.26
  -2   5   3   16.09    1.18
   2   5  -3   15.34    1.18
  -1  -5   3    7.87    0.90
   1  -5  -3    9.33    0.65
  -1  -5   3    9.23    0.85
  -1  -5   3    7.97    0.70
  -1  -5   3    9.17    0.66
  -1  -5   3    9.48    0.74
   1  -5  -3    9.43    0.72
   1  -5  -3    9.64    0.92
   1  -5  -3    7.46    0.81
  -1  -5   3    7.41    0.85
   1   5  -3    9.16    0.71
   0  -5   3   12.45    0.86
   0  -5  -3   11.87    1.08
   0  -5  -3   10.67    0.84
   0  -5   3   11.60    0.89
   0  -5  -3   12.16    0.87
   0  -5  -3   12.59    1.00
   0  -5   3   11.92    1.09
   0  -5   3   10.73    1.09
   0  -5   3   10.79    1.00
  -1  -5  -3   35.68    2.38
   1  -5   3   38.96    2.96
  -1  -5  -3   37.60    2.65
  -1  -5  -3   41.15    2.82
  -1  -5  -3   39.05    2.69
   1  -5   3   34.29    2.81
  -1  -5  -3   38.06    2.54
   1  -5   3   34.46    2.55
   1  -5   3   39.54    2.40
   1   5   3   36.77    2.65
  -1   5  -3   37.09    2.65
   2  -5   3   11.58    1.06
   2  -5   3   11.22    1.17
  -2  -5  -3   12.80    0.94
  -2  -5  -3   12.28    0.92
  -2  -5  -3   13.06    1.07
  -2  -5  -3   12.65    0.97
   2  -5   3   12.24    0.96
   2  -5   3   13.58    0.94
  -2  -5  -3   13.22    1.19
   2   5   3   13.63    0.99
  -2   5  -3   12.61    0.98
   3  -5   3   26.09    2.01
  -3  -5  -3   31.18    1.99
  -3  -5  -3   28.47    2.26
  -3  -5  -3   30.80    2.16
   3  -5   3   32.85    2.27
  -3  -5  -3   32.71    2.15
   3  -5   3   30.51    2.43
   3  -5   3   31.60    2.15
  -3  -5  -3   31.47    2.24
   3  -5   3   30.25    2.14
  -3   5  -3   33.52    2.26
   3   5   3   31.44    2.26
   4  -5   3    8.05    0.81
   4  -5   3    8.88    0.98
   4  -5   3    9.25    0.75
   4  -5   3    8.28    0.74
   4  -5   3    8.69    0.73
  -4  -5  -3    9.01    0.84
  -4  -5  -3    8.58    0.77
  -4  -5  -3    8.38    0.75
  -4   5  -3    8.12    0.79
   4   5   3    8.50    0.80
  -5  -5  -3    1.05    0.33
   5  -5   3    1.27    0.32
   5  -5   3    1.41    0.58
  -5  -5  -3    0.50    0.32
   5  -5   3    1.28    0.33
   5  -5   3    1.50    0.33
  -5   5  -3    0.92    0.36
   5   5   3    0.83    0.37
   6  -5   3   30.55    2.22
  -6  -5  -3   30.80    2.29
   6  -5   3   30.44    2.23
  -6  -5  -3   30.83    2.33
  -6  -5  -3   33.59    2.26
   6  -5   3   27.60    2.53
  -6   5  -3   33.99    2.36
   6   5   3   30.38    2.37
  -7  -5  -3    4.46    0.51
  -7  -5  -3    4.17    0.58
  -7  -5  -3    4.07    0.59
   7  -5   3    4.41    0.49
   7  -5   3    3.03    0.78
   7  -5   3    3.93    0.53
   7   5   3    4.92    0.66
  -7   5  -3    3.90    0.60
   6  -6  -3    0.25    0.58
   6  -6  -3    0.01    0.48
  -6  -6   3    0.31    0.37
  -6  -6   3    0.77    0.42
   6  -6  -3   -0.24    0.38
  -6   6   3   -0.12    0.40
   6   6  -3    0.23    0.45
   5  -6  -3    4.10    0.60
   5  -6  -3    5.13    0.79
   5  -6  -3    4.32    0.53
  -5  -6   3    5.05    0.57
  -5  -6   3    4.33    0.57
  -5   6   3    4.55    0.59
   5   6  -3    5.02    0.60
  -4  -6   3    4.52    0.53
   4  -6  -3    4.38    0.50
  -4  -6   3    5.01    0.57
   4  -6  -3    4.91    0.63
  -4  -6   3    4.58    0.56
   4  -6  -3    5.75    0.78
   4   6  -3    5.72    0.58
  -4   6   3    6.26    0.58
  -3  -6   3    0.30    0.35
  -3  -6   3    0.67    0.29
   3  -6  -3    1.45    0.43
  -3  -6   3    0.50    0.30
   3  -6  -3    1.13    0.27
   3  -6  -3    0.96    0.54
   3   6  -3    1.14    0.30
  -3   6   3    1.04    0.27
  -2  -6   3   15.85    1.10
   2  -6  -3   14.39    1.08
   2  -6  -3   12.65    1.26
   2  -6  -3   16.29    1.43
  -2  -6   3   16.01    1.15
  -2  -6   3   14.56    1.46
  -2  -6   3   15.58    1.15
   2   6  -3   14.35    1.13
   1  -6  -3   -0.05    0.37
  -1  -6   3   -0.33    0.41
  -1  -6   3    0.69    0.22
  -1  -6   3    0.85    0.46
  -1  -6   3    0.44    0.21
   1  -6  -3    1.11    0.52
   1  -6  -3   -0.29    0.28
  -1  -6   3   -0.18    0.32
   0  -6   3   10.56    0.98
   0  -6  -3   11.58    1.21
   0  -6  -3   12.97    0.97
   0  -6   3   12.42    1.23
   0  -6  -3   11.90    1.10
   0  -6   3   12.67    1.14
  -1  -6  -3    0.15    0.32
  -1  -6  -3    0.35    0.21
  -1  -6  -3    1.17    0.51
  -1  -6  -3    0.29    0.20
   1  -6   3    0.34    0.24
  -1  -6  -3   -0.15    0.39
   1  -6   3    0.24    0.36
   1  -6   3    0.15    0.49
   1  -6   3    0.42    0.34
  -2  -6  -3    9.77    0.85
   2  -6   3   10.03    0.89
   2  -6   3   10.55    1.01
  -2  -6  -3   10.04    0.82
  -2  -6  -3    8.42    0.92
   2  -6   3    9.88    1.07
   2  -6   3   11.46    0.80
  -2  -6  -3    9.34    0.79
  -2   6  -3   10.46    0.83
   2   6   3    9.70    0.83
   3  -6   3   11.49    1.20
  -3  -6  -3   10.57    0.95
   3  -6   3   11.15    0.98
  -3  -6  -3   12.12    0.92
  -3  -6  -3   11.78    1.09
   3  -6   3   11.07    0.91
   3  -6   3   11.51    1.09
  -3  -6  -3   11.90    0.93
  -3  -6  -3   12.39    0.91
  -3   6  -3   11.48    0.96
   3   6   3   11.20    0.97
   4  -6   3    0.64    0.36
  -4  -6  -3    0.82    0.34
  -4  -6  -3    0.99    0.33
   4  -6   3    0.54    0.61
   4  -6   3    1.25    0.32
   4  -6   3    1.51    0.43
  -4  -6  -3   -0.09    0.42
   4  -6   3    1.18    0.33
   4   6   3    0.95    0.37
  -4   6  -3    1.32    0.34
  -5  -6  -3    5.82    0.64
   5  -6   3    5.15    0.59
   5  -6   3    5.62    0.59
   5  -6   3    4.78    0.89
   5  -6   3    5.10    0.58
  -5  -6  -3    6.20    0.62
   5   6   3    6.61    0.68
  -5   6  -3    5.81    0.65
   6  -6   3    0.44    0.37
   6  -6   3   -1.03    0.60
  -6  -6  -3    0.67    0.41
  -6  -6  -3    0.15    0.38
  -6   6  -3    0.71    0.42
   6   6   3    1.02    0.43
   4  -7  -3    7.64    0.92
  -4  -7   3    7.53    0.81
  -4  -7   3    9.09    0.84
  -4  -7   3    9.64    0.84
   4  -7  -3    9.51    0.79
   4  -7  -3    9.29    1.07
   4   7  -3    8.64    0.89
  -3  -7   3   34.95    2.56
   3  -7  -3   36.78    2.97
   3  -7  -3   38.09    2.55
  -3  -7   3   36.69    2.70
  -3  -7   3   36.99    2.46
   3  -7  -3   35.15    2.78
   3   7  -3   39.44    2.71
   2  -7  -3    1.64    0.54
  -2  -7   3    1.26    0.41
  -2  -7   3    1.36    0.35
   2  -7  -3    2.60    0.72
  -2  -7   3    0.85    0.68
  -2  -7   3    2.41    0.30
  -1  -7   3   14.02    1.49
  -1  -7   3   15.48    1.20
   1  -7  -3   13.98    1.37
  -1  -7   3   15.60    1.41
   1  -7  -3   13.76    1.48
   0  -7   3    3.27    0.77
   0  -7  -3    2.99    0.59
   0  -7   3    3.18    0.55
   0  -7   3    2.58    0.62
   0  -7  -3    2.35    0.67
  -1  -7  -3   18.32    1.42
   1  -7   3   21.44    1.70
  -1  -7  -3   19.25    1.83
   1  -7   3   18.55    1.45
   1  -7   3   20.37    1.88
  -1  -7  -3   19.86    1.64
  -2  -7  -3   25.74    2.06
  -2  -7  -3   27.73    1.93
   2  -7   3   24.55    1.82
   2  -7   3   26.93    2.11
   2  -7   3   23.89    2.27
  -3  -7  -3    7.87    0.81
   3  -7   3    7.67    0.80
   3  -7   3    8.63    0.93
  -3  -7  -3    9.16    0.75
   3  -7   3    7.53    1.07
   3  -7   3    7.87    0.76
  -3  -7  -3    8.12    0.93
   3   7   3    8.42    0.82
   4  -7   3   21.84    1.58
  -4  -7  -3   21.52    1.68
  -4  -7  -3   23.44    1.79
   4  -7   3   21.17    2.01
   4  -7   3   19.74    1.55
  -4  -7  -3   22.07    1.59
   4  -7   3   18.86    1.58
   4  -7   3   22.36    1.80
   4   7   3   22.49    1.68
  -4   7  -3   20.72    1.66
  10   0  -4    6.76    0.70
  10   0  -4    7.03    0.71
 -10   0   4    6.66    0.88
 -10   0   4    5.28    0.65
  -9   0   4   32.51    2.36
   9   0  -4   33.92    2.39
   9   0  -4   33.98    2.33
  -9   0   4   31.28    2.68
  -9   0   4   31.85    2.38
  -8   0   4   16.85    1.30
  -8   0   4   16.26    1.50
   8   0  -4   16.01    1.40
   8   0  -4   16.77    1.33
  -8   0   4   17.63    1.32
   8   0  -4   16.59    1.42
   8   0  -4   18.01    1.31
  -8   0   4   18.45    1.41
  -7   0   4    6.13    0.60
  -7   0   4    6.32    0.66
   7   0  -4    6.36    0.62
   7   0  -4    7.25    0.69
   7   0  -4    5.53    0.64
   7   0  -4    6.37    0.60
  -7   0   4    6.78    0.72
  -7   0   4    6.43    0.60
  -7   0   4    6.62    0.69
  -6   0   4  168.12   11.88
  -6   0   4  154.47   11.58
   6   0  -4  158.52   11.38
  -6   0   4  175.65   12.84
   6   0  -4  187.73   11.59
   6   0  -4  176.53   11.99
   6   0  -4  169.43   11.88
  -6   0   4  154.60   11.28
   6   0  -4  179.58   11.29
  -6   0   4  165.46   11.38
   5   0  -4    0.36    0.20
  -5   0   4    0.50    0.20
  -5   0   4    0.84    0.18
  -5   0   4    0.47    0.20
  -5   0   4    0.68    0.18
  -5   0   4    0.71    0.19
   5   0  -4    0.79    0.23
   5   0  -4    0.57    0.19
  -5   0   4    0.34    0.17
   5   0  -4    0.51    0.18
   5   0  -4    0.87    0.21
  -5   0   4    0.75    0.24
  -4   0   4  355.67   21.99
   4   0  -4  353.49   22.95
  -4   0   4  370.64   23.19
  -4   0   4  326.34   21.84
   4   0  -4  286.31   21.99
   4   0  -4  322.71   23.18
  -4   0   4  306.84   22.95
   4   0  -4  311.63   21.84
  -4   0   4  298.31   24.81
  -4   0   4  323.22   22.43
   4   0  -4  358.15   22.44
   3   0  -4   40.30    3.15
  -3   0   4   44.41    3.11
  -3   0   4   49.97    3.08
   3   0  -4   45.86    3.07
   3   0  -4   45.96    3.10
  -3   0   4   43.55    3.24
  -3   0   4   44.12    3.27
   3   0  -4   48.97    3.28
  -3   0   4   45.64    3.16
  -3   0   4   48.23    3.51
   3   0  -4   44.73    3.23
  -3   0   4   45.95    3.24
  -2   0   4   61.67    4.32
   2   0  -4   64.71    4.44
  -2   0   4   69.59    4.36
   2   0  -4   66.69    4.60
   2   0  -4   69.78    4.36
  -2   0   4   57.39    4.59
   2   0  -4   62.10    4.32
  -2   0   4   68.70    4.92
  -2   0   4   63.56    4.44
  -2   0   4   67.53    4.55
   2   0  -4   60.82    4.54
  -2   0   4   62.97    4.55
   1   0  -4  276.58   17.45
  -1   0   4  262.23   17.92
  -1   0   4  290.63   17.45
  -1   0   4  296.77   19.82
  -1   0   4  266.53   18.34
   1   0  -4  228.84   18.51
   1   0  -4  271.59   17.57
  -1   0   4  246.87   17.56
  -1   0   4  247.24   18.52
   1   0  -4  228.68   18.33
   1   0  -4  271.45   17.92
   0   0   4   39.80    2.61
   0   0   4   35.65    2.77
   0   0  -4   43.40    2.62
   0   0  -4   33.24    2.77
   0   0  -4   38.19    2.68
   0   0  -4   40.09    2.63
   0   0   4   33.76    2.63
   0   0   4   36.88    2.68
   0   0  -4   38.39    2.75
   0   0   4   44.75    2.97
  -1   0  -4  800.70   55.68
   1   0   4  711.50   62.81
   1   0   4  819.40   55.68
  -1   0  -4  826.53   58.70
  -1   0  -4  872.08   55.32
   1   0   4  795.52   58.13
   1   0   4  785.86   55.32
   1   0   4  802.34   56.83
  -1   0  -4  832.71   56.83
  -1   0  -4  948.67   55.69
   1   0   4  974.36   58.78
  -2   0  -4   88.50    5.46
  -2   0  -4   75.67    5.22
   2   0   4   77.90    5.22
   2   0   4   77.87    5.32
   2   0   4   68.60    5.76
   2   0   4   73.96    5.50
  -2   0  -4   73.23    5.50
  -2   0  -4   76.24    5.45
  -2   0  -4   74.03    5.18
  -2   0  -4   81.84    5.32
   2   0   4   84.73    5.18
   3   0   4   98.44    8.01
   3   0   4  130.19    8.10
  -3   0  -4  128.35    7.62
  -3   0  -4  117.14    7.83
   3   0   4  118.01    8.48
  -3   0  -4  105.68    8.09
   3   0   4  112.30    7.68
   3   0   4  117.83    7.62
   3   0   4  122.03    7.82
  -3   0  -4  119.03    7.68
  -3   0  -4  100.44    8.01
  -3   0  -4  100.68    8.01
   4   0   4  167.04   10.18
   4   0   4  154.47   10.25
   4   0   4  143.61   11.32
  -4   0  -4  143.49   10.25
  -4   0  -4  148.46   10.18
  -4   0  -4  157.30   10.81
   4   0   4  148.37   10.70
  -4   0  -4  136.46   10.70
   4   0   4  163.61   10.81
  -4   0  -4  172.40   10.72
  -4   0  -4  148.03   10.45
   4   0   4  147.94   10.45
  -5   0  -4   21.86    1.53
  -5   0  -4   19.78    1.60
   5   0   4   19.72    1.60
  -5   0  -4   20.26    1.58
  -5   0  -4   18.83    1.58
  -5   0  -4   22.90    1.50
   5   0   4   19.67    1.58
   5   0   4   22.90    1.50
   5   0   4   21.61    1.52
   5   0   4   23.41    1.68
  -5   0  -4   22.56    1.53
   5   0   4   21.32    1.53
   6   0   4  247.59   17.88
  -6   0  -4  296.99   17.43
   6   0   4  298.69   18.52
   6   0   4  274.57   19.37
   6   0   4  229.76   17.41
  -6   0  -4  231.06   18.31
  -6   0  -4  234.55   17.88
   6   0   4  250.00   18.32
   6   0   4  291.84   17.56
  -7   0  -4   -0.07    0.25
   7   0   4    0.17    0.20
  -7   0  -4    0.21    0.23
  -7   0  -4    0.13    0.26
   7   0   4    0.23    0.26
   7   0   4    0.47    0.25
   7   0   4    0.43    0.25
   7   0   4    0.54    0.25
  -7   0  -4    0.52    0.29
   8   0   4   52.06    3.57
  -8   0  -4   49.99    3.51
   8   0   4   54.17    3.77
   8   0   4   55.65    3.76
   8   0   4   43.25    3.88
  -8   0  -4   49.87    3.71
   8   0   4   50.90    3.49
  -8   0  -4   51.14    3.58
  -9   0  -4   43.03    3.10
   9   0   4   42.08    3.39
  -9   0  -4   44.88    3.49
   9   0   4   41.93    3.08
  -9   0  -4   42.01    3.04
   9   0   4   46.08    3.03
  10   0   4    2.79    0.46
  10   0   4    2.99    0.57
 -10   0  -4    2.30    0.56
  10   0   4    2.67    0.42
 -10   0  -4    1.63    0.42
 -10  -1   4    8.28    0.80
  10  -1  -4    9.06    0.88
  10  -1  -4    9.22    0.97
 -10  -1   4    7.95    1.02
 -10  -1   4    8.80    0.84
 -10   1   4    8.96    1.01
 -10   1   4    7.07    0.81
 -10   1   4    8.49    0.94
  10   1  -4    9.05    0.91
   9  -1  -4    1.64    0.33
  -9  -1   4    0.69    0.32
   9  -1  -4    1.39    0.41
   9  -1  -4    1.26    0.39
  -9  -1   4    1.13    0.45
  -9  -1   4    1.88    0.36
  -9  -1   4    1.38    0.45
   9   1  -4    1.84    0.47
  -9   1   4    1.36    0.38
  -9   1   4    0.72    0.44
  -9   1   4    1.59    0.46
   9   1  -4    0.85    0.38
   8  -1  -4    2.42    0.39
  -8  -1   4    2.72    0.47
   8  -1  -4    2.50    0.37
   8  -1  -4    2.45    0.46
  -8  -1   4    2.29    0.37
  -8  -1   4    2.74    0.37
  -8  -1   4    1.57    0.41
  -8   1   4    1.87    0.43
  -8   1   4    2.10    0.44
   8   1  -4    3.08    0.42
  -8   1   4    1.94    0.36
   8   1  -4    1.92    0.44
  -7  -1   4    2.17    0.34
  -7  -1   4    2.50    0.45
  -7  -1   4    1.87    0.37
   7  -1  -4    2.81    0.34
   7  -1  -4    1.62    0.35
   7  -1  -4    1.98    0.37
  -7  -1   4    1.55    0.32
   7  -1  -4    2.08    0.33
  -7  -1   4    2.02    0.32
  -7   1   4    3.40    0.46
  -7   1   4    1.93    0.33
   7   1  -4    2.88    0.39
   7   1  -4    2.51    0.42
  -7   1   4    2.28    0.34
  -7   1   4    3.23    0.43
  -6  -1   4    0.02    0.21
  -6  -1   4    0.38    0.21
  -6  -1   4   -0.34    0.21
   6  -1  -4    0.42    0.20
  -6  -1   4   -0.08    0.22
   6  -1  -4    0.44    0.26
  -6  -1   4    0.39    0.24
   6  -1  -4    0.30    0.25
  -6  -1   4    0.17    0.18
   6  -1  -4    0.41    0.21
  -6  -1   4    0.41    0.22
   6  -1  -4    0.62    0.24
   6   1  -4    0.12    0.20
  -6   1   4    0.64    0.25
  -6   1   4    0.17    0.23
   6   1  -4    0.23    0.23
   6   1  -4    0.54    0.28
  -6   1   4    0.35    0.23
   5  -1  -4   35.62    2.43
  -5  -1   4   36.34    2.44
  -5  -1   4   33.63    2.74
   5  -1  -4   35.35    2.55
  -5  -1   4   34.37    2.53
   5  -1  -4   37.23    2.43
   5  -1  -4   35.67    2.39
   5  -1  -4   35.18    2.52
  -5  -1   4   31.94    2.41
  -5  -1   4   29.65    2.38
  -5  -1   4   37.54    2.53
  -5  -1   4   39.05    2.56
   5   1  -4   31.43    2.52
   5   1  -4   37.53    2.39
  -5   1   4   33.59    2.72
  -5   1   4   30.45    2.38
  -5   1   4   36.02    2.56
  -5   1   4   38.37    2.54
   5   1  -4   36.61    2.43
   5   1  -4   33.87    2.45
   5   1  -4   33.97    2.55
  -4  -1   4   20.63    1.38
  -4  -1   4   17.78    1.35
   4  -1  -4   21.24    1.32
   4  -1  -4   17.53    1.35
   4  -1  -4   19.05    1.28
  -4  -1   4   16.71    1.47
  -4  -1   4   19.43    1.30
  -4  -1   4   18.57    1.27
   4  -1  -4   17.38    1.29
  -4  -1   4   19.19    1.30
   4  -1  -4   17.11    1.37
  -4  -1   4   19.07    1.28
  -4  -1   4   16.60    1.35
   4  -1  -4   16.86    1.26
   4   1  -4   18.62    1.32
  -4   1   4   16.31    1.45
   4   1  -4   19.96    1.28
  -4   1   4   16.13    1.27
   4   1  -4   18.35    1.30
  -4   1   4   17.82    1.37
  -4   1   4   16.88    1.31
  -4   1   4   20.84    1.30
   4   1  -4   17.08    1.36
  -4   1   4   19.17    1.36
   4   1  -4   17.45    1.35
  -3  -1   4   24.77    1.85
   3  -1  -4   25.50    1.91
  -3  -1   4   24.17    1.84
   3  -1  -4   28.15    1.85
  -3  -1   4   29.86    2.10
   3  -1  -4   22.83    1.93
  -3  -1   4   25.44    1.81
   3  -1  -4   28.07    1.85
   3  -1  -4   26.19    1.81
  -3  -1   4   26.11    1.92
   3  -1  -4   29.85    1.82
  -3  -1   4   25.53    1.85
  -3  -1   4   26.42    1.94
  -3  -1   4   27.33    1.82
  -3   1   4   30.12    1.82
   3   1  -4   26.93    1.82
  -3   1   4   27.05    1.83
  -3   1   4   28.48    1.92
  -3   1   4   23.88    2.06
  -3   1   4   27.68    1.94
   3   1  -4   26.86    1.94
   3   1  -4   24.87    1.84
   3   1  -4   28.19    1.87
   3   1  -4   25.60    1.91
   2  -1  -4   12.41    0.98
   2  -1  -4   13.81    1.01
   2  -1  -4   13.99    1.03
   2  -1  -4   12.71    0.95
  -2  -1   4   13.99    0.95
  -2  -1   4   14.89    1.02
   2  -1  -4   14.39    0.97
  -2  -1   4   12.74    1.03
  -2  -1   4   15.18    0.97
   2  -1  -4   14.24    0.97
  -2  -1   4   16.14    1.03
  -2  -1   4   12.69    1.11
  -2  -1   4   12.70    0.97
  -2  -1   4   13.80    0.97
   2   1  -4   11.38    0.99
   2   1  -4   13.63    1.02
  -2   1   4   12.86    1.01
  -2   1   4   13.78    0.99
  -2   1   4   14.11    1.03
   2   1  -4   14.77    0.96
   2   1  -4   14.57    0.98
  -2   1   4   13.26    1.08
   2   1  -4   12.80    1.02
  -2   1   4   15.44    0.96
  -2   1   4   13.35    0.97
  -1  -1   4    0.42    0.14
   1  -1  -4    0.50    0.10
  -1  -1   4    0.56    0.14
   1  -1  -4    0.50    0.09
  -1  -1   4    0.71    0.14
  -1  -1   4    0.58    0.16
  -1  -1   4    0.38    0.09
  -1  -1   4    0.77    0.12
   1  -1  -4    0.26    0.13
   1  -1  -4    0.69    0.15
  -1  -1   4    0.50    0.11
   1  -1  -4    0.54    0.13
  -1  -1   4    0.55    0.13
  -1  -1   4    0.34    0.11
   1  -1  -4    0.45    0.11
   1   1  -4    0.72    0.13
  -1   1   4    0.47    0.11
  -1   1   4    0.47    0.10
  -1   1   4    0.58    0.14
   1   1  -4    0.43    0.11
  -1   1   4    0.88    0.11
  -1   1   4    0.44    0.14
   1   1  -4    0.48    0.14
  -1   1   4    0.56    0.12
   1   1  -4    0.68    0.13
   1   1  -4    0.78    0.17
   0  -1  -4   43.11    3.39
   0  -1  -4   50.10    3.23
   0  -1   4   46.91    3.40
   0  -1   4   47.48    3.65
   0  -1  -4   47.27    3.18
   0  -1   4   50.96    3.18
   0  -1   4   47.25    3.18
   0  -1   4   49.96    3.37
   0  -1  -4   51.16    3.23
   0  -1   4   42.34    3.36
   0  -1  -4   51.11    3.18
   0  -1   4   43.64    3.20
   0  -1  -4   48.34    3.36
   0   1  -4   45.19    3.37
   0   1  -4   55.03    3.41
   0   1  -4   45.99    3.27
   0   1   4   43.69    3.61
   0   1  -4   44.61    3.21
   0   1   4   50.12    3.27
   0   1   4   48.57    3.36
   0   1   4   49.59    3.40
   0   1   4   44.02    3.19
   0   1  -4   47.49    3.19
   1  -1   4    0.96    0.13
   1  -1   4    1.00    0.17
   1  -1   4    1.13    0.16
   1  -1   4    0.72    0.13
   1  -1   4    0.91    0.12
  -1  -1  -4    1.19    0.17
   1  -1   4    1.30    0.16
   1  -1   4    1.49    0.22
  -1  -1  -4    0.90    0.15
   1  -1   4    0.66    0.15
   1  -1   4    0.75    0.15
  -1  -1  -4    0.65    0.12
  -1  -1  -4    0.54    0.14
  -1  -1  -4    1.13    0.16
  -1  -1  -4    0.83    0.12
  -1   1  -4    1.02    0.16
   1   1   4    0.48    0.12
   1   1   4    0.94    0.15
   1   1   4    1.02    0.17
  -1   1  -4    1.06    0.18
   1   1   4    1.00    0.17
  -1   1  -4    0.65    0.16
  -1   1  -4    0.81    0.13
   1   1   4    1.34    0.18
  -1   1  -4    1.08    0.17
  -2  -1  -4   38.29    2.57
   2  -1   4   38.39    2.71
  -2  -1  -4   39.94    2.71
  -2  -1  -4   41.06    2.69
  -2  -1  -4   39.76    2.62
   2  -1   4   35.02    2.83
   2  -1   4   35.06    2.61
  -2  -1  -4   36.85    2.54
   2  -1   4   37.98    2.57
   2  -1   4   33.65    2.57
   2  -1   4   42.33    2.54
  -2  -1  -4   37.22    2.55
   2  -1   4   40.51    2.55
   2   1   4   35.12    2.84
  -2   1  -4   34.66    2.69
   2   1   4   33.04    2.68
  -2   1  -4   42.10    2.56
  -2   1  -4   39.51    2.58
   2   1   4   39.79    2.56
   2   1   4   36.57    2.71
  -2   1  -4   40.78    2.58
   2   1   4   32.10    2.57
  -2   1  -4   39.64    2.62
  -2   1  -4   39.51    2.72
   2   1   4   36.00    2.61
  -3  -1  -4   11.20    0.77
   3  -1   4   10.78    0.82
   3  -1   4   10.69    0.78
   3  -1   4   10.66    0.79
   3  -1   4   11.89    0.87
  -3  -1  -4   10.87    0.82
  -3  -1  -4    9.40    0.78
  -3  -1  -4   10.17    0.79
  -3  -1  -4   11.48    0.83
  -3  -1  -4    9.59    0.83
   3  -1   4    9.56    0.76
   3  -1   4   11.00    0.83
   3  -1   4    9.82    0.76
   3  -1   4   11.41    0.80
  -3   1  -4   10.57    0.79
   3   1   4   11.81    0.79
   3   1   4    9.62    0.82
   3   1   4   10.85    0.79
   3   1   4   11.19    0.78
   3   1   4    9.82    0.86
  -3   1  -4   10.26    0.79
  -3   1  -4   10.99    0.83
  -3   1  -4   11.32    0.83
  -3   1  -4   10.33    0.78
   3   1   4   11.55    0.83
  -4  -1  -4    4.10    0.38
   4  -1   4    4.01    0.41
  -4  -1  -4    4.38    0.44
   4  -1   4    3.85    0.37
   4  -1   4    4.05    0.37
   4  -1   4    4.42    0.40
   4  -1   4    4.34    0.44
  -4  -1  -4    3.80    0.38
   4  -1   4    3.96    0.40
  -4  -1  -4    4.09    0.36
  -4  -1  -4    4.75    0.44
  -4  -1  -4    3.18    0.37
  -4  -1  -4    3.78    0.39
   4  -1   4    3.96    0.42
   4  -1   4    3.98    0.39
   4   1   4    5.04    0.44
  -4   1  -4    3.68    0.39
   4   1   4    4.53    0.39
   4   1   4    3.99    0.38
   4   1   4    4.02    0.42
  -4   1  -4    3.63    0.37
  -4   1  -4    3.88    0.38
  -4   1  -4    3.63    0.40
   4   1   4    4.15    0.42
  -4   1  -4    4.16    0.42
   4   1   4    4.13    0.40
  -5  -1  -4    3.32    0.34
   5  -1   4    3.21    0.34
  -5  -1  -4    2.72    0.33
   5  -1   4    4.57    0.40
   5  -1   4    2.79    0.37
  -5  -1  -4    3.33    0.38
  -5  -1  -4    3.05    0.39
  -5  -1  -4    3.65    0.38
   5  -1   4    3.64    0.41
  -5  -1  -4    3.68    0.41
   5  -1   4    3.39    0.33
   5  -1   4    3.66    0.41
   5   1   4    3.35    0.39
   5   1   4    3.55    0.36
  -5   1  -4    3.28    0.36
   5   1   4    3.45    0.43
  -5   1  -4    3.92    0.40
   5   1   4    3.07    0.34
   5   1   4    3.62    0.40
  -5   1  -4    3.68    0.40
  -5   1  -4    2.68    0.36
  -6  -1  -4    1.67    0.32
   6  -1   4    1.55    0.30
  -6  -1  -4    1.81    0.32
   6  -1   4    2.24    0.33
  -6  -1  -4    1.28    0.28
   6  -1   4    1.31    0.32
   6  -1   4    1.71    0.27
  -6  -1  -4    1.78    0.29
   6  -1   4    1.11    0.24
   6  -1   4    1.66    0.29
  -6  -1  -4    1.37    0.30
  -6  -1  -4    1.71    0.27
   6   1   4    1.28    0.26
  -6   1  -4    1.59    0.29
  -6   1  -4    1.85    0.32
   6   1   4    1.76    0.31
   6   1   4    2.05    0.35
   6   1   4    2.10    0.33
  -7  -1  -4   15.16    1.31
   7  -1   4   13.47    1.25
  -7  -1  -4   16.64    1.25
   7  -1   4   15.51    1.23
  -7  -1  -4   15.75    1.14
   7  -1   4   14.74    1.10
  -7  -1  -4   15.16    1.12
  -7  -1  -4   13.66    1.17
   7  -1   4   15.40    1.13
   7  -1   4   15.95    1.16
  -7   1  -4   13.76    1.15
   7   1   4   12.94    1.14
   7   1   4   15.30    1.27
   7   1   4   15.08    1.23
  -7   1  -4   13.42    1.21
   8  -1   4    7.82    0.78
   8  -1   4    6.88    0.67
   8  -1   4    7.11    0.66
  -8  -1  -4    7.35    0.78
  -8  -1  -4    6.48    0.79
  -8  -1  -4    6.20    0.67
   8  -1   4    6.49    0.77
  -8  -1  -4    6.75    0.67
  -8   1  -4    6.98    0.76
   8   1   4    8.36    0.81
   8   1   4    6.88    0.70
  -8   1  -4    8.09    0.72
   8   1   4    6.80    0.79
   9  -1   4    6.21    0.60
   9  -1   4    7.80    0.77
  -9  -1  -4    6.05    0.81
  -9  -1  -4    6.37    0.63
  -9  -1  -4    5.71    0.73
  -9  -1  -4    5.74    0.62
   9  -1   4    6.69    0.77
   9  -1   4    6.18    0.60
  -9   1  -4    5.44    0.61
  -9   1  -4    6.39    0.72
   9   1   4    5.17    0.61
   9   1   4    5.52    0.71
   9   1   4    6.63    0.79
  10  -1   4    0.11    0.44
 -10  -1  -4    0.48    0.47
  10  -1   4   -0.18    0.35
  10  -1   4    0.16    0.35
 -10  -1  -4   -0.19    0.32
 -10  -1  -4    0.83    0.30
  10   1   4    0.93    0.46
 -10   1  -4    0.30    0.35
 -10   1  -4   -0.29    0.47
  10   1   4    0.35    0.28
  -9  -2   4    8.09    0.81
   9  -2  -4    8.58    0.88
  -9  -2   4    7.10    0.95
  -9  -2   4    7.71    0.85
  -9   2   4    7.53    0.88
  -9   2   4    7.73    0.90
   9   2  -4   10.50    0.95
  -9   2   4    7.60    0.78
   9   2  -4    9.09    0.86
  -8  -2   4    9.32    0.79
  -8  -2   4    7.46    0.81
  -8  -2   4    9.25    0.83
  -8  -2   4    8.29    0.95
   8  -2  -4    8.88    0.85
   8  -2  -4    7.50    0.80
   8   2  -4    7.64    0.80
  -8   2   4    7.79    0.77
  -8   2   4    9.23    0.91
  -8   2   4    7.53    0.88
   8   2  -4    9.31    0.89
  -8   2   4    7.56    0.77
   7  -2  -4    2.66    0.43
  -7  -2   4    2.09    0.38
  -7  -2   4    3.18    0.38
   7  -2  -4    2.88    0.43
  -7  -2   4    1.82    0.42
  -7  -2   4    3.32    0.45
  -7  -2   4    2.25    0.37
  -7   2   4    3.04    0.39
   7   2  -4    2.83    0.41
  -7   2   4    3.40    0.45
   7   2  -4    1.59    0.41
  -7   2   4    1.57    0.39
   6  -2  -4    9.63    0.79
  -6  -2   4    6.89    0.82
   6  -2  -4    9.17    0.78
  -6  -2   4    9.22    0.77
  -6  -2   4    7.92    0.69
  -6  -2   4    8.97    0.75
  -6  -2   4    8.18    0.77
  -6   2   4    7.94    0.80
  -6   2   4    7.00    0.70
   6   2  -4    9.26    0.80
   6   2  -4    8.16    0.72
  -6   2   4    8.60    0.77
  -5  -2   4   15.09    1.02
  -5  -2   4   11.89    1.10
   5  -2  -4   13.53    1.14
  -5  -2   4   13.34    1.06
  -5  -2   4   15.04    1.00
   5  -2  -4   13.81    1.08
  -5  -2   4   14.95    1.22
  -5  -2   4   14.14    1.11
   5  -2  -4   13.82    1.11
   5   2  -4   14.73    1.11
  -5   2   4   13.43    1.11
  -5   2   4   13.42    1.06
   5   2  -4   14.73    1.07
  -5   2   4   14.40    1.18
  -4  -2   4   84.72    5.31
   4  -2  -4   70.65    5.06
  -4  -2   4   68.24    5.73
  -4  -2   4   66.64    5.00
  -4  -2   4   77.62    5.07
  -4  -2   4   80.00    5.34
   4  -2  -4   77.82    5.33
  -4   2   4   80.43    5.16
   4   2  -4   76.04    5.28
  -4   2   4   70.66    5.29
   4   2  -4   68.76    5.16
  -4   2   4   76.95    5.70
  -3  -2   4    2.61    0.31
   3  -2  -4    3.31    0.33
  -3  -2   4    2.94    0.32
  -3  -2   4    1.87    0.34
   3  -2  -4    3.14    0.31
   3  -2  -4    3.06    0.33
  -3  -2   4    3.31    0.33
   3   2  -4    3.63    0.34
   3   2  -4    3.16    0.33
  -3   2   4    3.09    0.32
  -3   2   4    3.39    0.33
  -3   2   4    2.93    0.32
  -3   2   4    3.62    0.33
   3   2  -4    2.72    0.30
  -2  -2   4   56.82    4.03
   2  -2  -4   51.87    3.72
  -2  -2   4   55.40    3.75
  -2  -2   4   56.17    3.71
   2  -2  -4   53.56    3.55
   2  -2  -4   56.46    3.74
  -2  -2   4   51.70    3.73
  -2  -2   4   53.88    3.55
   2  -2  -4   53.09    3.73
   2   2  -4   53.26    3.71
   2   2  -4   43.54    3.61
   2   2  -4   48.53    3.74
  -2   2   4   50.44    3.70
  -2   2   4   47.59    3.61
   2   2  -4   52.76    3.70
  -2   2   4   54.28    3.98
   1  -2  -4   13.35    0.98
  -1  -2   4   13.80    0.96
   1  -2  -4   13.44    0.96
  -1  -2   4   12.11    0.98
  -1  -2   4   13.44    0.93
   1  -2  -4   14.19    0.93
  -1  -2   4   13.12    0.98
  -1  -2   4   13.65    0.97
  -1  -2   4   14.17    0.92
   1  -2  -4   12.77    0.97
  -1  -2   4   13.43    1.07
   1  -2  -4   11.79    0.91
   1  -2  -4   11.23    0.92
  -1   2   4   11.41    0.97
   1   2  -4   13.42    0.92
   1   2  -4   12.01    0.97
   0  -2   4    1.66    0.17
   0  -2  -4    1.18    0.18
   0  -2   4    1.43    0.21
   0  -2  -4    1.05    0.17
   0  -2   4    1.60    0.17
   0  -2  -4    1.72    0.21
   0  -2   4    1.05    0.23
   0  -2  -4    1.16    0.16
   0  -2   4    1.32    0.16
   0  -2   4    1.35    0.18
   0  -2   4    1.14    0.16
   0  -2  -4    1.28    0.17
   0  -2  -4    1.20    0.16
   0  -2  -4    1.09    0.17
   0  -2   4    0.99    0.18
   0   2  -4    1.28    0.20
   0   2   4    1.15    0.17
   1  -2   4   70.02    4.75
   1  -2   4   60.38    4.31
  -1  -2  -4   62.85    4.41
   1  -2   4   66.33    4.31
  -1  -2  -4   62.89    4.55
   1  -2   4   61.80    4.55
   1  -2   4   63.91    4.55
  -1  -2  -4   61.71    4.32
  -1  -2  -4   56.14    4.50
   1  -2   4   66.05    4.54
  -1  -2  -4   63.58    4.54
   1  -2   4   62.31    4.32
   1  -2   4   58.00    4.90
  -1  -2  -4   69.01    4.31
   1  -2   4   65.95    4.33
  -1  -2  -4   67.03    4.29
  -1   2  -4   63.50    4.38
   1   2   4   61.12    4.50
  -1   2  -4   70.05    4.50
   1   2   4   66.12    4.38
   2  -2   4    2.22    0.31
   2  -2   4    3.07    0.36
   2  -2   4    2.31    0.26
  -2  -2  -4    2.42    0.26
  -2  -2  -4    2.29    0.26
  -2  -2  -4    2.72    0.26
  -2  -2  -4    2.68    0.26
   2  -2   4    2.45    0.27
  -2  -2  -4    2.55    0.25
   2  -2   4    2.15    0.25
  -2  -2  -4    2.89    0.29
   2  -2   4    2.54    0.28
   2  -2   4    2.22    0.26
   2   2   4    2.49    0.24
   2   2   4    2.16    0.27
  -2   2  -4    2.40    0.24
  -2   2  -4    2.52    0.28
   2   2   4    2.61    0.27
   2   2   4    3.24    0.31
  -2   2  -4    2.25    0.27
  -3  -2  -4   39.77    2.44
   3  -2   4   38.71    2.44
   3  -2   4   35.37    2.68
  -3  -2  -4   35.07    2.44
  -3  -2  -4   36.80    2.57
  -3  -2  -4   30.93    2.46
   3  -2   4   35.52    2.43
   3  -2   4   31.32    2.60
   3  -2   4   37.88    2.21
   3  -2   4   33.00    2.56
  -3  -2  -4   34.73    2.55
   3   2   4   38.61    2.70
  -3   2  -4   32.16    2.56
  -3   2  -4   35.77    2.55
   3   2   4   35.84    2.47
   3   2   4   37.29    2.55
  -3   2  -4   35.19    2.47
   3   2   4   36.94    2.57
   4  -2   4   76.19    5.18
   4  -2   4   72.94    5.46
  -4  -2  -4   83.88    5.25
  -4  -2  -4   80.57    5.46
   4  -2   4   80.08    4.69
   4  -2   4   78.40    5.17
  -4  -2  -4   69.51    5.18
   4  -2   4   68.73    5.70
  -4  -2  -4   73.36    5.41
   4   2   4   79.54    5.27
   4   2   4   64.75    5.40
  -4   2  -4   77.36    5.28
  -4   2  -4   83.42    5.42
   4   2   4   82.27    5.72
   5  -2   4   36.57    2.69
  -5  -2  -4   31.33    2.55
   5  -2   4   37.05    2.19
  -5  -2  -4   31.75    2.38
   5  -2   4   36.80    2.45
  -5  -2  -4   36.43    2.46
   5  -2   4   36.12    2.45
   5  -2   4   36.61    2.58
  -5  -2  -4   37.75    2.77
  -5  -2  -4   34.65    2.58
  -5  -2  -4   38.20    2.40
   5   2   4   34.42    2.71
   5   2   4   35.32    2.57
   5   2   4   37.46    2.49
  -5   2  -4   31.67    2.55
  -5   2  -4   31.83    2.48
   6  -2   4   28.41    2.12
   6  -2   4   29.97    2.01
   6  -2   4   24.64    1.92
   6  -2   4   29.46    2.20
  -6  -2  -4   28.90    1.94
  -6  -2  -4   30.14    2.13
  -6  -2  -4   27.82    2.01
  -6  -2  -4   28.92    2.28
  -6  -2  -4   26.41    2.09
  -6   2  -4   27.91    2.10
   6   2   4   30.95    2.23
   6   2   4   26.46    2.10
   6   2   4   26.78    2.02
  -6   2  -4   29.16    2.03
  -7  -2  -4   -0.19    0.28
   7  -2   4    0.21    0.27
   7  -2   4   -0.21    0.29
  -7  -2  -4    0.06    0.19
  -7  -2  -4    0.17    0.29
  -7  -2  -4   -0.03    0.28
   7  -2   4    0.15    0.19
   7  -2   4    0.34    0.26
  -7  -2  -4    0.46    0.33
  -7   2  -4    0.31    0.25
   7   2   4    0.07    0.23
  -7   2  -4    0.16    0.30
   7   2   4   -0.07    0.26
   7   2   4    0.23    0.29
  -8  -2  -4    8.31    0.69
   8  -2   4    8.43    0.84
  -8  -2  -4    7.42    0.78
  -8  -2  -4    7.25    0.75
  -8  -2  -4    7.17    0.87
   8  -2   4    8.04    0.79
   8  -2   4    8.44    0.82
   8   2   4    7.72    0.85
   8   2   4    8.39    0.77
  -8   2  -4    6.58    0.79
  -8   2  -4    6.66    0.73
   8   2   4    7.28    0.80
   9  -2   4   17.38    1.51
   9  -2   4   17.67    1.56
  -9  -2  -4   17.92    1.35
  -9  -2  -4   18.45    1.52
  -9  -2  -4   20.33    1.71
  -9   2  -4   17.50    1.44
   9   2   4   16.85    1.42
  -9   2  -4   21.68    1.59
   9   2   4   15.32    1.56
   9   2   4   18.44    1.56
  -9  -3   4   15.49    1.42
  -9  -3   4   11.04    1.23
   9  -3  -4   13.93    1.43
  -9  -3   4   13.90    1.29
   9  -3  -4   14.60    1.27
   9  -3  -4   15.19    1.30
   9   3  -4   14.94    1.22
  -9   3   4   13.46    1.33
   9   3  -4   13.25    1.36
  -8  -3   4   22.22    1.95
  -8  -3   4   19.56    1.75
   8  -3  -4   20.53    1.77
   8  -3  -4   21.18    1.87
  -8  -3   4   24.34    1.80
  -8  -3   4   24.89    1.73
   8  -3  -4   24.10    1.74
  -8   3   4   21.70    1.80
   8   3  -4   21.52    1.70
   8   3  -4   24.16    1.84
   7  -3  -4   51.42    3.51
   7  -3  -4   43.36    3.65
  -7  -3   4   45.57    3.66
  -7  -3   4   54.02    3.98
   7  -3  -4   51.09    3.72
  -7  -3   4   48.37    3.49
  -7  -3   4   57.38    3.68
   7   3  -4   48.49    3.54
  -7   3   4   51.22    3.93
  -7   3   4   50.89    3.66
   7   3  -4   51.20    3.67
  -6  -3   4    6.83    0.66
  -6  -3   4    5.75    0.62
   6  -3  -4    5.39    0.59
   6  -3  -4    7.57    0.65
   6  -3  -4    5.28    0.66
  -6  -3   4    5.25    0.68
   6  -3  -4    6.06    0.59
  -6  -3   4    6.82    0.68
   6   3  -4    6.36    0.63
  -6   3   4    5.48    0.61
  -6   3   4    5.85    0.65
   5  -3  -4  116.81    9.11
  -5  -3   4  119.32    9.12
  -5  -3   4  127.65    9.06
  -5  -3   4  129.80    8.67
  -5  -3   4  128.49    9.81
   5  -3  -4  125.61    8.67
   5  -3  -4  140.01    9.12
   5  -3  -4  125.43    8.84
  -5   3   4  122.50    9.75
  -5   3   4  142.52    9.06
   5   3  -4  136.17    9.05
   4  -3  -4   26.35    1.95
   4  -3  -4   24.93    1.86
  -4  -3   4   29.03    1.96
   4  -3  -4   28.40    1.99
  -4  -3   4   27.41    2.15
  -4  -3   4   27.53    1.87
  -4  -3   4   27.61    1.96
   4  -3  -4   25.27    1.91
  -4   3   4   27.05    2.08
   4   3  -4   27.26    1.94
  -4   3   4   21.98    1.94
   3  -3  -4   95.57    6.49
  -3  -3   4  104.83    7.00
   3  -3  -4  101.70    6.51
  -3  -3   4   81.35    6.44
  -3  -3   4   94.76    6.18
   3  -3  -4   86.92    6.49
  -3  -3   4   90.94    6.50
   3  -3  -4   86.41    6.16
   3  -3  -4   92.01    6.32
  -3   3   4   90.53    6.93
  -3   3   4   78.78    6.43
   3   3  -4   96.17    6.43
   2  -3  -4  107.13    6.98
  -2  -3   4   97.06    6.80
  -2  -3   4  105.19    7.16
  -2  -3   4  105.21    7.11
   2  -3  -4   93.12    7.16
  -2  -3   4   98.77    6.80
   2  -3  -4   91.50    7.16
  -2  -3   4   85.93    7.17
   2  -3  -4  107.93    7.16
  -2  -3   4  110.38    7.73
  -2  -3   4  102.43    7.19
   2  -3  -4  109.34    6.80
   2  -3  -4  101.21    6.78
   2  -3  -4  112.43    6.80
   2   3  -4   89.22    7.10
  -2   3   4   98.30    7.10
   2   3  -4  105.83    7.10
   1  -3  -4   38.82    2.75
   1  -3  -4   36.81    2.74
  -1  -3   4   40.90    2.63
   1  -3  -4   39.42    2.63
  -1  -3   4   35.84    2.76
   1  -3  -4   37.29    2.62
   1  -3  -4   41.64    2.63
  -1  -3   4   38.82    2.75
   1  -3  -4   35.67    2.71
  -1  -3   4   42.77    3.03
  -1  -3   4   38.92    2.64
   1  -3  -4   38.50    2.79
   1  -3  -4   40.59    2.75
  -1  -3   4   38.58    2.76
   1   3  -4   35.55    2.75
   0  -3  -4  179.73   14.15
   0  -3   4  213.35   15.35
   0  -3  -4  231.58   13.56
   0  -3   4  183.74   14.25
   0  -3  -4  192.60   13.56
   0  -3   4  184.47   14.26
   0  -3   4  215.73   13.55
   0  -3  -4  204.84   14.25
   0  -3   4  203.10   14.27
   0  -3   4  213.36   13.56
   0  -3   4  204.89   13.50
   0  -3  -4  191.05   14.26
   0  -3  -4  207.13   14.26
   0  -3  -4  207.86   13.86
   0  -3  -4  212.24   13.50
   0  -3  -4  208.14   14.16
   0   3   4  201.05   14.15
   0   3  -4  189.59   14.15
  -1  -3  -4    5.15    0.52
  -1  -3  -4    6.21    0.47
  -1  -3  -4    5.94    0.48
   1  -3   4    5.32    0.61
   1  -3   4    6.41    0.47
  -1  -3  -4    5.66    0.46
   1  -3   4    4.83    0.55
  -1  -3  -4    5.82    0.48
   1  -3   4    6.20    0.49
  -1  -3  -4    5.57    0.48
   1  -3   4    5.57    0.54
   1  -3   4    5.54    0.47
  -1  -3  -4    5.59    0.56
  -1  -3  -4    5.79    0.47
   1  -3   4    5.90    0.46
  -1  -3  -4    6.32    0.46
   1  -3   4    4.81    0.46
   1  -3   4    5.81    0.48
   1   3   4    5.58    0.48
  -1   3  -4    6.15    0.50
  -2  -3  -4  128.77    8.91
   2  -3   4  131.93    8.95
   2  -3   4  145.42    9.44
  -2  -3  -4  140.30   10.08
   2  -3   4  139.68    8.93
   2  -3   4  139.83    8.95
  -2  -3  -4  135.26    8.95
   2  -3   4  128.74    9.42
  -2  -3  -4  117.54    9.41
   2  -3   4  128.14    9.43
   2  -3   4  132.09    8.15
   2  -3   4  128.08    9.15
  -2  -3  -4  132.49    9.14
  -2  -3  -4  135.64    9.34
   2   3   4  123.36    9.34
  -2   3  -4  145.11    9.35
   3  -3   4   90.06    6.53
   3  -3   4   94.49    6.16
  -3  -3  -4   99.20    6.97
  -3  -3  -4   81.24    6.44
  -3  -3  -4   82.17    6.50
   3  -3   4   92.20    6.18
   3  -3   4   91.01    6.31
  -3  -3  -4   84.23    6.17
   3  -3   4  101.63    5.63
   3  -3   4   94.79    6.50
  -3  -3  -4   93.55    6.30
  -3  -3  -4   96.37    6.16
   3   3   4   95.07    6.82
   3   3   4   86.55    6.45
  -3   3  -4   92.14    6.45
  -4  -3  -4   38.32    2.66
   4  -3   4   38.92    2.53
  -4  -3  -4   37.19    2.64
  -4  -3  -4   33.30    2.53
   4  -3   4   31.57    2.72
   4  -3   4   35.14    2.65
  -4  -3  -4   33.44    2.56
  -4  -3  -4   37.54    2.86
   4  -3   4   37.75    2.30
   4  -3   4   35.40    2.52
   4  -3   4   39.73    2.58
   4   3   4   38.02    2.79
   4   3   4   38.17    2.65
  -4   3  -4   36.74    2.64
   5  -3   4   93.12    6.99
  -5  -3  -4   93.21    7.45
  -5  -3  -4  100.70    6.60
   5  -3   4   94.74    6.94
   5  -3   4   97.90    6.59
  -5  -3  -4   91.17    6.94
  -5  -3  -4  101.61    6.89
   5  -3   4  100.14    6.58
   5  -3   4  107.53    5.99
  -5   3  -4   94.98    6.89
   5   3   4   96.99    7.29
   5   3   4   96.33    6.89
  -6  -3  -4    3.44    0.49
   6  -3   4    2.39    0.54
   6  -3   4    2.17    0.37
  -6  -3  -4    2.39    0.39
   6  -3   4    2.48    0.38
  -6  -3  -4    2.80    0.40
  -6  -3  -4    2.80    0.41
   6   3   4    3.12    0.47
   6   3   4    3.07    0.44
  -6   3  -4    3.38    0.44
  -7  -3  -4   67.30    4.87
  -7  -3  -4   62.72    4.30
   7  -3   4   63.57    4.51
  -7  -3  -4   59.97    4.50
  -7  -3  -4   63.99    4.48
   7  -3   4   65.09    4.29
   7  -3   4   59.57    4.62
  -7   3  -4   54.94    4.47
   7   3   4   67.00    4.74
   7   3   4   54.44    4.48
   7   3   4   64.71    4.36
   8  -3   4   16.88    1.65
  -8  -3  -4   17.44    1.44
   8  -3   4   16.66    1.42
  -8  -3  -4   15.98    1.38
  -8  -3  -4   16.27    1.58
  -8  -3  -4   16.71    1.45
   8  -3   4   17.46    1.38
   8   3   4   17.73    1.52
   8   3   4   17.08    1.48
  -8   3  -4   18.12    1.48
   8   3   4   18.87    1.38
  -9  -3  -4   13.69    1.25
  -9  -3  -4   14.78    1.39
   9  -3   4   15.00    1.25
   9  -3   4   13.96    1.24
   9  -3   4   10.16    1.38
   9   3   4   13.66    1.31
  -9   3  -4   13.22    1.33
  -9   3  -4   13.12    1.17
   9   3   4   13.43    1.18
   9   3   4   15.81    1.36
   8  -4  -4    0.90    0.44
  -8  -4   4    0.71    0.38
  -8  -4   4    0.60    0.40
  -8  -4   4    0.87    0.42
  -8  -4   4    1.07    0.46
   8  -4  -4    0.85    0.39
   8  -4  -4    1.04    0.57
   8   4  -4    2.15    0.55
  -8   4   4    0.70    0.48
   7  -4  -4    3.66    0.63
  -7  -4   4    3.15    0.52
   7  -4  -4    2.90    0.50
   7  -4  -4    3.45    0.47
  -7  -4   4    3.58    0.51
  -7  -4   4    2.80    0.56
  -7  -4   4    3.03    0.44
  -7   4   4    3.26    0.53
   7   4  -4    2.59    0.53
   6  -4  -4    9.43    0.83
  -6  -4   4   10.38    0.83
  -6  -4   4    8.81    0.86
   6  -4  -4    9.50    0.85
   6  -4  -4    8.67    0.92
  -6  -4   4    9.05    0.85
  -6  -4   4    9.21    0.88
  -6  -4   4    8.10    0.97
   6  -4  -4    8.38    0.85
   6   4  -4    8.01    0.87
  -6   4   4    9.56    0.89
  -5  -4   4    5.20    0.52
   5  -4  -4    4.38    0.47
  -5  -4   4    4.63    0.61
   5  -4  -4    5.52    0.52
   5  -4  -4    3.77    0.50
   5  -4  -4    5.39    0.61
  -5  -4   4    4.13    0.48
  -5  -4   4    3.93    0.48
  -5   4   4    3.71    0.50
   5   4  -4    4.34    0.50
  -4  -4   4    0.26    0.20
   4  -4  -4    0.02    0.21
   4  -4  -4    0.35    0.22
  -4  -4   4    0.27    0.21
   4  -4  -4    0.50    0.32
   4  -4  -4   -0.04    0.26
  -4  -4   4    0.36    0.30
  -4  -4   4    0.16    0.24
   4   4  -4    0.17    0.22
  -4   4   4   -0.05    0.23
  -3  -4   4   12.40    0.95
   3  -4  -4   13.18    1.06
  -3  -4   4   11.56    0.94
   3  -4  -4   11.67    0.90
  -3  -4   4   12.84    0.92
   3  -4  -4   11.92    0.98
  -3  -4   4   11.72    1.09
  -3   4   4   10.97    0.94
   3   4  -4   12.21    0.94
  -2  -4   4    0.15    0.16
   2  -4  -4    0.16    0.25
  -2  -4   4    0.20    0.17
   2  -4  -4    0.17    0.16
  -2  -4   4    0.47    0.31
  -2  -4   4    0.22    0.26
   2  -4  -4    0.19    0.27
   2   4  -4    0.22    0.17
  -2   4   4    0.42    0.18
  -1  -4   4    2.96    0.42
   1  -4  -4    2.68    0.29
   1  -4  -4    2.57    0.39
   1  -4  -4    2.28    0.35
  -1  -4   4    2.11    0.29
  -1  -4   4    2.95    0.29
   1  -4  -4    2.42    0.27
  -1  -4   4    2.56    0.44
  -1   4   4    2.32    0.29
   1   4  -4    3.02    0.32
   0  -4  -4    5.11    0.43
   0  -4  -4    4.95    0.52
   0  -4  -4    4.20    0.42
   0  -4  -4    5.75    0.51
   0  -4   4    4.40    0.42
   0  -4   4    4.80    0.53
   0  -4   4    4.29    0.55
   0  -4   4    4.70    0.41
   0  -4   4    4.96    0.45
   0  -4   4    4.04    0.49
   0   4   4    3.80    0.43
   0   4  -4    5.40    0.48
   1  -4   4    2.90    0.34
  -1  -4  -4    2.72    0.38
   1  -4   4    3.26    0.41
  -1  -4  -4    3.44    0.31
   1  -4   4    4.65    0.50
   1  -4   4    4.08    0.48
  -1  -4  -4    2.90    0.31
  -1  -4  -4    4.07    0.47
   1  -4   4    3.58    0.33
  -1  -4  -4    3.30    0.32
   1  -4   4    3.44    0.34
  -1   4  -4    3.27    0.33
   1   4   4    2.95    0.32
  -2  -4  -4   13.22    0.95
  -2  -4  -4   13.60    1.03
  -2  -4  -4   12.77    0.98
   2  -4   4   14.51    1.16
   2  -4   4   12.70    0.96
  -2  -4  -4   13.09    0.95
   2  -4   4   12.94    0.95
   2  -4   4   12.75    1.03
   2  -4   4   12.03    0.91
   2  -4   4   12.37    1.13
  -2   4  -4   11.48    0.99
   2   4   4   13.90    1.00
   3  -4   4    0.26    0.21
  -3  -4  -4    0.36    0.16
   3  -4   4    0.59    0.25
  -3  -4  -4    0.31    0.20
   3  -4   4    0.28    0.33
   3  -4   4    0.31    0.21
  -3  -4  -4    0.15    0.25
  -3  -4  -4    0.28    0.20
   3  -4   4    0.00    0.20
  -3  -4  -4   -0.09    0.19
   3   4   4    0.27    0.23
   3   4   4    0.16    0.21
  -3   4  -4    0.18    0.22
   4  -4   4    2.99    0.39
  -4  -4  -4    2.79    0.37
  -4  -4  -4    3.42    0.35
   4  -4   4    3.72    0.54
   4  -4   4    3.02    0.32
   4  -4   4    3.23    0.36
  -4  -4  -4    2.76    0.37
  -4  -4  -4    2.99    0.39
   4  -4   4    2.37    0.35
   4  -4   4    2.76    0.36
   4   4   4    3.62    0.41
   4   4   4    2.74    0.38
  -4   4  -4    2.95    0.39
   5  -4   4    1.13    0.26
   5  -4   4    1.67    0.28
  -5  -4  -4    1.19    0.31
   5  -4   4    0.84    0.44
   5  -4   4    1.24    0.31
   5  -4   4    1.40    0.31
  -5  -4  -4    1.23    0.32
  -5  -4  -4    1.27    0.28
  -5   4  -4    1.31    0.34
   5   4   4    1.74    0.36
   5   4   4    1.15    0.33
   6  -4   4    1.98    0.37
  -6  -4  -4    1.80    0.35
  -6  -4  -4    1.52    0.37
   6  -4   4    1.73    0.38
   6  -4   4    1.65    0.55
  -6  -4  -4    1.68    0.36
   6  -4   4    1.60    0.31
   6   4   4    2.26    0.44
  -6   4  -4    1.77    0.41
   6   4   4    1.81    0.40
  -7  -4  -4    1.22    0.40
  -7  -4  -4    1.18    0.37
   7  -4   4    2.36    0.63
   7  -4   4    1.46    0.38
  -7  -4  -4    0.89    0.36
   7  -4   4    1.48    0.36
   7   4   4    1.29    0.40
   7   4   4    1.12    0.41
  -7   4  -4    1.92    0.45
   8  -4   4    1.19    0.42
  -8  -4  -4    1.80    0.41
   8  -4   4    1.07    0.65
  -8  -4  -4    1.48    0.46
  -8  -4  -4    1.72    0.44
   8  -4   4    1.55    0.39
  -8   4  -4    1.23    0.50
   8   4   4    2.25    0.53
   8   4   4    1.49    0.47
   7  -5  -4   23.90    1.83
  -7  -5   4   24.86    2.09
  -7  -5   4   21.49    1.80
   7  -5  -4   24.30    2.06
  -7  -5   4   23.93    1.93
  -7  -5   4   23.04    1.86
   7  -5  -4   23.57    1.83
   7   5  -4   27.26    1.96
  -7   5   4   23.05    1.91
  -6  -5   4    0.66    0.45
  -6  -5   4    1.03    0.34
  -6  -5   4    0.35    0.37
   6  -5  -4    0.91    0.39
   6  -5  -4    1.37    0.39
  -6  -5   4    0.81    0.35
   6  -5  -4    0.39    0.45
   6   5  -4   -0.35    0.35
  -6   5   4    0.57    0.39
  -5  -5   4   33.16    2.57
   5  -5  -4   33.08    2.31
  -5  -5   4   31.73    2.05
  -5  -5   4   26.92    2.31
   5  -5  -4   30.86    2.22
  -5  -5   4   31.23    2.22
   5  -5  -4   32.27    2.46
  -5   5   4   29.46    2.31
   5   5  -4   32.46    2.33
  -4  -5   4    1.98    0.33
  -4  -5   4    2.31    0.35
   4  -5  -4    2.11    0.43
  -4  -5   4    2.83    0.51
  -4  -5   4    1.72    0.36
   4  -5  -4    2.52    0.52
   4  -5  -4    2.36    0.37
   4   5  -4    1.94    0.35
  -4   5   4    2.60    0.37
  -3  -5   4   24.96    1.80
  -3  -5   4   22.13    1.67
   3  -5  -4   27.33    1.91
  -3  -5   4   26.61    1.87
   3  -5  -4   24.27    1.78
   3  -5  -4   24.79    1.99
  -3  -5   4   26.64    2.12
  -3   5   4   27.12    1.87
   3   5  -4   24.47    1.85
   2  -5  -4   45.54    3.49
  -2  -5   4   51.57    3.76
  -2  -5   4   46.35    3.38
   2  -5  -4   50.10    3.23
  -2  -5   4   45.52    3.23
   2  -5  -4   49.48    3.38
  -2  -5   4   44.72    3.52
  -2  -5   4   40.82    2.99
  -2   5   4   48.89    3.37
   2   5  -4   49.99    3.37
  -1  -5   4    6.07    0.78
  -1  -5   4    7.91    0.63
  -1  -5   4    7.49    0.68
   1  -5  -4    7.86    0.80
  -1  -5   4    8.50    0.71
   1  -5  -4    7.54    0.63
   1  -5  -4    7.65    0.78
  -1  -5   4    8.44    0.89
  -1   5   4    8.21    0.67
   1   5  -4    8.99    0.69
   0  -5  -4   33.97    2.39
   0  -5  -4   39.71    2.65
   0  -5   4   34.55    2.81
   0  -5   4   33.82    2.65
   0  -5   4   35.23    2.25
   0  -5   4   36.37    2.50
   0  -5   4   33.26    2.41
   0  -5  -4   30.76    2.52
   0  -5  -4   35.13    2.50
   0   5   4   37.46    2.51
   0   5  -4   34.16    2.51
  -1  -5  -4    1.76    0.26
  -1  -5  -4    1.61    0.27
  -1  -5  -4    1.64    0.25
  -1  -5  -4    1.96    0.45
   1  -5   4    1.93    0.41
   1  -5   4    1.76    0.39
  -1  -5  -4    1.54    0.38
   1  -5   4    1.66    0.28
   1  -5   4    2.43    0.48
   1  -5   4    1.79    0.35
   1   5   4    1.84    0.26
  -1   5  -4    1.76    0.28
   2  -5   4   33.18    2.36
   2  -5   4   34.87    2.36
  -2  -5  -4   35.01    2.36
   2  -5   4   33.17    2.49
  -2  -5  -4   37.83    2.49
  -2  -5  -4   34.16    2.46
   2  -5   4   35.34    2.23
   2  -5   4   31.48    2.61
   2  -5   4   38.35    2.75
  -2  -5  -4   35.52    2.36
   2   5   4   30.04    2.46
  -2   5  -4   33.27    2.47
  -3  -5  -4   15.38    1.13
   3  -5   4   15.95    1.40
  -3  -5  -4   14.06    1.12
  -3  -5  -4   14.93    1.23
   3  -5   4   15.27    1.13
   3  -5   4   14.76    1.12
  -3  -5  -4   15.71    1.17
   3  -5   4   13.97    1.10
   3  -5   4   14.71    1.23
   3   5   4   16.30    1.19
  -3   5  -4   14.99    1.19
  -4  -5  -4   16.44    1.31
   4  -5   4   12.73    1.51
  -4  -5  -4   16.21    1.27
  -4  -5  -4   18.59    1.37
   4  -5   4   16.61    1.21
   4  -5   4   15.65    1.26
   4  -5   4   17.51    1.27
   4  -5   4   17.18    1.34
   4   5   4   18.71    1.35
  -4   5  -4   17.77    1.35
  -5  -5  -4   42.60    2.77
   5  -5   4   38.16    2.53
   5  -5   4   36.62    2.74
   5  -5   4   36.63    3.06
  -5  -5  -4   37.02    2.87
   5  -5   4   42.21    2.76
  -5   5  -4   40.14    2.90
   5   5   4   40.75    2.90
   6  -5   4    0.73    0.35
  -6  -5  -4    0.38    0.27
   6  -5   4    0.90    0.35
   6  -5   4    0.21    0.24
  -6  -5  -4    0.30    0.35
  -6  -5  -4    0.40    0.36
   6  -5   4    1.28    0.63
   6   5   4    0.44    0.38
  -6   5  -4    0.39    0.39
   7  -5   4   16.59    1.32
  -7  -5  -4   17.28    1.31
  -7  -5  -4   15.25    1.35
   7  -5   4   16.17    1.27
   7  -5   4   15.51    1.60
  -7  -5  -4   14.35    1.38
   7   5   4   16.00    1.45
  -7   5  -4   15.78    1.43
   6  -6  -4   18.89    1.65
   6  -6  -4   22.17    1.86
   6  -6  -4   19.63    1.56
  -6  -6   4   19.12    1.66
  -6  -6   4   20.16    1.55
   6   6  -4   19.27    1.67
  -6   6   4   19.84    1.65
  -5  -6   4    0.92    0.36
  -5  -6   4    0.05    0.37
   5  -6  -4    0.71    0.55
   5  -6  -4    0.60    0.34
   5  -6  -4    0.92    0.48
   5   6  -4    0.96    0.40
  -5   6   4    0.36    0.38
   4  -6  -4   27.13    1.97
   4  -6  -4   27.03    2.10
  -4  -6   4   28.63    2.08
   4  -6  -4   28.59    2.24
  -4  -6   4   28.42    1.87
  -4  -6   4   26.22    1.97
  -4   6   4   28.05    2.06
   4   6  -4   26.35    2.06
  -3  -6   4   26.24    1.81
   3  -6  -4   25.68    2.04
   3  -6  -4   24.71    2.15
  -3  -6   4   29.65    1.89
   3  -6  -4   26.61    1.88
  -3  -6   4   24.08    1.98
  -3   6   4   27.54    1.97
   3   6  -4   26.82    1.96
   2  -6  -4   20.99    1.55
   2  -6  -4   23.18    1.75
  -2  -6   4   20.35    1.54
  -2  -6   4   22.40    1.91
  -2  -6   4   22.74    1.58
  -2  -6   4   21.85    1.64
   2  -6  -4   23.34    1.86
   2   6  -4   22.38    1.62
  -2   6   4   21.56    1.62
   1  -6  -4   41.63    3.06
  -1  -6   4   40.19    2.62
  -1  -6   4   34.54    3.06
  -1  -6   4   42.55    2.75
   1  -6  -4   36.02    2.91
  -1  -6   4   41.75    2.88
   1  -6  -4   38.17    2.73
   1   6  -4   43.47    2.86
   0  -6  -4   -0.20    0.38
   0  -6   4    0.30    0.46
   0  -6  -4    0.25    0.20
   0  -6   4    0.17    0.26
   0  -6   4   -0.33    0.38
   0  -6  -4   -0.20    0.44
   0  -6   4    0.39    0.22
   0  -6   4   -0.22    0.34
   1  -6   4   31.10    2.04
   1  -6   4   31.66    2.30
   1  -6   4   27.88    2.41
   1  -6   4   28.53    2.12
  -1  -6  -4   28.57    2.27
  -1  -6  -4   29.67    2.10
  -1  -6  -4   33.03    2.43
  -1  -6  -4   29.81    2.19
  -1   6  -4   31.85    2.22
   1   6   4   31.26    2.20
   2  -6   4   11.78    0.98
   2  -6   4   10.68    1.17
   2  -6   4   10.59    1.09
  -2  -6  -4   11.56    1.10
  -2  -6  -4   12.24    0.95
   2  -6   4   11.64    0.92
  -2  -6  -4   10.48    0.91
  -2   6  -4   11.51    0.95
   2   6   4   12.26    0.95
   3  -6   4   21.71    1.50
  -3  -6  -4   21.62    1.67
  -3  -6  -4   22.19    1.58
  -3  -6  -4   20.42    1.51
   3  -6   4   19.97    1.50
   3  -6   4   21.31    1.67
   3  -6   4   17.94    1.82
   3  -6   4   20.18    1.51
  -3   6  -4   21.01    1.58
   3   6   4   20.47    1.59
   4  -6   4   21.74    1.68
   4  -6   4   20.39    2.03
   4  -6   4   21.44    1.69
   4  -6   4   24.77    1.63
   4  -6   4   24.16    1.82
  -4  -6  -4   23.91    1.83
  -4  -6  -4   23.31    1.77
  -4  -6  -4   22.69    1.68
  -4   6  -4   23.06    1.78
   4   6   4   25.01    1.79
  -5  -6  -4    4.52    0.56
   5  -6   4    3.70    0.52
  -5  -6  -4    3.78    0.50
   5  -6   4    2.96    0.48
   5  -6   4    3.85    0.50
   5  -6   4    3.86    0.81
  -5   6  -4    4.27    0.57
   5   6   4    3.81    0.56
   6  -6   4    9.74    0.94
  -6  -6  -4    9.86    0.93
   6  -6   4    9.15    0.90
   6  -6   4    9.31    1.22
  -6  -6  -4    9.18    0.87
   6   6   4    8.84    0.94
  -6   6  -4    9.07    0.93
   3  -7  -4    2.15    0.34
   3  -7  -4    1.63    0.57
  -3  -7   4    1.86    0.44
  -3  -7   4    2.63    0.39
  -3  -7   4    1.89    0.48
   3  -7  -4    1.78    0.71
   3   7  -4    2.96    0.40
   2  -7  -4    1.64    0.57
  -2  -7   4    1.74    0.46
   2  -7  -4    2.19    0.62
  -2  -7   4    1.87    0.32
  -2  -7   4    1.94    0.38
  -2  -7   4    1.10    0.69
   1  -7  -4    1.49    0.64
  -1  -7   4    2.50    0.35
  -1  -7   4    2.31    0.46
   1  -7  -4    2.01    0.53
  -1  -7   4    1.57    0.72
   0  -7  -4   -0.41    0.50
   0  -7   4   -0.26    0.39
   0  -7  -4    0.41    0.61
   0  -7   4   -1.07    0.56
  -1  -7  -4    1.21    0.31
   1  -7   4   -0.32    0.61
  -1  -7  -4    1.02    0.63
   1  -7   4    0.60    0.43
   1  -7   4    0.80    0.50
  -1  -7  -4    1.10    0.46
   1  -7   4   -0.12    0.29
   2  -7   4    0.10    0.47
  -2  -7  -4   -0.83    0.49
   2  -7   4    0.06    0.40
   2  -7   4   -0.12    0.62
  -2  -7  -4    0.55    0.27
   2  -7   4   -0.36    0.32
  -2  -7  -4    0.08    0.32
  -3  -7  -4   -0.27    0.30
  -3  -7  -4   -1.19    0.50
   3  -7   4    0.02    0.33
  -3  -7  -4    0.47    0.36
   3  -7   4   -0.42    0.38
   3  -7   4    0.04    0.65
   3  -7   4    0.77    0.49
  -3  -7  -4    0.33    0.32
   3   7   4   -0.10    0.33
  10   0  -5    0.22    0.37
  10   0  -5    0.60    0.37
 -10   0   5   -0.40    0.43
 -10   0   5   -0.04    0.33
   9   0  -5   -0.08    0.32
  -9   0   5    0.33    0.32
  -9   0   5   -0.26    0.34
   9   0  -5    0.18    0.33
  -9   0   5    0.26    0.39
   8   0  -5   -0.18    0.27
  -8   0   5    0.12    0.30
   8   0  -5    0.11    0.32
  -8   0   5    0.03    0.26
  -8   0   5   -0.09    0.32
   8   0  -5   -0.10    0.30
  -8   0   5   -0.31    0.27
  -7   0   5    0.07    0.26
  -7   0   5    0.00    0.21
   7   0  -5    0.29    0.25
   7   0  -5   -0.15    0.25
  -7   0   5    0.18    0.28
   7   0  -5    0.05    0.30
  -7   0   5   -0.02    0.23
  -7   0   5    0.09    0.27
   7   0  -5    0.47    0.25
  -6   0   5    0.31    0.24
   6   0  -5    0.28    0.22
  -6   0   5    0.55    0.22
  -6   0   5    0.20    0.24
   6   0  -5    0.34    0.24
   6   0  -5    0.00    0.25
  -6   0   5    0.56    0.22
   6   0  -5    0.61    0.21
  -6   0   5    0.43    0.20
  -6   0   5    0.21    0.22
   6   0  -5    0.53    0.28
   5   0  -5   -0.24    0.19
  -5   0   5    0.32    0.18
   5   0  -5   -0.02    0.19
  -5   0   5    0.00    0.19
  -5   0   5   -0.25    0.16
   5   0  -5   -0.11    0.16
  -5   0   5   -0.27    0.15
  -5   0   5    0.35    0.20
   5   0  -5    0.07    0.20
   5   0  -5    0.22    0.19
  -5   0   5    0.11    0.19
  -5   0   5   -0.16    0.16
  -4   0   5    0.32    0.19
   4   0  -5    0.17    0.17
   4   0  -5    0.60    0.17
   4   0  -5    0.29    0.18
  -4   0   5    0.55    0.18
   4   0  -5    0.40    0.19
   4   0  -5    0.66    0.18
  -4   0   5    0.36    0.18
  -4   0   5    0.80    0.20
  -4   0   5    0.40    0.17
  -4   0   5    0.53    0.18
  -4   0   5    0.67    0.18
  -3   0   5   -0.15    0.12
  -3   0   5   -0.06    0.12
  -3   0   5    0.08    0.13
   3   0  -5    0.03    0.14
  -3   0   5   -0.14    0.14
  -3   0   5   -0.09    0.15
   3   0  -5    0.16    0.16
  -3   0   5    0.03    0.13
  -3   0   5    0.04    0.14
   3   0  -5    0.04    0.14
   3   0  -5   -0.15    0.14
   3   0  -5   -0.15    0.15
  -2   0   5    0.00    0.11
  -2   0   5    0.14    0.13
   2   0  -5    0.16    0.14
   2   0  -5    0.24    0.13
  -2   0   5    0.72    0.16
  -2   0   5    0.30    0.13
  -2   0   5    0.31    0.13
  -2   0   5    0.27    0.13
  -2   0   5    0.14    0.13
   2   0  -5   -0.04    0.14
  -2   0   5    0.25    0.12
   2   0  -5    0.42    0.15
   2   0  -5    0.33    0.13
  -1   0   5   -0.06    0.12
   1   0  -5    0.43    0.15
  -1   0   5    0.24    0.14
  -1   0   5    0.30    0.13
   1   0  -5    0.10    0.15
   1   0  -5   -0.01    0.13
   1   0  -5   -0.07    0.12
  -1   0   5    0.16    0.12
  -1   0   5    0.06    0.11
  -1   0   5    0.16    0.14
  -1   0   5    0.12    0.13
   1   0  -5    0.04    0.15
   0   0  -5    0.01    0.13
   0   0   5    0.08    0.13
   0   0   5   -0.03    0.13
   0   0   5    0.18    0.14
   0   0   5    0.06    0.14
   0   0   5    0.13    0.14
   0   0  -5    0.42    0.16
   0   0  -5   -0.12    0.15
   0   0  -5   -0.17    0.13
   0   0   5    0.09    0.13
   0   0   5    0.29    0.16
   0   0  -5   -0.10    0.15
  -1   0  -5    0.26    0.16
   1   0   5    0.23    0.15
   1   0   5    0.46    0.15
   1   0   5    0.31    0.17
   1   0   5    0.07    0.13
   1   0   5    0.53    0.16
  -1   0  -5    0.26    0.15
   1   0   5    0.20    0.15
   1   0   5    0.28    0.16
  -1   0  -5    0.20    0.15
  -1   0  -5    0.32    0.17
  -1   0  -5    0.75    0.18
  -2   0  -5    0.06    0.14
  -2   0  -5    0.05    0.15
   2   0   5    0.03    0.12
   2   0   5   -0.19    0.13
  -2   0  -5    0.02    0.15
   2   0   5   -0.03    0.13
   2   0   5    0.17    0.14
  -2   0  -5    0.02    0.14
   2   0   5   -0.15    0.13
  -2   0  -5    0.11    0.15
  -2   0  -5    0.00    0.13
   2   0   5    0.05    0.13
  -3   0  -5    0.48    0.16
   3   0   5    0.52    0.15
   3   0   5    0.06    0.15
  -3   0  -5    0.28    0.15
   3   0   5    0.19    0.14
  -3   0  -5    0.38    0.16
  -3   0  -5    0.46    0.16
   3   0   5    0.37    0.14
   3   0   5    0.38    0.14
  -3   0  -5    0.44    0.17
  -3   0  -5    0.34    0.15
   3   0   5    0.47    0.16
   4   0   5   -0.05    0.16
   4   0   5    0.13    0.14
   4   0   5    0.10    0.15
  -4   0  -5    0.08    0.16
  -4   0  -5   -0.06    0.17
  -4   0  -5   -0.20    0.15
  -4   0  -5    0.21    0.16
  -4   0  -5    0.03    0.15
   4   0   5    0.15    0.16
  -4   0  -5    0.03    0.16
   4   0   5    0.05    0.15
   4   0   5    0.09    0.14
   5   0   5    0.03    0.16
   5   0   5    0.11    0.16
  -5   0  -5    0.25    0.20
  -5   0  -5   -0.04    0.19
   5   0   5    0.19    0.18
  -5   0  -5   -0.07    0.19
   5   0   5   -0.14    0.16
  -5   0  -5    0.23    0.22
   5   0   5    0.08    0.18
  -5   0  -5    0.05    0.20
   5   0   5   -0.07    0.18
  -5   0  -5   -0.08    0.17
  -6   0  -5   -0.13    0.22
  -6   0  -5   -0.11    0.23
   6   0   5    0.38    0.24
  -6   0  -5   -0.29    0.24
   6   0   5   -0.09    0.20
   6   0   5    0.13    0.22
   6   0   5    0.19    0.22
   6   0   5    0.30    0.26
  -6   0  -5    0.22    0.23
   6   0   5    0.16    0.22
  -7   0  -5    0.28    0.24
   7   0   5   -0.14    0.26
  -7   0  -5   -0.02    0.27
   7   0   5    0.08    0.26
   7   0   5    0.08    0.27
  -7   0  -5   -0.12    0.29
   7   0   5    0.03    0.22
  -7   0  -5   -0.15    0.27
   7   0   5   -0.16    0.21
   8   0   5    0.11    0.27
   8   0   5    0.23    0.33
  -8   0  -5    0.49    0.33
   8   0   5    0.39    0.32
  -8   0  -5    0.04    0.26
  -8   0  -5   -0.20    0.35
   8   0   5    0.12    0.28
  -9   0  -5   -0.33    0.39
  -9   0  -5    0.01    0.30
   9   0   5   -0.34    0.35
   9   0   5   -0.25    0.27
  -9   0  -5    0.68    0.35
   9   0   5   -0.07    0.31
 -10  -1   5    0.01    0.31
  10  -1  -5    0.97    0.38
 -10  -1   5    0.26    0.42
 -10  -1   5   -0.27    0.38
  10  -1  -5   -0.50    0.47
 -10   1   5   -0.22    0.45
 -10   1   5    0.15    0.33
 -10   1   5   -0.15    0.39
  10   1  -5   -0.02    0.37
  -9  -1   5   32.49    2.56
  -9  -1   5   38.28    2.54
  -9  -1   5   35.81    2.94
  -9  -1   5   37.05    2.72
   9  -1  -5   38.66    2.56
   9  -1  -5   36.95    2.74
   9  -1  -5   35.17    2.51
  -9   1   5   34.48    2.90
  -9   1   5   36.11    2.71
  -9   1   5   31.98    2.57
   9   1  -5   39.38    2.74
   9   1  -5   32.05    2.59
   8  -1  -5   41.51    2.78
   8  -1  -5   39.17    2.73
  -8  -1   5   39.72    2.79
  -8  -1   5   43.73    2.75
   8  -1  -5   38.32    2.94
  -8  -1   5   33.20    2.91
  -8  -1   5   41.25    3.18
  -8   1   5   39.58    2.92
   8   1  -5   32.11    2.90
  -8   1   5   42.44    2.82
   8   1  -5   40.65    2.82
  -8   1   5   38.13    3.14
   7  -1  -5   56.22    3.99
  -7  -1   5   58.91    3.73
   7  -1  -5   50.52    3.79
  -7  -1   5   55.88    3.81
   7  -1  -5   57.28    3.80
  -7  -1   5   56.61    4.29
   7  -1  -5   53.01    3.72
  -7  -1   5   59.96    3.80
  -7   1   5   46.45    3.93
  -7   1   5   51.87    3.82
   7   1  -5   49.23    3.94
  -7   1   5   58.17    4.26
   7   1  -5   55.80    3.83
  -6  -1   5   41.42    3.08
  -6  -1   5   46.96    2.96
  -6  -1   5   38.94    3.34
  -6  -1   5   41.25    2.97
   6  -1  -5   43.59    2.97
   6  -1  -5   41.82    2.91
  -6  -1   5   34.46    3.06
  -6  -1   5   48.36    3.13
   6  -1  -5   42.82    2.97
   6  -1  -5   39.90    3.11
  -6  -1   5   47.26    2.92
  -6   1   5   39.88    3.08
   6   1  -5   45.82    3.12
  -6   1   5   46.12    3.33
   6   1  -5   43.66    3.09
  -6   1   5   45.02    3.00
   6   1  -5   35.70    2.99
  -5  -1   5    9.98    0.80
  -5  -1   5   10.76    0.80
  -5  -1   5    8.79    0.74
  -5  -1   5    8.63    0.76
   5  -1  -5   10.62    0.80
  -5  -1   5   10.30    0.81
   5  -1  -5   10.10    0.75
  -5  -1   5    8.66    0.87
   5  -1  -5    9.95    0.74
   5  -1  -5    8.54    0.78
  -5  -1   5   10.42    0.74
   5  -1  -5    8.44    0.80
   5   1  -5    9.69    0.81
   5   1  -5    9.36    0.81
  -5   1   5    8.76    0.79
  -5   1   5    7.92    0.83
  -5   1   5    9.32    0.77
   5   1  -5    7.68    0.76
  -5   1   5   10.36    0.81
   5   1  -5   10.68    0.75
  -4  -1   5  120.36    8.36
  -4  -1   5  135.80    8.51
  -4  -1   5  109.16    8.71
   4  -1  -5  111.94    8.80
   4  -1  -5  125.32    8.28
  -4  -1   5  134.41    8.29
  -4  -1   5  140.35    9.45
   4  -1  -5  122.96    8.71
  -4  -1   5  105.45    8.50
   4  -1  -5  136.50    8.50
   4  -1  -5  119.09    8.29
  -4  -1   5  105.43    8.80
  -4  -1   5  137.99    8.74
   4  -1  -5  141.20    8.37
   4   1  -5  120.13    8.36
  -4   1   5  118.05    8.35
   4   1  -5  108.01    8.51
  -4   1   5  127.55    8.73
   4   1  -5  129.32    8.72
   4   1  -5  113.82    8.29
  -4   1   5  140.36    8.29
   4   1  -5  140.25    8.82
  -4   1   5  112.19    9.41
  -3  -1   5   24.05    1.51
  -3  -1   5   20.24    1.53
  -3  -1   5   19.62    1.53
  -3  -1   5   23.72    1.60
   3  -1  -5   19.82    1.53
   3  -1  -5   23.50    1.53
  -3  -1   5   24.51    1.62
  -3  -1   5   19.73    1.73
  -3  -1   5   21.60    1.50
   3  -1  -5   23.88    1.50
  -3  -1   5   20.71    1.59
   3  -1  -5   20.57    1.51
   3  -1  -5   21.64    1.61
   3  -1  -5   22.11    1.58
   3   1  -5   21.62    1.52
   3   1  -5   19.04    1.55
  -3   1   5   21.11    1.50
  -3   1   5   23.30    1.55
  -3   1   5   22.19    1.61
  -3   1   5   21.63    1.52
   3   1  -5   19.98    1.61
   3   1  -5   22.03    1.51
  -3   1   5   21.71    1.71
   3   1  -5   22.36    1.59
  -2  -1   5  109.29    8.65
   2  -1  -5  108.53    8.73
  -2  -1   5  127.58    8.21
  -2  -1   5  113.13    8.64
   2  -1  -5  131.01    8.64
  -2  -1   5  124.94    8.43
   2  -1  -5  127.14    8.66
   2  -1  -5  123.97    8.21
  -2  -1   5  137.12    9.36
   2  -1  -5  132.38    8.29
  -2  -1   5  111.40    8.73
   2  -1  -5  127.67    8.22
   2  -1  -5  123.12    8.43
  -2  -1   5  133.88    8.29
  -2   1   5  107.78    8.73
  -2   1   5  142.39    8.46
  -2   1   5  107.46    9.32
   2   1  -5  121.10    8.22
   2   1  -5  117.57    8.73
   2   1  -5  135.58    8.65
   2   1  -5  109.63    8.45
   2   1  -5  128.13    8.64
  -2   1   5  124.50    8.28
   2   1  -5  108.61    8.27
  -2   1   5  131.62    8.65
  -2   1   5  140.22    8.22
  -1  -1   5   69.78    4.13
   1  -1  -5   62.79    4.14
  -1  -1   5   70.54    4.41
   1  -1  -5   55.27    4.40
  -1  -1   5   61.27    4.24
   1  -1  -5   62.52    4.12
  -1  -1   5   55.36    4.36
  -1  -1   5   57.73    4.18
   1  -1  -5   62.86    4.34
   1  -1  -5   64.52    4.23
  -1  -1   5   59.46    4.15
   1  -1  -5   63.38    4.17
  -1  -1   5   53.92    4.13
  -1  -1   5   60.30    4.72
  -1  -1   5   53.88    4.35
  -1   1   5   57.73    4.25
  -1   1   5   64.50    4.69
   1   1  -5   63.27    4.37
  -1   1   5   62.85    4.36
   1   1  -5   67.61    4.26
  -1   1   5   58.98    4.13
   1   1  -5   65.96    4.17
   1   1  -5   68.44    4.40
   1   1  -5   60.93    4.13
  -1   1   5   63.53    4.40
  -1   1   5   57.55    4.16
   0  -1   5    3.01    0.26
   0  -1   5    2.90    0.27
   0  -1  -5    2.15    0.25
   0  -1  -5    2.40    0.24
   0  -1  -5    2.65    0.28
   0  -1  -5    2.51    0.25
   0  -1   5    2.57    0.29
   0  -1  -5    2.81    0.30
   0  -1   5    3.31    0.29
   0  -1   5    2.81    0.26
   0  -1   5    3.62    0.36
   0  -1   5    1.81    0.23
   0  -1   5    3.31    0.32
   0  -1   5    2.28    0.28
   0   1   5    2.27    0.26
   0   1   5    2.22    0.28
   0   1  -5    2.86    0.31
   0   1   5    3.03    0.29
   0   1   5    3.23    0.29
   0   1  -5    3.28    0.28
   0   1   5    2.48    0.27
   0   1  -5    2.85    0.30
   0   1  -5    3.03    0.27
   0   1  -5    2.75    0.27
   0   1   5    2.09    0.28
   1  -1   5  269.62   17.27
   1  -1   5  247.93   16.32
  -1  -1  -5  234.29   16.26
  -1  -1  -5  230.79   16.38
   1  -1   5  217.01   18.07
   1  -1   5  221.92   16.69
  -1  -1  -5  244.26   16.69
  -1  -1  -5  246.66   16.38
   1  -1   5  240.64   17.16
   1  -1   5  263.57   16.26
  -1  -1  -5  269.52   16.26
  -1  -1  -5  230.29   17.11
   1  -1   5  243.24   16.38
   1  -1   5  226.68   18.49
  -1   1  -5  242.68   17.27
   1   1   5  243.53   16.70
  -1   1  -5  240.85   17.09
  -1   1  -5  243.69   16.70
   1   1   5  281.63   17.10
  -1   1  -5  255.32   16.38
   1   1   5  216.41   17.27
   1   1   5  243.70   16.27
  -1   1  -5  272.00   16.28
   1   1   5  242.58   16.38
   2  -1   5   40.07    2.80
   2  -1   5   44.59    2.83
  -2  -1  -5   40.62    2.96
  -2  -1  -5   42.92    2.99
  -2  -1  -5   42.86    2.80
   2  -1   5   38.00    2.96
   2  -1   5   37.94    2.79
  -2  -1  -5   42.99    2.95
   2  -1   5   44.09    3.12
   2  -1   5   43.06    3.21
   2  -1   5   45.74    2.99
  -2  -1  -5   37.75    2.88
   2  -1   5   41.96    2.88
  -2  -1  -5   41.09    2.83
  -2  -1  -5   39.10    2.81
   2   1   5   39.73    3.13
   2   1   5   38.75    2.83
   2   1   5   38.63    2.98
  -2   1  -5   45.80    3.00
  -2   1  -5   41.49    2.88
   2   1   5   44.77    2.96
   2   1   5   43.02    2.81
  -2   1  -5   39.01    2.95
   2   1   5   41.10    2.88
   3  -1   5  151.60   10.76
  -3  -1  -5  156.21   11.24
  -3  -1  -5  176.37   10.68
  -3  -1  -5  146.67   10.76
  -3  -1  -5  158.25   11.23
  -3  -1  -5  151.53   10.68
   3  -1   5  176.32   11.88
   3  -1   5  156.53   10.67
  -3  -1  -5  157.06   11.34
   3  -1   5  171.01   11.34
   3  -1   5  182.46   11.24
   3  -1   5  157.21   10.97
   3  -1   5  150.83   10.72
  -3  -1  -5  157.22   10.97
  -3   1  -5  143.93   11.23
   3   1   5  155.77   10.97
  -3   1  -5  162.04   10.69
   3   1   5  173.32   11.89
   3   1   5  162.17   11.35
  -3   1  -5  154.81   10.97
   3   1   5  168.00   10.69
  -3   1  -5  162.22   11.34
  -3   1  -5  174.91   10.76
   3   1   5  140.16   10.76
  -4  -1  -5   18.08    1.33
   4  -1   5   18.99    1.32
   4  -1   5   17.17    1.33
  -4  -1  -5   17.70    1.39
   4  -1   5   19.51    1.32
   4  -1   5   20.44    1.40
   4  -1   5   17.48    1.37
  -4  -1  -5   17.99    1.29
  -4  -1  -5   17.41    1.32
  -4  -1  -5   18.45    1.38
   4  -1   5   19.01    1.29
   4  -1   5   17.20    1.45
   4   1   5   17.56    1.30
  -4   1  -5   16.89    1.31
   4   1   5   18.95    1.33
   4   1   5   19.13    1.32
   4   1   5   16.74    1.44
   4   1   5   17.22    1.38
  -4   1  -5   19.14    1.33
  -4   1  -5   20.11    1.31
   4   1   5   18.96    1.38
  -4   1  -5   17.98    1.39
  -4   1  -5   20.20    1.39
   5  -1   5   23.71    1.73
   5  -1   5   21.41    1.65
  -5  -1  -5   20.09    1.65
   5  -1   5   23.22    1.62
   5  -1   5   22.93    1.81
   5  -1   5   23.95    1.75
   5  -1   5   22.24    1.66
  -5  -1  -5   21.59    1.72
  -5  -1  -5   23.28    1.74
  -5  -1  -5   25.32    1.62
  -5  -1  -5   21.53    1.65
  -5  -1  -5   22.58    1.75
   5   1   5   22.55    1.63
   5   1   5   26.32    1.84
  -5   1  -5   20.47    1.73
  -5   1  -5   25.67    1.68
  -5   1  -5   26.05    1.76
   5   1   5   22.90    1.73
   5   1   5   25.49    1.68
   5   1   5   21.87    1.74
   6  -1   5   56.20    4.02
   6  -1   5   52.20    4.07
  -6  -1  -5   54.53    4.08
  -6  -1  -5   53.37    4.26
  -6  -1  -5   58.24    4.14
   6  -1   5   58.89    4.31
   6  -1   5   62.16    4.51
   6  -1   5   60.16    4.14
  -6  -1  -5   63.41    4.05
  -6  -1  -5   67.27    4.29
   6   1   5   57.21    4.15
  -6   1  -5   64.28    4.15
   6   1   5   57.49    4.51
   6   1   5   64.79    4.28
  -6   1  -5   63.59    4.28
  -7  -1  -5   11.59    1.10
   7  -1   5   12.06    1.01
   7  -1   5   12.61    1.03
   7  -1   5   12.33    0.98
  -7  -1  -5   13.83    1.01
  -7  -1  -5   12.16    1.01
   7  -1   5   11.62    1.08
   7  -1   5   12.94    1.13
  -7   1  -5   12.63    1.02
   7   1   5   12.36    1.12
  -7   1  -5   14.23    1.12
   7   1   5   14.47    1.11
   7   1   5   13.09    1.03
  -8  -1  -5   54.69    4.79
   8  -1   5   69.12    4.82
   8  -1   5   67.53    5.02
  -8  -1  -5   69.60    5.16
   8  -1   5   67.04    4.59
  -8  -1  -5   67.48    4.60
   8  -1   5   63.94    4.47
  -8  -1  -5   65.68    4.49
   8   1   5   71.38    4.62
  -8   1  -5   61.99    4.76
   8   1   5   66.01    4.77
   8   1   5   56.97    5.01
  -8   1  -5   74.54    4.63
   9  -1   5    2.04    0.39
   9  -1   5    2.57    0.39
   9  -1   5    2.38    0.51
  -9  -1  -5    1.73    0.47
  -9  -1  -5    1.93    0.39
   9  -1   5    2.49    0.50
  -9  -1  -5    2.61    0.58
  -9  -1  -5    2.01    0.39
  -9   1  -5    2.55    0.53
   9   1   5    2.94    0.54
   9   1   5    2.37    0.41
  -9   1  -5    2.59    0.43
   9   1   5    1.83    0.50
  -9  -2   5    5.79    0.70
  -9  -2   5    5.64    0.79
   9  -2  -5    5.56    0.74
  -9  -2   5    6.11    0.63
   9   2  -5    5.65    0.67
  -9   2   5    6.73    0.77
  -9   2   5    4.35    0.60
  -9   2   5    5.64    0.76
   9   2  -5    5.23    0.74
   8  -2  -5   47.47    3.62
   8  -2  -5   43.01    3.42
  -8  -2   5   53.59    3.36
  -8  -2   5   52.55    3.91
  -8  -2   5   48.72    3.61
  -8  -2   5   53.08    3.46
   8   2  -5   47.94    3.47
  -8   2   5   49.26    3.85
  -8   2   5   48.80    3.60
  -8   2   5   40.73    3.45
   8   2  -5   53.46    3.62
   7  -2  -5   16.66    1.43
  -7  -2   5   17.88    1.41
  -7  -2   5   19.71    1.44
  -7  -2   5   20.62    1.38
  -7  -2   5   18.96    1.31
   7  -2  -5   16.78    1.37
  -7  -2   5   16.62    1.53
   7   2  -5   15.47    1.35
  -7   2   5   14.90    1.40
  -7   2   5   17.87    1.35
  -7   2   5   17.96    1.50
   7   2  -5   15.97    1.42
   6  -2  -5   14.13    1.17
  -6  -2   5   14.83    1.17
  -6  -2   5   12.77    1.25
   6  -2  -5   14.73    1.14
   6  -2  -5   13.69    1.19
  -6  -2   5   13.50    1.16
  -6  -2   5   13.80    1.11
  -6  -2   5   15.89    1.08
   6   2  -5   13.21    1.12
   6   2  -5   12.62    1.16
  -6   2   5   14.05    1.17
  -6   2   5   15.12    1.23
  -6   2   5   16.43    1.12
  -5  -2   5   37.31    3.44
  -5  -2   5   45.05    3.20
  -5  -2   5   48.66    3.22
   5  -2  -5   42.55    3.21
  -5  -2   5   47.25    3.00
   5  -2  -5   40.77    3.06
   5  -2  -5   43.44    3.21
  -5  -2   5   43.88    3.05
   5   2  -5   45.62    3.11
  -5   2   5   40.62    3.18
  -5   2   5   46.32    3.10
   5   2  -5   43.15    3.18
  -5   2   5   48.87    3.43
  -4  -2   5    1.24    0.24
  -4  -2   5    1.17    0.24
  -4  -2   5    1.38    0.22
   4  -2  -5    1.10    0.23
   4  -2  -5    1.20    0.23
  -4  -2   5    1.23    0.29
  -4  -2   5    1.15    0.25
   4  -2  -5    1.30    0.26
  -4   2   5    1.05    0.22
  -4   2   5    1.44    0.26
   4   2  -5    1.44    0.25
  -4   2   5    1.74    0.25
   4   2  -5    0.79    0.23
   3  -2  -5  111.24    8.30
   3  -2  -5  100.86    8.24
  -3  -2   5  103.61    7.87
   3  -2  -5  131.82    7.88
  -3  -2   5  127.05    8.31
  -3  -2   5  121.80    8.31
  -3  -2   5  101.50    8.22
  -3   2   5  105.47    8.03
  -3   2   5  125.86    8.22
   3   2  -5  132.18    8.32
   3   2  -5  109.88    8.21
  -3   2   5  125.07    8.31
  -3   2   5  126.20    8.87
   2  -2  -5  127.80    8.40
  -2  -2   5  112.45    8.32
   2  -2  -5  128.54    7.97
   2  -2  -5  124.11    7.94
  -2  -2   5  115.74    8.40
   2  -2  -5  117.62    8.35
  -2  -2   5  116.79    7.97
  -2  -2   5  119.14    9.00
   2  -2  -5  116.78    8.39
  -2   2   5  128.82    8.32
  -2   2   5  111.31    8.95
   2   2  -5  118.53    8.12
  -2   2   5  106.74    8.39
   2   2  -5  122.54    8.31
  -2   2   5  110.89    8.12
   2   2  -5  116.88    8.32
   2   2  -5  119.96    8.40
   1  -2  -5   70.69    4.50
  -1  -2   5   62.13    4.50
  -1  -2   5   74.35    5.11
  -1  -2   5   63.64    4.70
   1  -2  -5   70.49    4.49
  -1  -2   5   70.27    4.48
   1  -2  -5   64.41    4.73
  -1  -2   5   66.66    4.72
  -1  -2   5   69.00    4.73
   1  -2  -5   68.18    4.71
   1   2  -5   67.33    4.58
   1   2  -5   57.50    4.70
   1   2  -5   62.44    4.74
  -1   2   5   58.23    4.70
  -1   2   5   73.14    4.57
   0  -2   5   32.13    2.28
   0  -2  -5   31.10    2.17
   0  -2  -5   31.45    2.19
   0  -2   5   34.02    2.30
   0  -2  -5   30.14    2.30
   0  -2   5   32.39    2.29
   0  -2  -5   32.53    2.28
   0  -2   5   31.42    2.17
   0  -2  -5   28.91    2.29
   0  -2   5   33.28    2.20
   0  -2  -5   34.78    2.30
   0  -2   5   32.62    2.39
   0  -2   5   34.65    2.51
   0  -2   5   32.27    2.29
   0   2  -5   29.49    2.20
   0   2   5   32.20    2.28
   0   2   5   30.43    2.20
   0   2  -5   29.60    2.28
  -1  -2  -5   11.01    0.83
   1  -2   5    9.41    0.83
  -1  -2  -5   11.08    0.82
   1  -2   5   11.77    0.81
   1  -2   5   10.59    0.78
  -1  -2  -5   10.34    0.77
  -1  -2  -5   11.03    0.81
   1  -2   5    9.28    0.78
  -1  -2  -5   10.51    0.80
  -1  -2  -5   11.34    0.78
  -1  -2  -5   11.23    0.78
   1  -2   5    9.67    0.81
   1  -2   5   11.04    0.83
   1  -2   5   11.28    0.94
  -1   2  -5   10.68    0.76
   1   2   5    9.82    0.80
   1   2   5   10.97    0.76
   1   2   5   10.46    0.82
  -1   2  -5    9.93    0.81
  -1   2  -5    9.50    0.82
  -2  -2  -5  108.89    8.48
   2  -2   5  116.27    8.11
   2  -2   5  115.16    9.20
   2  -2   5  115.04    8.56
   2  -2   5  125.17    8.96
   2  -2   5  109.65    8.54
  -2  -2  -5  124.72    8.13
   2  -2   5  125.36    8.13
  -2  -2  -5  122.10    8.56
  -2  -2  -5  125.90    8.29
  -2  -2  -5  135.21    8.10
  -2   2  -5  121.81    8.28
   2   2   5  112.93    8.57
   2   2   5  122.34    8.49
   2   2   5  128.94    8.28
  -2   2  -5  131.20    8.58
  -2   2  -5  114.42    8.48
   3  -2   5   36.72    2.47
  -3  -2  -5   35.55    2.46
   3  -2   5   34.86    2.60
  -3  -2  -5   36.55    2.50
   3  -2   5   34.66    2.71
  -3  -2  -5   35.50    2.47
   3  -2   5   38.54    2.48
  -3  -2  -5   36.85    2.60
  -3  -2  -5   32.22    2.57
   3  -2   5   35.17    2.63
   3   2   5   39.72    2.59
  -3   2  -5   34.03    2.58
   3   2   5   35.70    2.60
  -3   2  -5   36.97    2.50
   3   2   5   35.94    2.73
   3   2   5   35.56    2.51
  -4  -2  -5   74.08    4.82
   4  -2   5   77.15    4.88
  -4  -2  -5   73.56    4.88
   4  -2   5   75.83    4.89
  -4  -2  -5   76.99    5.10
   4  -2   5   62.06    4.41
  -4  -2  -5   62.03    4.93
  -4  -2  -5   70.05    5.14
  -4  -2  -5   72.69    4.81
   4  -2   5   72.63    5.37
   4   2   5   71.10    5.10
  -4   2  -5   75.62    4.97
  -4   2  -5   67.14    5.10
   4   2   5   74.14    5.39
   4   2   5   75.06    4.97
  -5  -2  -5   35.59    2.48
  -5  -2  -5   31.90    2.50
   5  -2   5   35.51    2.12
  -5  -2  -5   32.66    2.31
   5  -2   5   32.91    2.50
   5  -2   5   33.91    2.37
   5  -2   5   30.33    2.37
   5  -2   5   33.92    2.61
  -5  -2  -5   34.82    2.38
  -5   2  -5   37.91    2.42
   5   2   5   32.06    2.48
   5   2   5   34.16    2.41
   5   2   5   35.81    2.63
  -5   2  -5   33.89    2.49
   6  -2   5    5.74    0.61
  -6  -2  -5    5.10    0.56
  -6  -2  -5    4.51    0.55
   6  -2   5    4.93    0.45
  -6  -2  -5    5.38    0.62
   6  -2   5    5.89    0.59
  -6  -2  -5    5.41    0.49
   6  -2   5    4.13    0.50
  -6  -2  -5    5.87    0.56
   6   2   5    6.03    0.60
  -6   2  -5    4.80    0.51
   6   2   5    6.17    0.57
   6   2   5    5.89    0.64
  -6   2  -5    4.64    0.57
   7  -2   5   29.41    2.09
  -7  -2  -5   32.29    2.20
  -7  -2  -5   24.86    2.29
   7  -2   5   27.53    2.29
  -7  -2  -5   32.02    2.11
  -7  -2  -5   32.36    2.30
   7  -2   5   28.96    2.18
   7  -2   5   33.15    2.40
  -7  -2  -5   31.66    2.48
  -7   2  -5   29.94    2.30
   7   2   5   30.67    2.21
   7   2   5   29.78    2.30
  -7   2  -5   32.27    2.22
   7   2   5   30.75    2.41
   8  -2   5    0.01    0.30
  -8  -2  -5    0.40    0.44
  -8  -2  -5    0.01    0.34
  -8  -2  -5    0.15    0.24
   8  -2   5    0.38    0.30
   8  -2   5   -0.13    0.33
   8   2   5    0.12    0.33
  -8   2  -5    0.50    0.40
   8   2   5    0.25    0.34
   8   2   5    0.15    0.33
  -8   2  -5   -0.07    0.30
  -9  -2  -5   20.29    1.84
   9  -2   5   17.51    1.66
  -9  -2  -5   17.58    1.67
   9  -2   5   22.32    1.76
  -9  -2  -5   19.40    1.49
   9   2   5   20.89    1.59
  -9   2  -5   20.47    1.72
  -9   2  -5   20.51    1.59
   9   2   5   24.26    1.74
   9   2   5   21.63    1.78
   9  -3  -5    2.69    0.64
  -9  -3   5    3.49    0.68
   9  -3  -5    2.71    0.53
  -9  -3   5    2.31    0.50
   9  -3  -5    2.87    0.56
   9   3  -5    3.16    0.61
  -9   3   5    2.24    0.56
   9   3  -5    2.79    0.47
   8  -3  -5    3.95    0.59
   8  -3  -5    4.79    0.70
  -8  -3   5    4.01    0.57
   8  -3  -5    4.51    0.61
  -8  -3   5    4.20    0.59
  -8  -3   5    4.14    0.60
  -8  -3   5    4.78    0.71
   8   3  -5    4.59    0.59
  -8   3   5    4.85    0.67
   8   3  -5    4.62    0.66
  -7  -3   5    2.65    0.43
  -7  -3   5    2.35    0.43
  -7  -3   5    1.73    0.37
  -7  -3   5    3.23    0.56
   7  -3  -5    2.53    0.42
   7  -3  -5    1.99    0.46
   7  -3  -5    1.48    0.41
   7   3  -5    2.23    0.39
  -7   3   5    1.86    0.42
   7   3  -5    2.92    0.50
  -6  -3   5    9.33    0.84
   6  -3  -5    9.62    0.82
  -6  -3   5    9.53    0.87
  -6  -3   5    9.02    0.95
   6  -3  -5    8.81    0.83
   6  -3  -5    8.72    0.86
  -6  -3   5    8.81    0.83
   6  -3  -5    9.60    0.92
   6   3  -5    9.01    0.87
  -6   3   5    9.65    0.89
   5  -3  -5    5.47    0.56
  -5  -3   5    5.49    0.58
   5  -3  -5    6.57    0.61
   5  -3  -5    5.22    0.54
  -5  -3   5    5.18    0.56
   5  -3  -5    5.09    0.55
  -5  -3   5    5.73    0.66
  -5  -3   5    4.18    0.51
   5   3  -5    6.20    0.56
  -5   3   5    5.40    0.56
   4  -3  -5    2.03    0.34
  -4  -3   5    1.59    0.29
  -4  -3   5    1.90    0.29
   4  -3  -5    1.87    0.33
   4  -3  -5    1.75    0.28
  -4  -3   5    2.20    0.30
   4  -3  -5    1.42    0.27
  -4  -3   5    2.10    0.37
  -4  -3   5    1.67    0.27
   4   3  -5    1.36    0.28
  -4   3   5    2.22    0.32
  -3  -3   5    4.94    0.46
   3  -3  -5    5.33    0.51
   3  -3  -5    4.28    0.47
  -3  -3   5    4.96    0.49
  -3  -3   5    3.92    0.43
   3  -3  -5    4.33    0.47
   3  -3  -5    5.86    0.47
  -3  -3   5    4.82    0.55
  -3   3   5    4.76    0.46
   3   3  -5    4.50    0.48
   2  -3  -5    0.48    0.22
  -2  -3   5    0.13    0.22
  -2  -3   5    0.26    0.15
   2  -3  -5    0.21    0.21
  -2  -3   5    0.43    0.15
   2  -3  -5    0.07    0.16
   2  -3  -5    0.21    0.16
  -2  -3   5   -0.01    0.15
  -2  -3   5    0.27    0.22
   2  -3  -5    0.09    0.13
  -2  -3   5    0.50    0.19
   2  -3  -5    0.35    0.19
   2   3  -5    0.22    0.17
  -2   3   5    0.37    0.17
   2   3  -5    0.26    0.18
   1  -3  -5    3.95    0.39
  -1  -3   5    4.04    0.39
  -1  -3   5    4.25    0.36
   1  -3  -5    4.31    0.35
   1  -3  -5    3.97    0.37
  -1  -3   5    2.94    0.37
  -1  -3   5    3.79    0.36
   1  -3  -5    3.10    0.40
   1  -3  -5    4.00    0.38
   1  -3  -5    3.53    0.36
  -1  -3   5    4.10    0.36
   1  -3  -5    4.33    0.41
  -1  -3   5    4.25    0.49
  -1  -3   5    4.80    0.41
  -1  -3   5    3.23    0.42
  -1   3   5    4.20    0.42
   1   3  -5    3.43    0.40
   0  -3   5    1.18    0.19
   0  -3  -5    1.91    0.24
   0  -3  -5    2.05    0.28
   0  -3   5    1.82    0.29
   0  -3   5    1.62    0.21
   0  -3  -5    1.52    0.22
   0  -3   5    1.82    0.24
   0  -3   5    1.48    0.33
   0  -3   5    1.44    0.19
   0  -3  -5    1.55    0.26
   0  -3  -5    1.73    0.23
   0  -3  -5    1.41    0.22
   0  -3   5    2.32    0.26
   0  -3  -5    1.50    0.19
   0  -3  -5    1.97    0.21
   0  -3   5    1.41    0.20
   0   3  -5    1.62    0.26
   0   3   5    1.69    0.24
  -1  -3  -5   14.29    1.20
   1  -3   5   16.96    1.21
   1  -3   5   18.57    1.21
   1  -3   5   15.41    1.21
  -1  -3  -5   17.07    1.20
  -1  -3  -5   17.69    1.26
   1  -3   5   15.79    1.42
  -1  -3  -5   17.50    1.24
  -1  -3  -5   16.37    1.30
  -1  -3  -5   17.63    1.27
   1  -3   5   17.52    1.21
  -1  -3  -5   16.86    1.19
   1  -3   5   16.70    1.32
  -1  -3  -5   17.67    1.25
  -1  -3  -5   18.17    1.25
   1  -3   5   17.36    1.25
  -1  -3  -5   18.14    1.21
   1  -3   5   16.78    1.24
  -1   3  -5   14.37    1.25
   1   3   5   16.84    1.25
   2  -3   5    3.51    0.34
  -2  -3  -5    2.72    0.31
   2  -3   5    2.86    0.35
  -2  -3  -5    3.39    0.35
   2  -3   5    3.14    0.41
   2  -3   5    2.92    0.44
   2  -3   5    3.31    0.33
   2  -3   5    2.74    0.33
  -2  -3  -5    3.12    0.33
  -2  -3  -5    4.18    0.36
  -2  -3  -5    3.14    0.33
  -2  -3  -5    3.40    0.35
   2   3   5    3.64    0.36
  -2   3  -5    2.58    0.34
  -3  -3  -5    2.42    0.30
  -3  -3  -5    2.54    0.32
   3  -3   5    2.49    0.29
  -3  -3  -5    2.27    0.30
  -3  -3  -5    2.41    0.30
  -3  -3  -5    2.52    0.30
  -3  -3  -5    2.35    0.30
   3  -3   5    2.51    0.28
   3  -3   5    2.36    0.31
   3  -3   5    2.42    0.39
   3  -3   5    2.69    0.31
  -3   3  -5    2.15    0.32
   3   3   5    2.64    0.34
   3   3   5    2.48    0.32
   4  -3   5   10.69    0.74
  -4  -3  -5   10.88    0.85
   4  -3   5   10.15    0.83
  -4  -3  -5   10.26    0.91
   4  -3   5    9.26    0.97
  -4  -3  -5   10.33    0.85
  -4  -3  -5   10.13    0.82
   4  -3   5   10.22    0.82
  -4  -3  -5   11.32    0.81
   4  -3   5    9.40    0.81
  -4   3  -5    9.79    0.87
   4   3   5    8.76    0.85
   4   3   5   11.78    0.91
   5  -3   5    0.28    0.23
  -5  -3  -5   -0.27    0.23
   5  -3   5   -0.03    0.17
   5  -3   5    0.00    0.34
  -5  -3  -5   -0.28    0.23
   5  -3   5   -0.07    0.24
  -5  -3  -5    0.08    0.24
   5  -3   5    0.35    0.24
  -5  -3  -5    0.10    0.24
  -5   3  -5    0.09    0.26
   5   3   5    0.23    0.24
   5   3   5   -0.03    0.24
   6  -3   5   10.31    0.92
   6  -3   5   10.62    0.89
  -6  -3  -5   10.36    1.01
  -6  -3  -5    9.32    0.92
  -6  -3  -5   10.72    0.93
  -6  -3  -5   11.34    0.92
   6  -3   5   10.69    1.07
  -6   3  -5    9.78    0.96
   6   3   5    9.89    0.98
   6   3   5   11.02    0.97
   7  -3   5    0.87    0.52
  -7  -3  -5    0.41    0.33
   7  -3   5    0.20    0.30
  -7  -3  -5    0.53    0.33
   7  -3   5    0.72    0.33
  -7  -3  -5    0.57    0.35
  -7  -3  -5    1.05    0.43
   7   3   5    0.58    0.37
   7   3   5    0.70    0.37
   7   3   5    0.66    0.30
  -7   3  -5    0.26    0.37
  -8  -3  -5    1.21    0.42
   8  -3   5    0.85    0.39
  -8  -3  -5    1.13    0.39
  -8  -3  -5    2.34    0.55
  -8  -3  -5    0.98    0.44
   8  -3   5    1.89    0.42
   8  -3   5    2.30    0.66
   8   3   5    1.43    0.43
  -8   3  -5    1.29    0.46
   8   3   5    0.99    0.36
   8   3   5    1.36    0.44
   9  -3   5   -0.20    0.62
  -9  -3  -5    0.90    0.44
   9  -3   5    0.98    0.43
  -9  -3  -5    0.35    0.49
   9  -3   5    0.90    0.39
   9   3   5    0.04    0.44
   9   3   5    0.66    0.37
   9   3   5    0.84    0.48
  -9   3  -5    0.86    0.39
  -9   3  -5    1.13    0.48
  -8  -4   5   23.71    1.70
  -8  -4   5   22.02    1.93
   8  -4  -5   22.93    1.71
  -8  -4   5   20.37    1.70
  -8  -4   5   18.11    1.74
   8  -4  -5   21.17    1.71
   8  -4  -5   20.76    1.83
   8   4  -5   21.72    1.82
  -8   4   5   20.48    1.78
  -7  -4   5   23.77    1.94
   7  -4  -5   26.54    1.89
   7  -4  -5   25.96    1.92
  -7  -4   5   23.43    1.94
  -7  -4   5   26.34    1.87
  -7  -4   5   25.45    2.14
  -7  -4   5   22.79    1.90
   7  -4  -5   23.25    1.99
   7   4  -5   20.77    1.94
  -7   4   5   30.06    1.98
  -6  -4   5   22.14    1.85
   6  -4  -5   25.23    1.80
   6  -4  -5   24.81    1.81
   6  -4  -5   22.81    1.92
  -6  -4   5   26.49    2.05
   6  -4  -5   23.76    1.83
  -6  -4   5   24.40    1.78
  -6  -4   5   26.10    1.87
  -6  -4   5   21.06    1.81
   6   4  -5   24.95    1.86
  -6   4   5   22.86    1.85
  -5  -4   5   74.35    5.01
   5  -4  -5   75.75    5.31
   5  -4  -5   65.21    5.01
  -5  -4   5   74.40    5.25
  -5  -4   5   67.95    5.27
   5  -4  -5   72.48    5.13
  -5  -4   5   77.75    5.70
   5   4  -5   74.74    5.23
  -5   4   5   79.43    5.24
  -4  -4   5    3.58    0.52
   4  -4  -5    3.28    0.49
  -4  -4   5    3.19    0.41
   4  -4  -5    3.67    0.40
  -4  -4   5    3.73    0.41
   4  -4  -5    3.23    0.40
  -4  -4   5    2.79    0.39
   4  -4  -5    2.85    0.43
  -4   4   5    2.97    0.41
   4   4  -5    3.03    0.39
   3  -4  -5   92.67    6.36
  -3  -4   5   82.64    6.85
  -3  -4   5   80.13    6.33
  -3  -4   5   90.51    6.03
  -3  -4   5   94.95    6.30
   3  -4  -5   87.97    6.32
   3  -4  -5   87.38    6.18
   3  -4  -5   83.40    6.02
  -3   4   5   98.07    6.29
   3   4  -5   93.23    6.28
   2  -4  -5    5.73    0.48
   2  -4  -5    4.68    0.53
  -2  -4   5    4.78    0.47
   2  -4  -5    4.27    0.52
  -2  -4   5    4.77    0.58
   2  -4  -5    4.58    0.46
  -2  -4   5    5.30    0.61
  -2  -4   5    5.53    0.51
   2   4  -5    4.74    0.49
   2   4  -5    4.42    0.47
  -2   4   5    5.13    0.50
   1  -4  -5   31.19    2.16
  -1  -4   5   31.47    2.42
   1  -4  -5   30.92    2.06
  -1  -4   5   30.95    2.25
   1  -4  -5   30.66    2.07
   1  -4  -5   31.32    2.22
  -1  -4   5   31.34    2.08
  -1  -4   5   26.55    2.04
  -1  -4   5   29.92    2.17
  -1   4   5   25.96    2.16
   1   4  -5   29.80    2.17
   0  -4   5  142.79   10.44
   0  -4  -5  127.66    9.40
   0  -4   5  140.29    9.60
   0  -4  -5  140.43    9.19
   0  -4   5  128.12    9.69
   0  -4  -5  133.04    9.14
   0  -4   5  127.62    9.19
   0  -4  -5  135.83    9.67
   0  -4   5  147.93    9.15
   0  -4  -5  136.70    9.59
   0   4  -5  137.89    9.60
   0   4   5  141.28    9.59
  -1  -4  -5   19.92    1.40
  -1  -4  -5   17.18    1.32
   1  -4   5   19.54    1.48
   1  -4   5   18.34    1.24
  -1  -4  -5   18.46    1.31
   1  -4   5   19.47    1.33
  -1  -4  -5   17.66    1.31
   1  -4   5   19.51    1.32
  -1  -4  -5   19.74    1.37
  -1  -4  -5   18.13    1.46
   1  -4   5   17.78    1.57
  -1   4  -5   17.76    1.37
   1   4   5   17.21    1.36
   2  -4   5  134.05    9.22
   2  -4   5  129.32    9.77
  -2  -4  -5  140.55    9.24
  -2  -4  -5  141.49    9.71
   2  -4   5  133.95    9.24
   2  -4   5  125.03   10.48
  -2  -4  -5  153.15    9.65
   2  -4   5  115.40    8.42
  -2  -4  -5  145.13    9.21
  -2  -4  -5  143.93    9.46
  -2   4  -5  140.92    9.65
   2   4   5  144.20    9.65
  -3  -4  -5    0.68    0.20
   3  -4   5    0.75    0.24
  -3  -4  -5    1.05    0.24
   3  -4   5    1.15    0.25
   3  -4   5    0.86    0.25
  -3  -4  -5    1.01    0.26
   3  -4   5    0.69    0.19
   3  -4   5    0.67    0.38
  -3  -4  -5    0.59    0.24
   3   4   5    1.05    0.25
   3   4   5    1.07    0.26
  -3   4  -5    0.63    0.26
  -4  -4  -5   45.06    2.93
  -4  -4  -5   42.83    2.98
  -4  -4  -5   38.99    2.98
   4  -4   5   40.29    2.61
   4  -4   5   42.28    2.98
  -4  -4  -5   42.86    2.86
   4  -4   5   37.11    3.08
   4  -4   5   39.00    2.85
   4  -4   5   43.02    2.86
  -4   4  -5   45.54    3.00
   4   4   5   36.24    3.14
   4   4   5   41.52    2.99
   5  -4   5   33.10    2.76
   5  -4   5   34.71    2.30
   5  -4   5   36.60    2.63
   5  -4   5   35.23    2.53
  -5  -4  -5   36.11    2.64
   5  -4   5   40.64    2.55
  -5  -4  -5   38.87    2.65
  -5  -4  -5   33.71    2.53
   5   4   5   35.34    2.79
  -5   4  -5   36.38    2.66
   5   4   5   34.97    2.65
   6  -4   5   13.73    1.07
  -6  -4  -5   13.08    1.07
  -6  -4  -5   12.47    1.10
  -6  -4  -5   11.32    1.06
   6  -4   5   12.02    1.24
   6  -4   5   12.50    1.05
   6   4   5   12.85    1.16
   6   4   5   12.34    1.13
  -6   4  -5   13.30    1.15
  -7  -4  -5   62.86    4.34
   7  -4   5   59.03    4.52
   7  -4   5   62.91    4.34
   7  -4   5   59.89    4.67
  -7  -4  -5   61.56    4.53
  -7  -4  -5   64.78    4.55
   7   4   5   69.28    4.80
   7   4   5   59.54    4.54
  -7   4  -5   63.03    4.55
   8  -4   5    0.52    0.64
   8  -4   5    0.07    0.34
  -8  -4  -5    0.42    0.39
  -8  -4  -5   -0.43    0.36
   8  -4   5   -0.28    0.40
  -8  -4  -5   -0.23    0.43
  -8   4  -5    0.39    0.47
   8   4   5    0.50    0.42
   8   4   5   -0.16    0.39
   7  -5  -5    2.60    0.45
  -7  -5   5    2.59    0.48
  -7  -5   5    2.32    0.50
  -7  -5   5    2.30    0.61
   7  -5  -5    2.29    0.63
  -7  -5   5    2.96    0.56
   7  -5  -5    2.15    0.49
  -7   5   5    3.81    0.60
   7   5  -5    2.33    0.58
  -6  -5   5   14.06    1.25
   6  -5  -5   13.91    1.24
  -6  -5   5   14.07    1.19
  -6  -5   5   14.76    1.36
   6  -5  -5   12.83    1.18
   6  -5  -5   13.37    1.38
  -6  -5   5   14.93    1.20
   6   5  -5   14.72    1.26
  -6   5   5   13.00    1.24
  -5  -5   5    5.26    0.72
  -5  -5   5    5.07    0.54
   5  -5  -5    5.25    0.71
  -5  -5   5    5.32    0.60
  -5  -5   5    4.57    0.54
   5  -5  -5    4.93    0.56
   5  -5  -5    4.82    0.61
  -5  -5   5    5.33    0.54
   5   5  -5    4.42    0.57
  -5   5   5    4.33    0.57
  -4  -5   5   32.90    2.52
  -4  -5   5   37.35    2.81
   4  -5  -5   37.27    2.63
   4  -5  -5   34.05    2.40
  -4  -5   5   36.52    2.23
  -4  -5   5   32.62    2.40
   4  -5  -5   30.14    2.49
   4   5  -5   34.22    2.50
  -4   5   5   33.83    2.51
  -3  -5   5    0.11    0.38
  -3  -5   5    0.61    0.29
   3  -5  -5    0.70    0.26
  -3  -5   5    0.30    0.25
   3  -5  -5    0.61    0.34
   3  -5  -5    0.68    0.40
  -3  -5   5    0.47    0.29
  -3   5   5    0.41    0.26
   3   5  -5    0.24    0.24
  -2  -5   5   23.68    1.75
  -2  -5   5   25.22    1.66
   2  -5  -5   24.52    1.94
   2  -5  -5   24.92    1.87
  -2  -5   5   22.79    1.97
   2  -5  -5   23.12    1.74
  -2  -5   5   25.49    2.09
  -2  -5   5   28.67    1.85
  -2   5   5   25.31    1.83
   2   5  -5   24.34    1.82
  -1  -5   5   27.60    1.83
   1  -5  -5   24.63    1.82
  -1  -5   5   26.23    2.05
  -1  -5   5   29.09    2.19
  -1  -5   5   23.41    1.91
   1  -5  -5   27.82    1.95
  -1  -5   5   26.72    1.81
  -1  -5   5   26.42    1.73
   1  -5  -5   27.16    2.03
   1   5  -5   24.50    1.91
  -1   5   5   24.69    1.90
   0  -5   5   12.04    0.98
   0  -5  -5   13.40    1.18
   0  -5   5   13.16    1.04
   0  -5  -5   14.84    1.00
   0  -5  -5   14.63    0.99
   0  -5   5   12.34    1.01
   0  -5   5   12.97    0.98
   0  -5  -5   12.31    1.10
   0  -5   5   12.26    1.20
   0  -5   5   12.98    1.26
   0   5   5   12.50    1.04
   0   5  -5   13.46    1.06
   1  -5   5   18.68    1.22
   1  -5   5   15.40    1.23
  -1  -5  -5   17.81    1.27
   1  -5   5   18.85    1.53
  -1  -5  -5   16.85    1.22
   1  -5   5   15.55    1.43
  -1  -5  -5   15.04    1.33
   1  -5   5   13.56    1.24
  -1  -5  -5   16.97    1.23
  -1  -5  -5   19.08    1.46
   1   5   5   19.43    1.29
  -1   5  -5   16.35    1.30
  -2  -5  -5    4.06    0.42
   2  -5   5    4.03    0.47
   2  -5   5    4.92    0.63
  -2  -5  -5    3.45    0.39
   2  -5   5    3.78    0.41
   2  -5   5    3.29    0.58
  -2  -5  -5    3.65    0.42
  -2  -5  -5    3.29    0.49
   2  -5   5    3.73    0.51
   2  -5   5    4.16    0.44
   2   5   5    4.41    0.44
  -2   5  -5    3.80    0.43
   3  -5   5   28.29    2.02
  -3  -5  -5   28.16    2.01
   3  -5   5   28.79    1.93
  -3  -5  -5   26.05    1.92
  -3  -5  -5   23.02    1.99
   3  -5   5   29.70    1.92
   3  -5   5   26.76    2.18
   3  -5   5   26.95    1.80
   3   5   5   25.96    2.01
  -3   5  -5   27.70    2.01
   4  -5   5   24.00    1.84
   4  -5   5   23.83    2.11
   4  -5   5   25.93    1.84
  -4  -5  -5   24.86    1.84
  -4  -5  -5   23.14    1.90
  -4  -5  -5   26.62    1.92
   4  -5   5   27.05    1.72
  -4   5  -5   25.10    1.94
   4   5   5   29.05    1.95
   5  -5   5    4.17    0.79
  -5  -5  -5    4.38    0.57
  -5  -5  -5    6.00    0.54
   5  -5   5    4.82    0.52
   5  -5   5    5.68    0.58
  -5  -5  -5    4.57    0.55
   5  -5   5    4.83    0.58
  -5   5  -5    5.34    0.63
   5   5   5    5.24    0.62
  -6  -5  -5   13.30    1.13
  -6  -5  -5   12.23    1.15
   6  -5   5   13.13    1.04
   6  -5   5   12.50    1.09
  -6  -5  -5   12.94    1.07
   6  -5   5   13.10    1.36
   6  -5   5   13.07    1.12
   6   5   5   13.11    1.20
  -6   5  -5   12.73    1.21
   7  -5   5   -0.37    0.29
   7  -5   5    0.06    0.61
  -7  -5  -5    0.44    0.33
   7  -5   5   -0.09    0.37
  -7  -5  -5    0.25    0.43
  -7  -5  -5   -0.09    0.41
  -7   5  -5    0.62    0.48
   7   5   5    0.36    0.46
   6  -6  -5    3.21    0.53
  -6  -6   5    2.86    0.47
   6  -6  -5    2.39    0.47
  -6  -6   5    1.79    0.50
   6  -6  -5    1.81    0.66
   6   6  -5    2.29    0.53
  -6   6   5    2.01    0.52
   5  -6  -5    5.66    0.79
   5  -6  -5    4.93    0.58
   5  -6  -5    4.27    0.63
  -5  -6   5    4.39    0.60
  -5  -6   5    5.11    0.59
  -5  -6   5    5.34    0.82
  -5   6   5    4.90    0.62
   5   6  -5    5.84    0.66
   4  -6  -5    5.49    0.55
  -4  -6   5    4.71    0.77
   4  -6  -5    4.86    0.71
  -4  -6   5    5.16    0.57
   4  -6  -5    4.03    0.64
  -4  -6   5    4.45    0.53
  -4  -6   5    5.09    0.60
   4   6  -5    4.49    0.56
  -4   6   5    4.73    0.58
   3  -6  -5    3.99    0.60
   3  -6  -5    4.76    0.71
   3  -6  -5    4.68    0.46
  -3  -6   5    3.88    0.71
  -3  -6   5    3.80    0.47
  -3  -6   5    3.58    0.49
  -3  -6   5    3.56    0.50
  -3   6   5    4.95    0.51
   3   6  -5    3.72    0.47
  -2  -6   5    4.86    0.78
   2  -6  -5    5.44    0.66
   2  -6  -5    4.60    0.67
   2  -6  -5    4.23    0.45
  -2  -6   5    4.60    0.51
  -2  -6   5    4.39    0.49
  -2  -6   5    4.50    0.54
  -2  -6   5    4.30    0.72
  -2   6   5    4.57    0.47
   2   6  -5    4.83    0.48
   1  -6  -5    8.14    0.90
  -1  -6   5    7.14    0.68
  -1  -6   5    7.73    0.71
   1  -6  -5    7.24    0.81
   1  -6  -5    7.81    0.67
  -1  -6   5    8.62    0.76
  -1  -6   5    7.16    0.91
   1   6  -5    8.26    0.72
  -1   6   5    7.05    0.71
   1   6  -5    7.95    0.70
   0  -6   5   14.13    1.03
   0  -6   5   13.36    1.07
   0  -6   5   13.18    1.29
   0  -6  -5   11.94    0.99
   0  -6  -5   13.63    1.31
   0  -6  -5   12.57    1.18
   0  -6   5   12.89    1.08
   0   6   5   15.14    1.08
   0   6  -5   11.58    1.07
  -1  -6  -5    0.33    0.48
   1  -6   5    0.16    0.37
   1  -6   5    0.24    0.50
  -1  -6  -5    0.56    0.42
  -1  -6  -5   -0.02    0.29
   1  -6   5   -0.10    0.30
  -1  -6  -5   -0.07    0.25
  -1   6  -5    0.61    0.31
   1   6   5    0.73    0.28
   2  -6   5    5.61    0.56
   2  -6   5    5.88    0.59
  -2  -6  -5    5.33    0.70
  -2  -6  -5    6.17    0.59
  -2  -6  -5    6.31    0.62
   2  -6   5    6.32    0.87
   2  -6   5    5.52    0.63
  -2   6  -5    6.52    0.66
   2   6   5    6.05    0.59
   3  -6   5    0.57    0.38
  -3  -6  -5    1.26    0.33
  -3  -6  -5    1.56    0.37
   3  -6   5    0.47    0.31
  -3  -6  -5    1.22    0.41
   3  -6   5    0.34    0.52
   3  -6   5    0.61    0.32
  -3   6  -5    1.13    0.34
   3   6   5    0.46    0.33
  -4  -6  -5    5.97    0.61
  -4  -6  -5    6.19    0.72
   4  -6   5    5.99    0.63
   4  -6   5    6.30    0.62
   4  -6   5    4.46    0.84
   4  -6   5    5.45    0.59
  -4  -6  -5    5.35    0.61
   4   6   5    5.27    0.65
  -4   6  -5    6.23    0.64
   5  -6   5    1.93    0.45
   5  -6   5    3.29    0.49
  -5  -6  -5    2.82    0.48
   5  -6   5    2.64    0.47
  -5  -6  -5    2.66    0.48
   5  -6   5    2.62    0.77
  -5   6  -5    3.10    0.53
   5   6   5    3.73    0.55
   3  -7  -5    0.62    0.53
   3  -7  -5    0.14    0.29
   3  -7  -5    0.78    0.47
  -3  -7   5   -0.32    0.37
  -3  -7   5   -0.28    0.41
  -3  -7   5   -0.43    0.31
   3   7  -5    0.34    0.33
   2  -7  -5   31.83    2.61
   2  -7  -5   33.04    2.49
  -2  -7   5   29.37    2.20
   2  -7  -5   33.13    2.24
  -2  -7   5   31.53    2.65
  -2  -7   5   33.51    2.26
   2   7  -5   31.81    2.37
  -1  -7   5   16.41    1.36
  -1  -7   5   18.15    1.29
   1  -7  -5   17.81    1.57
  -1  -7   5   18.51    1.38
   1  -7  -5   17.05    1.64
  -1  -7   5   15.86    1.71
   0  -7  -5   26.48    2.15
   0  -7   5   24.71    2.18
   0  -7  -5   27.01    2.03
   0  -7   5   28.44    1.81
   0  -7   5   21.87    1.90
   1  -7   5   22.84    2.08
  -1  -7  -5   25.92    1.91
  -1  -7  -5   25.43    2.02
  -1  -7  -5   19.15    1.62
   1  -7   5   23.38    1.75
   1  -7   5   24.72    1.67
  -2  -7  -5    1.96    0.53
  -2  -7  -5    0.97    0.39
   2  -7   5    0.28    0.37
   2  -7   5    0.81    0.44
   2  -7   5    1.01    0.68
  -2  -7  -5    1.26    0.34
   3  -7   5   27.67    2.62
  -3  -7  -5   32.13    2.45
  -3  -7  -5   30.10    2.25
  -3  -7  -5   33.62    2.37
   3  -7   5   31.67    2.27
   3   7   5   32.69    2.37
  -3   7  -5   32.23    2.37
  10   0  -6   17.03    1.39
 -10   0   6   18.38    1.38
  10   0  -6   16.07    1.38
 -10   0   6   14.81    1.56
   9   0  -6   38.52    2.77
  -9   0   6   38.61    3.13
  -9   0   6   39.16    2.77
   9   0  -6   36.60    2.71
  -8   0   6    6.01    0.75
   8   0  -6    6.12    0.62
   8   0  -6    6.62    0.64
  -8   0   6    6.47    0.72
  -8   0   6    6.18    0.61
   8   0  -6    5.23    0.69
  -8   0   6    5.05    0.61
   7   0  -6   58.51    4.02
  -7   0   6   61.50    4.19
   7   0  -6   57.77    3.92
  -7   0   6   55.39    4.14
  -7   0   6   58.27    4.02
   7   0  -6   59.24    4.20
  -7   0   6   54.54    3.92
  -7   0   6   58.63    4.49
   7   0  -6   52.27    4.14
   6   0  -6   54.92    3.74
  -6   0   6   60.30    4.00
   6   0  -6   56.26    3.83
  -6   0   6   51.34    3.74
  -6   0   6   51.65    4.27
   6   0  -6   54.93    3.81
   6   0  -6   57.83    3.95
  -6   0   6   52.98    3.84
  -6   0   6   60.35    3.96
   6   0  -6   48.91    3.98
  -5   0   6   28.55    2.17
   5   0  -6   32.26    2.22
   5   0  -6   30.31    2.06
   5   0  -6   28.48    2.17
   5   0  -6   29.99    2.10
  -5   0   6   29.66    2.08
  -5   0   6   30.76    2.06
  -5   0   6   28.77    2.35
   5   0  -6   24.68    2.10
  -5   0   6   32.69    2.12
  -5   0   6   29.94    2.20
  -4   0   6  121.67    8.15
  -4   0   6  127.84    9.03
  -4   0   6   99.37    8.35
   4   0  -6  124.85    7.94
   4   0  -6  119.95    8.34
   4   0  -6  107.77    8.14
  -4   0   6  112.57    8.00
  -4   0   6  120.52    8.44
  -4   0   6  124.18    7.94
   4   0  -6  128.02    8.01
   3   0  -6   24.90    1.76
   3   0  -6   24.29    1.83
   3   0  -6   24.39    1.81
  -3   0   6   22.42    1.95
  -3   0   6   29.27    1.77
   3   0  -6   22.84    1.74
   3   0  -6   26.61    1.73
  -3   0   6   24.11    1.81
  -3   0   6   21.76    1.74
  -3   0   6   29.96    1.83
  -3   0   6   25.54    1.72
  -3   0   6   21.69    1.83
   2   0  -6  259.24   19.30
  -2   0   6  286.71   19.78
   2   0  -6  288.31   19.75
  -2   0   6  293.18   19.96
  -2   0   6  282.33   21.34
  -2   0   6  292.70   19.31
  -2   0   6  269.86   19.75
   2   0  -6  307.29   19.96
  -2   0   6  311.90   18.93
  -2   0   6  261.03   18.79
   2   0  -6  252.86   18.92
   2   0  -6  284.93   18.80
   1   0  -6   39.11    2.49
  -1   0   6   40.34    2.83
  -1   0   6   39.65    2.63
   1   0  -6   39.81    2.63
  -1   0   6   38.86    2.56
  -1   0   6   35.62    2.49
  -1   0   6   34.84    2.62
  -1   0   6   32.77    2.64
   1   0  -6   33.37    2.51
  -1   0   6   34.32    2.51
   1   0  -6   30.97    2.55
   1   0  -6   39.30    2.66
   0   0  -6   92.39    6.35
   0   0   6   85.61    6.35
   0   0  -6  105.82    6.59
   0   0   6   81.92    6.57
   0   0   6   88.08    7.03
   0   0  -6   83.78    6.51
   0   0   6   96.02    6.19
   0   0   6   82.92    6.51
   0   0  -6  100.99    6.20
   0   0  -6  102.32    6.24
   0   0   6   98.24    6.52
   1   0   6   80.64    5.64
  -1   0  -6   78.84    5.36
  -1   0  -6   76.62    5.64
  -1   0  -6   82.31    5.70
   1   0   6   86.63    5.64
  -1   0  -6   75.48    5.50
   1   0   6   82.63    5.51
   1   0   6   79.65    6.09
  -1   0  -6   76.85    5.40
   1   0   6   75.30    5.35
   1   0   6   74.32    5.40
   1   0   6   89.83    5.71
   2   0   6    0.81    0.20
   2   0   6    0.73    0.18
  -2   0  -6    0.57    0.19
  -2   0  -6    0.86    0.19
   2   0   6    0.63    0.17
  -2   0  -6    0.65    0.20
  -2   0  -6    0.67    0.18
  -2   0  -6    0.39    0.19
   2   0   6    0.92    0.19
   2   0   6    0.57    0.19
  -2   0  -6    0.62    0.18
  -2   0  -6    0.88    0.19
   2   0   6    0.75    0.19
  -3   0  -6  213.96   14.29
   3   0   6  227.14   15.03
  -3   0  -6  207.82   15.02
   3   0   6  191.28   15.88
   3   0   6  211.64   14.40
   3   0   6  217.85   14.29
  -3   0  -6  226.51   15.04
   3   0   6  223.91   15.18
  -3   0  -6  233.23   15.18
  -3   0  -6  192.52   14.67
   4   0   6    4.42    0.49
   4   0   6    4.30    0.46
  -4   0  -6    5.84    0.53
   4   0   6    4.91    0.49
   4   0   6    4.58    0.46
   4   0   6    5.41    0.47
  -4   0  -6    5.26    0.49
   4   0   6    5.02    0.52
  -4   0  -6    4.50    0.48
  -4   0  -6    5.29    0.53
  -4   0  -6    4.98    0.48
  -4   0  -6    4.58    0.47
   5   0   6   69.22    4.26
   5   0   6   58.60    4.74
   5   0   6   55.70    4.48
   5   0   6   69.06    4.54
  -5   0  -6   72.42    4.28
  -5   0  -6   66.94    4.31
   5   0   6   66.56    4.31
   5   0   6   56.76    4.36
  -5   0  -6   56.90    4.36
  -5   0  -6   60.91    4.53
  -5   0  -6   59.79    4.49
  -6   0  -6   63.62    3.99
  -6   0  -6   59.26    4.07
   6   0   6   58.47    4.24
   6   0   6   51.46    4.42
   6   0   6   56.96    3.98
   6   0   6   54.97    4.06
  -6   0  -6   56.54    4.24
   6   0   6   60.08    4.20
  -6   0  -6   64.34    4.22
  -7   0  -6    9.06    0.92
   7   0   6    9.42    0.84
  -7   0  -6    9.86    0.86
   7   0   6    9.92    0.93
   7   0   6    9.71    0.84
   7   0   6   10.54    0.93
  -7   0  -6    9.56    0.94
  -7   0  -6   11.12    0.89
   7   0   6   10.17    0.95
  -8   0  -6   40.87    2.82
   8   0   6   40.15    2.80
  -8   0  -6   38.11    2.76
   8   0   6   42.10    2.75
   8   0   6   35.38    3.07
  -8   0  -6   37.95    2.94
  -9   0  -6   18.85    1.45
   9   0   6   16.92    1.42
  -9   0  -6   19.56    1.52
   9   0   6   17.82    1.60
   9   0   6   18.25    1.42
  -9  -1   6    5.16    0.69
  -9  -1   6    5.41    0.61
   9  -1  -6    4.51    0.71
   9  -1  -6    5.70    0.62
  -9  -1   6    4.73    0.57
  -9  -1   6    4.12    0.68
   9  -1  -6    5.42    0.55
  -9   1   6    4.11    0.68
  -9   1   6    5.00    0.69
   9   1  -6    4.67    0.60
  -9   1   6    4.71    0.57
   9   1  -6    5.89    0.74
   8  -1  -6   13.59    1.22
   8  -1  -6   11.64    1.08
  -8  -1   6   14.30    1.29
   8  -1  -6   14.56    1.08
  -8  -1   6   12.31    1.17
  -8  -1   6   13.87    1.09
  -8  -1   6   14.09    1.10
  -8   1   6   13.32    1.20
   8   1  -6   14.98    1.25
   8   1  -6   13.44    1.13
  -8   1   6   11.01    1.07
  -8   1   6   13.20    1.10
  -8   1   6   13.62    1.26
   7  -1  -6    7.04    0.72
   7  -1  -6    7.27    0.67
   7  -1  -6    6.31    0.73
  -7  -1   6    6.90    0.69
  -7  -1   6    4.96    0.74
  -7  -1   6    7.34    0.67
   7  -1  -6    6.53    0.65
  -7  -1   6    7.10    0.74
   7   1  -6    7.83    0.77
   7   1  -6    8.30    0.72
  -7   1   6    7.45    0.72
  -7   1   6    6.93    0.77
  -7   1   6    7.96    0.78
  -6  -1   6   31.59    2.53
   6  -1  -6   30.34    2.35
  -6  -1   6   30.42    2.23
   6  -1  -6   27.84    2.18
  -6  -1   6   29.57    2.22
  -6  -1   6   26.72    2.33
  -6  -1   6   36.01    2.34
  -6  -1   6   30.07    2.19
  -6  -1   6   31.79    2.33
   6  -1  -6   31.75    2.22
   6  -1  -6   34.00    2.26
   6   1  -6   32.19    2.27
  -6   1   6   34.05    2.27
   6   1  -6   31.65    2.34
  -6   1   6   32.10    2.51
  -6   1   6   33.86    2.35
  -5  -1   6   13.06    0.97
   5  -1  -6   11.12    0.88
  -5  -1   6   10.93    0.89
  -5  -1   6   11.36    0.95
  -5  -1   6   10.50    0.91
  -5  -1   6   11.02    0.93
   5  -1  -6   13.11    0.95
  -5  -1   6   11.87    0.88
   5  -1  -6   12.67    0.97
   5  -1  -6   11.34    0.95
   5  -1  -6   11.44    0.89
  -5  -1   6   10.84    1.02
   5   1  -6    9.94    0.95
  -5   1   6   11.18    0.95
   5   1  -6   10.93    0.95
  -5   1   6   11.94    1.01
  -5   1   6   12.71    0.97
   5   1  -6   11.51    0.89
   5   1  -6   12.60    0.94
  -5   1   6   10.54    0.91
   4  -1  -6    6.36    0.63
   4  -1  -6    7.62    0.64
   4  -1  -6    7.36    0.58
  -4  -1   6    6.94    0.64
  -4  -1   6    6.19    0.68
  -4  -1   6    6.72    0.64
   4  -1  -6    7.11    0.61
  -4  -1   6    7.50    0.63
  -4  -1   6    6.09    0.59
  -4  -1   6    8.37    0.64
  -4  -1   6    6.93    0.59
   4  -1  -6    7.67    0.65
  -4   1   6    6.78    0.63
  -4   1   6    7.79    0.62
   4   1  -6    7.21    0.63
   4   1  -6    7.70    0.61
   4   1  -6    6.92    0.61
   4   1  -6    6.12    0.64
  -4   1   6    6.73    0.66
  -4   1   6    7.33    0.59
   4   1  -6    7.08    0.65
  -4   1   6    8.42    0.66
  -4   1   6    7.86    0.61
  -3  -1   6   57.80    3.80
  -3  -1   6   52.95    3.55
  -3  -1   6   51.24    3.74
   3  -1  -6   51.34    3.58
   3  -1  -6   51.07    3.54
   3  -1  -6   56.26    3.55
   3  -1  -6   51.01    3.73
  -3  -1   6   53.39    3.54
  -3  -1   6   50.79    3.78
  -3  -1   6   54.88    3.59
  -3  -1   6   44.93    3.74
   3  -1  -6   53.18    3.73
  -3  -1   6   52.97    3.63
  -3  -1   6   48.23    4.05
   3  -1  -6   47.39    3.77
   3  -1  -6   55.19    3.63
  -3   1   6   55.65    4.03
  -3   1   6   56.33    3.79
  -3   1   6   51.91    3.55
  -3   1   6   60.02    3.59
   3   1  -6   53.37    3.58
   3   1  -6   46.22    3.73
   3   1  -6   48.15    3.65
   3   1  -6   54.71    3.78
   3   1  -6   51.84    3.55
  -3   1   6   54.41    3.74
  -3   1   6   54.29    3.65
  -2  -1   6    0.45    0.18
   2  -1  -6    0.78    0.16
   2  -1  -6    0.54    0.18
   2  -1  -6    0.51    0.19
  -2  -1   6    0.60    0.18
  -2  -1   6    0.31    0.14
   2  -1  -6    0.48    0.18
   2  -1  -6    0.48    0.14
  -2  -1   6    0.55    0.18
  -2  -1   6    0.81    0.17
  -2  -1   6    0.58    0.18
   2  -1  -6    0.38    0.11
   2  -1  -6    0.39    0.17
  -2  -1   6    0.61    0.18
  -2  -1   6    0.60    0.19
  -2  -1   6    0.49    0.15
   2   1  -6    0.57    0.17
  -2   1   6    0.60    0.20
  -2   1   6    0.70    0.17
   2   1  -6    0.45    0.17
  -2   1   6    0.54    0.15
   2   1  -6    0.61    0.18
   2   1  -6    0.61    0.18
  -2   1   6    0.61    0.18
  -2   1   6    0.63    0.15
   2   1  -6    0.59    0.17
  -2   1   6    0.53    0.15
   2   1  -6    0.52    0.19
  -2   1   6    0.59    0.18
  -1  -1   6   86.64    5.73
   1  -1  -6   86.75    5.43
  -1  -1   6   68.24    5.73
  -1  -1   6   75.90    5.44
   1  -1  -6   83.95    5.72
  -1  -1   6   84.11    5.58
  -1  -1   6   69.32    5.78
   1  -1  -6   87.29    5.73
   1  -1  -6   84.42    5.44
  -1  -1   6   73.94    5.72
  -1  -1   6   82.39    5.50
   1  -1  -6   84.74    5.80
   1  -1  -6   86.98    5.58
  -1  -1   6   83.63    6.20
   1  -1  -6   81.76    5.49
   1  -1  -6   83.13    5.71
  -1  -1   6   87.78    5.44
  -1   1   6   84.18    5.74
  -1   1   6   83.27    5.44
   1   1  -6   70.97    5.78
   1   1  -6   87.14    5.45
   1   1  -6   90.19    5.49
   1   1  -6   78.61    5.74
  -1   1   6   74.97    5.48
   1   1  -6   73.61    5.59
  -1   1   6   76.41    5.59
  -1   1   6   73.97    6.16
  -1   1   6   91.48    5.79
   0  -1   6   86.04    5.50
   0  -1   6   84.64    5.65
   0  -1  -6   78.17    5.50
   0  -1  -6   81.45    5.65
   0  -1   6   76.53    5.64
   0  -1   6   88.65    5.43
   0  -1   6   72.86    5.39
   0  -1   6   81.17    5.36
   0  -1   6   77.13    5.36
   0  -1   6   66.97    6.11
   0  -1  -6   81.82    5.42
   0  -1  -6   71.03    5.36
   0  -1   6   87.33    5.72
   0  -1  -6   74.24    5.36
   0  -1  -6   80.06    5.71
   0  -1   6   86.27    5.67
   0   1  -6   70.41    5.65
   0   1  -6   73.56    5.51
   0   1  -6   90.57    5.37
   0   1  -6   82.42    5.41
   0   1   6   84.31    5.37
   0   1  -6   77.74    5.71
   0   1   6   84.80    5.42
   0   1   6   83.85    5.66
   0   1   6   93.33    5.72
   0   1   6   70.94    6.08
   0   1   6   80.09    5.52
   1  -1   6   14.09    1.27
   1  -1   6   13.12    1.08
  -1  -1  -6   16.08    1.10
  -1  -1  -6   13.26    1.17
  -1  -1  -6   16.59    1.17
   1  -1   6   14.22    1.16
  -1  -1  -6   16.20    1.09
   1  -1   6   15.52    1.14
   1  -1   6   17.00    1.12
  -1  -1  -6   15.77    1.12
   1  -1   6   13.84    1.16
   1  -1   6   16.62    1.08
   1  -1   6   17.24    1.11
  -1  -1  -6   16.10    1.09
   1  -1   6   16.74    1.17
  -1  -1  -6   14.81    1.16
   1  -1   6   15.98    1.21
   1  -1   6   13.16    1.10
   1   1   6   13.82    1.11
   1   1   6   17.71    1.11
  -1   1  -6   16.44    1.11
  -1   1  -6   15.80    1.18
  -1   1  -6   14.99    1.16
   1   1   6   15.36    1.11
  -1   1  -6   14.90    1.10
  -1   1  -6   15.97    1.12
   1   1   6   14.80    1.15
  -2  -1  -6   31.48    2.24
   2  -1   6   31.89    2.23
  -2  -1  -6   33.78    2.10
  -2  -1  -6   31.28    2.17
   2  -1   6   27.58    2.16
   2  -1   6   27.76    2.13
  -2  -1  -6   32.83    2.11
   2  -1   6   27.03    2.10
  -2  -1  -6   35.78    2.27
  -2  -1  -6   33.72    2.23
   2  -1   6   30.87    2.25
   2  -1   6   33.24    2.10
   2  -1   6   33.46    2.44
  -2  -1  -6   29.40    2.13
   2  -1   6   29.93    2.35
   2  -1   6   28.30    2.13
  -2   1  -6   33.93    2.23
   2   1   6   29.88    2.16
   2   1   6   26.24    2.24
  -2   1  -6   30.91    2.26
  -2   1  -6   33.17    2.14
   2   1   6   35.10    2.14
   2   1   6   27.91    2.11
  -2   1  -6   31.97    2.16
  -2   1  -6   25.88    2.11
   2   1   6   30.38    2.22
  -3  -1  -6   11.92    0.90
   3  -1   6   10.24    0.85
   3  -1   6   11.83    0.89
   3  -1   6   10.74    0.92
  -3  -1  -6   12.35    0.94
   3  -1   6   11.99    0.88
  -3  -1  -6   11.04    0.86
   3  -1   6   11.81    0.96
   3  -1   6   11.00    0.85
  -3  -1  -6   12.83    0.93
  -3  -1  -6   11.99    0.89
   3  -1   6   11.11    0.92
   3  -1   6   11.89    0.90
  -3  -1  -6   12.23    0.86
  -3  -1  -6   12.77    0.92
  -3   1  -6   11.76    0.89
  -3   1  -6   12.43    0.93
   3   1   6   10.51    0.91
  -3   1  -6   12.47    0.89
   3   1   6   12.65    0.88
   3   1   6   11.79    0.88
  -3   1  -6   10.35    0.88
  -3   1  -6   11.12    0.89
   3   1   6   11.84    0.88
   3   1   6   11.20    0.97
  -3   1  -6   12.50    0.94
   3   1   6   11.59    0.93
  -4  -1  -6   32.65    2.55
   4  -1   6   35.08    2.69
  -4  -1  -6   33.88    2.58
   4  -1   6   34.67    2.55
  -4  -1  -6   38.65    2.46
   4  -1   6   33.75    2.41
   4  -1   6   33.20    2.44
  -4  -1  -6   37.40    2.42
  -4  -1  -6   34.04    2.48
   4  -1   6   37.91    2.58
   4  -1   6   32.92    2.48
  -4  -1  -6   36.45    2.56
   4   1   6   35.08    2.58
  -4   1  -6   37.67    2.59
  -4   1  -6   35.49    2.56
  -4   1  -6   36.31    2.48
   4   1   6   35.13    2.48
   4   1   6   37.46    2.43
  -4   1  -6   34.00    2.43
   4   1   6   34.25    2.70
   4   1   6   34.25    2.56
   5  -1   6   31.16    2.26
  -5  -1  -6   32.34    2.11
  -5  -1  -6   34.63    2.16
  -5  -1  -6   30.41    2.24
   5  -1   6   29.90    2.10
   5  -1   6   33.54    2.15
  -5  -1  -6   31.39    2.24
   5  -1   6   27.79    2.35
   5  -1   6   31.81    2.17
  -5  -1  -6   30.49    2.16
   5  -1   6   26.87    2.21
  -5  -1  -6   27.56    2.25
  -5   1  -6   29.56    2.16
   5   1   6   33.17    2.17
  -5   1  -6   28.99    2.27
   5   1   6   28.14    2.35
   5   1   6   31.11    2.26
  -5   1  -6   32.16    2.25
   5   1   6   26.09    2.23
   6  -1   6   19.50    1.52
  -6  -1  -6   23.50    1.61
  -6  -1  -6   22.17    1.62
  -6  -1  -6   21.07    1.53
   6  -1   6   20.18    1.47
   6  -1   6   22.88    1.62
   6  -1   6   18.47    1.65
  -6  -1  -6   24.57    1.50
  -6  -1  -6   22.15    1.53
   6  -1   6   19.59    1.52
  -6   1  -6   19.12    1.52
   6   1   6   16.24    1.65
  -6   1  -6   19.23    1.60
   6   1   6   21.75    1.53
   6   1   6   19.04    1.59
   7  -1   6   12.71    1.05
  -7  -1  -6   13.12    1.06
   7  -1   6   12.88    1.10
  -7  -1  -6   14.80    1.18
  -7  -1  -6   13.00    1.06
   7  -1   6   13.74    1.14
   7  -1   6   11.96    1.16
   7  -1   6   12.21    1.02
  -7   1  -6   13.67    1.16
  -7   1  -6   14.29    1.09
   7   1   6   14.17    1.19
   7   1   6   12.40    1.06
   7   1   6   13.11    1.14
   8  -1   6    1.41    0.40
  -8  -1  -6    1.69    0.36
  -8  -1  -6    1.65    0.45
   8  -1   6    1.63    0.43
  -8  -1  -6    1.48    0.36
   8  -1   6    1.37    0.34
   8  -1   6    1.55    0.33
  -8   1  -6    1.00    0.41
   8   1   6    1.08    0.36
   8   1   6    1.48    0.42
  -8   1  -6    0.99    0.36
   8   1   6    1.27    0.41
   9  -1   6    9.52    0.84
  -9  -1  -6    9.99    0.99
   9  -1   6    8.76    0.92
   9  -1   6    8.54    0.84
  -9  -1  -6    9.38    1.04
  -9  -1  -6    8.27    0.83
   9  -1   6    9.73    0.98
  -9  -1  -6    8.52    0.82
  -9   1  -6    7.78    0.89
   9   1   6    8.83    0.94
   9   1   6    8.72    0.85
   9   1   6    8.74    0.96
  -9   1  -6    6.37    0.78
   9  -2  -6   15.95    1.52
   9  -2  -6   18.53    1.50
  -9  -2   6   17.34    1.45
  -9  -2   6   15.78    1.31
  -9  -2   6   17.04    1.58
   9   2  -6   17.14    1.40
  -9   2   6   15.16    1.47
  -9   2   6   16.21    1.51
  -9   2   6   15.88    1.36
   9   2  -6   17.95    1.55
  -9   2   6   16.09    1.34
  -8  -2   6    0.95    0.37
   8  -2  -6    0.81    0.43
  -8  -2   6    0.62    0.39
  -8  -2   6    0.50    0.34
   8  -2  -6    0.25    0.42
   8  -2  -6    0.01    0.40
   8   2  -6    1.32    0.40
  -8   2   6    0.97    0.36
  -8   2   6    0.70    0.36
   8   2  -6    0.35    0.42
  -8   2   6    1.75    0.44
  -7  -2   6   57.09    4.01
  -7  -2   6   47.83    4.32
   7  -2  -6   47.42    3.83
  -7  -2   6   61.51    4.05
   7  -2  -6   59.64    4.04
  -7  -2   6   47.11    3.75
  -7  -2   6   57.53    3.84
   7  -2  -6   59.56    4.04
  -7   2   6   51.46    3.88
  -7   2   6   57.45    4.01
   7   2  -6   53.58    3.89
  -7   2   6   57.34    4.30
   7   2  -6   61.16    4.02
  -6  -2   6    8.21    0.74
  -6  -2   6    8.53    0.78
   6  -2  -6    7.99    0.80
  -6  -2   6    6.81    0.78
   6  -2  -6    8.31    0.82
  -6  -2   6    6.68    0.77
   6  -2  -6    8.66    0.83
  -6  -2   6    9.70    0.89
  -6   2   6    8.13    0.81
  -6   2   6    8.78    0.82
   6   2  -6    9.82    0.79
  -6   2   6   10.03    0.78
   6   2  -6    7.96    0.83
  -5  -2   6   35.66    2.32
   5  -2  -6   29.20    2.19
  -5  -2   6   26.99    2.28
   5  -2  -6   33.52    2.30
  -5  -2   6   33.57    2.20
   5  -2  -6   28.96    2.29
  -5  -2   6   30.24    2.14
  -5  -2   6   27.93    2.48
   5   2  -6   32.09    2.28
  -5   2   6   32.52    2.45
  -5   2   6   27.90    2.28
  -5   2   6   33.86    2.22
   5   2  -6   30.53    2.23
  -4  -2   6   42.40    3.65
  -4  -2   6   53.71    3.16
  -4  -2   6   51.51    3.17
  -4  -2   6   42.60    3.36
  -4  -2   6   45.23    3.39
  -4  -2   6   41.28    3.39
  -4  -2   6   44.55    3.23
   4  -2  -6   47.20    3.37
   4  -2  -6   48.86    3.23
   4  -2  -6   47.34    3.40
   4   2  -6   48.50    3.36
  -4   2   6   46.80    3.37
  -4   2   6   50.79    3.28
  -4   2   6   47.25    3.61
   4   2  -6   43.55    3.28
   3  -2  -6   13.89    1.05
  -3  -2   6   15.03    1.17
  -3  -2   6   12.42    1.02
  -3  -2   6   14.74    1.09
   3  -2  -6   14.92    1.04
   3  -2  -6   15.08    1.08
  -3  -2   6   12.16    1.07
  -3   2   6   15.96    1.13
  -3   2   6   12.41    1.04
   3   2  -6   13.90    1.07
  -3   2   6   11.65    1.05
   3   2  -6   14.10    1.05
   2  -2  -6  243.18   17.27
  -2  -2   6  240.86   16.49
   2  -2  -6  223.42   17.38
  -2  -2   6  217.32   17.38
  -2  -2   6  255.95   16.43
  -2  -2   6  258.34   17.24
  -2  -2   6  227.73   18.62
   2  -2  -6  258.07   16.50
   2   2  -6  227.53   16.82
  -2   2   6  247.93   17.38
  -2   2   6  255.33   18.57
   2   2  -6  245.49   17.39
  -2   2   6  267.45   17.39
  -2   2   6  268.50   16.83
   2   2  -6  245.43   17.22
  -2   2   6  255.07   17.22
  -1  -2   6    8.78    0.72
  -1  -2   6    9.46    0.72
   1  -2  -6    8.87    0.68
   1  -2  -6    8.82    0.71
  -1  -2   6    7.27    0.67
   1  -2  -6    9.19    0.68
  -1  -2   6    9.26    0.65
  -1  -2   6    7.10    0.76
   1  -2  -6    8.56    0.66
  -1  -2   6    7.73    0.68
  -1   2   6    7.92    0.67
  -1   2   6    9.11    0.71
  -1   2   6    9.31    0.70
   1   2  -6    7.92    0.69
   1   2  -6    7.24    0.71
   1   2  -6    9.44    0.68
   0  -2   6   74.13    5.97
   0  -2  -6   88.22    5.98
   0  -2   6   80.15    5.72
   0  -2  -6   87.70    5.72
   0  -2  -6   73.74    5.69
   0  -2  -6   87.43    6.03
   0  -2   6   94.32    5.70
   0  -2   6   81.92    5.98
   0   2  -6   91.28    5.81
   0   2   6   77.35    5.96
   0   2  -6   87.28    6.04
   0   2   6   84.59    5.81
   0   2  -6   92.12    5.98
  -1  -2  -6   32.90    2.52
   1  -2   6   35.90    2.64
  -1  -2  -6   34.69    2.63
   1  -2   6   37.68    2.77
  -1  -2  -6   36.64    2.66
   1  -2   6   40.33    2.66
  -1  -2  -6   39.59    2.51
   1  -2   6   36.74    2.52
   1  -2   6   37.57    2.52
   1  -2   6   38.42    2.89
  -1   2  -6   38.03    2.55
  -1   2  -6   36.30    2.63
   1   2   6   38.23    2.55
  -1   2  -6   32.72    2.66
   1   2   6   34.75    2.63
   2  -2   6    0.38    0.17
   2  -2   6    0.39    0.18
  -2  -2  -6    0.06    0.15
   2  -2   6    0.20    0.19
   2  -2   6    0.36    0.17
  -2  -2  -6    0.32    0.16
  -2  -2  -6    0.34    0.17
   2  -2   6    0.66    0.25
  -2  -2  -6    0.46    0.18
  -2  -2  -6    0.25    0.18
   2  -2   6    0.26    0.16
  -2   2  -6    0.11    0.13
  -2   2  -6    0.39    0.19
   2   2   6    0.22    0.14
  -2   2  -6    0.23    0.18
   2   2   6    0.26    0.16
   2   2   6    0.23    0.16
   3  -2   6   99.20    6.28
  -3  -2  -6   93.34    6.05
   3  -2   6   94.83    6.27
  -3  -2  -6   90.68    6.27
   3  -2   6   88.94    6.56
  -3  -2  -6   79.30    6.21
  -3  -2  -6   74.38    5.94
   3  -2   6   87.13    5.95
   3  -2   6   83.61    5.94
   3   2   6   94.43    6.58
  -3   2  -6   88.56    6.05
   3   2   6   87.41    6.06
  -3   2  -6   86.15    6.22
   3   2   6   84.76    6.21
  -4  -2  -6   10.33    0.86
  -4  -2  -6   11.68    0.90
   4  -2   6   12.29    0.93
  -4  -2  -6   10.88    0.91
  -4  -2  -6   12.31    0.82
   4  -2   6    9.68    0.85
  -4  -2  -6   11.38    0.79
   4  -2   6   11.94    0.87
  -4  -2  -6    8.82    0.80
   4  -2   6   10.42    0.89
   4   2   6   10.61    0.94
  -4   2  -6   10.71    0.91
   4   2   6    9.38    0.89
  -4   2  -6   11.28    0.85
   4   2   6   11.34    0.86
  -5  -2  -6   45.91    3.18
  -5  -2  -6   48.91    3.33
   5  -2   6   47.05    3.49
   5  -2   6   39.31    3.09
   5  -2   6   47.90    3.35
  -5  -2  -6   43.18    3.34
  -5  -2  -6   44.65    3.11
   5  -2   6   47.62    3.19
   5   2   6   50.47    3.52
  -5   2  -6   44.74    3.22
   5   2   6   48.33    3.33
  -5   2  -6   45.07    3.33
   5   2   6   46.51    3.23
   6  -2   6   16.94    1.48
  -6  -2  -6   17.43    1.28
   6  -2   6   18.22    1.43
   6  -2   6   17.16    1.27
  -6  -2  -6   18.65    1.45
  -6  -2  -6   16.95    1.36
  -6  -2  -6   17.01    1.42
   6  -2   6   16.68    1.36
   6   2   6   19.60    1.44
   6   2   6   18.97    1.52
  -6   2  -6   18.77    1.37
   6   2   6   18.07    1.37
  -6   2  -6   20.89    1.47
  -7  -2  -6   15.56    1.27
  -7  -2  -6   13.23    1.20
   7  -2   6   16.22    1.20
   7  -2   6   13.92    1.28
   7  -2   6   14.17    1.24
  -7  -2  -6   15.03    1.37
  -7  -2  -6   13.40    1.11
   7  -2   6   15.16    1.10
  -7  -2  -6   12.98    1.27
  -7   2  -6   16.98    1.31
   7   2   6   16.68    1.28
  -7   2  -6   16.60    1.21
   7   2   6   15.85    1.34
   7   2   6   14.16    1.19
  -8  -2  -6   10.67    1.13
   8  -2   6   12.36    1.13
   8  -2   6   13.33    1.07
  -8  -2  -6   12.66    0.97
  -8  -2  -6   12.61    1.26
   8  -2   6   11.63    1.14
  -8   2  -6   10.87    1.04
   8   2   6   13.81    1.17
  -8   2  -6   13.54    1.20
   8   2   6   12.39    1.05
   8   2   6   11.53    1.16
   9  -2   6   -0.61    0.36
  -9  -2  -6   -0.16    0.40
  -9  -2  -6   -0.22    0.28
   9  -2   6    0.26    0.38
  -9  -2  -6    0.30    0.48
   9   2   6   -0.17    0.41
   9   2   6    0.30    0.41
  -9   2  -6    0.03    0.45
  -9   2  -6    0.29    0.34
   9   2   6    0.05    0.35
  -9  -3   6    3.31    0.55
   9  -3  -6    1.88    0.56
   9  -3  -6    3.77    0.58
  -9  -3   6    2.10    0.59
  -9   3   6    2.39    0.50
  -9   3   6    2.69    0.62
  -9   3   6    2.27    0.50
   9   3  -6    3.79    0.65
   9   3  -6    3.18    0.53
  -8  -3   6   43.39    3.19
  -8  -3   6   44.12    3.19
   8  -3  -6   42.34    3.21
   8  -3  -6   38.42    3.16
  -8  -3   6   35.98    3.01
   8  -3  -6   45.77    3.08
  -8  -3   6   41.18    3.45
   8   3  -6   49.57    3.11
   8   3  -6   43.98    3.21
  -8   3   6   41.37    3.19
  -7  -3   6    3.27    0.49
   7  -3  -6    4.29    0.51
   7  -3  -6    4.37    0.57
  -7  -3   6    4.24    0.53
   7  -3  -6    3.70    0.53
  -7  -3   6    3.80    0.53
  -7  -3   6    2.73    0.59
   7  -3  -6    3.42    0.54
   7   3  -6    4.13    0.54
   7   3  -6    3.38    0.55
  -7   3   6    3.37    0.54
  -6  -3   6   38.87    2.88
  -6  -3   6   43.22    3.31
  -6  -3   6   43.53    3.02
   6  -3  -6   41.66    3.03
   6  -3  -6   35.95    3.01
   6  -3  -6   42.04    2.95
   6  -3  -6   38.76    2.90
  -6  -3   6   42.18    3.03
  -6   3   6   42.86    3.02
   6   3  -6   42.16    3.02
  -5  -3   6   35.44    2.85
  -5  -3   6   34.36    2.62
  -5  -3   6   36.70    2.63
   5  -3  -6   34.54    2.62
   5  -3  -6   34.61    2.50
  -5  -3   6   36.79    2.51
   5  -3  -6   34.87    2.62
  -5  -3   6   37.62    2.62
   5   3  -6   34.96    2.59
  -5   3   6   35.27    2.61
  -4  -3   6   11.55    0.95
  -4  -3   6   10.70    0.96
   4  -3  -6   13.17    0.97
  -4  -3   6   12.56    1.07
   4  -3  -6   10.50    0.93
  -4  -3   6   12.69    0.99
   4  -3  -6   11.67    0.98
  -4   3   6   11.73    0.97
   4   3  -6   11.59    0.96
  -3  -3   6   98.98    6.80
  -3  -3   6  100.90    7.11
  -3  -3   6  104.46    7.71
  -3  -3   6  100.93    7.17
   3  -3  -6  111.79    6.81
   3  -3  -6   98.84    7.14
   3  -3  -6   88.42    7.16
   3   3  -6  104.66    7.10
  -3   3   6   97.98    7.10
  -2  -3   6    0.27    0.16
  -2  -3   6   -0.10    0.18
   2  -3  -6    0.29    0.20
   2  -3  -6    0.10    0.19
  -2  -3   6    0.17    0.23
  -2  -3   6    0.37    0.23
   2  -3  -6    0.22    0.19
   2  -3  -6    0.41    0.22
  -2  -3   6    0.28    0.20
   2   3  -6    0.62    0.24
  -2   3   6    0.15    0.20
   1  -3  -6  125.23    9.26
   1  -3  -6  141.63    8.81
  -1  -3   6  128.41    8.81
   1  -3  -6  121.56    8.77
  -1  -3   6  146.15    9.98
   1  -3  -6  129.51    9.23
  -1  -3   6  131.87    8.76
  -1  -3   6  114.46    9.27
   1  -3  -6  144.46    9.02
  -1  -3   6  128.53    9.25
   1  -3  -6  127.21    9.27
  -1  -3   6  142.50    9.69
  -1  -3   6  145.17    9.21
   1   3  -6  118.87    9.20
  -1   3   6  119.27    9.19
   0  -3  -6   37.07    2.58
   0  -3   6   35.24    2.59
   0  -3   6   34.99    2.46
   0  -3   6   32.32    2.43
   0  -3   6   37.28    2.56
   0  -3   6   37.39    2.56
   0  -3  -6   34.17    2.45
   0  -3   6   36.75    2.82
   0  -3  -6   31.94    2.51
   0  -3  -6   35.34    2.56
   0  -3  -6   37.05    2.44
   0  -3   6   36.49    2.56
   0  -3  -6   34.29    2.56
   0   3  -6   36.28    2.57
   0   3   6   36.64    2.56
   1  -3   6   30.16    2.27
   1  -3   6   31.17    2.13
  -1  -3  -6   27.94    2.12
  -1  -3  -6   35.18    2.12
   1  -3   6   29.56    2.46
   1  -3   6   30.72    2.22
  -1  -3  -6   27.91    2.21
  -1  -3  -6   29.96    2.19
   1  -3   6   32.30    2.14
  -1  -3  -6   30.01    2.22
  -1   3  -6   31.29    2.23
   1   3   6   32.44    2.22
  -2  -3  -6   76.18    5.37
   2  -3   6   70.03    5.46
   2  -3   6   67.49    5.03
   2  -3   6   73.78    4.80
   2  -3   6   67.24    4.79
  -2  -3  -6   69.12    4.77
  -2  -3  -6   75.74    4.90
  -2  -3  -6   73.48    5.00
  -2  -3  -6   67.49    5.03
  -2  -3  -6   67.89    4.79
   2  -3   6   68.28    5.06
  -2   3  -6   69.71    5.00
   2   3   6   72.24    5.00
  -3  -3  -6    3.76    0.43
   3  -3   6    3.88    0.43
  -3  -3  -6    4.88    0.48
  -3  -3  -6    4.49    0.44
   3  -3   6    3.98    0.51
   3  -3   6    4.69    0.47
  -3  -3  -6    4.79    0.46
  -3  -3  -6    4.27    0.45
   3  -3   6    4.36    0.46
   3   3   6    4.64    0.48
  -3   3  -6    4.14    0.46
   3   3   6    4.73    0.51
   4  -3   6  111.80    7.68
   4  -3   6  105.56    7.26
  -4  -3  -6  105.27    7.26
  -4  -3  -6  113.12    8.18
  -4  -3  -6  111.08    7.58
   4  -3   6  125.58    7.26
   4  -3   6  101.72    6.59
  -4  -3  -6  114.82    7.38
  -4  -3  -6  110.62    7.64
   4  -3   6  104.58    7.64
  -4   3  -6  103.23    7.58
   4   3   6   99.07    7.58
   4   3   6   90.01    8.00
  -5  -3  -6   12.32    1.09
   5  -3   6   14.28    1.07
  -5  -3  -6   12.95    1.05
   5  -3   6   13.12    1.06
  -5  -3  -6   11.32    1.07
   5  -3   6   11.82    1.07
   5  -3   6   14.70    0.93
  -5  -3  -6   13.46    1.18
   5  -3   6   13.99    1.23
   5   3   6   13.79    1.12
   5   3   6   13.51    1.15
  -5   3  -6   14.41    1.13
  -6  -3  -6   32.74    2.70
   6  -3   6   39.17    2.85
  -6  -3  -6   39.60    2.95
  -6  -3  -6   37.75    2.60
   6  -3   6   34.08    2.72
   6  -3   6   36.44    2.60
  -6  -3  -6   37.35    2.74
  -6   3  -6   39.75    2.75
   6   3   6   38.49    2.73
   6   3   6   33.49    2.87
  -7  -3  -6   26.89    2.11
   7  -3   6   24.10    1.93
  -7  -3  -6   21.96    1.93
   7  -3   6   23.93    1.85
  -7  -3  -6   21.72    1.91
  -7  -3  -6   25.70    1.86
   7  -3   6   27.02    2.11
   7   3   6   25.75    1.86
   7   3   6   24.89    1.95
  -7   3  -6   26.70    1.98
   7   3   6   26.02    2.06
   8  -3   6    5.70    0.63
  -8  -3  -6    4.31    0.63
  -8  -3  -6    5.56    0.66
  -8  -3  -6    5.01    0.64
   8  -3   6    4.86    0.83
   8  -3   6    4.56    0.63
  -8  -3  -6    6.68    0.82
   8   3   6    5.23    0.71
  -8   3  -6    6.17    0.75
   8   3   6    6.48    0.72
   8   3   6    4.01    0.58
  -8  -4   6    0.72    0.47
  -8  -4   6    1.12    0.45
   8  -4  -6    1.49    0.44
  -8  -4   6    0.45    0.44
  -8  -4   6    1.05    0.48
   8  -4  -6    1.81    0.47
   8  -4  -6    1.48    0.51
  -8  -4   6    1.31    0.42
  -8   4   6    1.49    0.54
   8   4  -6    1.51    0.54
   7  -4  -6    2.13    0.56
  -7  -4   6    2.72    0.51
  -7  -4   6    2.68    0.52
  -7  -4   6    3.12    0.53
  -7  -4   6    3.49    0.62
   7  -4  -6    3.78    0.52
   7  -4  -6    3.48    0.54
   7   4  -6    2.19    0.52
  -7   4   6    3.42    0.55
  -6  -4   6    1.68    0.38
   6  -4  -6    1.48    0.43
  -6  -4   6    1.92    0.42
   6  -4  -6    1.38    0.40
   6  -4  -6    1.78    0.46
  -6  -4   6    2.00    0.41
   6  -4  -6    1.31    0.38
  -6  -4   6    1.10    0.46
   6   4  -6    1.84    0.42
  -6   4   6    1.53    0.40
  -5  -4   6    0.74    0.36
   5  -4  -6    0.93    0.38
  -5  -4   6    0.61    0.32
   5  -4  -6    0.89    0.31
  -5  -4   6    0.48    0.34
   5  -4  -6    0.75    0.33
   5  -4  -6    1.05    0.36
  -5  -4   6    0.85    0.28
   5   4  -6    0.94    0.31
  -5   4   6    0.87    0.32
  -4  -4   6    1.18    0.39
   4  -4  -6    0.82    0.34
  -4  -4   6    1.15    0.30
  -4  -4   6    1.56    0.32
  -4  -4   6    1.33    0.33
   4  -4  -6    0.97    0.30
   4  -4  -6    0.82    0.37
   4  -4  -6    0.92    0.29
  -4   4   6    0.84    0.30
   4   4  -6    1.47    0.31
  -3  -4   6   17.54    1.40
  -3  -4   6   17.40    1.57
   3  -4  -6   19.02    1.33
  -3  -4   6   17.18    1.33
   3  -4  -6   19.97    1.45
   3  -4  -6   18.89    1.38
  -3  -4   6   18.68    1.40
   3  -4  -6   16.72    1.41
   3   4  -6   18.24    1.39
  -3   4   6   17.62    1.38
   2  -4  -6    0.14    0.27
   2  -4  -6    0.79    0.24
  -2  -4   6    0.52    0.23
  -2  -4   6    0.61    0.32
  -2  -4   6    0.44    0.30
   2  -4  -6    0.60    0.30
  -2  -4   6    0.42    0.21
   2  -4  -6    0.59    0.22
  -2  -4   6    0.34    0.22
   2   4  -6    0.98    0.27
  -2   4   6    0.48    0.24
   2   4  -6    0.61    0.24
  -1  -4   6    4.87    0.47
  -1  -4   6    4.90    0.45
   1  -4  -6    4.13    0.52
  -1  -4   6    5.55    0.65
   1  -4  -6    5.12    0.50
   1  -4  -6    5.01    0.47
  -1  -4   6    4.91    0.49
   1  -4  -6    4.70    0.54
  -1  -4   6    4.61    0.56
  -1  -4   6    5.03    0.47
   1   4  -6    5.20    0.52
  -1   4   6    4.73    0.49
   0  -4   6    3.58    0.41
   0  -4  -6    3.11    0.39
   0  -4   6    4.18    0.43
   0  -4   6    4.12    0.51
   0  -4   6    3.56    0.39
   0  -4  -6    4.42    0.42
   0  -4  -6    5.17    0.51
   0  -4  -6    3.40    0.45
   0  -4   6    3.66    0.54
   0   4  -6    3.35    0.43
   0   4   6    4.24    0.43
   1  -4   6    4.05    0.51
  -1  -4  -6    4.36    0.41
  -1  -4  -6    3.79    0.37
   1  -4   6    4.82    0.45
   1  -4   6    4.62    0.44
   1  -4   6    4.24    0.57
  -1  -4  -6    3.73    0.42
  -1  -4  -6    3.61    0.49
  -1  -4  -6    3.83    0.46
  -1  -4  -6    3.59    0.41
  -1   4  -6    3.72    0.44
   1   4   6    4.85    0.45
   2  -4   6    5.03    0.51
  -2  -4  -6    6.26    0.59
  -2  -4  -6    6.23    0.57
   2  -4   6    5.80    0.52
  -2  -4  -6    6.54    0.60
   2  -4   6    4.81    0.64
   2  -4   6    5.42    0.56
  -2  -4  -6    6.75    0.56
  -2  -4  -6    6.28    0.52
   2  -4   6    5.78    0.57
   2  -4   6    5.12    0.68
   2   4   6    5.31    0.57
  -2   4  -6    6.87    0.61
   3  -4   6    5.16    0.47
   3  -4   6    4.63    0.60
  -3  -4  -6    3.92    0.47
   3  -4   6    3.66    0.46
  -3  -4  -6    4.81    0.47
  -3  -4  -6    3.69    0.44
  -3  -4  -6    4.51    0.46
   3  -4   6    3.81    0.41
   3  -4   6    3.86    0.42
  -3   4  -6    4.57    0.48
   3   4   6    4.34    0.48
   3   4   6    5.02    0.52
   4  -4   6    0.48    0.40
   4  -4   6    0.87    0.29
   4  -4   6    1.16    0.28
   4  -4   6    0.81    0.29
  -4  -4  -6    1.01    0.30
  -4  -4  -6    0.62    0.30
  -4  -4  -6    0.84    0.25
   4  -4   6    0.86    0.25
  -4  -4  -6    0.84    0.30
   4   4   6    0.68    0.31
  -4   4  -6    0.87    0.33
   4   4   6    0.85    0.30
   5  -4   6    8.59    0.82
  -5  -4  -6    9.62    0.82
   5  -4   6    9.30    0.74
  -5  -4  -6    8.18    0.84
   5  -4   6    9.64    0.99
   5  -4   6    8.32    0.80
   5  -4   6    6.80    0.76
  -5  -4  -6    8.86    0.83
   5   4   6    9.37    0.87
   5   4   6   10.26    0.90
  -5   4  -6   10.32    0.90
   6  -4   6    3.60    0.47
   6  -4   6    4.78    0.54
  -6  -4  -6    3.16    0.50
  -6  -4  -6    3.70    0.47
   6  -4   6    4.08    0.71
  -6  -4  -6    3.04    0.48
   6   4   6    4.24    0.60
  -6   4  -6    3.61    0.56
   6   4   6    3.98    0.56
  -7  -4  -6   -0.23    0.31
   7  -4   6    0.01    0.32
  -7  -4  -6   -0.28    0.36
   7  -4   6   -0.42    0.36
   7  -4   6   -0.66    0.54
  -7  -4  -6    0.14    0.37
   7   4   6    0.07    0.41
  -7   4  -6    0.00    0.44
   7   4   6   -0.49    0.33
  -8  -4  -6    2.50    0.50
  -8  -4  -6    1.91    0.52
   8  -4   6    3.63    0.58
   8  -4   6    2.99    0.71
   8  -4   6    3.00    0.49
  -8  -4  -6    2.64    0.53
   8   4   6    3.07    0.60
   8   4   6    2.46    0.59
  -8   4  -6    3.32    0.63
  -7  -5   6    0.33    0.42
  -7  -5   6    0.62    0.44
   7  -5  -6    0.93    0.56
   7  -5  -6    0.87    0.44
   7  -5  -6    0.94    0.40
  -7  -5   6   -0.49    0.37
  -7  -5   6   -0.01    0.44
   7   5  -6    1.02    0.50
  -7   5   6    0.22    0.45
  -6  -5   6   12.22    1.11
  -6  -5   6   10.82    1.21
   6  -5  -6   10.85    1.08
  -6  -5   6   10.71    1.04
   6  -5  -6   13.16    1.26
   6  -5  -6   11.83    1.07
   6  -5  -6   11.76    1.01
  -6  -5   6   10.66    1.04
   6   5  -6   10.52    1.11
  -6   5   6   11.00    1.11
   5  -5  -6   25.43    1.90
  -5  -5   6   24.94    2.20
  -5  -5   6   26.28    1.90
  -5  -5   6   26.23    1.74
   5  -5  -6   25.34    1.98
   5  -5  -6   28.60    2.10
  -5  -5   6   25.47    1.96
  -5  -5   6   25.02    2.01
  -5   5   6   26.30    2.00
   5   5  -6   25.59    1.98
   4  -5  -6    5.49    0.64
  -4  -5   6    5.74    0.77
   4  -5  -6    5.27    0.56
   4  -5  -6    5.16    0.68
  -4  -5   6    4.57    0.59
  -4  -5   6    5.87    0.58
   4   5  -6    5.86    0.59
  -4   5   6    5.56    0.61
   3  -5  -6   52.33    3.74
  -3  -5   6   49.44    3.66
   3  -5  -6   46.41    3.62
  -3  -5   6   55.78    4.05
  -3  -5   6   49.42    3.51
   3  -5  -6   47.97    3.49
   3   5  -6   51.05    3.65
  -3   5   6   55.21    3.65
  -2  -5   6    2.27    0.51
   2  -5  -6    2.58    0.48
  -2  -5   6    2.03    0.32
   2  -5  -6    1.97    0.32
   2  -5  -6    1.92    0.44
  -2  -5   6    1.98    0.52
  -2  -5   6    2.30    0.33
  -2  -5   6    2.25    0.35
  -2   5   6    2.07    0.35
   2   5  -6    2.19    0.34
   1  -5  -6   40.11    2.97
   1  -5  -6   40.13    3.10
  -1  -5   6   44.42    2.98
  -1  -5   6   44.82    2.96
  -1  -5   6   47.04    3.48
  -1  -5   6   38.88    3.12
  -1  -5   6   48.50    3.25
   1  -5  -6   46.36    3.21
   1  -5  -6   42.77    2.97
  -1  -5   6   44.36    2.76
   1   5  -6   41.34    3.12
  -1   5   6   42.52    3.11
   0  -5  -6    7.03    0.68
   0  -5  -6    5.89    0.59
   0  -5  -6    6.02    0.60
   0  -5   6    5.97    0.73
   0  -5   6    6.02    0.58
   0  -5   6    5.62    0.57
   0  -5  -6    7.68    0.72
   0  -5   6    5.99    0.63
   0  -5   6    6.11    0.77
   0  -5   6    4.96    0.54
   0   5   6    6.45    0.60
   0   5  -6    5.11    0.58
   1  -5   6   17.29    1.39
  -1  -5  -6   20.82    1.46
   1  -5   6   20.32    1.47
  -1  -5  -6   19.68    1.65
   1  -5   6   23.90    1.81
   1  -5   6   20.61    1.50
  -1  -5  -6   18.72    1.46
  -1  -5  -6   23.27    1.55
  -1  -5  -6   18.15    1.57
   1  -5   6   23.02    1.69
   1   5   6   19.33    1.53
  -1   5  -6   19.43    1.55
  -2  -5  -6   47.99    3.27
   2  -5   6   40.35    3.13
   2  -5   6   42.93    3.14
   2  -5   6   50.46    3.42
  -2  -5  -6   46.59    3.26
   2  -5   6   48.18    3.64
   2  -5   6   48.74    2.92
  -2  -5  -6   41.03    3.13
  -2  -5  -6   43.77    3.14
   2   5   6   44.87    3.27
  -2   5  -6   48.55    3.28
  -3  -5  -6    0.40    0.36
   3  -5   6   -0.24    0.28
  -3  -5  -6   -0.20    0.27
   3  -5   6    0.15    0.28
   3  -5   6    0.63    0.46
   3  -5   6    0.21    0.28
  -3  -5  -6    0.20    0.28
  -3   5  -6    0.47    0.30
   3   5   6    0.25    0.28
  -4  -5  -6   44.12    3.03
   4  -5   6   37.07    2.89
   4  -5   6   40.39    2.89
  -4  -5  -6   42.46    2.98
   4  -5   6   42.71    2.67
   4  -5   6   39.35    3.18
  -4  -5  -6   41.84    2.90
   4   5   6   42.57    3.04
  -4   5  -6   41.86    3.03
   5  -5   6    0.93    0.60
  -5  -5  -6    1.06    0.28
  -5  -5  -6    0.46    0.36
  -5  -5  -6    0.09    0.35
   5  -5   6   -0.09    0.34
   5  -5   6    0.82    0.33
   5  -5   6    0.62    0.36
  -5   5  -6   -0.16    0.38
   5   5   6    0.26    0.38
   6  -5   6   15.03    1.23
   6  -5   6   15.88    1.17
  -6  -5  -6   11.36    1.25
  -6  -5  -6   14.95    1.23
  -6  -5  -6   15.79    1.20
   6  -5   6   13.44    1.45
   6   5   6   13.98    1.32
  -6   5  -6   14.46    1.34
   7  -5   6   16.22    1.77
  -7  -5  -6   18.49    1.49
  -7  -5  -6   17.11    1.55
   7  -5   6   19.33    1.45
   7  -5   6   18.78    1.51
  -7  -5  -6   17.80    1.50
   7   5   6   18.06    1.61
  -7   5  -6   19.83    1.63
  -5  -6   6   13.76    1.20
  -5  -6   6   13.28    1.27
  -5  -6   6   15.46    1.45
  -5  -6   6   13.92    1.18
   5  -6  -6   11.50    1.26
   5  -6  -6   13.63    1.18
   5  -6  -6   15.44    1.44
   5   6  -6   14.21    1.25
  -5   6   6   13.30    1.24
   4  -6  -6   13.92    1.17
  -4  -6   6   14.74    1.18
   4  -6  -6   17.11    1.42
  -4  -6   6   13.96    1.26
  -4  -6   6   15.65    1.18
   4  -6  -6   14.21    1.30
  -4  -6   6   14.03    1.43
   4   6  -6   13.10    1.21
  -4   6   6   13.31    1.23
   3  -6  -6    0.74    0.50
  -3  -6   6    0.64    0.52
  -3  -6   6    0.43    0.38
  -3  -6   6    0.76    0.35
  -3  -6   6    0.58    0.35
   3  -6  -6    0.50    0.43
   3  -6  -6    0.70    0.31
   3   6  -6    1.04    0.33
  -3   6   6    0.64    0.34
   2  -6  -6   28.46    1.96
   2  -6  -6   28.98    2.23
  -2  -6   6   26.99    2.27
  -2  -6   6   24.70    1.95
  -2  -6   6   25.88    1.89
  -2  -6   6   27.48    1.98
  -2  -6   6   29.90    2.40
   2  -6  -6   24.74    2.11
  -2  -6   6   26.84    2.07
  -2   6   6   28.23    2.05
   2   6  -6   31.64    2.06
  -1  -6   6    1.91    0.36
   1  -6  -6    2.09    0.34
  -1  -6   6    1.90    0.45
  -1  -6   6    2.01    0.34
   1  -6  -6    1.39    0.37
   1  -6  -6    1.37    0.49
  -1  -6   6    1.96    0.41
  -1  -6   6    2.29    0.58
   1  -6  -6    2.33    0.55
  -1  -6   6    2.36    0.57
   1   6  -6    2.50    0.40
  -1   6   6    2.26    0.36
   0  -6  -6   24.67    1.97
   0  -6  -6   29.35    2.11
   0  -6   6   24.89    1.83
   0  -6   6   26.22    1.92
   0  -6  -6   23.79    1.80
   0  -6   6   26.69    1.82
   0  -6   6   22.78    2.06
   0  -6   6   26.61    1.75
   0  -6   6   30.07    2.23
   0   6  -6   23.18    1.90
   0   6   6   23.43    1.90
  -1  -6  -6   19.09    1.56
   1  -6   6   19.81    1.58
   1  -6   6   24.81    1.68
   1  -6   6   20.02    1.87
   1  -6   6   19.96    1.61
  -1  -6  -6   20.94    1.67
  -1  -6  -6   20.53    1.73
  -1  -6  -6   22.32    1.84
   1  -6   6   24.50    1.97
   1  -6   6   22.16    1.56
  -1  -6  -6   21.87    1.59
  -1   6  -6   23.10    1.68
   1   6   6   24.90    1.68
   2  -6   6   17.11    1.28
   2  -6   6   13.30    1.52
   2  -6   6   18.16    1.61
   2  -6   6   17.48    1.29
  -2  -6  -6   17.53    1.34
  -2  -6  -6   16.78    1.43
  -2  -6  -6   16.89    1.28
   2  -6   6   15.40    1.29
  -2   6  -6   15.90    1.34
   2   6   6   16.85    1.33
  -3  -6  -6   21.02    1.50
   3  -6   6   18.05    1.49
   3  -6   6   20.48    1.46
   3  -6   6   19.87    1.50
  -3  -6  -6   19.78    1.51
   3  -6   6   18.44    1.78
  -3  -6  -6   20.84    1.57
  -3  -6  -6   20.43    1.65
  -3   6  -6   18.28    1.56
   3   6   6   21.49    1.57
   4  -6   6    3.00    0.47
  -4  -6  -6    2.40    0.47
  -4  -6  -6    3.21    0.58
  -4  -6  -6    2.63    0.47
   4  -6   6    3.00    0.47
   4  -6   6    3.50    0.48
   4  -6   6    2.82    0.71
   4   6   6    3.29    0.52
  -4   6  -6    2.92    0.50
   5  -6   6   34.71    2.51
  -5  -6  -6   35.05    2.62
   5  -6   6   35.96    2.52
   5  -6   6   38.21    2.34
   5  -6   6   34.01    2.86
  -5  -6  -6   33.50    2.51
  -5   6  -6   34.52    2.63
   5   6   6   32.96    2.64
   2  -7  -6    0.64    0.44
  -2  -7   6    1.15    0.34
  -2  -7   6    1.08    0.60
  -2  -7   6   -0.05    0.34
   2  -7  -6    0.84    0.31
  -2  -7   6   -0.13    0.45
   2  -7  -6    1.11    0.54
  -2  -7   6    0.80    0.36
   2   7  -6    0.79    0.33
  -1  -7   6    0.04    0.34
   1  -7  -6   -0.17    0.54
  -1  -7   6    0.22    0.29
  -1  -7   6   -0.84    0.60
   1  -7  -6    0.37    0.29
  -1  -7   6    0.09    0.44
   1  -7  -6    0.27    0.46
   1   7  -6    0.69    0.32
   0  -7  -6    0.33    0.27
   0  -7   6   -0.54    0.59
   0  -7   6    0.17    0.31
   0  -7   6   -0.73    0.41
   0  -7   6   -0.50    0.34
   0  -7  -6   -0.80    0.50
   0  -7  -6   -1.21    0.57
   1  -7   6   -0.08    0.39
   1  -7   6    0.29    0.35
   1  -7   6    0.83    0.63
   1  -7   6    0.30    0.47
  -1  -7  -6   -0.06    0.29
  -1  -7  -6    0.49    0.50
   2  -7   6    0.01    0.64
   2  -7   6    0.10    0.32
  -2  -7  -6   -0.34    0.32
   2  -7   6    0.22    0.35
  -2  -7  -6    0.31    0.48
  -2  -7  -6    0.37    0.37
   2  -7   6   -0.27    0.35
  -2   7  -6   -0.43    0.38
   2   7   6   -0.19    0.37
  -9   0   7    0.49    0.41
   9   0  -7   -0.53    0.38
  -9   0   7   -0.31    0.32
   9   0  -7    0.26    0.37
   8   0  -7    0.13    0.34
  -8   0   7    0.03    0.29
   8   0  -7    0.09    0.36
  -8   0   7    0.34    0.30
  -8   0   7    0.54    0.36
   8   0  -7    0.17    0.38
  -8   0   7   -0.29    0.29
   7   0  -7    0.18    0.31
  -7   0   7    0.17    0.32
   7   0  -7   -0.02    0.35
   7   0  -7    0.11    0.29
  -7   0   7    0.02    0.27
  -7   0   7   -0.25    0.29
  -7   0   7    0.18    0.24
  -7   0   7    0.54    0.29
   7   0  -7    0.35    0.33
  -7   0   7    0.16    0.27
  -6   0   7    0.14    0.26
   6   0  -7   -0.26    0.27
   6   0  -7    0.16    0.24
  -6   0   7    0.20    0.26
  -6   0   7    0.41    0.26
   6   0  -7    0.23    0.30
  -6   0   7    0.14    0.24
  -6   0   7    0.36    0.27
   6   0  -7   -0.03    0.24
   5   0  -7    0.10    0.24
  -5   0   7    0.16    0.23
  -5   0   7    0.17    0.22
  -5   0   7    0.12    0.24
  -5   0   7   -0.08    0.22
   5   0  -7    0.53    0.26
   5   0  -7    0.41    0.24
   5   0  -7    0.50    0.25
  -5   0   7    0.24    0.20
   5   0  -7    0.27    0.22
  -5   0   7    0.34    0.21
  -4   0   7   -0.07    0.18
  -4   0   7    0.38    0.22
  -4   0   7    0.18    0.20
   4   0  -7    0.00    0.22
  -4   0   7   -0.12    0.18
   4   0  -7   -0.21    0.20
   4   0  -7    0.18    0.21
   4   0  -7    0.00    0.20
  -4   0   7    0.31    0.21
  -4   0   7    0.16    0.22
   4   0  -7   -0.27    0.19
  -4   0   7    0.09    0.18
  -3   0   7    0.16    0.16
   3   0  -7    0.39    0.20
  -3   0   7    0.22    0.18
   3   0  -7    0.32    0.19
   3   0  -7    0.50    0.20
  -3   0   7    0.18    0.18
  -3   0   7    0.48    0.19
  -3   0   7    0.61    0.19
  -3   0   7    0.20    0.17
   3   0  -7    0.47    0.21
   3   0  -7   -0.03    0.19
  -3   0   7    0.20    0.18
  -3   0   7    0.23    0.18
  -2   0   7    0.35    0.17
  -2   0   7    0.03    0.16
   2   0  -7    0.48    0.21
   2   0  -7    0.43    0.20
   2   0  -7    0.24    0.20
  -2   0   7    0.31    0.17
  -2   0   7    0.09    0.18
  -2   0   7    0.37    0.17
  -2   0   7    0.08    0.17
   2   0  -7    0.39    0.19
   2   0  -7    0.25    0.17
  -2   0   7    0.06    0.16
   2   0  -7    0.24    0.19
  -1   0   7   -0.09    0.14
   1   0  -7   -0.06    0.16
  -1   0   7   -0.06    0.17
  -1   0   7   -0.22    0.15
  -1   0   7    0.17    0.16
  -1   0   7   -0.03    0.17
  -1   0   7    0.06    0.15
   1   0  -7   -0.07    0.17
  -1   0   7   -0.18    0.16
   1   0  -7   -0.06    0.17
   1   0  -7   -0.07    0.17
   1   0  -7   -0.03    0.19
   0   0  -7    0.42    0.18
   0   0   7    0.51    0.20
   0   0   7    0.63    0.19
   0   0  -7    0.30    0.20
   0   0   7    0.63    0.21
   0   0  -7    0.23    0.20
   0   0   7    0.34    0.20
   0   0   7    0.48    0.19
   0   0   7    0.34    0.20
   0   0   7    0.32    0.18
   0   0  -7    0.36    0.19
   0   0  -7    0.26    0.19
   1   0   7    0.22    0.18
  -1   0  -7    0.06    0.17
  -1   0  -7    0.07    0.19
   1   0   7    0.03    0.17
   1   0   7   -0.28    0.17
   1   0   7    0.12    0.17
   1   0   7   -0.08    0.18
   1   0   7   -0.11    0.16
  -1   0  -7    0.03    0.18
   1   0   7   -0.17    0.14
  -1   0  -7   -0.03    0.16
  -1   0  -7   -0.02    0.18
   2   0   7    0.23    0.17
  -2   0  -7    0.31    0.22
   2   0   7    0.19    0.18
   2   0   7    0.31    0.17
  -2   0  -7    0.40    0.19
  -2   0  -7    0.20    0.18
   2   0   7    0.07    0.16
   2   0   7    0.23    0.20
   2   0   7   -0.10    0.18
   2   0   7   -0.21    0.17
  -2   0  -7    0.33    0.20
  -2   0  -7    0.26    0.18
  -3   0  -7    0.18    0.21
   3   0   7    0.09    0.17
  -3   0  -7    0.09    0.18
   3   0   7    0.18    0.19
  -3   0  -7    0.40    0.18
   3   0   7   -0.04    0.16
  -3   0  -7    0.04    0.19
  -3   0  -7   -0.08    0.18
  -3   0  -7    0.12    0.20
   3   0   7   -0.05    0.17
   3   0   7    0.30    0.20
   3   0   7   -0.06    0.16
  -3   0  -7   -0.01    0.18
  -4   0  -7    0.17    0.23
  -4   0  -7    0.10    0.20
   4   0   7   -0.26    0.17
   4   0   7   -0.02    0.18
  -4   0  -7    0.03    0.19
   4   0   7    0.11    0.19
   4   0   7    0.48    0.22
   4   0   7   -0.11    0.19
  -4   0  -7    0.09    0.22
  -4   0  -7    0.19    0.23
   4   0   7    0.01    0.22
  -4   0  -7    0.04    0.21
  -5   0  -7    0.25    0.26
   5   0   7    0.35    0.22
  -5   0  -7    0.06    0.21
   5   0   7    0.48    0.25
   5   0   7    0.45    0.22
   5   0   7    0.12    0.23
  -5   0  -7    0.30    0.24
  -5   0  -7   -0.09    0.24
   5   0   7    0.30    0.24
   5   0   7    0.33    0.25
   6   0   7    0.01    0.21
  -6   0  -7    0.22    0.26
   6   0   7    0.00    0.27
   6   0   7   -0.06    0.23
   6   0   7   -0.19    0.26
  -6   0  -7   -0.19    0.21
  -6   0  -7    0.15    0.28
  -6   0  -7   -0.20    0.28
   6   0   7    0.01    0.24
  -7   0  -7   -0.16    0.29
   7   0   7    0.25    0.33
   7   0   7    0.51    0.29
  -7   0  -7    0.00    0.25
  -7   0  -7    0.10    0.37
   7   0   7    0.43    0.29
   7   0   7   -0.16    0.26
  -7   0  -7    0.36    0.33
   7   0   7    0.21    0.30
   8   0   7   -0.39    0.31
  -8   0  -7    0.16    0.31
   8   0   7   -0.28    0.29
  -8   0  -7   -0.12    0.37
   8   0   7    0.21    0.30
   9   0   7    0.13    0.31
  -9   0  -7    0.18    0.35
  -9   0  -7    0.62    0.44
   9   0   7   -0.08    0.35
   9   0   7    0.07    0.42
   9  -1  -7   13.96    1.15
   9  -1  -7   15.07    1.21
  -9  -1   7   15.89    1.19
  -9  -1   7   14.55    1.38
  -9  -1   7   12.26    1.18
   9  -1  -7   13.11    1.32
  -9  -1   7   13.69    1.29
  -9   1   7   13.55    1.29
  -9   1   7   12.18    1.31
   9   1  -7   14.68    1.33
  -9   1   7   13.64    1.18
   9   1  -7   13.35    1.23
  -8  -1   7    5.09    0.56
  -8  -1   7    3.73    0.60
  -8  -1   7    4.24    0.68
   8  -1  -7    5.27    0.59
   8  -1  -7    5.37    0.69
  -8  -1   7    4.54    0.56
   8  -1  -7    5.18    0.54
   8   1  -7    4.86    0.64
  -8   1   7    5.79    0.63
  -8   1   7    5.20    0.59
  -8   1   7    4.24    0.64
  -8   1   7    4.96    0.64
   8   1  -7    5.26    0.60
  -7  -1   7   41.52    3.57
   7  -1  -7   46.96    3.18
  -7  -1   7   40.26    3.12
   7  -1  -7   44.58    3.12
  -7  -1   7   44.01    3.18
   7  -1  -7   51.48    3.21
  -7  -1   7   47.86    3.35
   7  -1  -7   50.24    3.36
   7   1  -7   44.77    3.32
  -7   1   7   38.73    3.55
  -7   1   7   49.01    3.33
  -7   1   7   43.59    3.22
   7   1  -7   45.85    3.22
   6  -1  -7    2.80    0.45
   6  -1  -7    4.27    0.46
  -6  -1   7    4.04    0.46
  -6  -1   7    4.62    0.47
  -6  -1   7    4.84    0.57
  -6  -1   7    3.57    0.41
  -6  -1   7    2.64    0.45
   6  -1  -7    4.05    0.43
   6  -1  -7    3.83    0.49
  -6   1   7    3.82    0.47
   6   1  -7    4.07    0.51
  -6   1   7    3.84    0.51
  -6   1   7    4.25    0.51
   6   1  -7    2.86    0.44
  -5  -1   7  114.93    8.17
  -5  -1   7  139.67    8.63
  -5  -1   7  100.24    8.51
  -5  -1   7  124.75    8.30
  -5  -1   7  114.24    8.54
   5  -1  -7  118.29    8.09
   5  -1  -7  125.04    8.62
  -5  -1   7  112.21    9.22
   5  -1  -7  118.14    8.51
  -5  -1   7  121.74    8.30
   5  -1  -7  122.57    8.30
  -5  -1   7  116.47    8.09
   5  -1  -7  127.06    8.18
  -5   1   7  127.59    8.54
   5   1  -7  121.21    8.32
  -5   1   7  122.62    8.33
  -5   1   7  110.80    9.20
   5   1  -7  136.81    8.63
   5   1  -7  122.46    8.52
   4  -1  -7   26.68    2.04
  -4  -1   7   24.85    2.06
  -4  -1   7   28.09    1.95
  -4  -1   7   30.14    1.99
  -4  -1   7   29.91    2.00
  -4  -1   7   29.50    2.09
   4  -1  -7   26.11    1.98
   4  -1  -7   28.27    1.95
   4  -1  -7   28.28    1.97
   4  -1  -7   27.60    2.03
  -4  -1   7   27.43    2.06
   4  -1  -7   26.84    2.08
  -4  -1   7   26.65    2.09
  -4  -1   7   26.76    2.23
  -4   1   7   29.38    2.07
   4   1  -7   27.38    1.95
   4   1  -7   27.49    2.01
  -4   1   7   28.81    2.00
  -4   1   7   29.24    2.09
  -4   1   7   32.08    2.22
   4   1  -7   27.28    2.08
   4   1  -7   26.81    2.06
  -3  -1   7   32.66    2.22
  -3  -1   7   29.17    2.07
   3  -1  -7   31.54    2.07
  -3  -1   7   32.66    2.37
   3  -1  -7   28.14    2.14
  -3  -1   7   28.17    2.19
   3  -1  -7   29.88    2.07
  -3  -1   7   32.03    2.11
  -3  -1   7   29.39    2.08
   3  -1  -7   28.41    2.10
  -3  -1   7   31.98    2.10
   3  -1  -7   28.83    2.10
   3  -1  -7   29.73    2.21
   3  -1  -7   31.20    2.17
  -3  -1   7   30.44    2.18
  -3   1   7   30.65    2.09
  -3   1   7   31.17    2.21
  -3   1   7   28.59    2.21
  -3   1   7   28.03    2.18
   3   1  -7   31.05    2.19
   3   1  -7   29.41    2.14
  -3   1   7   27.23    2.12
  -3   1   7   28.21    2.34
  -3   1   7   29.56    2.07
   3   1  -7   29.51    2.21
   3   1  -7   32.47    2.08
   3   1  -7   30.07    2.09
   2  -1  -7  110.09    6.98
   2  -1  -7   95.59    7.33
   2  -1  -7  107.59    7.16
  -2  -1   7   89.77    7.95
  -2  -1   7  103.51    7.17
  -2  -1   7   99.78    7.02
   2  -1  -7  106.12    7.05
  -2  -1   7  108.48    7.37
  -2  -1   7  109.62    6.99
  -2  -1   7  107.45    7.05
   2  -1  -7  107.15    6.99
  -2  -1   7  108.81    7.35
  -2  -1   7   95.97    6.98
   2  -1  -7  112.06    7.35
   2  -1  -7  115.77    7.44
   2   1  -7   88.50    7.18
   2   1  -7  112.18    7.00
  -2   1   7  101.84    7.04
  -2   1   7  107.81    7.44
  -2   1   7  111.60    7.37
   2   1  -7  102.51    7.36
  -2   1   7   99.63    6.99
  -2   1   7  105.52    7.93
   2   1  -7  106.01    7.05
  -2   1   7  104.41    7.19
   2   1  -7   99.45    7.35
   1  -1  -7   10.46    0.78
   1  -1  -7   11.18    0.77
  -1  -1   7    9.57    0.76
  -1  -1   7    9.38    0.81
   1  -1  -7    9.24    0.79
   1  -1  -7   10.44    0.81
   1  -1  -7    9.90    0.79
   1  -1  -7   10.11    0.85
  -1  -1   7   11.00    0.79
   1  -1  -7   12.15    0.88
  -1  -1   7   10.19    0.85
  -1  -1   7    8.51    0.88
  -1  -1   7   10.21    0.83
  -1  -1   7   10.32    0.78
   1  -1  -7   10.68    0.83
  -1  -1   7   11.88    0.79
  -1  -1   7    8.61    0.84
   1   1  -7    9.76    0.85
   1   1  -7   10.91    0.87
  -1   1   7    9.84    0.84
  -1   1   7   10.70    0.79
  -1   1   7   11.38    0.82
  -1   1   7   10.83    0.84
   1   1  -7   10.62    0.79
  -1   1   7   10.86    0.78
  -1   1   7   10.83    0.87
   1   1  -7   10.80    0.80
   1   1  -7   10.31    0.82
   0  -1   7  227.61   14.66
   0  -1   7  235.71   15.45
   0  -1  -7  219.72   14.77
   0  -1  -7  256.20   15.44
   0  -1   7  209.53   14.72
   0  -1   7  231.75   16.69
   0  -1  -7  206.01   14.66
   0  -1   7  248.79   15.43
   0  -1   7  208.48   14.66
   0  -1   7  188.07   15.43
   0  -1   7  216.64   15.58
   0  -1  -7  203.70   15.05
   0  -1  -7  186.19   15.57
   0  -1  -7  226.24   14.66
   0  -1   7  217.96   15.05
   0   1  -7  192.32   15.57
   0   1   7  213.49   15.42
   0   1   7  195.50   15.07
   0   1   7  232.65   15.59
   0   1   7  221.74   16.65
   0   1   7  221.34   14.78
   0   1  -7  234.03   14.77
   0   1  -7  231.74   14.67
   0   1   7  234.07   14.68
   0   1  -7  217.38   15.07
   0   1  -7  250.35   15.44
  -1  -1  -7   35.86    2.76
   1  -1   7   39.67    2.86
   1  -1   7   48.00    2.91
   1  -1   7   39.67    3.14
   1  -1   7   43.01    2.76
  -1  -1  -7   39.62    2.93
  -1  -1  -7   41.67    2.89
   1  -1   7   35.78    2.76
   1  -1   7   35.89    2.79
   1  -1   7   41.90    2.73
   1  -1   7   37.58    2.73
  -1  -1  -7   37.98    2.73
   1  -1   7   38.89    2.91
   1  -1   7   41.81    2.90
  -1  -1  -7   38.65    2.79
  -1  -1  -7   39.05    2.73
   1   1   7   39.52    2.81
  -1   1  -7   40.25    2.75
  -1   1  -7   40.77    2.93
   1   1   7   42.58    2.74
   1   1   7   42.03    2.77
   1   1   7   40.66    3.10
  -1   1  -7   40.06    2.81
   1   1   7   38.28    2.89
  -1   1  -7   43.84    2.77
   1   1   7   42.86    2.94
  -1   1  -7   41.63    2.90
  -2  -1  -7   53.31    3.52
   2  -1   7   52.98    3.41
  -2  -1  -7   50.34    3.54
   2  -1   7   52.34    3.54
   2  -1   7   47.33    3.69
   2  -1   7   47.12    3.50
  -2  -1  -7   45.28    3.35
  -2  -1  -7   47.14    3.31
  -2  -1  -7   51.55    3.40
  -2  -1  -7   41.22    3.49
   2  -1   7   53.63    3.36
  -2  -1  -7   53.68    3.31
   2  -1   7   53.76    3.36
  -2  -1  -7   45.80    3.35
   2  -1   7   47.37    3.31
  -2   1  -7   44.05    3.32
   2   1   7   44.35    3.32
  -2   1  -7   47.71    3.40
   2   1   7   51.25    3.54
   2   1   7   47.13    3.49
   2   1   7   51.66    3.41
  -2   1  -7   46.67    3.49
  -2   1  -7   51.24    3.55
   2   1   7   50.12    3.36
  -2   1  -7   48.34    3.35
  -3  -1  -7  151.35   10.01
  -3  -1  -7  140.13    9.77
   3  -1   7  145.62   10.58
  -3  -1  -7  149.06    9.59
  -3  -1  -7  146.01   10.02
   3  -1   7  138.04    9.77
   3  -1   7  147.47    9.51
  -3  -1  -7  160.68   10.12
   3  -1   7  145.86   10.02
   3  -1   7  142.72   10.11
   3  -1   7  133.51    9.56
  -3  -1  -7  144.13    9.51
   3  -1   7  139.02    9.59
   3   1   7  139.82    9.77
  -3   1  -7  134.05    9.77
   3   1   7  149.28   10.60
  -3   1  -7  133.73    9.53
   3   1   7  153.62   10.01
   3   1   7  149.96    9.53
  -3   1  -7  123.92    9.58
   3   1   7  133.10   10.11
  -3   1  -7  139.64   10.01
  -3   1  -7  141.34   10.12
   3   1   7  136.41    9.59
  -4  -1  -7   18.77    1.38
   4  -1   7   18.90    1.39
  -4  -1  -7   19.36    1.43
  -4  -1  -7   18.46    1.43
   4  -1   7   18.58    1.37
  -4  -1  -7   18.66    1.45
  -4  -1  -7   20.12    1.35
   4  -1   7   19.14    1.34
  -4  -1  -7   18.37    1.38
   4  -1   7   22.15    1.44
   4  -1   7   20.28    1.45
   4  -1   7   17.53    1.49
   4   1   7   16.55    1.43
   4   1   7   18.34    1.35
  -4   1  -7   17.72    1.44
   4   1   7   21.01    1.44
   4   1   7   18.69    1.37
   4   1   7   16.03    1.50
  -4   1  -7   16.96    1.44
  -4   1  -7   18.78    1.38
  -5  -1  -7  127.97    8.42
  -5  -1  -7  125.61    8.87
   5  -1   7  132.91    8.89
   5  -1   7  128.71    8.41
   5  -1   7  129.27    8.96
   5  -1   7  119.81    8.64
  -5  -1  -7  128.93    8.96
   5  -1   7  119.70    8.49
  -5  -1  -7  124.30    8.64
   5  -1   7  115.45    9.37
  -5  -1  -7  120.83    8.86
  -5   1  -7  118.01    8.65
   5   1   7  134.33    9.38
   5   1   7  138.65    8.65
   5   1   7  134.47    8.88
  -5   1  -7  111.47    8.86
  -6  -1  -7    0.36    0.29
   6  -1   7    0.67    0.30
   6  -1   7    0.64    0.29
   6  -1   7    0.32    0.27
  -6  -1  -7    0.56    0.29
   6  -1   7    0.35    0.26
  -6  -1  -7    0.34    0.26
   6  -1   7    0.50    0.26
  -6  -1  -7    0.92    0.33
   6   1   7    0.49    0.31
   6   1   7    0.54    0.32
  -6   1  -7    1.07    0.35
   6   1   7    0.42    0.25
  -6   1  -7    0.65    0.28
   7  -1   7   28.37    1.95
   7  -1   7   25.45    2.05
   7  -1   7   26.14    1.89
  -7  -1  -7   22.89    2.05
   7  -1   7   28.58    2.14
  -7  -1  -7   23.74    1.93
  -7  -1  -7   27.11    1.92
   7   1   7   27.29    2.16
   7   1   7   27.27    1.95
   7   1   7   27.60    2.06
  -7   1  -7   29.20    2.08
  -7   1  -7   24.77    1.96
  -8  -1  -7   39.73    2.76
  -8  -1  -7   37.20    2.81
   8  -1   7   37.66    2.96
   8  -1   7   39.02    2.74
   8  -1   7   39.06    3.09
   8  -1   7   37.98    2.81
  -8  -1  -7   35.14    2.97
   8   1   7   38.26    2.82
  -8   1  -7   40.41    2.85
   8   1   7   44.88    2.98
  -8   1  -7   44.39    2.99
   8   1   7   39.00    3.09
  -9  -1  -7    0.65    0.49
  -9  -1  -7    1.99    0.47
   9  -1   7    1.02    0.34
  -9  -1  -7    0.60    0.35
   9  -1   7    1.09    0.46
  -9  -1  -7    0.87    0.38
   9  -1   7    0.80    0.34
   9  -1   7    1.14    0.46
  -9   1  -7    1.06    0.39
  -9   1  -7   -0.01    0.47
   9   1   7    0.94    0.35
   9   1   7    0.45    0.43
  -9  -2   7    2.56    0.65
  -9  -2   7    3.41    0.53
  -9  -2   7    4.09    0.62
   9  -2  -7    3.56    0.61
   9   2  -7    3.56    0.66
  -9   2   7    3.03    0.54
  -9   2   7    3.63    0.56
   9   2  -7    3.24    0.55
  -9   2   7    4.09    0.65
   8  -2  -7   24.70    1.92
   8  -2  -7   22.95    1.85
  -8  -2   7   24.06    1.76
  -8  -2   7   23.93    2.07
  -8  -2   7   21.21    1.89
  -8   2   7   22.66    1.91
   8   2  -7   21.56    1.92
  -8   2   7   27.38    1.85
   8   2  -7   25.82    1.85
  -8   2   7   23.90    2.02
  -7  -2   7    3.98    0.68
  -7  -2   7    7.13    0.63
  -7  -2   7    7.71    0.73
  -7  -2   7    6.57    0.67
   7  -2  -7    5.60    0.67
  -7  -2   7    6.07    0.69
   7  -2  -7    6.85    0.71
   7  -2  -7    5.51    0.68
   7   2  -7    6.27    0.66
   7   2  -7    6.56    0.71
  -7   2   7    4.98    0.68
  -7   2   7    6.31    0.64
  -7   2   7    5.33    0.68
  -6  -2   7   70.47    4.89
   6  -2  -7   70.25    4.88
   6  -2  -7   69.69    4.92
  -6  -2   7   63.95    4.59
  -6  -2   7   72.35    4.67
  -6  -2   7   59.09    4.90
   6  -2  -7   68.79    4.68
  -6  -2   7   59.64    5.27
  -6   2   7   58.17    5.22
  -6   2   7   74.93    4.89
   6   2  -7   79.06    4.77
  -6   2   7   68.96    4.75
   6   2  -7   69.06    4.87
  -5  -2   7   10.85    1.04
  -5  -2   7   11.71    0.96
  -5  -2   7   13.92    1.07
   5  -2  -7   12.57    1.01
  -5  -2   7   12.99    1.02
   5  -2  -7   13.60    1.03
  -5  -2   7   11.69    1.13
   5  -2  -7   13.65    1.06
  -5  -2   7   11.22    1.02
   5   2  -7   13.91    1.03
  -5   2   7   11.51    1.05
  -5   2   7   11.05    0.99
   5   2  -7   12.66    1.05
  -5   2   7   12.64    1.08
   4  -2  -7   50.92    3.48
  -4  -2   7   54.50    3.93
  -4  -2   7   49.98    3.48
  -4  -2   7   47.48    3.40
  -4  -2   7   47.84    3.62
   4  -2  -7   47.98    3.65
  -4  -2   7   43.24    3.64
   4  -2  -7   50.57    3.60
  -4  -2   7   58.78    3.42
   4   2  -7   52.41    3.54
  -4   2   7   46.43    3.62
   4   2  -7   50.03    3.61
  -4   2   7   54.77    3.53
   3  -2  -7   24.62    1.83
   3  -2  -7   24.32    1.79
  -3  -2   7   26.88    2.03
  -3  -2   7   24.16    1.78
   3  -2  -7   21.04    1.86
  -3  -2   7   27.84    1.72
  -3  -2   7   25.32    1.88
  -3  -2   7   26.15    1.87
  -3  -2   7   24.73    1.73
   3   2  -7   22.73    1.85
  -3   2   7   29.09    1.97
   3   2  -7   24.15    1.82
  -3   2   7   22.30    1.81
  -3   2   7   28.39    1.87
   2  -2  -7   11.79    0.92
  -2  -2   7   11.30    0.91
   2  -2  -7   11.61    0.85
   2  -2  -7   10.42    0.87
  -2  -2   7   11.44    0.87
  -2  -2   7   12.63    0.85
  -2  -2   7   10.03    0.98
   2  -2  -7   10.37    0.85
  -2  -2   7    8.92    0.89
   2   2  -7   11.05    0.92
   2   2  -7   11.61    0.88
  -2   2   7   10.88    0.87
  -2   2   7   11.21    0.90
  -2   2   7   12.63    0.91
  -1  -2   7   98.40    7.27
   1  -2  -7  114.58    7.33
  -1  -2   7   98.63    7.33
  -1  -2   7  106.24    7.86
   1  -2  -7  102.35    6.93
   1  -2  -7  105.91    7.25
  -1  -2   7   95.79    6.91
   1  -2  -7   91.86    6.94
  -1  -2   7  100.15    6.96
  -1  -2   7  102.50    7.26
  -1   2   7  106.83    7.09
   1   2  -7   90.33    7.32
  -1   2   7  114.27    7.80
   1   2  -7  110.89    7.09
  -1   2   7  103.71    7.26
  -1   2   7  119.16    7.34
   1   2  -7   88.42    7.25
   0  -2   7    1.34    0.26
   0  -2   7    1.58    0.32
   0  -2   7    1.33    0.21
   0  -2  -7    1.25    0.26
   0  -2   7    1.17    0.25
   0  -2  -7    1.26    0.23
   0  -2   7    1.65    0.23
   0  -2  -7    1.22    0.25
   0  -2   7    1.42    0.25
   0   2   7    0.81    0.24
   0   2  -7    1.51    0.27
   0   2  -7    1.31    0.26
   0   2   7    1.75    0.25
   0   2   7    0.95    0.22
   0   2  -7    1.29    0.22
   1  -2   7  139.95    9.52
   1  -2   7  118.49    9.08
  -1  -2  -7  129.12    9.04
   1  -2   7  149.93   10.02
   1  -2   7  135.54    9.05
  -1  -2  -7  126.43    9.49
  -1  -2  -7  148.11    9.09
   1  -2   7  150.40    9.57
   1  -2   7  122.39    9.48
   1  -2   7  139.26   10.29
  -1  -2  -7  140.53    9.57
  -1   2  -7  138.31    9.25
  -1   2  -7  134.48    9.49
   1   2   7  142.51    9.25
   1   2   7  120.11    9.47
   1   2   7  122.72    9.59
  -2  -2  -7   33.53    2.66
   2  -2   7   38.25    2.66
  -2  -2  -7   36.41    2.54
  -2  -2  -7   39.07    2.54
   2  -2   7   35.30    2.90
   2  -2   7   39.45    2.67
   2  -2   7   40.98    2.79
  -2  -2  -7   33.25    2.64
   2  -2   7   37.73    2.54
   2  -2   7   33.64    2.54
  -2   2  -7   34.99    2.64
   2   2   7   39.43    2.65
   2   2   7   35.20    2.56
  -2   2  -7   35.74    2.56
   3  -2   7    9.31    0.76
   3  -2   7    8.03    0.72
   3  -2   7    6.97    0.69
  -3  -2  -7    8.28    0.71
  -3  -2  -7    8.13    0.67
  -3  -2  -7    8.09    0.63
  -3  -2  -7    8.66    0.73
   3  -2   7    7.52    0.71
   3  -2   7    8.57    0.69
  -3  -2  -7    8.36    0.70
  -3   2  -7    8.20    0.73
   3   2   7    8.18    0.71
   3   2   7    7.68    0.67
  -3   2  -7    8.19    0.67
   3   2   7    7.49    0.75
   4  -2   7   57.70    4.01
  -4  -2  -7   58.97    4.28
   4  -2   7   61.58    4.34
   4  -2   7   60.92    4.10
   4  -2   7   57.36    4.51
  -4  -2  -7   62.61    4.11
   4  -2   7   61.34    4.11
  -4  -2  -7   57.95    4.32
   4  -2   7   54.39    4.31
  -4  -2  -7   58.13    4.02
   4   2   7   67.44    4.55
  -4   2  -7   61.97    4.16
   4   2   7   57.45    4.16
   4   2   7   61.15    4.29
  -4   2  -7   60.31    4.29
   5  -2   7    7.95    0.76
   5  -2   7    6.74    0.72
  -5  -2  -7    9.04    0.78
   5  -2   7    6.54    0.60
  -5  -2  -7    7.82    0.73
  -5  -2  -7    7.55    0.63
   5  -2   7    8.53    0.73
  -5  -2  -7    7.53    0.73
   5   2   7    7.80    0.69
   5   2   7    8.50    0.78
  -5   2  -7    6.40    0.71
  -5   2  -7    7.75    0.69
   5   2   7    7.52    0.75
  -6  -2  -7   59.97    4.12
   6  -2   7   55.86    3.80
   6  -2   7   48.54    3.89
  -6  -2  -7   56.64    3.81
   6  -2   7   52.62    4.10
  -6  -2  -7   56.85    3.90
  -6  -2  -7   52.79    4.07
   6  -2   7   54.90    4.28
  -6   2  -7   61.59    3.96
   6   2   7   56.73    3.96
   6   2   7   61.89    4.32
  -6   2  -7   60.83    4.10
   6   2   7   53.43    4.08
  -7  -2  -7   17.98    1.55
  -7  -2  -7   17.46    1.37
  -7  -2  -7   17.49    1.45
   7  -2   7   20.67    1.50
  -7  -2  -7   16.26    1.27
   7  -2   7   20.53    1.39
   7  -2   7   16.86    1.41
   7   2   7   14.83    1.42
   7   2   7   13.87    1.47
  -7   2  -7   17.60    1.37
  -7   2  -7   15.55    1.45
   7   2   7   17.91    1.36
  -8  -2  -7   13.92    1.36
  -8  -2  -7   12.91    1.08
   8  -2   7   15.42    1.30
  -8  -2  -7   14.98    1.29
   8  -2   7   13.76    1.24
   8   2   7   12.87    1.24
  -8   2  -7   15.90    1.21
   8   2   7   12.85    1.16
  -8   2  -7   12.74    1.29
   8   2   7   12.86    1.27
  -9  -2  -7   13.88    1.38
  -9  -2  -7   10.59    1.01
   9  -2   7   14.49    1.25
  -9  -2  -7   12.03    1.24
   9  -2   7   12.00    1.18
  -9   2  -7   12.80    1.28
   9   2   7   11.58    1.22
   9   2   7   11.46    1.22
  -9   2  -7   13.41    1.16
   9   2   7   12.02    1.11
   8  -3  -7   -0.28    0.41
   8  -3  -7    0.35    0.42
  -8  -3   7   -0.32    0.35
  -8  -3   7   -0.02    0.45
  -8  -3   7   -0.14    0.45
  -8  -3   7   -0.51    0.35
   8   3  -7    0.75    0.39
   8   3  -7    0.20    0.44
  -8   3   7   -0.29    0.41
  -7  -3   7    0.07    0.33
   7  -3  -7    0.14    0.38
   7  -3  -7    0.20    0.36
  -7  -3   7    0.74    0.41
  -7  -3   7    0.18    0.34
   7  -3  -7    0.43    0.38
  -7  -3   7    0.10    0.35
  -7  -3   7    0.42    0.31
   7   3  -7    0.84    0.34
   7   3  -7   -0.07    0.40
  -7   3   7    0.34    0.36
   6  -3  -7    5.89    0.64
  -6  -3   7    6.18    0.67
   6  -3  -7    5.05    0.62
   6  -3  -7    5.43    0.63
  -6  -3   7    5.91    0.66
  -6  -3   7    4.92    0.60
  -6  -3   7    5.47    0.61
  -6  -3   7    6.68    0.77
   6   3  -7    5.73    0.63
  -6   3   7    5.64    0.65
   6   3  -7    5.48    0.64
  -5  -3   7   15.52    1.28
   5  -3  -7   16.80    1.24
   5  -3  -7   15.81    1.27
  -5  -3   7   15.68    1.30
  -5  -3   7   16.94    1.40
   5  -3  -7   15.38    1.28
  -5  -3   7   13.63    1.23
  -5   3   7   15.53    1.29
   5   3  -7   16.32    1.29
  -4  -3   7    0.76    0.30
  -4  -3   7    0.68    0.30
   4  -3  -7    0.87    0.26
  -4  -3   7    0.87    0.28
  -4  -3   7    0.52    0.23
   4  -3  -7    0.37    0.27
   4  -3  -7    0.74    0.28
   4   3  -7    0.96    0.28
  -4   3   7    0.90    0.28
  -3  -3   7   26.93    2.47
  -3  -3   7   26.72    2.27
   3  -3  -7   31.51    2.27
  -3  -3   7   33.75    2.18
   3  -3  -7   34.89    2.30
  -3  -3   7   31.41    2.28
   3  -3  -7   29.67    2.17
  -3   3   7   32.60    2.27
   3   3  -7   30.41    2.26
  -2  -3   7    0.76    0.25
  -2  -3   7    1.20    0.32
  -2  -3   7    0.84    0.26
  -2  -3   7    0.60    0.22
  -2  -3   7    0.64    0.23
  -2  -3   7    0.69    0.25
   2  -3  -7    0.28    0.23
   2  -3  -7    0.59    0.23
   2  -3  -7    0.63    0.23
   2  -3  -7    0.46    0.24
   2   3  -7    0.69    0.27
  -2   3   7    0.75    0.24
   1  -3  -7   12.97    0.93
   1  -3  -7   12.92    0.95
  -1  -3   7   12.75    1.09
  -1  -3   7   12.06    0.95
  -1  -3   7   10.04    0.95
  -1  -3   7   11.98    0.89
  -1  -3   7   12.85    0.96
  -1  -3   7   11.53    0.93
   1  -3  -7   10.85    0.95
  -1  -3   7   13.39    0.98
   1  -3  -7   10.52    0.90
   1   3  -7    9.97    0.97
  -1   3   7   11.76    0.96
   0  -3   7   19.88    1.46
   0  -3   7   20.87    1.69
   0  -3  -7   18.48    1.45
   0  -3   7   19.60    1.50
   0  -3  -7   22.68    1.53
   0  -3   7   19.05    1.51
   0  -3   7   19.60    1.52
   0  -3  -7   20.51    1.51
   0  -3   7   21.11    1.55
   0  -3  -7   20.69    1.45
   0  -3  -7   22.87    1.52
   0  -3   7   19.34    1.43
   0   3  -7   18.41    1.52
   0   3   7   18.83    1.51
   1  -3   7    1.94    0.39
  -1  -3  -7    1.27    0.27
   1  -3   7    1.29    0.24
  -1  -3  -7    1.19    0.24
   1  -3   7    1.28    0.25
   1  -3   7    1.15    0.26
   1  -3   7    1.20    0.28
  -1  -3  -7    1.44    0.28
  -1  -3  -7    0.92    0.23
   1  -3   7    1.54    0.23
  -1  -3  -7    1.49    0.27
  -1   3  -7    1.22    0.29
   1   3   7    0.89    0.25
   2  -3   7   23.44    1.90
  -2  -3  -7   20.71    1.64
   2  -3   7   21.38    1.74
  -2  -3  -7   21.37    1.68
   2  -3   7   25.29    1.62
  -2  -3  -7   24.25    1.69
  -2  -3  -7   25.59    1.63
   2  -3   7   22.16    1.63
   2  -3   7   22.70    1.73
  -2  -3  -7   21.98    1.62
   2  -3   7   21.01    1.67
   2   3   7   22.77    1.69
  -2   3  -7   21.94    1.69
   3  -3   7   14.05    1.11
   3  -3   7   12.25    1.01
   3  -3   7   12.34    1.01
  -3  -3  -7   14.07    1.06
  -3  -3  -7   13.01    1.01
  -3  -3  -7   12.74    1.04
  -3  -3  -7   14.44    1.02
   3  -3   7   11.76    1.03
  -3   3  -7   12.35    1.06
   3   3   7   11.97    1.10
   3   3   7   14.73    1.07
   4  -3   7    6.79    0.54
   4  -3   7    5.69    0.58
  -4  -3  -7    6.12    0.65
   4  -3   7    5.43    0.61
  -4  -3  -7    6.56    0.60
  -4  -3  -7    5.79    0.60
   4  -3   7    5.91    0.59
  -4  -3  -7    5.73    0.58
  -4  -3  -7    6.70    0.64
   4  -3   7    6.46    0.70
   4   3   7    5.96    0.65
   4   3   7    5.21    0.59
  -4   3  -7    6.67    0.63
   5  -3   7    7.66    0.79
  -5  -3  -7    6.93    0.72
  -5  -3  -7    7.61    0.72
   5  -3   7    7.48    0.71
  -5  -3  -7    7.25    0.74
  -5  -3  -7    5.64    0.64
   5  -3   7    5.93    0.65
   5   3   7    5.87    0.67
  -5   3  -7    5.85    0.67
   5   3   7    7.25    0.73
  -6  -3  -7    0.16    0.32
  -6  -3  -7    0.17    0.35
   6  -3   7    0.49    0.30
   6  -3   7    0.85    0.46
   6  -3   7    0.53    0.32
  -6  -3  -7   -0.09    0.32
  -6  -3  -7    0.15    0.30
   6   3   7    0.16    0.31
  -6   3  -7    0.44    0.38
   6   3   7    0.79    0.36
   6   3   7    0.41    0.29
  -7  -3  -7    1.40    0.47
  -7  -3  -7    0.68    0.40
  -7  -3  -7    1.21    0.39
   7  -3   7    0.76    0.36
   7  -3   7    1.09    0.55
   7  -3   7    0.06    0.33
  -7  -3  -7    0.90    0.38
   7   3   7    0.82    0.39
   7   3   7    1.23    0.42
   7   3   7    0.86    0.35
  -7   3  -7    0.16    0.40
   8  -3   7    5.60    0.68
  -8  -3  -7    5.49    0.68
   8  -3   7    5.86    0.69
   8  -3   7    6.54    0.92
  -8  -3  -7    5.38    0.67
  -8  -3  -7    6.75    0.86
   8   3   7    5.55    0.76
  -8   3  -7    5.15    0.61
   8   3   7    5.48    0.62
   8   3   7    5.02    0.70
  -8   3  -7    4.86    0.72
  -8  -4   7   21.46    1.80
  -8  -4   7   22.64    1.73
   8  -4  -7   22.26    1.76
   8  -4  -7   19.27    1.74
  -8  -4   7   21.50    1.95
  -8  -4   7   21.82    1.83
  -8   4   7   22.44    1.84
   8   4  -7   21.25    1.85
  -7  -4   7    0.61    0.43
  -7  -4   7    0.54    0.37
   7  -4  -7    0.16    0.42
  -7  -4   7    0.50    0.41
   7  -4  -7    0.68    0.39
   7  -4  -7    1.04    0.46
  -7  -4   7    0.80    0.47
   7   4  -7    0.28    0.47
  -7   4   7    0.68    0.42
  -6  -4   7   53.71    3.58
   6  -4  -7   45.71    3.54
  -6  -4   7   46.31    3.38
   6  -4  -7   46.84    3.47
  -6  -4   7   44.98    3.84
  -6  -4   7   49.83    3.56
   6  -4  -7   49.90    3.60
   6  -4  -7   50.01    3.41
   6   4  -7   44.67    3.53
  -6   4   7   52.17    3.56
   5  -4  -7   12.94    1.26
   5  -4  -7   16.77    1.31
   5  -4  -7   15.77    1.24
   5  -4  -7   18.30    1.36
  -5  -4   7   18.05    1.29
  -5  -4   7   15.04    1.23
  -5  -4   7   15.00    1.31
  -5  -4   7   14.73    1.41
  -5   4   7   12.67    1.27
   5   4  -7   15.35    1.27
   4  -4  -7   42.39    2.99
  -4  -4   7   34.83    2.96
  -4  -4   7   34.45    3.22
   4  -4  -7   42.64    2.93
  -4  -4   7   45.49    2.97
  -4  -4   7   36.76    2.83
   4  -4  -7   41.55    2.96
   4  -4  -7   42.68    2.83
  -4   4   7   43.15    2.96
   4   4  -7   40.51    2.94
  -3  -4   7   64.25    4.51
   3  -4  -7   69.99    4.65
   3  -4  -7   67.17    4.51
  -3  -4   7   69.39    4.72
   3  -4  -7   65.28    4.74
   3  -4  -7   67.43    4.73
  -3  -4   7   64.00    5.13
  -3  -4   7   59.97    4.73
   3   4  -7   70.47    4.71
  -3   4   7   62.08    4.70
   2  -4  -7    7.93    0.76
  -2  -4   7    7.98    0.93
  -2  -4   7    8.57    0.79
  -2  -4   7    8.86    0.77
  -2  -4   7   10.46    0.76
  -2  -4   7    9.98    0.89
   2  -4  -7    8.76    0.87
   2  -4  -7    8.93    0.77
   2  -4  -7    9.26    0.85
  -2  -4   7    9.41    0.82
   2   4  -7    9.88    0.85
  -2   4   7    8.63    0.81
  -1  -4   7   69.51    4.84
  -1  -4   7   62.66    5.54
   1  -4  -7   80.23    5.13
  -1  -4   7   61.49    5.12
  -1  -4   7   67.47    4.87
   1  -4  -7   80.28    4.87
   1  -4  -7   74.37    5.09
  -1  -4   7   74.85    5.09
   1  -4  -7   69.46    5.01
   1  -4  -7   72.36    4.86
   1   4  -7   71.16    5.10
  -1   4   7   73.24    5.09
   0  -4   7    5.80    0.64
   0  -4  -7    6.95    0.67
   0  -4   7    7.97    0.63
   0  -4  -7    6.75    0.66
   0  -4   7    7.39    0.65
   0  -4  -7    8.19    0.77
   0  -4  -7    7.10    0.74
   0  -4   7    8.41    0.78
   0  -4  -7    7.39    0.62
   0  -4   7    7.92    0.70
   0  -4   7    7.79    0.85
   0   4  -7    7.74    0.74
   0   4   7    7.85    0.71
   1  -4   7   43.25    3.06
   1  -4   7   42.90    3.14
  -1  -4  -7   42.81    3.08
   1  -4   7   41.24    2.94
   1  -4   7   43.24    3.08
   1  -4   7   41.80    2.96
  -1  -4  -7   36.94    2.94
   1  -4   7   45.90    3.42
  -1  -4  -7   46.11    3.06
  -1  -4  -7   45.80    2.94
  -1  -4  -7   44.04    3.04
   1   4   7   39.74    3.08
  -1   4  -7   41.27    3.09
  -2  -4  -7   61.73    4.26
  -2  -4  -7   60.14    4.36
  -2  -4  -7   59.07    4.26
   2  -4   7   60.90    4.88
  -2  -4  -7   62.64    4.44
   2  -4   7   66.00    4.54
   2  -4   7   59.00    4.25
   2  -4   7   60.01    4.44
  -2  -4  -7   63.29    4.45
   2  -4   7   57.85    4.26
   2   4   7   70.56    4.45
  -2   4  -7   66.99    4.45
  -3  -4  -7   30.93    2.19
  -3  -4  -7   32.42    2.21
   3  -4   7   26.08    2.11
   3  -4   7   29.18    2.11
   3  -4   7   31.07    1.94
  -3  -4  -7   29.07    2.16
  -3  -4  -7   28.41    2.11
   3  -4   7   30.38    2.30
   3  -4   7   28.59    2.18
   3   4   7   30.27    2.34
   3   4   7   29.19    2.20
  -3   4  -7   31.75    2.21
   4  -4   7   56.69    3.90
   4  -4   7   57.70    3.55
  -4  -4  -7   54.45    4.07
  -4  -4  -7   55.95    3.90
   4  -4   7   58.90    4.17
  -4  -4  -7   54.64    3.96
   4  -4   7   58.94    3.91
  -4  -4  -7   51.39    4.06
   4  -4   7   57.84    4.07
   4   4   7   58.89    4.08
  -4   4  -7   56.30    4.07
   4   4   7   57.51    4.31
  -5  -4  -7    0.14    0.28
   5  -4   7   -0.09    0.27
   5  -4   7    0.33    0.44
   5  -4   7    0.24    0.31
   5  -4   7   -0.27    0.29
  -5  -4  -7    0.03    0.31
  -5  -4  -7   -0.06    0.32
   5  -4   7   -0.24    0.26
   5   4   7    0.13    0.33
  -5   4  -7    0.19    0.34
   5   4   7    0.06    0.33
  -6  -4  -7   33.84    2.42
   6  -4   7   33.33    2.42
  -6  -4  -7   36.08    2.52
   6  -4   7   35.62    2.66
  -6  -4  -7   30.64    2.49
   6  -4   7   31.63    2.49
  -6   4  -7   34.01    2.55
   6   4   7   30.86    2.53
   6   4   7   35.12    2.67
   7  -4   7    7.96    0.84
   7  -4   7    7.50    0.80
   7  -4   7    8.18    1.02
  -7  -4  -7    7.29    0.82
  -7  -4  -7    8.49    0.81
  -7  -4  -7    7.48    0.78
   7   4   7    7.53    0.87
  -7   4  -7    7.91    0.89
   7   4   7    8.17    0.92
  -7  -5   7   12.16    1.13
  -7  -5   7   12.98    1.30
   7  -5  -7    9.72    1.02
   7  -5  -7   10.36    1.08
  -7  -5   7   10.45    1.10
  -7  -5   7   11.67    1.12
  -7   5   7   11.89    1.13
   7   5  -7   12.25    1.21
  -6  -5   7    0.55    0.42
  -6  -5   7    1.48    0.53
   6  -5  -7    0.16    0.43
   6  -5  -7    0.79    0.37
   6  -5  -7    0.29    0.44
  -6  -5   7    0.11    0.37
  -6  -5   7    0.63    0.38
   6   5  -7    0.45    0.42
  -6   5   7    0.85    0.44
  -5  -5   7   17.49    1.33
   5  -5  -7   15.72    1.40
  -5  -5   7   17.94    1.59
  -5  -5   7   17.49    1.43
  -5  -5   7   16.17    1.36
   5  -5  -7   15.84    1.33
   5  -5  -7   15.68    1.47
   5   5  -7   16.72    1.37
  -5   5   7   15.35    1.40
   4  -5  -7   13.66    1.07
   4  -5  -7   12.93    1.21
   4  -5  -7   13.58    1.18
  -4  -5   7   12.27    1.08
  -4  -5   7   11.63    1.07
  -4  -5   7   11.71    1.26
  -4  -5   7   15.10    1.16
   4   5  -7   11.84    1.10
  -4   5   7   13.60    1.14
  -3  -5   7   12.72    1.07
   3  -5  -7   13.04    1.08
  -3  -5   7   13.04    1.05
   3  -5  -7   13.75    1.18
   3  -5  -7   13.01    1.21
  -3  -5   7   12.48    1.29
  -3  -5   7   14.34    1.14
  -3   5   7   12.95    1.10
   3   5  -7   13.04    1.11
  -2  -5   7    9.53    0.86
   2  -5  -7   10.09    1.02
  -2  -5   7   11.21    1.11
  -2  -5   7   11.63    1.14
  -2  -5   7   10.85    0.90
   2  -5  -7   11.22    0.90
  -2  -5   7   11.24    0.96
   2  -5  -7   11.45    1.04
  -2   5   7   10.03    0.94
   2   5  -7   10.72    0.94
   2   5  -7    9.78    0.95
   1  -5  -7    0.56    0.28
   1  -5  -7    0.75    0.40
  -1  -5   7    0.50    0.40
   1  -5  -7    0.26    0.36
  -1  -5   7    0.55    0.28
  -1  -5   7    0.39    0.25
  -1  -5   7    0.15    0.30
  -1  -5   7    0.42    0.40
   1  -5  -7    0.45    0.31
   1   5  -7    0.36    0.33
  -1   5   7    0.88    0.30
   0  -5   7   21.97    1.83
   0  -5  -7   24.21    1.80
   0  -5   7   24.46    1.70
   0  -5  -7   24.18    1.91
   0  -5   7   29.50    1.92
   0  -5  -7   23.36    1.80
   0  -5  -7   25.56    1.98
   0  -5   7   29.32    2.20
   0  -5   7   22.82    1.98
   0  -5   7   24.36    1.80
   0   5  -7   26.92    1.91
   0   5   7   27.20    1.90
  -1  -5  -7    9.13    0.80
   1  -5   7    9.38    0.83
   1  -5   7    8.83    0.82
   1  -5   7    7.79    0.89
  -1  -5  -7   10.00    0.93
   1  -5   7   10.27    1.04
   1  -5   7   10.31    0.81
  -1  -5  -7    6.99    0.83
   1  -5   7    9.75    0.81
   1   5   7    8.51    0.83
  -1   5  -7    8.56    0.86
  -2  -5  -7   24.29    1.81
   2  -5   7   25.06    1.74
   2  -5   7   20.35    2.02
  -2  -5  -7   22.93    1.73
   2  -5   7   22.73    1.74
   2  -5   7   21.48    1.61
   2  -5   7   23.38    1.93
  -2  -5  -7   22.44    1.81
   2   5   7   26.45    1.81
  -2   5  -7   27.27    1.82
  -3  -5  -7    1.93    0.40
   3  -5   7    3.34    0.60
  -3  -5  -7    2.71    0.43
  -3  -5  -7    2.78    0.41
  -3  -5  -7    2.37    0.41
   3  -5   7    2.10    0.40
   3  -5   7    2.96    0.41
   3  -5   7    2.16    0.43
   3   5   7    2.56    0.43
  -3   5  -7    2.35    0.42
   4  -5   7    1.61    0.58
   4  -5   7    2.01    0.41
  -4  -5  -7    1.97    0.41
   4  -5   7    2.13    0.40
  -4  -5  -7    1.77    0.40
   4  -5   7    2.06    0.41
  -4   5  -7    1.90    0.42
   4   5   7    2.26    0.44
  -5  -5  -7    7.22    0.73
  -5  -5  -7    6.62    0.73
   5  -5   7    8.35    0.71
   5  -5   7    7.49    0.69
   5  -5   7    7.55    0.96
  -5  -5  -7    7.17    0.77
   5  -5   7    6.95    0.76
   5  -5   7    7.59    0.76
  -5   5  -7    7.85    0.81
   5   5   7    8.90    0.83
  -6  -5  -7    4.30    0.63
   6  -5   7    5.13    0.52
  -6  -5  -7    4.22    0.53
   6  -5   7    4.23    0.82
   6  -5   7    4.36    0.60
  -6  -5  -7    4.53    0.60
   6   5   7    5.35    0.71
  -6   5  -7    5.15    0.68
   5  -6  -7   -0.14    0.42
   5  -6  -7   -0.85    0.49
  -5  -6   7   -0.58    0.43
  -5  -6   7   -0.07    0.55
  -5  -6   7    0.21    0.38
  -5  -6   7    0.95    0.36
  -5   6   7    0.61    0.49
   5   6  -7    0.07    0.40
  -4  -6   7    6.09    0.69
  -4  -6   7    6.38    0.91
  -4  -6   7    6.78    0.75
   4  -6  -7    6.56    0.85
  -4  -6   7    6.97    0.67
   4  -6  -7    6.87    0.70
   4  -6  -7    7.45    0.85
  -4   6   7    7.49    0.76
   4   6  -7    7.36    0.73
   3  -6  -7    4.37    0.64
  -3  -6   7    2.87    0.48
   3  -6  -7    3.56    0.63
  -3  -6   7    3.20    0.51
   3  -6  -7    3.63    0.48
  -3  -6   7    3.96    0.53
  -3  -6   7    3.98    0.52
  -3  -6   7    3.84    0.71
   3   6  -7    3.29    0.51
  -3   6   7    4.60    0.53
   2  -6  -7    0.40    0.48
  -2  -6   7    1.10    0.54
  -2  -6   7    0.98    0.37
  -2  -6   7    0.50    0.35
  -2  -6   7    0.65    0.36
   2  -6  -7    0.59    0.33
   2  -6  -7    0.06    0.43
  -2  -6   7   -0.31    0.49
  -2  -6   7    0.44    0.30
   2   6  -7    1.02    0.34
  -2   6   7    0.89    0.34
   1  -6  -7   10.83    0.90
  -1  -6   7    9.99    0.93
  -1  -6   7   11.92    1.20
  -1  -6   7   11.09    1.01
  -1  -6   7   10.63    0.90
   1  -6  -7   10.57    1.06
  -1  -6   7   10.71    0.93
  -1  -6   7   12.32    1.25
   1  -6  -7    8.01    0.96
   1   6  -7   10.38    0.99
  -1   6   7    9.73    0.95
   0  -6   7   -0.17    0.39
   0  -6  -7    0.22    0.52
   0  -6   7   -0.65    0.32
   0  -6  -7   -0.30    0.42
   0  -6   7    0.00    0.51
   0  -6   7    0.23    0.33
   0  -6   7   -0.53    0.31
   0  -6  -7   -0.55    0.30
   0  -6   7   -0.10    0.47
   0   6  -7    0.57    0.37
   0   6   7    0.12    0.35
   1  -6   7    5.37    0.64
   1  -6   7    7.10    0.90
   1  -6   7    4.93    0.63
   1  -6   7    6.48    0.66
   1  -6   7    5.36    0.81
  -1  -6  -7    6.35    0.76
   1  -6   7    4.84    0.60
  -1  -6  -7    6.18    0.60
   1   6   7    6.86    0.65
  -1   6  -7    6.37    0.67
  -2  -6  -7    2.48    0.51
   2  -6   7    1.52    0.61
  -2  -6  -7    2.38    0.40
  -2  -6  -7    1.39    0.42
   2  -6   7    1.80    0.45
   2  -6   7    2.30    0.63
   2  -6   7    2.05    0.48
   2  -6   7    1.57    0.40
  -2   6  -7    1.26    0.43
   2   6   7    2.80    0.45
   3  -6   7    6.86    0.91
   3  -6   7    7.33    0.71
   3  -6   7    6.64    0.70
  -3  -6  -7    7.27    0.69
   3  -6   7    7.86    0.73
  -3  -6  -7    6.60    0.71
  -3  -6  -7    7.43    0.78
   3   6   7    5.96    0.69
  -3   6  -7    6.23    0.72
  -4  -6  -7   11.17    1.10
   4  -6   7   11.77    1.10
   4  -6   7   12.59    1.06
  -4  -6  -7   12.30    1.11
   4  -6   7   14.07    1.11
  -4  -6  -7   13.14    1.15
   4  -6   7   12.37    1.32
   4   6   7   11.32    1.16
  -4   6  -7   12.42    1.15
  -5  -6  -7    1.09    0.46
   5  -6   7    1.90    0.46
   5  -6   7    0.87    0.46
  -5  -6  -7    1.12    0.42
   5  -6   7    0.94    0.63
   5   6   7    0.88    0.50
  -5   6  -7    1.09    0.46
  -1  -7   7    0.82    0.34
  -1  -7   7    0.37    0.37
   1  -7  -7   -0.27    0.62
   1  -7  -7    1.55    0.34
  -1  -7   7   -0.29    0.68
   1  -7  -7    0.75    0.55
  -1  -7   7    0.52    0.39
   1   7  -7    1.75    0.37
  -1   7   7    0.55    0.39
   0  -7  -7   18.31    1.52
   0  -7  -7   15.06    1.25
   0  -7   7   15.59    1.40
   0  -7   7   16.19    1.60
   0  -7  -7   17.97    1.62
   0  -7   7   16.90    1.29
   0   7  -7   17.51    1.38
   0   7   7   15.77    1.37
  -1  -7  -7    4.07    0.48
   1  -7   7    2.24    0.49
  -1  -7  -7    2.65    0.67
   1  -7   7    4.53    0.81
   1  -7   7    3.56    0.54
   1  -7   7    3.84    0.52
   1   7   7    4.21    0.58
  -1   7  -7    3.39    0.55
   9   0  -8   31.01    2.27
  -9   0   8   27.84    2.51
   9   0  -8   30.25    2.22
  -9   0   8   31.00    2.25
   8   0  -8   32.13    2.40
   8   0  -8   32.37    2.35
  -8   0   8   34.34    2.39
  -8   0   8   33.01    2.37
  -8   0   8   31.32    2.67
  -7   0   8   46.47    3.57
   7   0  -8   48.22    3.62
  -7   0   8   48.20    3.38
   7   0  -8   49.21    3.46
   7   0  -8   47.84    3.38
  -7   0   8   54.04    3.48
  -7   0   8   41.67    3.84
   7   0  -8   55.10    3.60
  -7   0   8   49.56    3.46
   6   0  -8   12.38    1.00
  -6   0   8   11.81    1.05
   6   0  -8   11.33    0.99
   6   0  -8   11.54    1.07
  -6   0   8   13.54    1.13
  -6   0   8   11.64    1.02
   6   0  -8   11.47    1.06
  -6   0   8   10.80    1.04
  -6   0   8   13.54    1.00
  -5   0   8   81.03    5.82
   5   0  -8   87.18    5.83
   5   0  -8   81.21    6.04
   5   0  -8   94.82    5.98
  -5   0   8   83.22    5.98
  -5   0   8   87.66    5.68
   5   0  -8   81.24    5.73
  -5   0   8   86.48    6.47
   5   0  -8   78.67    5.67
  -5   0   8   79.06    6.04
  -4   0   8   32.36    2.21
  -4   0   8   29.73    2.18
  -4   0   8   27.15    2.10
  -4   0   8   29.97    2.33
   4   0  -8   29.27    2.10
  -4   0   8   27.70    2.16
  -4   0   8   28.44    2.08
  -4   0   8   30.49    2.05
   4   0  -8   27.41    2.07
   4   0  -8   29.45    2.16
   4   0  -8   29.12    2.19
   4   0  -8   30.16    2.05
   3   0  -8  156.62   10.29
  -3   0   8  174.83   10.30
  -3   0   8  167.25   10.83
   3   0  -8  142.95   10.81
  -3   0   8  162.86   10.38
   3   0  -8  152.33   10.57
  -3   0   8  142.01   10.56
   3   0  -8  141.54   10.36
  -3   0   8  142.88   11.68
  -3   0   8  166.85   10.84
  -3   0   8  144.62   10.93
   2   0  -8   77.43    5.06
   2   0  -8   73.76    5.10
  -2   0   8   64.93    5.04
  -2   0   8   60.88    5.08
   2   0  -8   75.48    4.84
   2   0  -8   67.12    4.91
  -2   0   8   76.12    4.79
   2   0  -8   76.58    4.79
  -2   0   8   61.16    5.43
   2   0  -8   76.14    5.04
  -2   0   8   66.61    4.83
  -2   0   8   76.38    5.06
  -2   0   8   71.69    4.92
  -1   0   8    0.81    0.24
  -1   0   8    1.15    0.24
   1   0  -8    0.99    0.24
  -1   0   8    1.05    0.24
   1   0  -8    1.46    0.26
   1   0  -8    1.04    0.26
  -1   0   8    1.07    0.25
   1   0  -8    1.75    0.30
  -1   0   8    1.01    0.25
  -1   0   8    1.35    0.25
  -1   0   8    0.65    0.23
   1   0  -8    1.03    0.24
   0   0   8  231.65   15.87
   0   0  -8  240.35   16.41
   0   0   8  245.27   16.27
   0   0  -8  238.78   15.86
   0   0   8  213.01   17.55
   0   0   8  236.47   15.45
   0   0   8  240.67   15.57
   0   0   8  216.57   16.24
   0   0  -8  250.04   15.56
   0   0   8  215.80   16.40
   0   0  -8  221.67   15.45
   1   0   8   14.32    1.19
   1   0   8   17.71    1.28
  -1   0  -8   15.77    1.21
  -1   0  -8   15.84    1.19
   1   0   8   16.60    1.25
   1   0   8   14.41    1.17
  -1   0  -8   15.49    1.27
   1   0   8   18.26    1.35
  -1   0  -8   15.24    1.25
  -1   0  -8   17.45    1.18
   1   0   8   15.70    1.21
   1   0   8   16.76    1.25
  -2   0  -8  217.92   16.37
   2   0   8  248.13   17.53
   2   0   8  253.42   16.38
   2   0   8  256.60   17.16
  -2   0  -8  209.13   15.52
  -2   0  -8  216.33   15.42
   2   0   8  225.69   15.42
   2   0   8  232.97   16.21
   2   0   8  246.34   16.23
  -2   0  -8  212.92   16.21
   2   0   8  227.16   15.84
   2   0   8  222.36   15.53
  -2   0  -8  238.74   15.84
  -3   0  -8   32.38    2.09
   3   0   8   29.97    2.19
  -3   0  -8   29.92    2.09
   3   0   8   28.03    2.07
  -3   0  -8   33.49    2.18
   3   0   8   27.30    2.04
  -3   0  -8   29.02    2.17
  -3   0  -8   29.88    2.20
   3   0   8   24.94    2.28
  -3   0  -8   31.22    2.11
   3   0   8   28.43    2.17
   3   0   8   29.05    2.10
  -3   0  -8   29.30    2.06
   4   0   8   11.32    1.06
   4   0   8   14.54    1.14
   4   0   8   13.44    1.03
  -4   0  -8   12.22    1.00
  -4   0  -8   13.08    1.08
  -4   0  -8   14.20    1.10
  -4   0  -8   13.12    1.05
   4   0   8   11.85    1.05
  -4   0  -8   12.37    1.02
   4   0   8   13.04    1.02
   4   0   8   12.94    1.00
  -4   0  -8   14.87    1.05
   5   0   8  118.08    7.77
  -5   0  -8  109.59    7.76
   5   0   8  100.39    8.04
  -5   0  -8  107.11    7.57
   5   0   8  100.96    8.41
  -5   0  -8  113.34    8.05
  -5   0  -8  123.55    7.98
   5   0   8  110.11    7.96
   5   0   8  129.96    7.58
   6   0   8    9.16    0.90
   6   0   8   11.41    1.04
   6   0   8   10.85    0.96
   6   0   8    9.65    0.98
  -6   0  -8   11.74    0.93
  -6   0  -8   13.07    1.04
  -6   0  -8   11.69    0.96
   6   0   8    9.37    0.91
   7   0   8   94.28    7.34
   7   0   8   89.03    6.74
  -7   0  -8  102.18    6.96
  -7   0  -8   91.72    6.75
  -7   0  -8   96.43    6.60
   7   0   8  103.45    6.60
   7   0   8  105.48    7.04
  -8   0  -8   10.55    0.96
   8   0   8    9.40    0.91
   8   0   8    9.15    1.02
   8   0   8    9.92    0.91
  -8   0  -8    8.80    0.90
  -9   0  -8   45.41    3.22
   9   0   8   41.18    3.52
   9   0   8   43.65    3.21
  -9   0  -8   43.99    3.22
   9   0   8   48.57    3.16
  -9  -1   8   12.56    1.22
  -9  -1   8   13.19    1.13
   9  -1  -8   13.75    1.15
  -9  -1   8   14.45    1.15
   9  -1  -8   10.67    1.19
   9  -1  -8   12.67    1.09
  -9  -1   8   14.64    1.36
  -9   1   8   11.47    1.12
  -9   1   8   12.26    1.26
  -9   1   8   12.44    1.28
   9   1  -8   13.01    1.19
  -8  -1   8    0.10    0.33
   8  -1  -8    0.66    0.33
   8  -1  -8    0.50    0.37
  -8  -1   8    0.05    0.40
  -8  -1   8    0.66    0.33
  -8  -1   8    0.22    0.35
   8  -1  -8   -0.24    0.38
   8   1  -8    0.50    0.39
  -8   1   8    0.56    0.39
  -8   1   8   -0.06    0.32
   8   1  -8    0.13    0.38
  -8   1   8   -0.20    0.29
  -8   1   8    0.38    0.36
  -7  -1   8    0.24    0.28
   7  -1  -8    0.20    0.34
  -7  -1   8    0.14    0.31
   7  -1  -8   -0.04    0.30
  -7  -1   8    0.08    0.30
   7  -1  -8    0.43    0.34
  -7  -1   8    0.44    0.35
  -7   1   8    0.52    0.35
  -7   1   8    0.19    0.33
   7   1  -8   -0.28    0.37
   7   1  -8    0.07    0.36
  -7   1   8    0.23    0.32
  -6  -1   8    4.31    0.60
   6  -1  -8    5.79    0.57
  -6  -1   8    6.09    0.74
  -6  -1   8    6.67    0.62
   6  -1  -8    5.90    0.60
   6  -1  -8    6.60    0.70
  -6  -1   8    5.15    0.56
   6  -1  -8    5.42    0.64
  -6  -1   8    5.54    0.61
   6   1  -8    7.87    0.68
   6   1  -8    7.59    0.70
  -6   1   8    5.43    0.66
  -6   1   8    7.25    0.69
  -6   1   8    8.51    0.74
  -5  -1   8    0.36    0.28
  -5  -1   8    0.39    0.28
  -5  -1   8    0.32    0.27
   5  -1  -8    0.03    0.29
   5  -1  -8    0.44    0.30
  -5  -1   8    0.02    0.23
   5  -1  -8    0.24    0.27
  -5  -1   8    0.37    0.27
   5  -1  -8    0.19    0.22
  -5  -1   8   -0.37    0.24
  -5  -1   8    0.31    0.20
  -5  -1   8    0.34    0.27
  -5  -1   8    0.43    0.26
   5   1  -8    0.01    0.30
  -5   1   8    0.17    0.29
  -5   1   8    0.59    0.27
  -5   1   8    0.13    0.26
   5   1  -8    0.27    0.29
   4  -1  -8   40.13    3.03
   4  -1  -8   42.63    2.89
  -4  -1   8   42.58    3.24
  -4  -1   8   40.68    2.90
   4  -1  -8   38.99    2.83
  -4  -1   8   38.79    3.02
  -4  -1   8   41.13    2.84
   4  -1  -8   40.59    2.98
   4  -1  -8   38.24    2.88
  -4  -1   8   42.03    2.89
  -4  -1   8   46.93    3.02
  -4  -1   8   36.06    2.99
  -4  -1   8   36.75    3.03
  -4   1   8   42.76    2.93
   4   1  -8   45.31    2.94
   4   1  -8   40.34    3.00
  -4   1   8   41.35    3.05
   4   1  -8   45.58    2.87
   4   1  -8   45.05    3.05
  -4   1   8   39.15    3.22
  -4   1   8   41.35    3.01
  -4   1   8   44.64    3.04
  -3  -1   8    2.61    0.35
  -3  -1   8    2.86    0.37
  -3  -1   8    2.24    0.34
  -3  -1   8    2.49    0.31
   3  -1  -8    1.89    0.28
   3  -1  -8    2.65    0.36
  -3  -1   8    3.06    0.38
   3  -1  -8    2.50    0.33
  -3  -1   8    2.27    0.33
  -3  -1   8    3.02    0.36
   3  -1  -8    2.15    0.33
   3  -1  -8    2.46    0.34
  -3   1   8    2.24    0.32
   3   1  -8    2.57    0.33
  -3   1   8    2.39    0.32
   3   1  -8    1.99    0.35
   3   1  -8    2.85    0.37
  -3   1   8    2.61    0.35
   3   1  -8    2.27    0.34
  -3   1   8    2.49    0.34
  -3   1   8    2.76    0.36
  -2  -1   8    4.36    0.46
  -2  -1   8    4.62    0.46
   2  -1  -8    4.25    0.42
  -2  -1   8    4.97    0.51
   2  -1  -8    4.37    0.47
   2  -1  -8    4.94    0.43
  -2  -1   8    4.70    0.43
  -2  -1   8    4.44    0.46
  -2  -1   8    3.67    0.40
   2  -1  -8    4.52    0.45
  -2  -1   8    4.31    0.42
   2  -1  -8    3.87    0.43
  -2  -1   8    3.23    0.40
   2   1  -8    4.15    0.47
  -2   1   8    3.82    0.43
   2   1  -8    4.44    0.42
  -2   1   8    3.33    0.39
  -2   1   8    4.16    0.44
  -2   1   8    4.98    0.47
   2   1  -8    3.34    0.41
   2   1  -8    3.92    0.45
  -2   1   8    3.78    0.40
   2   1  -8    3.86    0.43
  -2   1   8    5.01    0.46
   2   1  -8    4.02    0.43
   1  -1  -8    0.87    0.24
   1  -1  -8    1.16    0.20
  -1  -1   8    1.33    0.22
  -1  -1   8    1.38    0.27
   1  -1  -8    1.39    0.25
  -1  -1   8    1.24    0.27
  -1  -1   8    1.31    0.22
   1  -1  -8    1.12    0.26
  -1  -1   8    1.76    0.28
  -1  -1   8    1.62    0.25
  -1  -1   8    1.12    0.25
   1  -1  -8    0.83    0.20
  -1  -1   8    1.61    0.29
  -1  -1   8    1.38    0.25
   1  -1  -8    0.97    0.26
   1  -1  -8    1.46    0.30
   1  -1  -8    1.63    0.26
   1   1  -8    1.33    0.25
  -1   1   8    1.09    0.21
  -1   1   8    1.06    0.24
  -1   1   8    1.03    0.25
   1   1  -8    1.52    0.24
  -1   1   8    1.02    0.24
  -1   1   8    1.23    0.24
   1   1  -8    1.54    0.26
  -1   1   8    1.05    0.22
   1   1  -8    1.67    0.32
   1   1  -8    1.69    0.28
   0  -1  -8    0.77    0.20
   0  -1  -8    0.74    0.20
   0  -1  -8    0.91    0.28
   0  -1   8    0.65    0.23
   0  -1   8    0.73    0.24
   0  -1   8    0.98    0.26
   0  -1   8    1.20    0.21
   0  -1   8    0.76    0.19
   0  -1   8    1.00    0.22
   0  -1   8    1.11    0.14
   0  -1   8    0.71    0.22
   0  -1  -8    1.13    0.24
   0  -1   8    0.63    0.22
   0  -1  -8    0.62    0.25
   0  -1   8    0.77    0.22
   0  -1  -8    0.61    0.22
   0   1   8    1.03    0.25
   0   1  -8    1.05    0.24
   0   1   8    1.31    0.26
   0   1   8    1.06    0.23
   0   1  -8    0.91    0.22
   0   1   8    0.97    0.23
   0   1   8    1.12    0.23
   0   1  -8    1.33    0.29
   0   1  -8    1.01    0.24
   0   1   8    1.39    0.24
   0   1  -8    0.90    0.25
   1  -1   8   22.74    1.55
  -1  -1  -8   22.14    1.58
   1  -1   8   20.01    1.56
  -1  -1  -8   24.02    1.66
  -1  -1  -8   21.85    1.55
   1  -1   8   21.05    1.55
  -1  -1  -8   21.73    1.68
  -1  -1  -8   24.49    1.60
   1  -1   8   19.40    1.65
   1  -1   8   22.54    1.60
   1  -1   8   19.33    1.64
   1  -1   8   22.71    1.67
   1  -1   8   21.27    1.59
   1  -1   8   22.09    1.80
  -1  -1  -8   22.25    1.55
   1  -1   8   21.95    1.58
  -1   1  -8   19.64    1.66
   1   1   8   22.70    1.56
   1   1   8   23.16    1.61
   1   1   8   22.61    1.65
   1   1   8   24.74    1.60
  -1   1  -8   22.26    1.60
   1   1   8   22.94    1.76
  -1   1  -8   23.05    1.58
  -1   1  -8   21.46    1.67
  -1   1  -8   21.80    1.57
  -2  -1  -8    6.88    0.64
   2  -1   8    6.91    0.58
  -2  -1  -8    5.66    0.63
   2  -1   8    5.88    0.68
   2  -1   8    6.56    0.63
  -2  -1  -8    7.75    0.58
   2  -1   8    7.40    0.64
  -2  -1  -8    6.35    0.66
   2  -1   8    7.42    0.61
  -2  -1  -8    6.75    0.58
   2  -1   8    7.09    0.57
   2  -1   8    6.40    0.60
  -2  -1  -8    6.03    0.62
   2  -1   8    7.30    0.66
   2  -1   8    6.37    0.63
   2  -1   8    6.99    0.59
   2   1   8    5.97    0.60
   2   1   8    5.64    0.62
  -2   1  -8    5.34    0.59
   2   1   8    6.17    0.62
  -2   1  -8    6.48    0.61
   2   1   8    7.33    0.61
   2   1   8    6.88    0.59
  -2   1  -8    5.71    0.63
  -2   1  -8    6.88    0.60
  -2   1  -8    6.63    0.69
   3  -1   8   39.50    2.94
  -3  -1  -8   41.32    2.92
   3  -1   8   46.04    2.83
  -3  -1  -8   44.92    2.83
   3  -1   8   40.12    2.75
   3  -1   8   41.60    2.79
   3  -1   8   38.27    3.07
  -3  -1  -8   39.29    2.92
  -3  -1  -8   40.66    2.94
  -3  -1  -8   37.21    2.74
   3  -1   8   39.95    2.91
  -3  -1  -8   40.02    2.80
  -3  -1  -8   41.02    2.80
   3   1   8   41.11    2.83
  -3   1  -8   40.27    2.83
   3   1   8   34.12    2.75
  -3   1  -8   36.65    2.95
  -3   1  -8   36.86    2.78
   3   1   8   38.66    3.08
   3   1   8   46.67    2.96
  -3   1  -8   39.30    2.91
  -4  -1  -8    0.24    0.27
  -4  -1  -8    0.17    0.27
  -4  -1  -8    0.47    0.25
  -4  -1  -8    0.69    0.28
   4  -1   8    0.68    0.24
   4  -1   8    0.70    0.27
   4  -1   8    0.76    0.26
  -4  -1  -8    0.39    0.25
   4  -1   8    0.84    0.29
  -4  -1  -8    0.80    0.29
   4  -1   8    0.51    0.24
   4  -1   8    0.39    0.25
   4   1   8    0.48    0.30
  -4   1  -8    0.61    0.24
   4   1   8    0.55    0.27
   4   1   8    0.27    0.22
  -4   1  -8    0.56    0.30
  -4   1  -8    0.59    0.27
   4   1   8    0.23    0.25
  -5  -1  -8    0.12    0.29
  -5  -1  -8    0.39    0.28
   5  -1   8    0.54    0.30
   5  -1   8    0.10    0.24
  -5  -1  -8    0.21    0.32
   5  -1   8    0.26    0.25
  -5  -1  -8   -0.20    0.24
   5  -1   8    0.29    0.26
   5  -1   8    0.32    0.28
  -5  -1  -8    0.03    0.27
   5   1   8    0.11    0.26
   5   1   8    0.47    0.30
   5   1   8    0.15    0.25
  -5   1  -8   -0.28    0.29
  -5   1  -8    0.06    0.26
   6  -1   8    2.78    0.42
   6  -1   8    4.00    0.49
  -6  -1  -8    3.51    0.46
   6  -1   8    3.91    0.47
   6  -1   8    3.50    0.52
  -6  -1  -8    3.17    0.53
  -6  -1  -8    3.49    0.45
   6  -1   8    4.26    0.53
  -6   1  -8    3.06    0.45
   6   1   8    5.25    0.57
  -6   1  -8    3.88    0.55
   6   1   8    4.46    0.55
   6   1   8    3.20    0.43
   7  -1   8    0.26    0.36
   7  -1   8    0.20    0.30
  -7  -1  -8   -0.19    0.33
  -7  -1  -8    0.37    0.31
  -7  -1  -8    0.37    0.30
   7  -1   8    0.23    0.30
   7  -1   8    0.30    0.31
  -7   1  -8    0.67    0.41
  -7   1  -8    0.10    0.32
   7   1   8    0.21    0.31
   7   1   8   -0.02    0.28
   7   1   8    0.41    0.36
  -8  -1  -8   17.61    1.38
   8  -1   8   16.35    1.33
   8  -1   8   17.38    1.48
  -8  -1  -8   16.82    1.37
   8  -1   8   19.68    1.38
   8  -1   8   15.65    1.52
  -8  -1  -8   18.57    1.53
  -8   1  -8   17.30    1.40
   8   1   8   14.31    1.44
   8   1   8   18.68    1.55
  -8   1  -8   17.49    1.52
   8   1   8   16.65    1.37
   9  -1   8    1.11    0.45
   9  -1   8    1.64    0.48
  -9  -1  -8    0.29    0.52
  -9  -1  -8    1.37    0.40
  -9  -1  -8    0.21    0.37
   9  -1   8    1.45    0.38
  -9   1  -8    1.03    0.43
  -9   1  -8    1.45    0.56
   9   1   8    1.23    0.41
   9   1   8   -0.11    0.41
  -9  -2   8   11.51    1.13
  -9  -2   8   12.17    1.26
   9  -2  -8   11.77    1.18
  -9  -2   8   11.34    1.04
  -9   2   8   10.91    1.05
   9   2  -8   11.75    1.18
  -9   2   8   10.10    1.05
  -9   2   8   12.73    1.24
   9   2  -8   12.71    1.17
  -8  -2   8    8.75    0.97
  -8  -2   8    9.22    1.08
  -8  -2   8   10.66    0.93
   8  -2  -8   10.86    1.05
   8   2  -8    9.25    1.01
   8   2  -8    9.90    0.96
  -8   2   8   10.19    1.00
  -8   2   8   11.50    1.05
   7  -2  -8    9.95    1.04
   7  -2  -8   12.37    1.04
  -7  -2   8    9.95    1.01
  -7  -2   8   11.32    1.13
  -7  -2   8   10.02    0.98
  -7  -2   8    9.28    0.93
   7   2  -8   12.22    1.12
  -7   2   8   11.71    1.08
  -7   2   8    9.65    0.97
   7   2  -8   11.20    1.03
  -6  -2   8    0.38    0.31
  -6  -2   8    0.23    0.31
  -6  -2   8   -0.04    0.32
  -6  -2   8    0.31    0.31
   6  -2  -8    0.22    0.34
  -6  -2   8    0.04    0.26
  -6  -2   8    0.23    0.32
   6  -2  -8    0.27    0.33
  -6   2   8    0.53    0.27
  -6   2   8    0.18    0.34
   6   2  -8    0.31    0.36
  -6   2   8    0.60    0.32
   6   2  -8    0.28    0.32
  -5  -2   8   15.00    1.32
  -5  -2   8   14.61    1.30
  -5  -2   8   17.67    1.22
  -5  -2   8   17.60    1.28
   5  -2  -8   12.88    1.26
  -5  -2   8   17.40    1.35
   5  -2  -8   15.47    1.32
  -5  -2   8   16.91    1.42
  -5   2   8   16.05    1.26
  -5   2   8   18.72    1.36
  -5   2   8   15.61    1.36
   5   2  -8   17.66    1.34
   5   2  -8   16.78    1.30
  -4  -2   8    2.53    0.47
  -4  -2   8    4.27    0.42
   4  -2  -8    3.18    0.45
   4  -2  -8    5.43    0.52
  -4  -2   8    4.57    0.51
  -4  -2   8    4.20    0.48
  -4  -2   8    5.11    0.52
   4   2  -8    5.34    0.52
  -4   2   8    4.53    0.50
  -4   2   8    4.39    0.48
   4   2  -8    3.85    0.48
  -4   2   8    3.44    0.46
   3  -2  -8   13.51    1.08
  -3  -2   8   15.10    1.12
   3  -2  -8   11.64    1.09
  -3  -2   8   15.18    1.05
  -3  -2   8   15.77    0.99
   3  -2  -8   13.45    1.04
  -3  -2   8   13.25    1.06
  -3  -2   8   13.74    0.99
  -3  -2   8   15.43    1.12
  -3  -2   8   11.96    1.18
   3   2  -8   13.43    1.08
  -3   2   8   14.40    1.12
   3   2  -8   12.02    1.10
  -3   2   8   12.00    1.09
  -3   2   8   12.40    1.07
   2  -2  -8   15.42    1.04
  -2  -2   8   10.29    0.89
   2  -2  -8   13.13    0.93
  -2  -2   8   14.07    1.02
  -2  -2   8   14.05    0.89
  -2  -2   8   10.28    0.99
  -2  -2   8   13.86    0.95
  -2  -2   8   13.65    0.98
  -2  -2   8   10.99    1.07
   2  -2  -8   10.22    0.97
  -2   2   8   13.31    0.98
   2   2  -8   11.91    0.97
   2   2  -8    9.92    1.01
  -2   2   8   13.76    1.02
  -2   2   8   10.93    1.00
  -1  -2   8    2.89    0.41
  -1  -2   8    3.97    0.34
  -1  -2   8    4.00    0.44
   1  -2  -8    3.46    0.41
   1  -2  -8    3.23    0.41
  -1  -2   8    3.73    0.47
  -1  -2   8    3.53    0.37
   1  -2  -8    3.42    0.36
  -1  -2   8    4.51    0.41
  -1  -2   8    3.12    0.40
  -1   2   8    3.95    0.39
   1   2  -8    2.91    0.38
  -1   2   8    3.27    0.40
  -1   2   8    2.93    0.39
   1   2  -8    3.58    0.45
   0  -2  -8   42.70    3.15
   0  -2   8   48.23    3.15
   0  -2   8   40.96    3.57
   0  -2   8   45.95    3.30
   0  -2   8   52.91    3.18
   0  -2  -8   42.19    3.32
   0  -2   8   49.48    3.27
   0   2  -8   45.54    3.20
   0   2  -8   49.93    3.31
   0   2   8   45.67    3.20
   0   2   8   45.88    3.51
   0   2   8   40.59    3.29
   1  -2   8    2.49    0.42
   1  -2   8    3.34    0.36
   1  -2   8    1.72    0.30
  -1  -2  -8    2.19    0.34
  -1  -2  -8    1.72    0.32
   1  -2   8    2.01    0.32
   1  -2   8    3.01    0.36
   1  -2   8    3.27    0.37
   1  -2   8    2.23    0.29
  -1   2  -8    2.18    0.29
   1   2   8    2.19    0.33
   1   2   8    2.36    0.30
  -1   2  -8    1.83    0.34
  -2  -2  -8   33.97    2.42
  -2  -2  -8   29.22    2.39
   2  -2   8   33.35    2.30
   2  -2   8   33.37    2.51
   2  -2   8   35.45    2.38
   2  -2   8   31.57    2.62
   2  -2   8   31.22    2.29
  -2  -2  -8   29.86    2.28
   2  -2   8   32.04    2.40
   2   2   8   33.28    2.31
  -2   2  -8   33.84    2.31
   2   2   8   32.62    2.39
  -2   2  -8   34.09    2.39
  -3  -2  -8    0.86    0.27
  -3  -2  -8    0.25    0.25
   3  -2   8    0.47    0.26
  -3  -2  -8    0.37    0.17
   3  -2   8    0.21    0.16
  -3  -2  -8    0.48    0.22
   3  -2   8    0.12    0.23
   3  -2   8    0.39    0.19
   3  -2   8    0.21    0.25
   3  -2   8    0.08    0.22
  -3  -2  -8    0.15    0.26
  -3  -2  -8    0.35    0.26
   3  -2   8    0.55    0.26
  -3  -2  -8    0.44    0.19
   3   2   8    0.31    0.25
   3   2   8    0.02    0.22
  -3   2  -8    0.33    0.26
  -3   2  -8    0.59    0.23
   3   2   8    0.59    0.29
  -4  -2  -8    9.96    0.89
  -4  -2  -8    8.92    0.75
   4  -2   8    9.24    0.87
   4  -2   8   10.59    0.92
   4  -2   8    9.85    0.90
   4  -2   8    8.93    0.73
   4  -2   8   10.59    0.84
  -4  -2  -8    8.82    0.86
  -4  -2  -8   10.27    0.85
  -4   2  -8    9.44    0.88
   4   2   8   11.09    0.83
   4   2   8    8.83    0.85
  -4   2  -8   10.45    0.83
   4   2   8    9.99    0.92
   5  -2   8   23.97    1.83
  -5  -2  -8   22.95    1.83
  -5  -2  -8   22.43    1.74
   5  -2   8   24.93    1.89
  -5  -2  -8   26.81    1.82
  -5  -2  -8   22.37    1.66
   5  -2   8   24.28    1.74
   5   2   8   25.88    1.82
  -5   2  -8   22.72    1.82
   5   2   8   20.32    1.89
  -5   2  -8   24.17    1.75
   5   2   8   21.91    1.73
   6  -2   8    4.29    0.52
  -6  -2  -8    4.17    0.55
  -6  -2  -8    4.77    0.54
  -6  -2  -8    3.44    0.55
  -6  -2  -8    3.15    0.42
   6  -2   8    3.95    0.41
   6  -2   8    3.78    0.53
   6  -2   8    3.75    0.54
   6   2   8    4.19    0.59
   6   2   8    4.66    0.55
   6   2   8    3.61    0.47
  -6   2  -8    4.16    0.57
  -6   2  -8    4.23    0.51
   7  -2   8   23.72    1.94
  -7  -2  -8   23.34    1.87
  -7  -2  -8   27.27    2.00
   7  -2   8   28.19    1.89
  -7  -2  -8   23.11    1.76
   7  -2   8   25.98    2.03
   7   2   8   27.19    1.97
  -7   2  -8   26.99    1.89
   7   2   8   19.60    2.02
  -7   2  -8   23.61    1.97
   7   2   8   24.39    1.86
  -8  -2  -8   -0.08    0.44
   8  -2   8    0.16    0.36
  -8  -2  -8   -0.60    0.44
   8  -2   8    0.66    0.39
  -8  -2  -8    0.53    0.28
   8   2   8   -0.29    0.40
   8   2   8   -0.28    0.41
   8   2   8   -0.64    0.33
  -8   2  -8    0.91    0.38
  -8   2  -8    0.03    0.41
  -8  -3   8   23.47    1.88
  -8  -3   8   22.48    2.11
   8  -3  -8   27.90    1.97
  -8  -3   8   22.54    1.93
   8  -3  -8   25.14    1.96
  -8  -3   8   24.90    2.00
   8   3  -8   22.14    2.00
  -8   3   8   24.55    2.00
   8   3  -8   25.07    1.91
  -7  -3   8   19.07    1.54
   7  -3  -8   17.12    1.50
  -7  -3   8   15.95    1.61
  -7  -3   8   17.39    1.46
   7  -3  -8   16.65    1.50
  -7  -3   8   20.75    1.54
  -7  -3   8   15.82    1.41
   7   3  -8   17.58    1.54
   7   3  -8   18.98    1.47
  -7   3   8   18.96    1.54
   6  -3  -8   47.79    3.98
  -6  -3   8   54.91    3.81
  -6  -3   8   56.21    4.32
   6  -3  -8   55.32    3.83
  -6  -3   8   57.59    4.00
  -6  -3   8   55.99    4.02
  -6   3   8   59.66    4.00
   6   3  -8   54.26    3.97
   6   3  -8   51.01    3.88
   5  -3  -8    1.25    0.35
  -5  -3   8    1.09    0.37
  -5  -3   8    1.82    0.38
  -5  -3   8    0.79    0.36
   5  -3  -8    0.97    0.32
  -5  -3   8    1.10    0.35
   5   3  -8    1.70    0.38
  -5   3   8    1.76    0.41
   4  -3  -8   84.61    5.96
  -4  -3   8   93.88    6.28
   4  -3  -8   85.98    6.27
  -4  -3   8   79.72    5.96
  -4  -3   8   75.34    6.73
  -4  -3   8   99.29    6.25
   4   3  -8   91.27    6.22
  -4   3   8   90.02    6.22
  -3  -3   8   43.82    2.79
   3  -3  -8   44.51    2.96
  -3  -3   8   38.76    2.80
  -3  -3   8   34.78    3.17
   3  -3  -8   40.96    2.90
  -3  -3   8   42.72    2.94
   3  -3  -8   40.92    2.81
  -3  -3   8   36.22    2.94
  -3   3   8   38.32    2.92
   3   3  -8   40.40    2.93
  -2  -3   8   36.43    3.13
   2  -3  -8   35.68    2.76
  -2  -3   8   44.52    2.75
   2  -3  -8   44.97    2.87
   2  -3  -8   41.42    2.91
  -2  -3   8   45.36    2.78
  -2  -3   8   42.51    2.90
  -2  -3   8   37.31    2.90
   2   3  -8   36.82    2.89
  -2   3   8   31.82    2.87
   1  -3  -8  109.88    7.53
  -1  -3   8  112.41    7.22
  -1  -3   8  100.09    7.59
   1  -3  -8   98.27    7.58
  -1  -3   8  104.58    8.16
  -1  -3   8   99.86    7.53
  -1  -3   8  113.43    7.17
  -1  -3   8  111.81    7.54
   1  -3  -8  105.03    7.20
  -1   3   8  113.02    7.53
   1   3  -8  102.59    7.53
   0  -3   8   11.82    1.00
   0  -3  -8   11.74    1.00
   0  -3   8   11.96    1.00
   0  -3   8   10.97    0.95
   0  -3   8   12.80    1.15
   0  -3  -8   11.53    0.97
   0  -3   8   11.52    0.98
   0  -3   8   12.98    1.01
   0  -3   8   13.95    1.03
   0   3   8   12.81    1.02
   0   3  -8   14.75    1.05
  -1  -3  -8  133.48    8.93
   1  -3   8  129.96    9.63
   1  -3   8  129.72    8.93
   1  -3   8  132.49    8.46
   1  -3   8  126.91    8.87
  -1  -3  -8  123.70    8.67
   1  -3   8  120.52    8.89
   1  -3   8  136.05    8.50
   1  -3   8  124.68    9.33
  -1  -3  -8  119.53    8.48
  -1   3  -8  114.42    8.86
   1   3   8  117.24    8.85
   2  -3   8   10.19    0.84
   2  -3   8   10.19    0.85
  -2  -3  -8    9.68    0.89
  -2  -3  -8   10.14    0.86
  -2  -3  -8    9.58    0.86
   2  -3   8   10.70    0.87
   2  -3   8    9.85    0.85
   2  -3   8    9.98    0.90
   2  -3   8    9.32    1.02
  -2  -3  -8   10.54    0.85
  -2   3  -8   10.44    0.89
   2   3   8    9.18    0.86
   3  -3   8   52.99    4.31
   3  -3   8   54.02    4.32
  -3  -3  -8   61.98    4.19
   3  -3   8   61.16    4.12
  -3  -3  -8   61.09    4.12
   3  -3   8   62.51    4.12
  -3  -3  -8   55.67    4.32
  -3  -3  -8   60.32    4.30
  -3  -3  -8   60.12    4.12
   3   3   8   70.86    4.58
  -3   3  -8   60.81    4.30
   3   3   8   59.71    4.30
  -4  -3  -8   58.17    4.64
   4  -3   8   69.27    4.68
  -4  -3  -8   69.85    4.63
  -4  -3  -8   66.41    4.43
   4  -3   8   58.21    4.43
   4  -3   8   72.12    4.66
   4  -3   8   62.24    4.43
   4   3   8   65.89    4.90
  -4   3  -8   57.83    4.61
   4   3   8   64.70    4.62
  -5  -3  -8    8.99    0.86
  -5  -3  -8    9.96    0.87
  -5  -3  -8    8.48    0.87
   5  -3   8   10.91    1.00
   5  -3   8    8.99    0.84
   5  -3   8    9.09    0.83
  -5   3  -8    9.30    0.91
   5   3   8    7.03    0.80
   5   3   8    7.18    0.88
   6  -3   8   60.92    4.38
  -6  -3  -8   68.27    4.39
  -6  -3  -8   60.42    4.56
   6  -3   8   71.75    4.68
   6  -3   8   58.13    4.58
  -6  -3  -8   63.61    4.60
   6   3   8   67.67    4.59
  -6   3  -8   62.41    4.58
   6   3   8   57.22    4.82
   7  -3   8    0.38    0.56
  -7  -3  -8    0.06    0.39
  -7  -3  -8    0.60    0.39
   7  -3   8   -0.15    0.34
   7  -3   8   -0.42    0.36
  -7  -3  -8    0.13    0.35
   7   3   8    0.57    0.38
   7   3   8    0.10    0.33
  -7   3  -8    0.11    0.42
   7   3   8    0.02    0.37
   8  -3   8   37.35    2.53
   8  -3   8   36.13    2.76
  -8  -3  -8   34.49    2.62
   8  -3   8   34.12    2.61
  -8   3  -8   32.40    2.63
   8   3   8   35.15    2.51
  -8   3  -8   35.01    2.52
   8   3   8   29.54    2.60
   8   3   8   30.45    2.74
   7  -4  -8    0.63    0.40
  -7  -4   8    0.46    0.45
  -7  -4   8    1.07    0.45
   7  -4  -8    0.63    0.47
  -7  -4   8    0.55    0.39
  -7  -4   8    0.41    0.43
   7  -4  -8    1.88    0.49
   7   4  -8    0.48    0.47
  -7   4   8    1.42    0.52
  -6  -4   8    4.61    0.57
   6  -4  -8    4.53    0.61
  -6  -4   8    5.18    0.74
   6  -4  -8    3.68    0.62
  -6  -4   8    3.08    0.53
   6  -4  -8    4.97    0.61
  -6  -4   8    3.63    0.61
   6   4  -8    5.00    0.63
  -6   4   8    4.61    0.62
  -5  -4   8    4.64    0.59
  -5  -4   8    3.64    0.65
  -5  -4   8    4.41    0.59
   5  -4  -8    4.86    0.63
   5  -4  -8    4.80    0.60
   5  -4  -8    4.73    0.59
  -5  -4   8    4.79    0.64
   5   4  -8    4.97    0.59
  -5   4   8    5.00    0.62
  -4  -4   8    0.73    0.33
  -4  -4   8    0.47    0.33
   4  -4  -8    0.85    0.33
   4  -4  -8    0.59    0.38
  -4  -4   8    0.29    0.34
  -4  -4   8    0.96    0.41
   4  -4  -8    0.78    0.34
   4   4  -8    0.29    0.32
  -4   4   8    0.64    0.34
   3  -4  -8    6.73    0.66
   3  -4  -8    7.28    0.75
   3  -4  -8    7.10    0.74
  -3  -4   8    6.26    0.77
  -3  -4   8    8.46    0.75
   3  -4  -8    6.08    0.65
  -3  -4   8    7.41    0.72
  -3  -4   8    6.34    0.68
  -3  -4   8    7.55    0.68
   3   4  -8    6.74    0.69
  -3   4   8    6.93    0.69
  -2  -4   8    3.24    0.41
   2  -4  -8    2.81    0.41
  -2  -4   8    3.11    0.54
  -2  -4   8    4.21    0.46
   2  -4  -8    2.98    0.43
  -2  -4   8    4.06    0.48
   2  -4  -8    3.27    0.41
  -2  -4   8    3.06    0.47
   2  -4  -8    2.79    0.48
  -2  -4   8    2.46    0.39
   2   4  -8    3.33    0.49
  -2   4   8    3.96    0.47
  -1  -4   8    2.07    0.39
  -1  -4   8    2.29    0.40
   1  -4  -8    2.40    0.44
  -1  -4   8    2.38    0.38
   1  -4  -8    1.81    0.35
  -1  -4   8    2.41    0.35
   1  -4  -8    2.52    0.39
  -1  -4   8    2.23    0.34
  -1  -4   8    2.67    0.49
   1  -4  -8    2.59    0.35
  -1   4   8    2.91    0.40
   1   4  -8    2.56    0.44
   0  -4   8    0.06    0.22
   0  -4  -8    0.19    0.34
   0  -4  -8    0.84    0.32
   0  -4   8    0.06    0.30
   0  -4   8   -0.25    0.32
   0  -4   8    0.35    0.25
   0  -4   8   -0.03    0.28
   0  -4  -8    0.49    0.23
   0  -4   8    0.32    0.27
   0  -4  -8   -0.10    0.24
   0   4  -8    0.81    0.31
   0   4   8    0.36    0.27
   1  -4   8    0.51    0.28
  -1  -4  -8    0.31    0.32
   1  -4   8    0.54    0.28
   1  -4   8   -0.03    0.37
   1  -4   8    0.19    0.21
   1  -4   8    0.05    0.26
  -1  -4  -8    0.39    0.28
   1  -4   8    0.63    0.32
  -1  -4  -8    0.18    0.22
  -1   4  -8    0.52    0.32
   1   4   8    0.36    0.28
   2  -4   8    3.26    0.53
   2  -4   8    3.75    0.64
  -2  -4  -8    4.39    0.51
   2  -4   8    3.56    0.46
   2  -4   8    3.77    0.43
   2  -4   8    4.25    0.50
  -2  -4  -8    4.32    0.45
  -2  -4  -8    4.32    0.52
  -2  -4  -8    4.34    0.49
   2   4   8    4.13    0.49
  -2   4  -8    4.11    0.51
   3  -4   8   14.26    1.25
   3  -4   8   16.98    1.25
   3  -4   8   14.47    1.37
  -3  -4  -8   16.55    1.31
  -3  -4  -8   17.62    1.29
  -3  -4  -8   19.09    1.28
   3  -4   8   15.82    1.26
  -3  -4  -8   15.58    1.26
  -3  -4  -8   16.69    1.27
   3  -4   8   15.48    1.14
   3   4   8   14.90    1.36
   3   4   8   15.66    1.30
  -3   4  -8   16.49    1.32
   4  -4   8    0.62    0.34
  -4  -4  -8   -0.01    0.30
   4  -4   8    1.19    0.46
   4  -4   8    0.99    0.30
  -4  -4  -8    0.39    0.32
   4  -4   8    0.34    0.28
   4  -4   8    0.62    0.37
  -4  -4  -8    1.20    0.36
  -4   4  -8    0.85    0.35
   4   4   8    0.10    0.30
   4   4   8    0.43    0.35
  -5  -4  -8    0.69    0.36
   5  -4   8    0.23    0.29
   5  -4   8    0.40    0.43
  -5  -4  -8    0.49    0.33
   5  -4   8    0.14    0.35
  -5  -4  -8    0.76    0.36
   5   4   8    0.35    0.37
  -5   4  -8   -0.40    0.38
   5   4   8   -0.38    0.35
   6  -4   8    0.27    0.34
   6  -4   8   -0.04    0.51
   6  -4   8    0.71    0.36
  -6  -4  -8    0.44    0.38
  -6  -4  -8    0.32    0.32
  -6  -4  -8    0.09    0.39
  -6   4  -8    0.20    0.43
   6   4   8    0.24    0.41
   6   4   8   -0.11    0.39
  -7  -4  -8   -0.35    0.40
   7  -4   8    1.01    0.44
  -7  -4  -8    0.33    0.38
   7  -4   8   -0.63    0.55
  -7  -4  -8    0.56    0.39
   7  -4   8    0.20    0.38
  -7   4  -8    0.14    0.50
   7   4   8   -0.69    0.42
   7   4   8   -0.04    0.44
  -6  -5   8   16.57    1.70
  -6  -5   8   17.87    1.46
  -6  -5   8   18.28    1.60
   6  -5  -8   18.32    1.51
   6  -5  -8   20.33    1.49
   6  -5  -8   17.76    1.55
  -6  -5   8   17.12    1.51
  -6   5   8   18.23    1.59
   6   5  -8   17.04    1.54
  -5  -5   8    0.26    0.43
  -5  -5   8    0.54    0.39
  -5  -5   8    0.28    0.38
  -5  -5   8    0.16    0.45
   5  -5  -8    0.26    0.39
   5  -5  -8    0.78    0.46
   5   5  -8    0.20    0.40
  -5   5   8    0.38    0.40
  -4  -5   8   13.67    1.18
  -4  -5   8   14.26    1.15
   4  -5  -8   11.13    1.24
  -4  -5   8   13.85    1.21
   4  -5  -8   12.96    1.15
  -4  -5   8   14.99    1.14
  -4  -5   8   14.26    1.37
  -4   5   8   12.66    1.20
   4   5  -8   12.34    1.17
  -3  -5   8    9.18    0.91
  -3  -5   8    7.75    0.76
   3  -5  -8    7.79    0.78
   3  -5  -8    8.94    0.90
  -3  -5   8    9.43    0.84
  -3  -5   8    8.67    0.81
  -3  -5   8    8.29    0.99
   3   5  -8    9.29    0.89
  -3   5   8    8.26    0.86
  -2  -5   8   15.96    1.34
  -2  -5   8   17.46    1.44
   2  -5  -8   15.95    1.39
  -2  -5   8   13.16    1.48
  -2  -5   8   15.95    1.25
  -2  -5   8   17.68    1.29
   2  -5  -8   17.21    1.39
   2  -5  -8   17.05    1.27
   2   5  -8   15.85    1.32
  -2   5   8   16.19    1.34
   2   5  -8   16.38    1.35
  -1  -5   8   36.66    3.22
  -1  -5   8   40.04    2.79
   1  -5  -8   37.98    2.78
  -1  -5   8   39.23    2.98
  -1  -5   8   37.25    2.76
   1  -5  -8   44.16    2.92
  -1  -5   8   40.06    2.93
   1  -5  -8   42.82    2.98
  -1   5   8   40.29    2.91
   1   5  -8   39.28    2.93
   0  -5   8    2.03    0.54
   0  -5   8    1.15    0.36
   0  -5  -8    1.47    0.43
   0  -5   8    0.81    0.45
   0  -5   8    0.90    0.37
   0  -5  -8    0.75    0.32
   0  -5   8    0.92    0.32
   0  -5  -8    0.96    0.42
   0   5   8    0.51    0.35
   0   5  -8    0.74    0.38
  -1  -5  -8   46.61    3.13
   1  -5   8   37.49    2.98
   1  -5   8   44.24    3.15
   1  -5   8   42.64    2.77
   1  -5   8   43.58    3.02
   1  -5   8   41.85    3.22
   1  -5   8   49.65    3.52
  -1  -5  -8   39.78    3.00
  -1   5  -8   45.36    3.16
   1   5   8   41.81    3.14
   2  -5   8    0.09    0.33
   2  -5   8    0.01    0.40
   2  -5   8    0.27    0.35
  -2  -5  -8   -0.27    0.32
   2  -5   8   -0.27    0.39
  -2  -5  -8    0.36    0.36
  -2  -5  -8    0.75    0.34
   2  -5   8    0.15    0.32
   2   5   8   -0.03    0.31
  -2   5  -8    0.16    0.34
   3  -5   8    6.15    0.73
   3  -5   8    8.08    0.91
  -3  -5  -8    8.50    0.78
  -3  -5  -8    6.51    0.71
   3  -5   8    7.07    0.71
  -3  -5  -8    7.64    0.73
  -3  -5  -8    8.44    0.80
   3  -5   8    8.43    0.73
   3   5   8    6.50    0.73
  -3   5  -8    8.94    0.84
   4  -5   8   21.83    1.58
  -4  -5  -8   19.05    1.61
   4  -5   8   21.30    1.61
   4  -5   8   20.08    1.62
   4  -5   8   23.01    1.88
  -4  -5  -8   19.56    1.67
   4  -5   8   20.19    1.49
  -4  -5  -8   22.38    1.59
   4   5   8   21.78    1.70
  -4   5  -8   20.41    1.69
   5  -5   8    9.24    0.79
   5  -5   8    9.40    1.03
  -5  -5  -8    8.72    0.80
  -5  -5  -8    7.66    0.86
   5  -5   8    7.58    0.83
  -5  -5  -8    8.03    0.82
   5   5   8    7.99    0.86
  -5   5  -8    8.71    0.88
  -6  -5  -8   25.55    1.94
  -6  -5  -8   23.81    1.94
   6  -5   8   24.92    1.92
  -6  -5  -8   22.27    2.01
   6  -5   8   26.15    1.94
   6  -5   8   26.90    2.20
   6   5   8   27.21    2.06
  -6   5  -8   26.11    2.06
  -4  -6   8   -0.64    0.39
  -4  -6   8   -0.11    0.39
   4  -6  -8    0.13    0.39
  -4  -6   8   -0.31    0.53
  -4  -6   8   -0.91    0.40
   4  -6  -8   -0.40    0.49
  -4  -6   8    0.92    0.45
  -4   6   8    0.53    0.48
   4   6  -8    0.63    0.41
  -3  -6   8   21.09    1.79
  -3  -6   8   21.97    1.72
   3  -6  -8   23.69    1.86
   3  -6  -8   21.87    1.69
  -3  -6   8   19.40    1.98
  -3  -6   8   21.93    1.68
  -3  -6   8   21.78    1.63
   3   6  -8   24.72    1.78
  -3   6   8   24.88    1.79
   2  -6  -8   23.54    1.85
   2  -6  -8   26.79    2.03
  -2  -6   8   25.90    1.96
  -2  -6   8   25.44    1.84
  -2  -6   8   25.46    1.86
  -2  -6   8   22.70    2.19
  -2  -6   8   25.89    2.09
  -2  -6   8   25.50    1.78
  -2   6   8   25.70    1.94
   2   6  -8   23.83    1.93
  -1  -6   8   18.65    1.54
  -1  -6   8   23.80    1.97
  -1  -6   8   22.39    1.82
   1  -6  -8   18.61    1.55
   1  -6  -8   22.63    1.81
   1  -6  -8   22.43    1.76
  -1  -6   8   20.90    1.58
  -1  -6   8   22.18    1.53
  -1  -6   8   21.32    1.68
   1   6  -8   19.75    1.67
  -1   6   8   18.85    1.64
   0  -6   8   21.39    1.76
   0  -6   8   22.87    2.12
   0  -6   8   23.82    1.74
   0  -6  -8   24.64    1.95
   0  -6  -8   23.25    1.73
   0  -6  -8   22.33    1.89
   0  -6   8   23.31    1.98
   0  -6   8   21.37    1.65
   0  -6   8   26.02    1.86
   0   6   8   25.05    1.85
   0   6  -8   23.52    1.85
   1  -6   8    1.76    0.65
   1  -6   8    1.28    0.51
   1  -6   8    1.85    0.45
  -1  -6  -8    3.25    0.44
   1  -6   8    2.49    0.47
   1  -6   8    3.10    0.51
  -1  -6  -8    2.77    0.56
   1  -6   8    2.45    0.58
   1   6   8    3.10    0.48
  -1   6  -8    1.77    0.46
   2  -6   8   25.10    1.78
   2  -6   8   26.94    2.11
  -2  -6  -8   24.62    1.96
   2  -6   8   26.13    1.96
   2  -6   8   27.98    2.26
   2  -6   8   22.58    1.85
  -2  -6  -8   26.25    1.99
  -2  -6  -8   23.71    1.85
   2  -6   8   26.00    1.89
  -2   6  -8   23.03    1.95
   2   6   8   24.61    1.96
   3  -6   8   20.91    1.81
  -3  -6  -8   22.61    1.67
   3  -6   8   19.77    1.58
  -3  -6  -8   20.70    1.57
   3  -6   8   19.30    1.58
  -3  -6  -8   19.39    1.69
   3  -6   8   20.51    1.51
  -3   6  -8   18.96    1.64
   3   6   8   19.12    1.65
   4  -6   8   21.95    1.50
   4  -6   8   20.72    1.58
  -4  -6  -8   19.45    1.57
   4  -6   8   21.23    1.82
  -4  -6  -8   18.90    1.57
  -4  -6  -8   20.39    1.66
   4  -6   8   20.37    1.57
  -4   6  -8   17.28    1.64
   4   6   8   18.30    1.64
   9   0  -9   -0.46    0.44
  -9   0   9   -0.13    0.38
   9   0  -9    0.60    0.41
  -9   0   9    0.08    0.35
  -8   0   9    0.23    0.38
  -8   0   9   -0.26    0.32
   8   0  -9   -0.17    0.40
   8   0  -9    0.52    0.41
  -7   0   9    0.55    0.37
  -7   0   9    0.27    0.36
  -7   0   9   -0.19    0.28
   7   0  -9    0.58    0.38
   7   0  -9   -0.09    0.36
  -7   0   9    0.02    0.34
   7   0  -9   -0.11    0.36
  -7   0   9   -0.03    0.31
  -6   0   9   -0.10    0.30
   6   0  -9    0.10    0.33
   6   0  -9   -0.29    0.32
   6   0  -9    0.43    0.32
  -6   0   9    0.06    0.33
  -6   0   9    0.58    0.30
  -6   0   9   -0.24    0.30
   6   0  -9    0.78    0.36
  -6   0   9   -0.27    0.26
  -5   0   9    0.11    0.28
   5   0  -9   -0.07    0.32
   5   0  -9    0.15    0.31
  -5   0   9    0.30    0.28
   5   0  -9   -0.30    0.30
  -5   0   9    0.18    0.24
  -5   0   9    0.09    0.27
   5   0  -9   -0.04    0.32
  -5   0   9    0.05    0.30
  -5   0   9   -0.03    0.28
   4   0  -9    0.20    0.27
   4   0  -9    0.24    0.28
  -4   0   9    0.22    0.29
   4   0  -9    0.18    0.27
  -4   0   9   -0.05    0.22
   4   0  -9    0.27    0.26
  -4   0   9    0.24    0.27
   4   0  -9    0.06    0.27
  -4   0   9    0.36    0.26
  -4   0   9   -0.12    0.26
  -4   0   9   -0.04    0.22
  -3   0   9    0.02    0.23
  -3   0   9   -0.02    0.24
  -3   0   9   -0.03    0.22
   3   0  -9    0.01    0.24
   3   0  -9   -0.08    0.26
   3   0  -9    0.39    0.27
   3   0  -9   -0.22    0.26
  -3   0   9    0.16    0.23
   3   0  -9    0.09    0.27
  -3   0   9    0.22    0.23
  -3   0   9    0.38    0.23
   2   0  -9    0.19    0.23
  -2   0   9    0.14    0.20
  -2   0   9    0.03    0.19
   2   0  -9    0.00    0.23
  -2   0   9    0.28    0.22
  -2   0   9    0.23    0.24
  -2   0   9   -0.26    0.19
   2   0  -9    0.01    0.22
  -2   0   9   -0.21    0.19
   2   0  -9   -0.12    0.23
  -2   0   9   -0.32    0.22
   2   0  -9   -0.14    0.22
   2   0  -9   -0.06    0.23
   1   0  -9    0.30    0.22
   1   0  -9    0.43    0.26
  -1   0   9    0.44    0.21
  -1   0   9   -0.20    0.21
  -1   0   9    0.23    0.20
   1   0  -9    0.21    0.23
   1   0  -9   -0.08    0.19
  -1   0   9    0.15    0.21
   1   0  -9    0.23    0.25
  -1   0   9    0.04    0.22
  -1   0   9    0.28    0.21
  -1   0   9    0.29    0.23
   0   0   9   -0.03    0.21
   0   0   9    0.14    0.20
   0   0   9    0.27    0.23
   0   0   9   -0.18    0.20
   0   0  -9    0.01    0.24
   0   0   9    0.29    0.21
   0   0  -9    0.12    0.20
   0   0  -9   -0.19    0.22
   0   0  -9   -0.01    0.20
   0   0  -9    0.02    0.23
   0   0   9   -0.13    0.20
   0   0   9    0.00    0.19
  -1   0  -9    0.11    0.22
   1   0   9    0.14    0.23
  -1   0  -9   -0.18    0.20
   1   0   9    0.03    0.22
   1   0   9    0.23    0.22
   1   0   9   -0.14    0.20
   1   0   9    0.07    0.23
  -1   0  -9    0.33    0.22
  -1   0  -9    0.44    0.26
   1   0   9    0.18    0.22
   1   0   9    0.00    0.22
  -1   0  -9    0.25    0.26
   2   0   9    0.23    0.25
   2   0   9    0.38    0.27
   2   0   9    0.20    0.23
  -2   0  -9    0.56    0.27
   2   0   9    0.05    0.23
   2   0   9    0.47    0.22
   2   0   9    0.69    0.25
  -2   0  -9    0.41    0.23
   2   0   9    0.40    0.24
   2   0   9   -0.01    0.20
  -2   0  -9    0.28    0.28
  -2   0  -9    0.04    0.25
  -2   0  -9    0.73    0.27
  -3   0  -9    0.02    0.27
  -3   0  -9    0.13    0.25
   3   0   9   -0.07    0.23
   3   0   9    0.13    0.23
  -3   0  -9    0.12    0.30
   3   0   9   -0.10    0.22
   3   0   9   -0.18    0.24
   3   0   9    0.37    0.26
  -3   0  -9    0.36    0.27
  -3   0  -9   -0.12    0.24
   3   0   9    0.32    0.24
   4   0   9   -0.14    0.26
   4   0   9    0.27    0.29
   4   0   9    0.06    0.24
  -4   0  -9    0.50    0.33
  -4   0  -9    0.14    0.29
   4   0   9   -0.06    0.24
  -4   0  -9    0.26    0.27
  -4   0  -9   -0.32    0.26
   4   0   9   -0.08    0.27
  -5   0  -9    0.06    0.26
  -5   0  -9    0.20    0.29
   5   0   9   -0.31    0.26
  -5   0  -9   -0.33    0.33
   5   0   9   -0.07    0.30
   5   0   9    0.45    0.28
  -5   0  -9   -0.23    0.31
   5   0   9   -0.05    0.26
   5   0   9   -0.06    0.29
   6   0   9    0.43    0.32
  -6   0  -9    0.19    0.34
  -6   0  -9   -0.39    0.39
   6   0   9    0.03    0.33
   6   0   9    0.07    0.33
  -6   0  -9    0.12    0.34
  -6   0  -9    0.19    0.30
   6   0   9   -0.11    0.28
   6   0   9   -0.63    0.33
   7   0   9    0.15    0.37
  -7   0  -9   -0.21    0.40
  -7   0  -9   -0.22    0.33
   7   0   9    0.59    0.37
   7   0   9   -0.10    0.33
  -8   0  -9    0.13    0.43
   8   0   9   -0.65    0.40
  -8   0  -9    0.16    0.36
   8   0   9    0.57    0.41
   8   0   9    0.14    0.35
   9  -1  -9    0.14    0.47
  -9  -1   9    0.42    0.44
  -9  -1   9    0.26    0.42
   9  -1  -9    0.17    0.43
  -9  -1   9   -0.06    0.37
  -9   1   9   -0.13    0.45
  -9   1   9    0.28    0.47
  -9   1   9   -0.22    0.37
   9   1  -9   -0.22    0.44
  -8  -1   9   33.80    3.12
  -8  -1   9   44.79    2.99
   8  -1  -9   44.73    3.18
   8  -1  -9   42.90    2.97
   8  -1  -9   37.21    2.91
  -8  -1   9   34.78    3.35
  -8  -1   9   43.12    2.94
  -8   1   9   47.70    3.16
   8   1  -9   43.84    3.04
  -8   1   9   45.65    3.37
   8   1  -9   39.19    3.13
  -8   1   9   42.93    3.03
  -7  -1   9   23.80    1.72
  -7  -1   9   22.48    1.88
   7  -1  -9   22.65    1.86
   7  -1  -9   22.07    1.71
  -7  -1   9   25.50    2.00
  -7  -1   9   22.13    1.84
  -7  -1   9   21.56    1.71
   7  -1  -9   24.21    1.72
  -7   1   9   20.59    1.92
  -7   1   9   24.64    1.80
   7   1  -9   21.78    1.77
  -7   1   9   23.57    1.86
   7   1  -9   24.22    1.88
   6  -1  -9   21.17    1.65
   6  -1  -9   25.09    1.73
  -6  -1   9   19.75    1.63
  -6  -1   9   22.34    1.65
   6  -1  -9   23.19    1.79
  -6  -1   9   22.28    1.75
  -6  -1   9   21.37    1.78
   6  -1  -9   23.59    1.65
  -6  -1   9   20.23    1.87
  -6   1   9   23.93    1.78
  -6   1   9   23.23    1.71
   6   1  -9   22.74    1.77
  -6   1   9   20.69    1.84
   6   1  -9   22.45    1.71
  -5  -1   9   61.54    4.49
  -5  -1   9   61.67    4.28
  -5  -1   9   63.32    4.81
   5  -1  -9   65.73    4.28
   5  -1  -9   53.74    4.20
  -5  -1   9   59.95    4.31
  -5  -1   9   59.11    4.21
   5  -1  -9   65.16    4.30
   5  -1  -9   60.82    4.50
  -5  -1   9   68.62    4.52
  -5   1   9   55.73    4.78
   5   1  -9   65.47    4.35
  -5   1   9   59.56    4.34
   5   1  -9   64.25    4.45
  -5   1   9   64.59    4.47
  -4  -1   9    0.99    0.31
  -4  -1   9    0.98    0.30
  -4  -1   9    1.02    0.28
   4  -1  -9    0.95    0.27
   4  -1  -9    1.39    0.36
  -4  -1   9    0.93    0.29
  -4  -1   9    0.31    0.25
  -4  -1   9    0.99    0.30
  -4  -1   9    1.20    0.31
   4  -1  -9    0.96    0.30
   4  -1  -9    0.83    0.35
   4  -1  -9    1.06    0.31
  -4   1   9    0.95    0.28
   4   1  -9    1.12    0.34
  -4   1   9    1.79    0.35
   4   1  -9    0.96    0.31
   4   1  -9    0.80    0.32
  -4   1   9    0.70    0.30
   3  -1  -9  144.41    9.78
   3  -1  -9  149.79    9.68
   3  -1  -9  154.99    9.93
  -3  -1   9  124.29   10.28
  -3  -1   9  149.78   10.22
  -3  -1   9  127.89   11.01
  -3  -1   9  164.78    9.94
  -3  -1   9  139.02   10.19
   3  -1  -9  159.86   10.31
  -3  -1   9  140.70    9.68
   3  -1  -9  143.81   10.18
  -3  -1   9  143.10    9.77
  -3   1   9  136.28   10.99
   3   1  -9  154.08   10.31
  -3   1   9  129.32    9.95
   3   1  -9  138.34   10.19
   3   1  -9  137.06    9.69
  -3   1   9  159.08   10.32
   3   1  -9  141.86    9.96
  -3   1   9  157.81   10.21
   2  -1  -9   25.11    1.77
  -2  -1   9   26.27    1.81
  -2  -1   9   26.02    1.88
   2  -1  -9   24.24    1.82
  -2  -1   9   27.77    1.78
  -2  -1   9   25.73    2.03
   2  -1  -9   24.79    1.80
   2  -1  -9   24.66    1.87
  -2  -1   9   23.26    1.89
  -2  -1   9   22.88    1.80
   2  -1  -9   25.33    1.92
  -2  -1   9   26.61    1.92
   2   1  -9   23.62    1.91
   2   1  -9   27.40    1.92
   2   1  -9   23.89    1.83
  -2   1   9   25.28    1.99
  -2   1   9   25.12    1.79
  -2   1   9   26.02    1.90
   2   1  -9   26.26    1.79
  -2   1   9   24.56    1.84
  -2   1   9   24.93    1.90
  -1  -1   9   90.71    5.77
   1  -1  -9   76.49    5.90
   1  -1  -9   92.40    5.83
  -1  -1   9   80.25    6.57
  -1  -1   9   93.84    6.16
   1  -1  -9   88.52    5.77
   1  -1  -9   86.27    6.09
   1  -1  -9   94.34    6.16
  -1  -1   9   76.08    5.83
  -1  -1   9   95.84    6.11
  -1  -1   9   86.48    6.08
  -1  -1   9   82.25    5.91
  -1   1   9   81.25    5.93
  -1   1   9   94.67    6.10
  -1   1   9   86.84    6.15
   1   1  -9   74.29    6.08
  -1   1   9   93.53    6.55
  -1   1   9   77.41    5.77
   1   1  -9   84.19    5.77
   1   1  -9   81.73    6.15
   1   1  -9   86.60    5.93
   0  -1   9   60.47    4.14
   0  -1   9   52.18    3.99
   0  -1  -9   59.52    3.91
   0  -1   9   57.15    3.96
   0  -1  -9   53.56    3.94
   0  -1   9   58.54    4.18
   0  -1   9   54.87    4.12
   0  -1  -9   54.99    3.99
   0  -1   9   53.68    3.94
   0  -1  -9   64.87    4.19
   0  -1   9   60.99    4.48
   0  -1  -9   54.04    4.12
   0  -1   9   53.90    3.90
   0   1   9   61.96    3.99
   0   1  -9   60.69    4.18
   0   1  -9   59.45    4.02
   0   1   9   57.66    4.02
   0   1  -9   60.27    3.95
   0   1   9   54.00    4.16
   0   1  -9   65.95    4.14
   0   1  -9   57.00    3.91
   0   1   9   51.00    4.12
   0   1   9   58.72    4.43
   0   1   9   60.11    3.91
   1  -1   9    1.07    0.29
   1  -1   9    1.19    0.26
   1  -1   9    0.99    0.25
  -1  -1  -9    1.26    0.32
  -1  -1  -9    0.98    0.28
  -1  -1  -9    0.81    0.26
   1  -1   9    1.67    0.30
  -1  -1  -9    1.26    0.29
   1  -1   9    1.19    0.26
  -1  -1  -9    1.17    0.24
   1  -1   9    1.28    0.18
   1  -1   9    1.23    0.32
   1  -1   9    1.51    0.29
  -1   1  -9    1.03    0.28
  -1   1  -9    1.76    0.31
   1   1   9    1.07    0.27
  -1   1  -9    1.13    0.31
   1   1   9    1.01    0.27
   1   1   9    1.36    0.28
   1   1   9    1.32    0.25
  -1   1  -9    1.25    0.32
   1   1   9    1.27    0.29
  -2  -1  -9   95.71    6.88
   2  -1   9   99.84    6.62
   2  -1   9   86.20    6.52
  -2  -1  -9   97.05    6.45
   2  -1   9   81.56    7.18
  -2  -1  -9   89.09    6.80
   2  -1   9  100.14    6.81
   2  -1   9   98.07    6.82
  -2  -1  -9   86.65    6.51
   2  -1   9   79.95    7.36
   2  -1   9   95.91    6.80
   2  -1   9   97.04    6.45
   2  -1   9  100.78    6.88
  -2  -1  -9  107.02    6.62
   2   1   9  100.65    6.88
  -2   1  -9  106.48    6.49
  -2   1  -9  109.09    6.90
  -2   1  -9   94.43    6.64
  -2   1  -9   88.88    6.81
   2   1   9  111.82    6.48
   2   1   9   94.17    6.81
   2   1   9   94.37    6.64
   3  -1   9    1.55    0.30
   3  -1   9    1.88    0.31
   3  -1   9    2.05    0.38
   3  -1   9    1.62    0.33
  -3  -1  -9    1.87    0.37
  -3  -1  -9    1.70    0.37
  -3  -1  -9    1.67    0.35
   3  -1   9    2.32    0.38
  -3  -1  -9    1.60    0.30
  -3  -1  -9    1.42    0.33
   3  -1   9    1.61    0.30
  -3  -1  -9    1.91    0.31
  -3   1  -9    1.71    0.37
   3   1   9    1.67    0.30
   3   1   9    1.71    0.33
   3   1   9    1.72    0.33
   3   1   9    1.16    0.35
  -3   1  -9    1.48    0.30
  -3   1  -9    2.04    0.37
  -4  -1  -9   76.06    5.01
  -4  -1  -9   85.13    5.02
  -4  -1  -9   69.80    5.06
  -4  -1  -9   65.19    5.26
  -4  -1  -9   71.75    5.23
   4  -1   9   73.38    5.27
   4  -1   9   74.26    5.51
  -4  -1  -9   72.87    5.22
   4  -1   9   81.29    5.07
   4  -1   9   78.87    5.01
   4  -1   9   68.14    4.93
  -4  -1  -9   72.86    4.94
   4   1   9   70.06    5.52
   4   1   9   72.61    5.07
  -4   1  -9   76.76    5.08
  -4   1  -9   70.37    5.21
   4   1   9   62.06    5.20
   5  -1   9   35.04    2.62
  -5  -1  -9   41.86    2.70
  -5  -1  -9   37.78    2.83
   5  -1   9   41.65    2.69
  -5  -1  -9   34.85    2.69
  -5  -1  -9   39.16    2.64
   5  -1   9   38.11    2.69
   5  -1   9   40.35    2.83
   5  -1   9   37.27    2.94
   5   1   9   37.46    2.79
  -5   1  -9   36.36    2.80
  -5   1  -9   37.82    2.70
   5   1   9   36.84    2.95
   5   1   9   34.91    2.69
   6  -1   9   13.34    1.13
   6  -1   9   13.46    1.17
   6  -1   9   12.59    1.03
  -6  -1  -9   11.30    1.02
  -6  -1  -9   11.25    1.12
  -6  -1  -9   11.36    1.03
   6  -1   9   11.34    0.99
  -6   1  -9   13.06    1.14
  -6   1  -9   11.22    1.03
   6   1   9   12.94    1.16
   6   1   9   11.82    1.02
   6   1   9   12.21    1.10
   7  -1   9   34.60    2.44
  -7  -1  -9   30.55    2.28
  -7  -1  -9   34.55    2.26
   7  -1   9   30.73    2.22
  -7  -1  -9   30.32    2.43
   7  -1   9   36.54    2.54
   7  -1   9   32.19    2.27
   7   1   9   26.77    2.36
  -7   1  -9   33.35    2.43
  -7   1  -9   30.07    2.30
   7   1   9   24.70    2.50
  -8  -1  -9    8.92    0.95
   8  -1   9    8.59    0.78
   8  -1   9    7.50    0.87
  -8  -1  -9    6.74    0.73
   8  -1   9    7.60    0.84
  -8  -1  -9    7.47    0.72
   8  -1   9    6.40    0.69
   8   1   9    6.33    0.73
  -8   1  -9    5.48    0.72
   8   1   9    7.92    0.91
  -8   1  -9    9.09    0.92
   8   1   9    6.43    0.78
  -8  -2   9    4.31    0.69
  -8  -2   9    6.31    0.63
  -8  -2   9    4.76    0.72
   8  -2  -9    4.41    0.72
  -8  -2   9    4.79    0.65
   8   2  -9    6.41    0.79
  -8   2   9    6.51    0.70
   8   2  -9    5.00    0.75
  -8   2   9    4.98    0.71
  -7  -2   9   33.73    2.56
  -7  -2   9   27.25    2.37
  -7  -2   9   28.29    2.17
   7  -2  -9   29.09    2.37
   7  -2  -9   34.30    2.32
  -7  -2   9   28.91    2.34
  -7   2   9   33.21    2.30
   7   2  -9   31.20    2.30
  -7   2   9   27.76    2.36
   7   2  -9   32.70    2.41
  -6  -2   9   20.27    1.47
   6  -2  -9   17.67    1.49
  -6  -2   9   19.27    1.39
  -6  -2   9   20.81    1.56
   6  -2  -9   18.77    1.54
  -6  -2   9   14.26    1.50
  -6  -2   9   19.26    1.63
   6   2  -9   18.11    1.54
  -6   2   9   18.65    1.47
  -6   2   9   16.19    1.52
   6   2  -9   20.18    1.50
   5  -2  -9    5.05    0.58
  -5  -2   9    3.88    0.58
   5  -2  -9    4.04    0.56
  -5  -2   9    3.72    0.45
  -5  -2   9    4.05    0.57
  -5  -2   9    2.92    0.51
  -5  -2   9    4.56    0.55
   5   2  -9    4.20    0.55
  -5   2   9    4.57    0.53
  -5   2   9    4.96    0.58
   5   2  -9    4.44    0.55
  -4  -2   9   39.69    2.80
   4  -2  -9   43.55    2.82
   4  -2  -9   33.64    2.92
  -4  -2   9   38.26    2.72
   4  -2  -9   38.48    2.70
  -4  -2   9   44.90    2.95
  -4  -2   9   43.12    2.93
  -4  -2   9   42.67    3.16
   4   2  -9   38.53    2.91
  -4   2   9   38.98    2.84
   4   2  -9   36.29    2.84
  -4   2   9   39.71    2.91
  -3  -2   9    1.23    0.35
   3  -2  -9    2.68    0.40
  -3  -2   9    2.57    0.32
  -3  -2   9    2.84    0.39
   3  -2  -9    2.67    0.42
  -3  -2   9    3.22    0.47
  -3  -2   9    2.89    0.42
  -3   2   9    2.71    0.40
   3   2  -9    2.41    0.41
  -3   2   9    2.52    0.39
   3   2  -9    2.54    0.39
  -2  -2   9  118.15    7.90
  -2  -2   9  116.44    8.46
  -2  -2   9  124.57    7.38
   2  -2  -9   95.52    7.88
  -2  -2   9  114.95    7.49
  -2  -2   9  102.54    7.45
  -2  -2   9  100.22    7.38
   2  -2  -9  100.46    7.48
   2   2  -9   94.05    7.81
  -2   2   9  117.59    7.63
   2   2  -9  121.94    7.62
  -2   2   9  119.91    7.83
  -1  -2   9   30.91    2.46
  -1  -2   9   29.45    2.27
  -1  -2   9   33.09    2.36
   1  -2  -9   37.13    2.49
   1  -2  -9   34.06    2.36
  -1  -2   9   33.47    2.48
  -1  -2   9   30.45    2.66
  -1  -2   9   34.86    2.27
  -1  -2   9   34.83    2.34
  -1   2   9   34.55    2.46
  -1   2   9   33.22    2.39
   1   2  -9   36.23    2.40
   1   2  -9   33.78    2.48
  -1   2   9   32.71    2.60
   0  -2  -9    7.62    0.70
   0  -2   9    7.53    0.72
   0  -2   9    7.44    0.64
   0  -2   9    7.75    0.80
   0  -2   9    7.37    0.67
   0  -2   9    7.85    0.60
   0  -2   9    7.11    0.73
   0  -2  -9    8.71    0.76
   0  -2   9    6.95    0.69
   0   2   9    8.54    0.71
   0   2   9    8.66    0.74
   0   2   9    7.21    0.69
   0   2  -9    7.13    0.70
   0   2  -9    7.40    0.74
   1  -2   9   46.13    2.95
  -1  -2  -9   34.94    2.83
   1  -2   9   42.20    3.25
   1  -2   9   42.81    2.83
  -1  -2  -9   41.32    3.00
   1  -2   9   43.01    2.77
   1  -2   9   47.49    2.87
   1  -2   9   34.43    2.98
   1  -2   9   37.20    2.97
   1  -2   9   41.33    3.12
   1   2   9   38.01    2.96
  -1   2  -9   42.88    2.89
  -1   2  -9   37.47    2.97
   1   2   9   42.60    2.88
   2  -2   9    2.26    0.37
   2  -2   9    2.17    0.35
   2  -2   9    2.13    0.30
  -2  -2  -9    2.50    0.36
   2  -2   9    2.11    0.37
  -2  -2  -9    2.10    0.37
   2  -2   9    1.71    0.35
  -2  -2  -9    2.21    0.39
  -2  -2  -9    2.06    0.26
   2  -2   9    1.60    0.26
   2  -2   9    2.50    0.46
  -2  -2  -9    1.75    0.26
   2  -2   9    2.42    0.36
  -2   2  -9    2.41    0.35
   2   2   9    1.40    0.33
   2   2   9    2.59    0.33
  -2   2  -9    1.80    0.37
   3  -2   9   62.93    4.34
   3  -2   9   55.07    4.05
   3  -2   9   62.44    4.37
   3  -2   9   64.69    4.56
   3  -2   9   60.11    4.15
  -3  -2  -9   59.60    4.37
  -3  -2  -9   57.28    4.06
  -3  -2  -9   52.54    4.15
  -3  -2  -9   61.62    4.16
  -3  -2  -9   65.21    4.21
  -3  -2  -9   60.71    4.34
   3   2   9   59.14    4.20
  -3   2  -9   66.71    4.22
   3   2   9   58.31    4.58
  -3   2  -9   59.66    4.33
   3   2   9   59.47    4.33
  -4  -2  -9   31.60    2.17
   4  -2   9   30.11    2.15
   4  -2   9   31.95    2.27
  -4  -2  -9   28.21    2.16
   4  -2   9   30.87    2.06
  -4  -2  -9   26.67    2.24
   4  -2   9   31.74    2.26
   4  -2   9   29.75    2.35
  -4  -2  -9   30.92    2.27
  -4  -2  -9   27.56    2.06
  -4   2  -9   30.50    2.25
   4   2   9   31.10    2.16
   4   2   9   30.46    2.25
  -4   2  -9   29.91    2.17
   4   2   9   27.30    2.36
  -5  -2  -9   35.98    2.61
  -5  -2  -9   33.23    2.38
  -5  -2  -9   30.79    2.46
   5  -2   9   33.81    2.36
  -5  -2  -9   34.16    2.57
   5  -2   9   34.22    2.59
   5  -2   9   34.55    2.47
   5  -2   9   34.16    2.70
   5  -2   9   37.08    2.62
   5   2   9   34.34    2.48
   5   2   9   33.24    2.57
   5   2   9   35.94    2.73
  -5   2  -9   34.54    2.49
  -5   2  -9   36.63    2.59
  -6  -2  -9   23.19    1.73
   6  -2   9   21.67    1.51
  -6  -2  -9   19.42    1.52
  -6  -2  -9   18.95    1.70
  -6  -2  -9   21.96    1.64
   6  -2   9   17.64    1.68
   6  -2   9   23.73    1.66
   6  -2   9   22.88    1.76
  -6   2  -9   23.66    1.64
  -6   2  -9   21.25    1.72
   6   2   9   18.65    1.76
   6   2   9   20.98    1.61
   6   2   9   20.99    1.69
  -7  -2  -9    1.59    0.34
  -7  -2  -9    2.22    0.48
   7  -2   9    1.31    0.42
   7  -2   9    1.22    0.43
  -7   2  -9    0.53    0.46
   7   2   9    1.79    0.42
   7   2   9    2.36    0.48
   7   2   9    1.61    0.51
  -7   2  -9    2.05    0.43
  -8  -2  -9    7.51    0.92
  -8  -2  -9    9.06    1.03
   8  -2   9    9.89    1.03
   8  -2   9    8.80    0.95
  -8  -2  -9    7.68    0.80
   8   2   9    9.07    1.03
   8   2   9    9.69    0.91
   8   2   9    9.08    0.98
  -8   2  -9    7.18    0.92
  -8   2  -9    9.63    0.95
  -8  -3   9    0.27    0.51
   8  -3  -9    0.40    0.47
  -8  -3   9    1.29    0.50
   8  -3  -9    1.51    0.51
   8   3  -9    1.01    0.58
   8   3  -9    0.71    0.51
  -8   3   9    1.56    0.57
  -7  -3   9    0.74    0.48
  -7  -3   9    2.01    0.47
   7  -3  -9    1.35    0.50
  -7  -3   9    1.14    0.41
  -7  -3   9    1.10    0.50
   7  -3  -9    1.79    0.53
   7   3  -9    1.75    0.49
  -7   3   9    1.21    0.50
   7   3  -9    1.23    0.54
   6  -3  -9    0.62    0.38
  -6  -3   9    0.85    0.40
   6  -3  -9    0.37    0.40
  -6  -3   9    0.95    0.42
  -6  -3   9    0.83    0.39
  -6  -3   9    0.97    0.38
  -6   3   9    0.12    0.38
   6   3  -9    1.29    0.45
   6   3  -9    0.33    0.41
  -5  -3   9    4.14    0.60
  -5  -3   9    5.77    0.66
  -5  -3   9    5.85    0.73
   5  -3  -9    5.93    0.64
   5  -3  -9    5.50    0.64
  -5  -3   9    6.41    0.68
  -5   3   9    4.90    0.62
   5   3  -9    5.57    0.65
   5   3  -9    6.15    0.70
  -4  -3   9   22.71    1.71
   4  -3  -9   26.28    1.73
  -4  -3   9   24.53    1.78
  -4  -3   9   19.44    1.90
  -4  -3   9   20.11    1.76
   4  -3  -9   20.84    1.76
  -4   3   9   25.33    1.77
   4   3  -9   22.44    1.77
  -3  -3   9   27.00    2.10
  -3  -3   9   23.15    2.26
   3  -3  -9   29.89    2.03
  -3  -3   9   30.03    2.02
   3  -3  -9   23.80    2.09
  -3  -3   9   27.89    2.11
  -3  -3   9   30.69    1.99
   3   3  -9   27.09    2.10
  -3   3   9   31.10    2.11
  -2  -3   9    0.39    0.28
   2  -3  -9    0.29    0.29
  -2  -3   9    0.23    0.30
  -2  -3   9    0.35    0.32
  -2  -3   9    0.24    0.30
  -2  -3   9    0.12    0.24
   2  -3  -9    0.16    0.29
   2   3  -9    0.36    0.31
  -2   3   9    0.30    0.26
  -1  -3   9    0.47    0.28
  -1  -3   9    0.82    0.30
  -1  -3   9    1.05    0.31
   1  -3  -9    0.66    0.30
  -1  -3   9    0.73    0.30
  -1  -3   9    0.67    0.34
   1  -3  -9    1.25    0.30
  -1   3   9    0.97    0.30
   1   3  -9    0.40    0.33
   0  -3  -9    0.31    0.26
   0  -3   9    0.20    0.26
   0  -3   9    0.35    0.27
   0  -3   9    0.13    0.31
   0  -3   9    0.09    0.24
   0  -3  -9    0.37    0.26
   0  -3   9    0.38    0.26
   0  -3   9    0.69    0.24
   0  -3   9    0.43    0.25
   0   3   9    0.47    0.27
   0   3  -9    0.17    0.29
  -1  -3  -9   12.21    1.05
   1  -3   9   12.95    1.21
   1  -3   9   14.29    1.01
   1  -3   9   13.06    1.04
   1  -3   9   12.04    1.02
   1  -3   9   10.96    1.02
   1  -3   9   12.76    1.06
  -1  -3  -9   14.37    1.08
   1  -3   9   12.19    1.05
  -1  -3  -9   11.99    1.01
  -1   3  -9   10.39    1.06
   1   3   9   13.53    1.06
  -2  -3  -9   14.07    1.33
  -2  -3  -9   16.39    1.32
   2  -3   9   17.50    1.34
   2  -3   9   16.68    1.32
   2  -3   9   16.07    1.32
  -2  -3  -9   19.14    1.32
   2  -3   9   16.40    1.28
   2  -3   9   17.99    1.29
   2  -3   9   18.16    1.52
  -2  -3  -9   15.72    1.28
   2   3   9   16.41    1.33
  -2   3  -9   14.64    1.33
  -3  -3  -9    4.34    0.52
  -3  -3  -9    3.70    0.47
   3  -3   9    2.31    0.43
   3  -3   9    3.99    0.61
  -3  -3  -9    3.01    0.45
   3  -3   9    2.74    0.42
   3  -3   9    2.93    0.43
   3  -3   9    2.58    0.44
  -3  -3  -9    2.75    0.43
  -3  -3  -9    3.80    0.45
   3   3   9    3.63    0.52
   3   3   9    3.21    0.46
  -3   3  -9    2.45    0.45
  -4  -3  -9    0.12    0.34
  -4  -3  -9    0.10    0.32
  -4  -3  -9    0.24    0.33
   4  -3   9    0.17    0.36
   4  -3   9    0.43    0.31
  -4  -3  -9    0.30    0.34
   4  -3   9    0.60    0.32
   4   3   9    0.24    0.31
   4   3   9   -0.13    0.31
  -4   3  -9    0.42    0.35
  -5  -3  -9    0.45    0.35
  -5  -3  -9   -0.21    0.31
   5  -3   9    0.69    0.40
   5  -3   9   -0.25    0.28
   5  -3   9   -0.26    0.31
  -5  -3  -9   -0.75    0.32
   5   3   9    0.16    0.39
   5   3   9    0.17    0.32
  -5   3  -9    0.33    0.37
  -6  -3  -9    1.85    0.45
  -6  -3  -9    1.44    0.42
   6  -3   9    1.43    0.42
   6  -3   9    2.09    0.48
  -6  -3  -9    1.88    0.47
   6  -3   9    1.41    0.49
   6   3   9    1.80    0.45
   6   3   9    2.16    0.49
  -6   3  -9    1.79    0.49
   6   3   9    2.25    0.40
  -7  -3  -9    0.03    0.43
   7  -3   9    0.23    0.41
  -7  -3  -9   -0.31    0.39
  -7  -3  -9    0.05    0.42
   7  -3   9   -0.20    0.36
   7  -3   9    0.53    0.54
   7   3   9   -0.76    0.35
   7   3   9    0.72    0.50
   7   3   9    0.61    0.45
  -7   3  -9   -0.31    0.41
  -7   3  -9   -0.69    0.44
  -7  -4   9   14.61    1.40
  -7  -4   9   14.77    1.50
  -7  -4   9   13.49    1.33
   7  -4  -9   17.15    1.42
   7  -4  -9   15.26    1.38
   7  -4  -9   14.42    1.33
  -7  -4   9   14.24    1.31
  -7   4   9   14.92    1.42
   7   4  -9   15.67    1.44
  -6  -4   9   26.14    2.06
   6  -4  -9   24.13    2.01
   6  -4  -9   27.49    1.99
  -6  -4   9   23.34    2.01
  -6  -4   9   26.45    2.23
   6  -4  -9   25.18    2.01
  -6  -4   9   24.24    1.94
   6   4  -9   26.37    2.03
  -6   4   9   27.25    2.07
  -5  -4   9    6.72    0.93
   5  -4  -9    8.80    0.90
  -5  -4   9    7.49    0.84
   5  -4  -9    7.84    0.82
  -5  -4   9    7.69    0.83
   5  -4  -9    9.70    0.93
  -5  -4   9    9.73    0.92
  -5   4   9   11.64    1.01
   5   4  -9    9.03    0.87
  -4  -4   9   71.59    5.17
  -4  -4   9   78.34    5.88
   4  -4  -9   72.80    5.31
   4  -4  -9   80.50    5.43
  -4  -4   9   77.76    5.42
   4  -4  -9   75.18    5.17
  -4  -4   9   64.43    5.41
   4   4  -9   78.81    5.39
  -4   4   9   77.86    5.39
  -3  -4   9    1.07    0.33
  -3  -4   9    1.10    0.39
   3  -4  -9    0.60    0.41
  -3  -4   9    0.71    0.39
  -3  -4   9    1.02    0.35
  -3  -4   9    1.10    0.33
   3  -4  -9    0.92    0.36
   3  -4  -9    1.05    0.37
  -3   4   9    0.93    0.35
   3   4  -9    1.05    0.37
  -2  -4   9   45.82    3.44
   2  -4  -9   50.89    3.57
  -2  -4   9   50.81    3.61
  -2  -4   9   53.46    3.43
   2  -4  -9   44.91    3.44
  -2  -4   9   51.92    3.95
  -2  -4   9   43.64    3.60
   2  -4  -9   47.74    3.60
   2   4  -9   54.19    3.63
  -2   4   9   53.54    3.61
  -1  -4   9   19.04    1.64
   1  -4  -9   20.30    1.67
  -1  -4   9   21.15    1.59
  -1  -4   9   20.31    1.62
   1  -4  -9   19.67    1.61
  -1  -4   9   21.36    1.85
  -1  -4   9   20.14    1.66
  -1  -4   9   22.34    1.57
   1  -4  -9   22.00    1.57
  -1   4   9   24.98    1.66
   1   4  -9   21.09    1.68
   0  -4  -9   29.40    2.27
   0  -4   9   37.45    2.68
   0  -4   9   27.50    2.27
   0  -4  -9   30.26    2.36
   0  -4   9   32.16    2.40
   0  -4  -9   37.53    2.41
   0  -4   9   33.56    2.37
   0  -4   9   30.93    2.40
   0  -4   9   31.47    2.30
   0   4   9   34.98    2.40
   0   4  -9   31.20    2.40
   1  -4   9   68.32    4.74
  -1  -4  -9   73.24    4.95
   1  -4   9   63.00    4.94
  -1  -4  -9   67.99    4.73
   1  -4   9   67.10    4.97
   1  -4   9   78.62    5.43
   1  -4   9   71.75    4.95
  -1  -4  -9   62.86    4.85
   1  -4   9   74.45    4.72
   1   4   9   61.60    4.93
  -1   4  -9   71.32    4.95
   2  -4   9    1.06    0.35
  -2  -4  -9    1.60    0.37
   2  -4   9    1.67    0.32
  -2  -4  -9    1.90    0.41
  -2  -4  -9    2.03    0.35
   2  -4   9    1.04    0.38
   2  -4   9    1.56    0.38
   2  -4   9    1.59    0.52
  -2  -4  -9    1.57    0.39
   2  -4   9    2.58    0.40
   2   4   9    1.11    0.36
  -2   4  -9    1.06    0.39
  -3  -4  -9   82.33    5.52
   3  -4   9   74.72    5.50
  -3  -4  -9   80.74    5.77
  -3  -4  -9   80.63    5.61
   3  -4   9   77.86    5.50
   3  -4   9   71.62    5.80
   3  -4   9   84.90    5.77
  -3  -4  -9   90.90    5.77
  -3   4  -9   80.32    5.75
   3   4   9   78.13    6.09
   3   4   9   82.45    5.75
  -4  -4  -9    2.83    0.49
   4  -4   9    2.02    0.43
   4  -4   9    2.23    0.55
  -4  -4  -9    2.65    0.50
   4  -4   9    2.67    0.44
  -4  -4  -9    2.95    0.44
   4  -4   9    2.20    0.39
  -4  -4  -9    2.32    0.47
   4   4   9    2.51    0.47
  -4   4  -9    1.95    0.46
   4   4   9    2.87    0.53
   5  -4   9   22.67    1.74
  -5  -4  -9   23.94    1.81
  -5  -4  -9   24.52    1.76
   5  -4   9   20.74    1.75
   5  -4   9   24.87    1.90
  -5  -4  -9   21.18    1.77
   5   4   9   21.39    1.80
  -5   4  -9   24.00    1.83
   5   4   9   20.90    1.89
   6  -4   9   34.84    2.49
  -6  -4  -9   33.50    2.57
   6  -4   9   35.52    2.67
  -6  -4  -9   35.42    2.58
  -6  -4  -9   34.45    2.48
   6  -4   9   32.38    2.55
   6   4   9   31.44    2.71
  -6   4  -9   34.67    2.61
   6   4   9   32.02    2.57
   7  -4   9    5.65    0.90
   7  -4   9    6.65    0.76
   7  -4   9    6.30    0.72
  -7  -4  -9    5.80    0.76
  -7  -4  -9    4.99    0.71
  -7  -4  -9    7.11    0.81
   7   4   9    7.22    0.87
  -7   4  -9    6.26    0.82
   7   4   9    6.03    0.80
   6  -5  -9    1.58    0.59
  -6  -5   9    1.56    0.49
  -6  -5   9    1.96    0.60
   6  -5  -9    2.29    0.51
  -6  -5   9    2.97    0.52
   6  -5  -9    1.88    0.45
  -6  -5   9    1.12    0.60
  -6   5   9    1.95    0.57
   6   5  -9    2.67    0.57
  -5  -5   9    6.81    0.93
   5  -5  -9    8.18    0.81
   5  -5  -9    7.93    0.80
  -5  -5   9    7.82    0.85
  -5  -5   9    8.09    0.80
   5  -5  -9    5.87    0.84
  -5  -5   9    6.94    0.78
  -5   5   9    7.26    0.84
   5   5  -9    7.08    0.81
  -4  -5   9    1.10    0.47
  -4  -5   9    1.19    0.42
   4  -5  -9    1.30    0.43
  -4  -5   9    2.34    0.44
  -4  -5   9    1.48    0.45
  -4  -5   9    2.03    0.55
   4  -5  -9    1.12    0.50
   4   5  -9    1.70    0.46
  -4   5   9    1.63    0.47
   3  -5  -9   15.15    1.38
   3  -5  -9   15.93    1.28
  -3  -5   9   15.52    1.53
  -3  -5   9   16.40    1.27
  -3  -5   9   13.15    1.24
  -3  -5   9   16.86    1.30
  -3  -5   9   17.17    1.38
  -3   5   9   14.32    1.33
   3   5  -9   17.34    1.36
  -2  -5   9    1.25    0.52
  -2  -5   9    0.56    0.35
  -2  -5   9    0.99    0.38
  -2  -5   9    0.36    0.39
   2  -5  -9    1.28    0.37
   2  -5  -9    0.56    0.49
   2   5  -9    0.70    0.37
   2   5  -9    0.45    0.40
  -2   5   9    0.50    0.40
  -1  -5   9    7.34    0.78
  -1  -5   9    6.24    0.71
  -1  -5   9    7.80    0.76
  -1  -5   9    7.54    0.93
  -1  -5   9    7.30    0.81
   1  -5  -9    8.28    0.83
   1  -5  -9    7.36    0.72
   1   5  -9    7.43    0.79
  -1   5   9    8.28    0.78
   0  -5   9   15.45    1.52
   0  -5  -9   15.03    1.23
   0  -5   9   15.91    1.30
   0  -5  -9   15.70    1.37
   0  -5   9   16.33    1.37
   0  -5   9   15.49    1.24
   0  -5   9   15.74    1.32
   0   5   9   13.62    1.30
   0   5  -9   17.35    1.35
  -1  -5  -9    3.05    0.46
   1  -5   9    2.20    0.45
   1  -5   9    3.01    0.48
   1  -5   9    4.29    0.73
   1  -5   9    3.90    0.50
   1  -5   9    2.80    0.54
  -1  -5  -9    3.53    0.58
  -1   5  -9    2.72    0.51
   1   5   9    3.11    0.49
   2  -5   9   15.58    1.70
   2  -5   9   16.79    1.45
   2  -5   9   18.54    1.52
  -2  -5  -9   18.73    1.53
  -2  -5  -9   20.83    1.55
   2  -5   9   17.21    1.46
   2  -5   9   21.83    1.61
  -2  -5  -9   18.27    1.45
   2  -5   9   18.51    1.37
  -2   5  -9   19.62    1.56
   2   5   9   18.90    1.52
   3  -5   9    0.38    0.32
  -3  -5  -9   -0.50    0.38
  -3  -5  -9    0.16    0.25
   3  -5   9    0.41    0.37
  -3  -5  -9    0.14    0.37
   3  -5   9   -0.74    0.42
  -3  -5  -9    0.09    0.36
   3  -5   9    0.48    0.38
  -3   5  -9   -0.17    0.39
   3   5   9    0.18    0.36
  -4  -5  -9   17.20    1.38
   4  -5   9   15.34    1.37
   4  -5   9   15.90    1.35
  -4  -5  -9   14.59    1.37
  -4  -5  -9   17.19    1.45
  -4  -5  -9   17.35    1.32
   4  -5   9   17.16    1.26
   4  -5   9   17.11    1.31
   4  -5   9   21.49    1.60
   4   5   9   15.39    1.42
  -4   5  -9   15.00    1.44
  -5  -5  -9    5.31    0.71
   5  -5   9    7.69    0.90
  -5  -5  -9    6.14    0.63
   5  -5   9    6.11    0.70
   5  -5   9    6.90    0.69
  -5  -5  -9    6.57    0.74
  -5  -5  -9    4.59    0.71
  -5   5  -9    5.19    0.72
   5   5   9    5.80    0.75
  -4  -6   9    8.14    1.08
  -4  -6   9    8.57    0.83
  -4  -6   9    6.40    0.78
   4  -6  -9    7.17    0.80
  -4  -6   9    9.57    0.93
   4  -6  -9    7.08    0.91
  -4  -6   9    8.58    0.83
  -4   6   9    9.07    0.90
   4   6  -9    7.26    0.82
   3  -6  -9    5.86    0.76
  -3  -6   9    3.93    0.57
  -3  -6   9    5.96    0.66
  -3  -6   9    4.66    0.66
  -3  -6   9    3.64    0.78
   3  -6  -9    4.55    0.60
  -3  -6   9    3.80    0.61
   3   6  -9    5.04    0.64
  -3   6   9    4.76    0.66
  -2  -6   9    4.85    0.81
   2  -6  -9    4.32    0.74
  -2  -6   9    4.77    0.67
  -2  -6   9    4.59    0.59
   2  -6  -9    5.63    0.62
  -2  -6   9    3.76    0.63
  -2  -6   9    5.28    0.62
   2   6  -9    4.92    0.63
  -2   6   9    4.64    0.64
  -1  -6   9    1.71    0.64
  -1  -6   9    1.15    0.41
   1  -6  -9    1.04    0.39
  -1  -6   9    1.29    0.46
  -1  -6   9    1.44    0.40
   1  -6  -9    0.85    0.59
  -1  -6   9    1.29    0.47
  -1   6   9    1.70    0.45
   1   6  -9    1.23    0.48
   0  -6   9    4.21    0.60
   0  -6   9    2.55    0.46
   0  -6  -9    2.98    0.63
   0  -6   9    2.14    0.51
   0  -6   9    3.23    0.74
   0  -6   9    2.56    0.57
   0  -6  -9    2.65    0.48
   0  -6   9    3.25    0.55
   0   6   9    3.82    0.55
   0   6  -9    2.96    0.60
   1  -6   9    4.47    0.62
   1  -6   9    4.11    0.61
  -1  -6  -9    4.24    0.54
   1  -6   9    4.65    0.57
   1  -6   9    3.85    0.83
   1  -6   9    4.57    0.70
   1  -6   9    4.40    0.61
  -1  -6  -9    4.82    0.72
   1   6   9    4.86    0.63
  -1   6  -9    4.64    0.63
   2  -6   9    1.67    0.46
   2  -6   9    1.39    0.52
  -2  -6  -9    1.94    0.59
   2  -6   9    1.86    0.60
   2  -6   9    3.02    0.53
   2  -6   9    1.79    0.48
  -2  -6  -9    1.75    0.46
   2  -6   9    1.61    0.70
   2   6   9    2.75    0.52
  -2   6  -9    2.46    0.52
   3  -6   9    2.98    0.56
   3  -6   9    2.83    0.53
  -3  -6  -9    2.93    0.51
  -3  -6  -9    2.62    0.57
   3  -6   9    2.83    0.55
   3  -6   9    2.04    0.53
   3  -6   9    3.68    0.69
  -3  -6  -9    3.87    0.63
  -3   6  -9    2.75    0.58
   3   6   9    3.66    0.58
   8   0 -10   11.72    1.11
  -8   0  10   12.10    1.07
  -8   0  10   11.42    1.20
   8   0 -10   11.06    1.13
   7   0 -10    3.09    0.51
   7   0 -10    3.17    0.50
  -7   0  10    3.04    0.52
  -7   0  10    3.77    0.53
  -7   0  10    2.13    0.49
  -7   0  10    3.61    0.60
  -6   0  10   74.25    5.23
   6   0 -10   75.23    5.23
   6   0 -10   73.93    5.44
   6   0 -10   77.60    5.38
  -6   0  10   77.84    5.80
  -6   0  10   77.88    5.39
  -6   0  10   67.94    5.09
   6   0 -10   73.21    5.09
  -5   0  10   36.03    2.45
   5   0 -10   33.85    2.62
  -5   0  10   34.41    2.60
   5   0 -10   33.54    2.59
   5   0 -10   33.86    2.45
   5   0 -10   35.91    2.51
  -5   0  10   34.50    2.76
  -5   0  10   31.78    2.61
  -5   0  10   36.91    2.51
  -4   0  10   35.24    2.40
  -4   0  10   28.67    2.28
  -4   0  10   32.52    2.52
   4   0 -10   33.64    2.36
   4   0 -10   30.31    2.22
  -4   0  10   27.46    2.21
   4   0 -10   36.04    2.41
  -4   0  10   29.57    2.36
   4   0 -10   30.87    2.28
  -3   0  10   50.45    3.98
   3   0 -10   60.69    4.00
  -3   0  10   53.70    3.88
  -3   0  10   60.88    3.85
   3   0 -10   53.59    3.88
   3   0 -10   55.44    3.79
   3   0 -10   58.68    3.85
  -3   0  10   51.59    4.03
  -3   0  10   57.32    3.79
   3   0 -10   61.32    4.06
  -3   0  10   47.51    4.28
   2   0 -10   12.91    1.00
  -2   0  10   11.53    0.98
   2   0 -10   12.54    1.03
   2   0 -10    9.86    1.04
  -2   0  10   11.54    1.06
   2   0 -10   11.95    1.00
   2   0 -10   11.10    0.96
  -2   0  10   13.58    1.04
   2   0 -10   11.61    1.05
  -2   0  10   13.08    1.05
  -2   0  10   12.43    0.97
  -2   0  10   13.10    1.00
   1   0 -10  122.74    7.98
   1   0 -10  108.68    8.48
   1   0 -10  133.50    8.19
   1   0 -10  122.67    8.41
   1   0 -10  116.14    8.04
  -1   0  10  117.60    8.05
  -1   0  10  116.45    9.06
  -1   0  10  131.36    8.49
  -1   0  10  111.51    8.18
  -1   0  10  109.44    7.96
  -1   0  10  125.84    8.41
  -1   0  10  110.42    8.39
   0   0  10   41.21    2.68
   0   0  10   37.31    2.88
   0   0 -10   30.55    2.66
   0   0 -10   34.80    2.52
   0   0  10   36.88    2.52
   0   0 -10   40.03    2.72
   0   0  10   32.57    2.55
   0   0  10   37.97    2.70
   0   0  10   34.40    2.58
   0   0  10   34.41    2.67
   0   0 -10   37.81    2.58
   0   0 -10   36.84    2.56
   0   0 -10   38.87    2.53
   1   0  10   32.66    2.30
  -1   0 -10   32.54    2.24
   1   0  10   32.12    2.56
   1   0  10   31.74    2.37
  -1   0 -10   29.34    2.37
   1   0  10   33.41    2.24
  -1   0 -10   31.72    2.29
  -1   0 -10   28.78    2.26
   1   0  10   32.18    2.40
   1   0  10   33.40    2.28
   1   0  10   34.70    2.38
   2   0  10  145.98   10.66
  -2   0 -10  159.94   10.15
   2   0  10  146.26   10.40
   2   0  10  159.06   10.78
  -2   0 -10  144.65   10.40
  -2   0 -10  158.07   10.68
   2   0  10  156.25   10.14
  -2   0 -10  147.74   10.78
   2   0  10  143.72   11.52
   2   0  10  149.85   10.23
   2   0  10  151.42   11.28
  -2   0 -10  153.55   10.22
   3   0  10   35.14    2.55
   3   0  10   32.87    2.37
   3   0  10   36.66    2.52
  -3   0 -10   35.05    2.44
  -3   0 -10   31.39    2.38
   3   0  10   37.13    2.67
  -3   0 -10   29.08    2.54
  -3   0 -10   33.63    2.53
   4   0  10   57.48    4.33
   4   0  10   58.77    4.72
   4   0  10   64.74    4.52
  -4   0 -10   63.40    4.34
  -4   0 -10   60.73    4.47
  -4   0 -10   64.83    4.52
   4   0  10   57.52    4.46
   4   0  10   64.11    4.23
  -4   0 -10   65.55    4.24
  -5   0 -10    0.17    0.38
  -5   0 -10    0.13    0.36
   5   0  10    0.26    0.30
   5   0  10    0.47    0.35
  -5   0 -10   -0.06    0.34
  -5   0 -10    0.37    0.30
   5   0  10   -0.13    0.34
   5   0  10    0.41    0.34
   5   0  10    0.07    0.31
  -6   0 -10   21.07    1.65
  -6   0 -10   24.08    1.66
  -6   0 -10   22.63    1.75
   6   0  10   21.01    1.81
   6   0  10   17.63    1.63
   6   0  10   20.47    1.73
   6   0  10   22.42    1.61
  -7   0 -10   52.92    3.62
   7   0  10   49.57    3.62
   7   0  10   47.46    3.53
  -7   0 -10   52.20    3.56
   7   0  10   50.91    3.96
   8   0  10    1.69    0.55
  -8   0 -10    0.78    0.49
  -8   0 -10    0.94    0.46
   8   0  10    1.37    0.43
   8   0  10    0.65    0.45
   8  -1 -10    1.93    0.46
  -8  -1  10    0.64    0.40
   8  -1 -10    1.17    0.57
  -8  -1  10    0.49    0.50
  -8  -1  10    1.38    0.47
  -8  -1  10    1.77    0.50
  -8  -1  10    0.88    0.43
   8  -1 -10    1.46    0.41
   8   1 -10    2.04    0.56
  -8   1  10    0.97    0.52
  -8   1  10    2.15    0.50
  -8   1  10    1.65    0.49
   8   1 -10    1.43    0.50
  -7  -1  10   18.90    1.43
  -7  -1  10   18.72    1.59
  -7  -1  10   17.40    1.53
   7  -1 -10   16.72    1.42
   7  -1 -10   19.20    1.43
  -7  -1  10   18.15    1.45
  -7  -1  10   18.24    1.64
   7  -1 -10   18.87    1.59
   7   1 -10   17.32    1.63
  -7   1  10   18.74    1.52
   7   1 -10   20.02    1.52
  -7   1  10   18.94    1.58
  -7   1  10   16.15    1.59
   6  -1 -10    2.37    0.41
   6  -1 -10    2.14    0.49
  -6  -1  10    2.22    0.47
  -6  -1  10    2.80    0.46
   6  -1 -10    2.73    0.46
  -6  -1  10    1.80    0.44
  -6  -1  10    2.25    0.37
   6   1 -10    1.99    0.49
  -6   1  10    1.49    0.44
  -6   1  10    2.41    0.47
   6   1 -10    1.96    0.46
  -6   1  10    2.31    0.45
   5  -1 -10    7.54    0.71
  -5  -1  10    5.54    0.71
  -5  -1  10    7.68    0.78
   5  -1 -10    7.43    0.69
  -5  -1  10    6.50    0.66
   5  -1 -10    5.22    0.68
   5  -1 -10    5.73    0.63
  -5  -1  10    7.99    0.76
  -5  -1  10    6.33    0.65
  -5   1  10    6.31    0.73
  -5   1  10    7.88    0.77
   5   1 -10    6.69    0.72
  -5   1  10    6.76    0.70
   5   1 -10    6.60    0.69
   4  -1 -10   21.95    1.70
  -4  -1  10   26.97    1.84
  -4  -1  10   29.51    1.88
  -4  -1  10   23.34    1.71
  -4  -1  10   24.91    1.77
   4  -1 -10   27.52    1.79
   4  -1 -10   22.03    1.72
  -4  -1  10   24.99    1.74
   4  -1 -10   18.78    1.81
  -4  -1  10   21.41    1.94
  -4  -1  10   20.61    1.82
   4   1 -10   21.45    1.76
  -4   1  10   22.07    1.82
  -4   1  10   26.05    1.92
   4   1 -10   25.74    1.84
  -4   1  10   22.34    1.76
   3  -1 -10    4.24    0.47
  -3  -1  10    4.69    0.52
   3  -1 -10    4.77    0.55
   3  -1 -10    4.30    0.46
  -3  -1  10    4.57    0.49
  -3  -1  10    4.32    0.52
  -3  -1  10    5.33    0.59
   3  -1 -10    4.62    0.56
  -3  -1  10    4.39    0.47
  -3  -1  10    4.36    0.55
  -3  -1  10    3.71    0.52
   3  -1 -10    4.50    0.53
   3   1 -10    3.27    0.51
  -3   1  10    3.95    0.50
  -3   1  10    5.65    0.58
   3   1 -10    3.59    0.49
  -3   1  10    4.62    0.52
   3   1 -10    4.89    0.53
   2  -1 -10   20.61    1.66
   2  -1 -10   22.44    1.71
   2  -1 -10   19.82    1.58
  -2  -1  10   21.58    1.68
   2  -1 -10   22.26    1.57
  -2  -1  10   23.58    1.58
  -2  -1  10   21.58    1.67
  -2  -1  10   21.34    1.61
  -2  -1  10   24.77    1.71
   2  -1 -10   22.99    1.64
  -2  -1  10   23.17    1.60
  -2  -1  10   18.86    1.78
  -2   1  10   22.23    1.76
  -2   1  10   23.54    1.64
   2   1 -10   20.50    1.62
  -2   1  10   22.65    1.69
   2   1 -10   22.17    1.72
  -2   1  10   18.93    1.67
   2   1 -10   21.48    1.71
   1  -1 -10    2.37    0.42
  -1  -1  10    2.48    0.34
  -1  -1  10    2.40    0.41
   1  -1 -10    2.70    0.40
   1  -1 -10    3.01    0.41
  -1  -1  10    3.00    0.36
  -1  -1  10    2.47    0.39
   1  -1 -10    2.76    0.36
  -1  -1  10    2.60    0.38
   1  -1 -10    2.35    0.33
  -1  -1  10    2.32    0.39
  -1  -1  10    2.54    0.39
  -1   1  10    2.23    0.36
  -1   1  10    2.22    0.38
   1   1 -10    2.33    0.37
   1   1 -10    3.04    0.44
   1   1 -10    2.95    0.37
  -1   1  10    1.98    0.34
  -1   1  10    1.79    0.35
   1   1 -10    2.91    0.45
   0  -1  10   46.79    3.30
   0  -1  10   42.52    3.17
   0  -1 -10   44.52    3.32
   0  -1 -10   50.15    3.31
   0  -1 -10   44.53    3.17
   0  -1  10   43.90    3.10
   0  -1  10   46.38    3.29
   0  -1 -10   48.91    3.15
   0  -1  10   49.88    3.34
   0  -1  10   44.24    3.16
   0  -1  10   36.94    3.53
   0  -1 -10   41.88    3.10
   0   1  10   50.19    3.33
   0   1 -10   41.67    3.19
   0   1 -10   47.29    3.30
   0   1  10   46.83    3.52
   0   1  10   44.25    3.29
   0   1 -10   43.24    3.32
   0   1 -10   45.38    3.14
   0   1  10   48.34    3.20
   1  -1  10   23.04    1.69
  -1  -1 -10   20.90    1.60
   1  -1  10   20.36    1.66
   1  -1  10   23.30    1.61
   1  -1  10   20.36    1.57
  -1  -1 -10   20.79    1.70
   1  -1  10   22.43    1.67
   1  -1  10   18.96    1.55
   1  -1  10   26.61    1.84
  -1  -1 -10   19.12    1.56
  -1  -1 -10   23.91    1.68
  -1  -1 -10   21.31    1.57
   1   1  10   22.68    1.77
   1   1  10   21.81    1.67
  -1   1 -10   22.82    1.71
  -1   1 -10   20.61    1.61
   1   1  10   22.68    1.70
   1   1  10   20.82    1.62
  -1   1 -10   21.46    1.68
  -2  -1 -10    0.58    0.24
   2  -1  10    0.29    0.31
  -2  -1 -10    0.45    0.31
   2  -1  10    0.40    0.24
   2  -1  10    0.16    0.25
   2  -1  10    0.41    0.26
  -2  -1 -10    0.27    0.32
   2  -1  10    0.56    0.27
   2  -1  10    0.31    0.26
   2  -1  10    0.46    0.30
   2  -1  10    0.29    0.29
  -2  -1 -10    0.63    0.31
  -2  -1 -10    0.09    0.26
   2   1  10    0.56    0.29
  -2   1 -10    0.61    0.29
   2   1  10    0.30    0.28
   2   1  10    0.50    0.30
  -2   1 -10    0.85    0.35
  -2   1 -10    0.31    0.35
  -3  -1 -10   23.78    1.67
   3  -1  10   20.92    1.80
   3  -1  10   24.97    1.70
   3  -1  10   26.97    1.83
   3  -1  10   26.08    1.83
  -3  -1 -10   24.28    1.83
   3  -1  10   23.68    1.89
   3  -1  10   25.11    1.67
  -3  -1 -10   21.19    1.79
   3  -1  10   25.01    1.73
  -3  -1 -10   26.45    1.70
  -3  -1 -10   22.20    1.72
   3   1  10   19.67    1.77
  -3   1 -10   21.00    1.72
   3   1  10   21.01    1.88
  -3   1 -10   20.37    1.79
   3   1  10   21.85    1.73
   4  -1  10    0.45    0.31
   4  -1  10    0.29    0.27
  -4  -1 -10    0.34    0.28
  -4  -1 -10    0.58    0.36
   4  -1  10    0.43    0.30
   4  -1  10   -0.06    0.26
   4  -1  10    0.74    0.34
  -4  -1 -10    1.10    0.36
  -4  -1 -10    0.59    0.38
  -4  -1 -10    0.72    0.29
   4   1  10    0.61    0.35
  -4   1 -10    0.68    0.32
   4   1  10    1.00    0.34
   4   1  10    0.83    0.31
  -4   1 -10    1.25    0.37
   5  -1  10   22.87    1.99
   5  -1  10   22.68    1.77
  -5  -1 -10   23.53    1.81
  -5  -1 -10   25.18    1.95
   5  -1  10   29.45    1.82
  -5  -1 -10   20.67    1.77
   5  -1  10   26.71    1.86
   5  -1  10   24.10    1.92
  -5   1 -10   24.76    1.84
   5   1  10   26.79    1.92
  -5   1 -10   25.74    1.93
   5   1  10   22.68    1.83
   5   1  10   23.35    2.01
   6  -1  10    7.30    0.82
  -6  -1 -10    8.21    0.80
  -6  -1 -10    7.14    0.84
   6  -1  10    8.06    0.77
   6  -1  10    8.84    0.78
   6  -1  10    6.82    0.86
  -6  -1 -10    6.81    0.72
   6   1  10    7.28    0.82
   6   1  10    7.92    0.88
  -6   1 -10    8.95    0.87
  -6   1 -10    6.35    0.73
   6   1  10    8.89    0.82
  -7  -1 -10    0.85    0.39
   7  -1  10    1.74    0.48
  -7  -1 -10    1.15    0.49
  -7  -1 -10    1.85    0.39
   7  -1  10    0.91    0.44
   7  -1  10    1.65    0.36
   7  -1  10    0.91    0.38
  -7   1 -10    0.94    0.49
  -7   1 -10    0.80    0.39
   7   1  10    1.18    0.37
   7   1  10    0.39    0.44
   7   1  10    1.84    0.52
   8  -1  10   12.45    1.28
  -8  -1 -10   14.47    1.33
   8  -1  10   13.62    1.14
  -8  -1 -10   14.66    1.16
   8  -1  10   14.00    1.34
   8  -1  10   13.21    1.15
  -8  -1 -10   13.46    1.17
  -8   1 -10   13.08    1.33
   8   1  10   13.34    1.20
   8   1  10   12.78    1.34
  -8   1 -10   11.34    1.18
  -8  -2  10   15.33    1.48
  -8  -2  10   17.06    1.56
  -8  -2  10   18.62    1.65
   8  -2 -10   16.53    1.55
  -8  -2  10   16.66    1.37
  -8   2  10   19.40    1.58
   8   2 -10   18.74    1.68
  -8   2  10   17.09    1.51
   8   2 -10   16.44    1.49
  -7  -2  10    2.66    0.46
  -7  -2  10    2.37    0.55
  -7  -2  10    3.02    0.57
   7  -2 -10    3.10    0.54
   7  -2 -10    2.79    0.57
  -7   2  10    2.52    0.57
   7   2 -10    2.53    0.58
   7   2 -10    2.52    0.56
  -7   2  10    3.84    0.56
   6  -2 -10   47.78    3.20
  -6  -2  10   43.94    3.08
  -6  -2  10   39.87    3.34
  -6  -2  10   41.37    3.56
  -6  -2  10   46.26    3.20
   6  -2 -10   49.00    3.37
   6   2 -10   44.22    3.23
  -6   2  10   49.63    3.36
  -6   2  10   42.33    3.22
   6   2 -10   43.85    3.33
   5  -2 -10    4.23    0.60
  -5  -2  10    4.35    0.65
  -5  -2  10    4.22    0.61
   5  -2 -10    5.02    0.62
  -5  -2  10    5.26    0.61
  -5  -2  10    5.24    0.54
  -5  -2  10    5.69    0.65
   5   2 -10    5.72    0.64
   5   2 -10    6.47    0.68
  -5   2  10    6.14    0.68
  -5   2  10    5.48    0.62
  -4  -2  10   20.35    1.43
  -4  -2  10   21.60    1.59
  -4  -2  10   20.02    1.59
  -4  -2  10   19.48    1.51
  -4  -2  10   16.97    1.68
   4  -2 -10   20.41    1.55
   4  -2 -10   17.99    1.57
   4   2 -10   18.78    1.54
   4   2 -10   20.72    1.60
  -4   2  10   20.81    1.58
  -4   2  10   18.92    1.53
  -3  -2  10   22.21    1.87
  -3  -2  10   19.36    1.85
  -3  -2  10   24.54    1.79
   3  -2 -10   24.64    1.69
   3  -2 -10   25.25    1.89
  -3  -2  10   25.85    1.71
  -3  -2  10   22.60    2.00
   3  -2 -10   24.02    1.81
   3   2 -10   22.53    1.86
  -3   2  10   26.80    1.82
   3   2 -10   26.24    1.82
  -3   2  10   26.68    1.88
  -2  -2  10    4.40    0.45
  -2  -2  10    4.75    0.61
  -2  -2  10    4.87    0.56
   2  -2 -10    4.99    0.58
   2  -2 -10    4.79    0.56
  -2  -2  10    4.11    0.55
  -2  -2  10    4.55    0.56
  -2   2  10    5.93    0.56
   2   2 -10    5.78    0.53
   2   2 -10    4.76    0.60
  -2   2  10    5.93    0.59
   1  -2 -10   92.13    5.94
  -1  -2  10   83.79    6.21
   1  -2 -10   77.88    5.83
  -1  -2  10   90.63    5.95
  -1  -2  10   81.17    5.84
  -1  -2  10   96.32    6.27
   1  -2 -10   83.65    6.25
  -1  -2  10   93.49    6.73
  -1   2  10  102.86    6.06
   1   2 -10   85.20    6.04
  -1   2  10   74.74    6.18
   0  -2 -10   10.43    0.86
   0  -2  10   10.55    1.09
   0  -2 -10   11.62    0.86
   0  -2  10   10.81    0.88
   0  -2  10   14.66    1.06
   0  -2  10   10.98    1.00
   0  -2 -10   10.84    0.96
   0  -2  10   12.47    0.99
   0  -2 -10   13.21    1.05
   0   2 -10   12.93    1.04
   0   2  10   12.75    1.00
   0   2  10   11.77    1.01
   0   2 -10   12.46    1.00
  -1  -2 -10   32.23    2.60
  -1  -2 -10   33.40    2.38
   1  -2  10   32.47    2.59
   1  -2  10   39.71    2.84
   1  -2  10   35.53    2.38
   1  -2  10   32.13    2.57
  -1  -2 -10   36.78    2.48
   1  -2  10   36.26    2.71
   1  -2  10   36.18    2.48
   1   2  10   34.32    2.50
   1   2  10   36.98    2.58
  -1   2 -10   32.02    2.58
  -1   2 -10   36.85    2.51
   2  -2  10   43.65    3.12
  -2  -2 -10   39.14    2.98
   2  -2  10   41.94    3.40
  -2  -2 -10   42.22    2.89
   2  -2  10   42.30    2.89
   2  -2  10   46.50    3.28
   2  -2  10   39.72    3.13
   2  -2  10   42.66    2.99
  -2  -2 -10   44.82    3.16
   2   2  10   45.53    3.03
  -2   2 -10   42.59    3.02
  -2   2 -10   37.97    3.12
   2   2  10   44.53    3.12
  -3  -2 -10    0.32    0.32
   3  -2  10    0.57    0.29
   3  -2  10    0.43    0.32
  -3  -2 -10    0.23    0.33
   3  -2  10    0.01    0.22
  -3  -2 -10    0.09    0.34
   3  -2  10    0.14    0.29
   3  -2  10   -0.34    0.31
   3  -2  10   -0.05    0.30
  -3  -2 -10   -0.03    0.22
   3   2  10    0.64    0.34
  -3   2 -10    0.40    0.34
   3   2  10   -0.05    0.29
   3   2  10   -0.24    0.28
  -3   2 -10    0.15    0.29
   4  -2  10   74.81    5.06
   4  -2  10   66.65    4.70
   4  -2  10   76.50    4.82
   4  -2  10   65.54    5.27
  -4  -2 -10   64.62    4.70
  -4  -2 -10   71.71    5.07
  -4  -2 -10   68.46    4.81
   4  -2  10   67.01    5.02
  -4  -2 -10   66.53    4.81
  -4  -2 -10   67.31    5.03
   4   2  10   75.07    4.88
  -4   2 -10   72.15    5.02
  -4   2 -10   69.86    4.88
   4   2  10   67.67    5.31
   4   2  10   73.88    5.02
  -5  -2 -10    2.98    0.53
  -5  -2 -10    1.95    0.35
   5  -2  10    3.00    0.48
  -5  -2 -10    2.52    0.49
   5  -2  10    2.23    0.33
  -5  -2 -10    2.42    0.51
   5  -2  10    1.96    0.47
  -5  -2 -10    2.66    0.50
   5  -2  10    2.40    0.46
   5  -2  10    2.70    0.49
   5   2  10    2.60    0.48
  -5   2 -10    2.96    0.45
   5   2  10    1.91    0.41
  -5   2 -10    1.78    0.45
   5   2  10    2.74    0.53
   6  -2  10   10.36    1.09
  -6  -2 -10   11.13    1.07
  -6  -2 -10   11.44    1.13
   6  -2  10   11.49    1.14
   6  -2  10   11.34    1.05
   6  -2  10   11.43    1.08
  -6  -2 -10    9.58    0.92
   6   2  10   11.48    1.09
  -6   2 -10   11.64    1.03
   6   2  10   10.93    1.01
   6   2  10   11.90    1.15
  -6   2 -10   11.10    1.14
   7  -2  10   17.41    1.55
  -7  -2 -10   16.83    1.36
  -7  -2 -10   17.54    1.59
   7  -2  10   20.33    1.63
   7  -2  10   17.99    1.64
  -7   2 -10   17.54    1.59
  -7   2 -10   18.90    1.50
   7   2  10   17.48    1.66
   7   2  10   18.98    1.58
   7   2  10   19.35    1.49
   8  -2  10    0.61    0.45
   8  -2  10    1.10    0.58
   8  -2  10    0.88    0.49
  -8  -2 -10    1.12    0.50
   8   2  10    1.03    0.50
  -8   2 -10    0.92    0.53
  -8   2 -10    0.81    0.45
   8   2  10    0.25    0.42
   8   2  10    1.26    0.53
  -7  -3  10   36.98    2.58
  -7  -3  10   35.47    2.72
  -7  -3  10   34.23    2.90
   7  -3 -10   30.53    2.66
   7  -3 -10   32.15    2.59
   7   3 -10   36.98    2.63
   7   3 -10   33.25    2.71
  -7   3  10   40.22    2.75
  -6  -3  10    8.37    0.86
   6  -3 -10    7.51    0.86
  -6  -3  10    8.23    0.97
  -6  -3  10   10.14    0.98
  -6  -3  10    8.91    0.91
   6  -3 -10    9.26    0.92
   6   3 -10    8.12    0.90
  -6   3  10    7.63    0.93
   6   3 -10    9.38    0.90
   5  -3 -10   29.23    2.34
  -5  -3  10   28.62    2.34
   5  -3 -10   29.97    2.27
  -5  -3  10   28.76    2.54
  -5  -3  10   30.18    2.35
  -5  -3  10   30.97    2.27
   5   3 -10   34.54    2.37
  -5   3  10   31.83    2.36
  -4  -3  10   31.68    2.44
  -4  -3  10   23.36    2.22
  -4  -3  10   30.89    2.26
   4  -3 -10   32.06    2.18
   4  -3 -10   27.01    2.23
  -4  -3  10   31.70    2.16
  -4   3  10   30.80    2.23
   4   3 -10   27.63    2.23
  -3  -3  10    6.42    0.63
  -3  -3  10    5.63    0.63
   3  -3 -10    5.70    0.63
   3  -3 -10    6.00    0.64
  -3  -3  10    5.67    0.66
  -3  -3  10    4.64    0.67
   3   3 -10    5.13    0.62
  -3   3  10    4.94    0.64
  -2  -3  10   59.00    3.91
   2  -3 -10   49.35    3.73
  -2  -3  10   54.83    4.23
   2  -3 -10   49.15    3.90
  -2  -3  10   59.88    3.75
  -2  -3  10   60.39    3.93
  -2   3  10   49.57    3.88
   2   3 -10   48.04    3.90
  -1  -3  10    3.00    0.43
  -1  -3  10    1.71    0.47
  -1  -3  10    2.97    0.47
  -1  -3  10    2.97    0.45
   1  -3 -10    2.64    0.44
   1  -3 -10    2.31    0.41
  -1  -3  10    2.69    0.45
   1   3 -10    2.95    0.49
  -1   3  10    2.78    0.43
   0  -3 -10   58.64    4.86
   0  -3  10   69.27    5.09
   0  -3  10   65.95    4.64
   0  -3 -10   63.55    4.62
   0  -3  10   63.12    4.86
   0  -3  10   62.94    5.26
   0  -3  10   72.29    4.85
   0  -3  10   71.05    4.62
   0   3  10   75.24    4.85
   0   3 -10   73.31    4.85
   1  -3  10   37.49    2.96
   1  -3  10   34.94    2.69
  -1  -3 -10   35.55    2.71
  -1  -3 -10   38.72    2.58
   1  -3  10   36.62    2.56
   1  -3  10   35.88    2.58
   1  -3  10   38.45    2.70
   1   3  10   34.75    2.68
  -1   3 -10   35.00    2.70
  -2  -3 -10   14.66    1.13
   2  -3  10   13.81    1.30
   2  -3  10   11.81    1.08
   2  -3  10   12.76    1.13
   2  -3  10   13.26    1.14
  -2  -3 -10   15.06    1.14
  -2  -3 -10   11.82    1.08
   2   3  10   12.65    1.13
  -2   3 -10   11.96    1.15
  -3  -3 -10   49.36    3.57
   3  -3  10   49.54    3.56
  -3  -3 -10   47.91    3.57
  -3  -3 -10   46.84    3.44
   3  -3  10   48.26    3.88
   3  -3  10   51.27    3.41
   3  -3  10   47.67    3.55
  -3  -3 -10   48.19    3.41
   3   3  10   51.00    3.56
  -3   3 -10   46.09    3.55
  -4  -3 -10    1.41    0.42
  -4  -3 -10    0.96    0.39
   4  -3  10    1.93    0.40
  -4  -3 -10    1.06    0.41
  -4  -3 -10    1.33    0.43
   4  -3  10    1.05    0.41
   4  -3  10    1.22    0.39
   4   3  10    1.09    0.44
   4   3  10    1.57    0.43
  -4   3 -10    2.21    0.48
  -5  -3 -10   49.89    3.30
  -5  -3 -10   50.39    3.28
   5  -3  10   44.57    3.40
  -5  -3 -10   45.26    3.41
   5  -3  10   48.59    3.27
  -5  -3 -10   45.24    3.40
   5  -3  10   48.92    3.43
   5   3  10   49.21    3.41
   5   3  10   45.24    3.28
   5   3  10   42.70    3.59
  -5   3 -10   36.53    3.38
   6  -3  10    9.37    1.00
   6  -3  10   11.41    1.08
  -6  -3 -10    8.92    0.97
  -6  -3 -10   10.89    1.06
   6  -3  10   11.35    1.02
  -6  -3 -10   11.17    1.06
   6   3  10    7.48    0.95
  -6   3 -10    9.70    1.02
   6   3  10   11.05    1.11
   6   3  10    9.51    0.95
   7  -3  10   12.10    1.10
   7  -3  10   12.09    1.21
  -7  -3 -10    8.65    1.02
  -7  -3 -10   11.57    1.08
   7  -3  10   10.30    1.03
  -7   3 -10   12.05    1.18
   7   3  10   11.25    1.14
   7   3  10   11.19    1.20
  -7   3 -10    8.35    0.96
   7   3  10   11.42    1.05
   7  -4 -10    0.39    0.45
  -7  -4  10    0.65    0.51
   7  -4 -10    1.46    0.55
  -7  -4  10    0.46    0.43
   7  -4 -10    1.16    0.52
  -7  -4  10    0.09    0.45
  -7   4  10    0.84    0.56
   7   4 -10    0.34    0.54
  -6  -4  10    1.22    0.52
   6  -4 -10    1.84    0.53
   6  -4 -10    2.17    0.56
  -6  -4  10    0.92    0.44
  -6  -4  10    1.56    0.55
   6  -4 -10    1.45    0.47
  -6  -4  10    2.62    0.51
   6   4 -10    1.57    0.53
  -6   4  10    1.65    0.55
  -5  -4  10    3.91    0.70
   5  -4 -10    4.33    0.63
  -5  -4  10    4.17    0.65
  -5  -4  10    4.45    0.62
  -5  -4  10    4.50    0.64
   5  -4 -10    3.68    0.66
   5  -4 -10    3.54    0.57
   5   4 -10    4.38    0.63
  -5   4  10    4.47    0.65
  -4  -4  10    0.29    0.44
   4  -4 -10    0.95    0.44
   4  -4 -10   -0.03    0.48
  -4  -4  10    0.27    0.39
  -4  -4  10    0.79    0.42
  -4  -4  10    0.58    0.40
   4  -4 -10    0.55    0.38
  -4   4  10    0.24    0.40
   4   4 -10   -0.15    0.40
   3  -4 -10    4.73    0.57
   3  -4 -10    4.61    0.68
  -3  -4  10    4.56    0.68
   3  -4 -10    4.72    0.59
  -3  -4  10    4.02    0.61
  -3  -4  10    4.47    0.57
  -3  -4  10    3.79    0.54
   3   4 -10    4.26    0.61
  -3   4  10    3.66    0.56
  -2  -4  10    2.46    0.46
   2  -4 -10    4.19    0.49
  -2  -4  10    3.18    0.48
   2  -4 -10    3.43    0.52
   2  -4 -10    2.84    0.54
  -2  -4  10    2.58    0.42
  -2  -4  10    1.71    0.50
  -2  -4  10    2.84    0.49
   2   4 -10    2.54    0.53
  -2   4  10    3.86    0.52
  -1  -4  10    1.89    0.43
  -1  -4  10    3.00    0.43
  -1  -4  10    2.60    0.46
   1  -4 -10    2.18    0.41
  -1  -4  10    2.77    0.43
   1  -4 -10    2.29    0.52
   1  -4 -10    2.70    0.43
  -1  -4  10    2.24    0.51
  -1   4  10    1.68    0.40
   1   4 -10    3.17    0.51
   0  -4 -10    1.97    0.40
   0  -4  10    1.92    0.54
   0  -4  10    2.19    0.42
   0  -4  10    1.63    0.38
   0  -4  10    1.53    0.40
   0  -4 -10    2.03    0.39
   0  -4  10    1.84    0.42
   0  -4 -10    1.94    0.51
   0   4  10    2.20    0.42
   0   4 -10    2.13    0.45
   1  -4  10    0.76    0.33
  -1  -4 -10    0.34    0.34
   1  -4  10    0.30    0.34
  -1  -4 -10    0.34    0.31
   1  -4  10    0.37    0.33
   1  -4  10    0.43    0.33
   1  -4  10    1.06    0.51
  -1  -4 -10    1.36    0.43
  -1   4 -10    0.31    0.36
   1   4  10    0.24    0.34
   2  -4  10   -0.12    0.31
  -2  -4 -10    0.56    0.39
   2  -4  10    0.27    0.31
  -2  -4 -10    0.07    0.34
  -2  -4 -10    0.49    0.33
   2  -4  10    0.66    0.50
   2  -4  10    0.49    0.34
   2  -4  10    0.53    0.38
   2   4  10    0.54    0.35
  -2   4 -10    0.27    0.39
   3  -4  10    0.69    0.41
  -3  -4 -10    0.06    0.33
  -3  -4 -10    0.87    0.39
  -3  -4 -10    0.78    0.42
  -3  -4 -10    0.57    0.39
   3  -4  10    0.16    0.33
   3  -4  10   -0.26    0.35
  -3   4 -10    0.82    0.41
   3   4  10    0.03    0.36
   3   4  10    0.03    0.40
   4  -4  10    0.88    0.47
  -4  -4 -10    0.17    0.45
  -4  -4 -10    0.26    0.34
   4  -4  10    0.25    0.32
  -4  -4 -10   -0.51    0.42
   4  -4  10    0.42    0.37
  -4  -4 -10    0.37    0.40
   4  -4  10   -0.55    0.33
  -4   4 -10   -0.62    0.40
   4   4  10    0.01    0.40
   4   4  10   -0.14    0.40
   5  -4  10    1.53    0.56
  -5  -4 -10    2.39    0.51
  -5  -4 -10    1.87    0.50
  -5  -4 -10    2.21    0.53
   5  -4  10    1.85    0.44
  -5  -4 -10    0.76    0.45
   5  -4  10    2.42    0.50
   5   4  10    2.52    0.54
   5   4  10    1.74    0.54
  -5   4 -10    1.89    0.53
  -6  -4 -10    7.66    0.90
   6  -4  10   11.91    1.03
  -6  -4 -10    8.21    0.87
  -6  -4 -10    7.27    0.83
   6  -4  10    8.01    0.97
   6  -4  10    8.61    0.87
  -6   4 -10    8.65    0.95
   6   4  10    7.32    0.94
   6   4  10    8.66    0.92
   5  -5 -10   18.21    1.64
  -5  -5  10   18.15    1.66
   5  -5 -10   19.30    1.57
  -5  -5  10   17.25    1.78
  -5  -5  10   18.47    1.57
  -5  -5  10   18.04    1.56
   5  -5 -10   19.22    1.52
  -5   5  10   19.98    1.69
   5   5 -10   18.94    1.62
  -4  -5  10   13.68    1.29
   4  -5 -10   11.76    1.22
  -4  -5  10   10.90    1.34
   4  -5 -10   13.49    1.18
  -4  -5  10   12.52    1.15
  -4  -5  10   14.56    1.22
   4  -5 -10   12.82    1.12
  -4   5  10   12.09    1.24
   4   5 -10   12.76    1.22
  -3  -5  10    1.14    0.38
   3  -5 -10    0.83    0.44
  -3  -5  10    0.71    0.40
   3  -5 -10    0.75    0.47
  -3  -5  10    0.34    0.50
  -3  -5  10   -0.05    0.46
  -3  -5  10    0.39    0.38
   3   5 -10    0.39    0.43
  -3   5  10    0.30    0.42
  -2  -5  10   32.41    2.40
   2  -5 -10   30.03    2.35
   2  -5 -10   30.55    2.49
  -2  -5  10   33.53    2.38
  -2  -5  10   33.35    2.49
  -2  -5  10   31.88    2.34
  -2  -5  10   36.49    2.77
  -2   5  10   34.49    2.49
   2   5 -10   33.11    2.46
   2   5 -10   29.71    2.49
  -1  -5  10    1.99    0.36
  -1  -5  10    2.28    0.51
  -1  -5  10    2.74    0.60
   1  -5 -10    2.67    0.58
   1  -5 -10    1.75    0.44
  -1  -5  10    1.78    0.41
  -1  -5  10    2.39    0.47
  -1   5  10    2.96    0.49
   1   5 -10    1.18    0.50
   0  -5 -10   12.18    1.23
   0  -5  10   12.63    1.14
   0  -5  10   13.42    1.18
   0  -5 -10   11.75    1.08
   0  -5  10   12.55    1.07
   0  -5  10   13.04    1.02
   0  -5  10   12.62    1.37
   0   5  10   12.23    1.17
   0   5 -10   12.03    1.19
   1  -5  10   18.43    1.58
  -1  -5 -10   19.08    1.56
   1  -5  10   22.73    1.67
   1  -5  10   21.79    1.90
  -1  -5 -10   20.09    1.68
   1  -5  10   17.71    1.54
   1  -5  10   21.56    1.53
  -1   5 -10   20.34    1.65
   1   5  10   19.97    1.64
   2  -5  10   14.23    1.55
   2  -5  10   15.94    1.24
   2  -5  10   15.70    1.32
  -2  -5 -10   12.90    1.30
  -2  -5 -10   17.58    1.26
   2  -5  10   16.43    1.40
   2  -5  10   17.52    1.26
  -2  -5 -10   19.43    1.44
   2  -5  10   14.32    1.31
   2   5  10   15.59    1.39
  -2   5 -10   14.66    1.39
  -3  -5 -10   30.94    2.23
   3  -5  10   28.32    2.22
   3  -5  10   31.92    2.38
   3  -5  10   27.63    2.21
   3  -5  10   32.62    2.05
  -3  -5 -10   29.32    2.34
  -3  -5 -10   27.71    2.21
   3  -5  10   33.13    2.23
   3  -5  10   28.53    2.33
  -3  -5 -10   33.92    2.30
   3   5  10   26.84    2.31
  -3   5 -10   27.95    2.33
  -4  -5 -10    0.26    0.46
   4  -5  10   -0.94    0.40
  -4  -5 -10    0.11    0.32
   4  -5  10   -0.45    0.41
  -4  -5 -10    0.03    0.45
   4  -5  10    0.12    0.30
   4  -5  10    0.77    0.52
   4   5  10    0.15    0.46
  -4   5 -10    0.03    0.47
  -5  -5 -10   12.05    1.16
  -5  -5 -10   13.03    1.12
   5  -5  10   11.42    1.08
  -5  -5 -10   10.11    1.10
   5  -5  10   10.59    1.00
   5  -5  10   11.80    1.22
  -5  -5 -10   10.46    1.03
   5   5  10   11.55    1.20
  -5   5 -10    9.95    1.07
  -3  -6  10   20.94    2.05
  -3  -6  10   22.10    1.73
   3  -6 -10   22.18    1.74
  -3  -6  10   21.54    1.70
  -3  -6  10   22.59    1.85
   3  -6 -10   20.65    1.86
   3   6 -10   20.32    1.79
  -3   6  10   24.12    1.83
  -2  -6  10    0.80    0.41
  -2  -6  10    0.89    0.50
   2  -6 -10    0.02    0.56
  -2  -6  10    0.11    0.56
  -2  -6  10   -0.01    0.41
   2  -6 -10    0.85    0.42
   2   6 -10    0.65    0.44
  -2   6  10   -0.25    0.44
  -1  -6  10   19.61    1.51
  -1  -6  10   17.42    1.55
   1  -6 -10   19.57    1.54
  -1  -6  10   17.32    1.51
  -1  -6  10   23.77    1.94
   1  -6 -10   21.83    1.74
  -1  -6  10   20.47    1.66
  -1   6  10   18.05    1.63
   1   6 -10   19.05    1.67
   0  -6  10    3.96    0.60
   0  -6 -10    3.29    0.69
   0  -6  10    2.54    0.55
   0  -6 -10    3.89    0.55
   0  -6  10    4.26    0.87
   0  -6  10    3.92    0.62
   0  -6  10    4.05    0.55
   0   6  10    3.29    0.61
   0   6 -10    3.00    0.61
   1  -6  10   16.54    1.46
   1  -6  10   18.50    1.43
  -1  -6 -10   18.90    1.45
   1  -6  10   17.31    1.83
  -1  -6 -10   17.01    1.60
   1  -6  10   17.26    1.56
   1  -6  10   20.03    1.54
   1   6  10   21.01    1.59
  -1   6 -10   17.20    1.56
   2  -6  10    3.65    0.60
  -2  -6 -10    4.64    0.69
  -2  -6 -10    3.04    0.54
   2  -6  10    3.87    0.64
   2  -6  10    3.51    0.58
   2  -6  10    2.66    0.79
   2  -6  10    3.40    0.58
   2   6  10    3.74    0.61
  -2   6 -10    3.51    0.62
  -8   0  11   -0.49    0.41
  -8   0  11    0.38    0.40
   8   0 -11    0.42    0.47
   8   0 -11    0.29    0.46
   7   0 -11   -0.59    0.41
   7   0 -11    0.05    0.40
  -7   0  11    0.33    0.40
  -7   0  11   -0.06    0.39
  -7   0  11   -0.49    0.42
  -6   0  11   -0.50    0.41
   6   0 -11    0.53    0.36
   6   0 -11   -0.14    0.38
  -6   0  11   -0.01    0.39
   6   0 -11    0.04    0.41
  -6   0  11    0.17    0.34
  -6   0  11    0.44    0.36
   5   0 -11   -0.13    0.39
  -5   0  11   -0.08    0.36
   5   0 -11   -0.41    0.37
  -5   0  11    0.06    0.38
  -5   0  11    0.18    0.34
  -5   0  11   -0.24    0.35
   5   0 -11    0.19    0.39
   5   0 -11   -0.17    0.41
  -5   0  11   -0.12    0.29
   4   0 -11    0.53    0.39
  -4   0  11    0.16    0.29
   4   0 -11    0.73    0.33
   4   0 -11   -0.10    0.33
  -4   0  11   -0.26    0.31
  -4   0  11    0.62    0.32
  -4   0  11   -0.01    0.34
   4   0 -11    0.84    0.34
  -4   0  11    0.13    0.33
   3   0 -11   -0.21    0.29
  -3   0  11   -0.11    0.28
  -3   0  11    0.07    0.27
   3   0 -11    0.10    0.32
  -3   0  11   -0.09    0.31
   3   0 -11    0.25    0.37
  -3   0  11   -0.13    0.28
  -3   0  11    0.25    0.32
   3   0 -11    0.18    0.31
  -2   0  11    0.12    0.27
   2   0 -11    0.31    0.31
  -2   0  11    0.41    0.29
   2   0 -11    0.50    0.31
  -2   0  11    0.14    0.28
   2   0 -11   -0.08    0.31
  -2   0  11    0.19    0.33
   2   0 -11   -0.05    0.32
   2   0 -11    0.32    0.30
   2   0 -11    0.10    0.31
  -2   0  11    0.30    0.31
   1   0 -11   -0.02    0.28
  -1   0  11    0.41    0.28
  -1   0  11    0.02    0.27
   1   0 -11   -0.63    0.32
  -1   0  11   -0.18    0.26
   1   0 -11    0.03    0.26
  -1   0  11   -0.44    0.26
   1   0 -11    0.04    0.32
  -1   0  11    0.04    0.26
  -1   0  11    0.34    0.27
   1   0 -11    0.17    0.30
   0   0 -11   -0.19    0.29
   0   0 -11   -0.55    0.27
   0   0  11   -0.28    0.28
   0   0  11    0.52    0.30
   0   0 -11    0.24    0.28
   0   0  11    0.18    0.30
   0   0 -11    0.17    0.29
   0   0  11   -0.14    0.25
   0   0  11   -0.15    0.25
   0   0 -11   -0.36    0.29
   0   0 -11    0.18    0.26
   0   0  11   -0.15    0.26
  -1   0 -11   -0.07    0.32
   1   0  11   -0.26    0.23
  -1   0 -11    0.02    0.30
   1   0  11    0.37    0.30
  -1   0 -11    0.10    0.26
  -1   0 -11    0.09    0.28
  -1   0 -11    0.44    0.28
   1   0  11   -0.08    0.26
   1   0  11    0.24    0.26
   1   0  11    0.31    0.28
   1   0  11    0.15    0.26
  -2   0 -11    0.20    0.31
  -2   0 -11    0.32    0.27
   2   0  11   -0.10    0.29
  -2   0 -11    0.06    0.31
  -2   0 -11   -0.31    0.30
   2   0  11    0.15    0.32
   2   0  11   -0.59    0.27
   2   0  11    0.56    0.27
   2   0  11    0.10    0.32
   2   0  11    0.01    0.27
   3   0  11   -0.04    0.29
  -3   0 -11    0.47    0.35
   3   0  11    0.03    0.31
  -3   0 -11    0.50    0.30
   3   0  11    0.05    0.35
  -3   0 -11    0.75    0.36
   3   0  11    0.34    0.30
   3   0  11   -0.46    0.29
  -3   0 -11   -0.47    0.34
  -4   0 -11    0.26    0.37
   4   0  11    0.54    0.40
  -4   0 -11   -0.31    0.31
   4   0  11   -0.20    0.32
   4   0  11    0.09    0.31
  -4   0 -11    0.20    0.36
   4   0  11    0.24    0.34
   4   0  11    0.09    0.30
  -4   0 -11   -0.37    0.37
  -5   0 -11    0.16    0.34
   5   0  11    0.07    0.35
   5   0  11   -0.02    0.33
   5   0  11    0.02    0.35
   5   0  11    0.04    0.40
  -5   0 -11    0.25    0.33
  -5   0 -11   -0.41    0.36
  -5   0 -11    0.06    0.39
   5   0  11    0.32    0.32
   6   0  11   -0.21    0.38
  -6   0 -11   -0.30    0.41
   6   0  11   -0.01    0.35
   6   0  11   -0.13    0.41
  -6   0 -11   -0.29    0.37
   7   0  11    0.41    0.44
  -7   0 -11   -0.61    0.45
  -7   0 -11   -0.16    0.39
   7   0  11   -0.33    0.40
   7   0  11   -0.13    0.36
  -8   0 -11    0.21    0.48
   8   0  11    0.30    0.39
   8   0  11   -0.21    0.49
   8   0  11    0.22    0.40
  -8   0 -11   -0.52    0.42
  -8  -1  11   21.35    1.84
   8  -1 -11   19.33    1.63
  -8  -1  11   19.78    1.89
  -8  -1  11   21.81    1.64
   8  -1 -11   22.41    1.84
  -8  -1  11   20.73    1.67
   8  -1 -11   19.10    1.63
  -8   1  11   22.98    1.83
  -8   1  11   21.74    1.75
   8   1 -11   21.70    1.75
   7  -1 -11    2.05    0.55
  -7  -1  11    3.05    0.52
  -7  -1  11    1.75    0.51
   7  -1 -11    1.14    0.45
   7  -1 -11    2.67    0.44
  -7  -1  11    3.19    0.58
  -7  -1  11    1.66    0.43
   7   1 -11    3.01    0.61
  -7   1  11    2.29    0.54
   7   1 -11    1.72    0.55
  -7   1  11    2.95    0.60
  -7   1  11    2.27    0.50
  -6  -1  11   22.07    1.84
  -6  -1  11   23.21    1.69
  -6  -1  11   22.09    1.69
   6  -1 -11   23.36    1.68
   6  -1 -11   20.99    1.82
  -6  -1  11   22.73    1.70
   6  -1 -11   19.55    1.66
  -6  -1  11   21.04    1.90
   6   1 -11   24.41    1.86
   6   1 -11   21.99    1.75
  -6   1  11   24.03    1.88
  -6   1  11   20.38    1.75
  -6   1  11   22.42    1.84
  -5  -1  11    9.20    0.89
   5  -1 -11    7.48    0.79
   5  -1 -11    7.90    0.85
  -5  -1  11    8.22    0.78
  -5  -1  11    8.40    0.83
  -5  -1  11    7.03    0.87
   5  -1 -11    8.74    0.81
  -5   1  11    7.40    0.84
  -5   1  11    6.84    0.79
   5   1 -11    7.39    0.80
  -5   1  11    9.23    0.87
   5   1 -11    8.02    0.83
  -4  -1  11   44.20    2.97
  -4  -1  11   39.61    2.75
  -4  -1  11   40.07    3.16
   4  -1 -11   39.40    2.75
  -4  -1  11   41.01    2.82
   4  -1 -11   41.04    2.96
  -4  -1  11   36.97    2.81
   4  -1 -11   36.34    2.79
   4  -1 -11   41.61    2.84
  -4   1  11   40.25    2.84
   4   1 -11   40.17    2.94
   4   1 -11   34.39    2.83
  -4   1  11   39.80    2.93
  -4   1  11   38.09    3.11
   3  -1 -11   36.57    2.66
   3  -1 -11   31.21    2.50
  -3  -1  11   34.53    2.63
  -3  -1  11   35.90    2.52
  -3  -1  11   38.60    2.83
  -3  -1  11   36.58    2.46
   3  -1 -11   32.56    2.53
  -3  -1  11   31.42    2.50
   3  -1 -11   35.88    2.46
  -3  -1  11   30.62    2.63
   3   1 -11   30.35    2.62
   3   1 -11   36.66    2.55
  -3   1  11   37.67    2.78
  -3   1  11   41.08    2.56
  -3   1  11   37.46    2.64
  -2  -1  11    4.48    0.47
   2  -1 -11    4.38    0.47
  -2  -1  11    3.86    0.53
   2  -1 -11    4.25    0.47
   2  -1 -11    4.32    0.52
  -2  -1  11    3.74    0.48
   2  -1 -11    3.34    0.44
  -2  -1  11    4.64    0.49
  -2  -1  11    4.30    0.52
  -2  -1  11    4.26    0.54
  -2  -1  11    3.92    0.55
   2  -1 -11    4.34    0.56
   2   1 -11    4.02    0.49
   2   1 -11    3.47    0.52
   2   1 -11    5.02    0.61
  -2   1  11    3.82    0.52
  -2   1  11    3.11    0.47
  -2   1  11    3.35    0.48
  -1  -1  11   76.48    4.99
   1  -1 -11   74.96    4.98
  -1  -1  11   76.23    5.26
  -1  -1  11   74.92    5.62
   1  -1 -11   67.46    5.17
   1  -1 -11   81.38    4.92
   1  -1 -11   78.30    5.22
  -1  -1  11   72.50    5.20
  -1  -1  11   65.62    5.18
   1  -1 -11   67.21    5.02
  -1  -1  11   69.16    4.91
  -1  -1  11   71.24    5.03
   1  -1 -11   69.26    5.24
  -1   1  11   67.41    5.57
  -1   1  11   76.57    5.06
   1   1 -11   79.73    5.06
  -1   1  11   69.72    5.20
   1   1 -11   73.76    5.28
   1   1 -11   67.91    5.20
   0  -1 -11    1.95    0.40
   0  -1 -11    1.01    0.30
   0  -1  11    2.18    0.41
   0  -1  11    1.79    0.38
   0  -1 -11    1.55    0.33
   0  -1 -11    0.77    0.36
   0  -1  11    1.57    0.35
   0  -1  11    1.66    0.32
   0  -1  11    1.98    0.36
   0  -1 -11    1.69    0.34
   0  -1  11    1.85    0.42
   0  -1  11    1.35    0.32
   0   1  11    1.62    0.33
   0   1 -11    1.66    0.39
   0   1  11    1.85    0.36
   0   1  11    1.13    0.35
   0   1 -11    1.47    0.33
   0   1 -11    1.32    0.41
   1  -1  11  112.87    7.02
  -1  -1 -11  109.69    7.01
   1  -1  11  107.69    7.31
   1  -1  11   98.30    6.92
  -1  -1 -11   98.23    7.31
   1  -1  11   92.83    7.31
   1  -1  11  104.02    7.39
   1  -1  11  107.29    7.10
  -1  -1 -11  110.21    7.10
  -1  -1 -11  104.02    6.93
   1  -1  11   99.28    7.90
  -1  -1 -11  105.15    7.40
   1   1  11   91.85    7.30
   1   1  11  116.91    7.89
   1   1  11  103.27    7.13
  -1   1 -11   92.66    7.12
  -1   1 -11   96.61    7.30
  -2  -1 -11    7.91    0.77
   2  -1  11    7.33    0.75
   2  -1  11    6.60    0.65
   2  -1  11    6.92    0.77
   2  -1  11    8.06    0.79
  -2  -1 -11    7.73    0.71
   2  -1  11    8.79    0.78
   2  -1  11    5.71    0.77
   2  -1  11    7.50    0.69
  -2  -1 -11    8.14    0.68
  -2  -1 -11    6.69    0.65
   2   1  11    5.93    0.69
   2   1  11    7.71    0.76
  -2   1 -11    6.60    0.69
  -2   1 -11    6.14    0.72
  -3  -1 -11    6.01    0.60
   3  -1  11    5.59    0.59
  -3  -1 -11    5.55    0.63
   3  -1  11    5.94    0.68
   3  -1  11    6.56    0.65
   3  -1  11    7.18    0.75
  -3  -1 -11    5.40    0.68
   3  -1  11    6.18    0.68
  -3  -1 -11    6.42    0.63
   3  -1  11    6.34    0.60
  -3   1 -11    6.51    0.71
   3   1  11    5.83    0.66
   3   1  11    5.70    0.64
   3   1  11    5.55    0.70
  -3   1 -11    5.41    0.62
   4  -1  11   71.24    4.95
   4  -1  11   67.58    5.16
  -4  -1 -11   72.96    4.75
   4  -1  11   63.61    4.71
   4  -1  11   67.71    4.61
  -4  -1 -11   72.03    4.72
  -4  -1 -11   65.56    4.94
   4  -1  11   71.74    4.70
   4   1  11   60.44    4.88
   4   1  11   67.53    5.17
  -4   1 -11   70.26    4.76
  -4   1 -11   64.97    4.89
   4   1  11   65.46    4.76
  -5  -1 -11    3.45    0.59
   5  -1  11    4.96    0.63
  -5  -1 -11    2.91    0.46
  -5  -1 -11    3.95    0.52
   5  -1  11    3.97    0.48
   5  -1  11    3.58    0.59
   5  -1  11    3.30    0.48
   5   1  11    3.38    0.53
  -5   1 -11    3.82    0.59
  -5   1 -11    4.24    0.54
   5   1  11    5.06    0.61
   5   1  11    4.16    0.64
   6  -1  11   51.72    3.73
   6  -1  11   61.33    4.05
   6  -1  11   54.02    3.80
  -6  -1 -11   50.63    4.02
  -6  -1 -11   46.46    3.73
   6  -1  11   60.23    4.23
  -6  -1 -11   58.89    3.83
   6   1  11   50.42    4.19
   6   1  11   51.54    3.86
   6   1  11   54.69    3.99
  -6   1 -11   52.09    3.85
  -6   1 -11   58.89    4.01
  -7  -1 -11    1.98    0.47
   7  -1  11    1.36    0.43
   7  -1  11    2.68    0.52
  -7  -1 -11    2.23    0.44
  -7  -1 -11    1.77    0.61
   7  -1  11    2.81    0.63
   7  -1  11    2.27    0.39
  -7   1 -11    2.89    0.52
  -7   1 -11    2.16    0.55
   7   1  11    2.68    0.59
   7   1  11    2.38    0.49
   7   1  11    1.70    0.56
  -8  -2  11    3.64    0.70
  -8  -2  11    1.91    0.55
   8  -2 -11    2.77    0.63
   8   2 -11    2.28    0.66
   8   2 -11    2.10    0.53
  -8   2  11    3.64    0.70
  -8   2  11    2.38    0.60
  -7  -2  11   20.26    1.79
  -7  -2  11   19.98    1.55
   7  -2 -11   21.24    1.80
  -7  -2  11   19.20    1.84
  -7   2  11   19.45    1.71
   7   2 -11   23.08    1.86
  -7   2  11   22.28    1.81
   7   2 -11   19.93    1.71
  -6  -2  11    1.38    0.50
   6  -2 -11    0.15    0.38
  -6  -2  11    0.60    0.44
   6  -2 -11    0.99    0.49
  -6  -2  11    0.56    0.37
  -6   2  11    0.10    0.46
   6   2 -11    0.56    0.48
   6   2 -11    0.90    0.46
  -6   2  11    1.32    0.42
   5  -2 -11   65.32    4.38
  -5  -2  11   60.00    4.25
   5  -2 -11   60.26    4.59
  -5  -2  11   60.88    4.57
  -5  -2  11   64.80    4.60
  -5  -2  11   65.57    4.39
  -5  -2  11   57.66    4.92
  -5   2  11   62.60    4.43
  -5   2  11   63.86    4.57
   5   2 -11   66.04    4.57
   5   2 -11   62.57    4.44
  -4  -2  11    4.10    0.58
   4  -2 -11    4.00    0.42
   4  -2 -11    3.16    0.54
  -4  -2  11    2.68    0.52
  -4  -2  11    4.35    0.46
  -4  -2  11    3.77    0.54
  -4  -2  11    3.64    0.61
   4  -2 -11    4.81    0.63
   4   2 -11    3.64    0.55
  -4   2  11    3.44    0.52
  -4   2  11    4.27    0.59
   4   2 -11    3.19    0.58
  -3  -2  11    6.30    0.73
   3  -2 -11    8.00    0.79
   3  -2 -11    6.12    0.72
  -3  -2  11    6.39    0.71
  -3  -2  11    7.13    0.74
  -3  -2  11    7.45    0.83
   3  -2 -11    7.64    0.65
  -3  -2  11    7.58    0.67
  -3   2  11    7.68    0.78
   3   2 -11    6.78    0.70
  -3   2  11    7.35    0.70
   3   2 -11    6.84    0.75
  -2  -2  11   45.71    3.27
  -2  -2  11   50.82    3.37
  -2  -2  11   49.16    3.80
  -2  -2  11   50.22    3.52
   2  -2 -11   46.93    3.37
   2  -2 -11   44.97    3.53
   2  -2 -11   49.03    3.26
  -2  -2  11   45.16    3.53
   2   2 -11   54.96    3.42
  -2   2  11   46.61    3.40
   2   2 -11   47.37    3.53
  -2   2  11   45.87    3.51
  -1  -2  11    3.86    0.52
   1  -2 -11    5.29    0.59
  -1  -2  11    4.88    0.63
  -1  -2  11    3.85    0.43
   1  -2 -11    4.43    0.54
   1  -2 -11    4.04    0.42
  -1  -2  11    4.01    0.56
  -1  -2  11    4.95    0.57
  -1   2  11    4.34    0.50
  -1   2  11    4.78    0.57
   1   2 -11    3.75    0.57
   1   2 -11    4.25    0.51
   0  -2 -11   79.74    5.31
   0  -2  11   60.96    4.92
   0  -2  11   77.15    5.70
   0  -2  11   70.64    5.03
   0  -2  11   75.34    5.31
   0  -2  11   71.54    5.25
   0  -2 -11   78.51    5.03
   0  -2 -11   64.49    4.91
   0   2  11   72.10    5.12
   0   2 -11   79.27    5.26
   0   2  11   79.86    5.27
   0   2 -11   74.54    5.12
  -1  -2 -11    0.90    0.26
  -1  -2 -11    1.80    0.37
   1  -2  11    1.34    0.34
   1  -2  11    2.13    0.49
   1  -2  11    0.84    0.39
   1  -2  11    0.95    0.27
  -1  -2 -11    1.06    0.37
   1  -2  11    1.55    0.37
   1  -2  11    1.71    0.36
   1   2  11    1.28    0.36
   1   2  11    2.07    0.39
  -1   2 -11    1.52    0.38
  -1   2 -11    1.38    0.39
   2  -2  11   44.05    3.52
  -2  -2 -11   41.45    3.26
   2  -2  11   42.61    3.23
   2  -2  11   42.57    3.25
   2  -2  11   43.73    3.10
  -2  -2 -11   42.62    2.99
   2  -2  11   46.90    3.40
   2  -2  11   43.40    2.98
  -2  -2 -11   46.27    3.10
  -2   2 -11   49.26    3.15
   2   2  11   46.34    3.14
  -2   2 -11   36.81    3.22
   2   2  11   44.40    3.22
  -3  -2 -11   23.39    1.74
   3  -2  11   24.22    1.74
  -3  -2 -11   27.39    1.88
   3  -2  11   27.83    1.87
   3  -2  11   25.06    1.94
   3  -2  11   23.07    1.93
  -3  -2 -11   22.33    1.93
   3  -2  11   26.42    2.02
  -3   2 -11   26.24    1.87
   3   2  11   19.96    2.01
   3   2  11   26.36    1.86
   3   2  11   25.53    1.93
  -3   2 -11   24.01    1.95
   4  -2  11    1.13    0.41
  -4  -2 -11    1.04    0.44
   4  -2  11    1.30    0.39
   4  -2  11    1.03    0.48
   4  -2  11    1.66    0.41
   4  -2  11    0.95    0.28
  -4  -2 -11    0.91    0.30
  -4  -2 -11    1.37    0.44
  -4  -2 -11    1.71    0.45
   4   2  11    0.58    0.40
   4   2  11    1.27    0.40
   4   2  11    1.24    0.41
  -4   2 -11    1.02    0.39
  -4   2 -11    2.19    0.48
   5  -2  11   30.19    2.08
   5  -2  11   28.84    2.16
   5  -2  11   24.96    1.92
  -5  -2 -11   24.44    1.93
   5  -2  11   32.26    2.27
  -5  -2 -11   26.87    2.07
  -5  -2 -11   31.02    2.10
  -5  -2 -11   25.58    2.17
  -5   2 -11   27.76    2.07
   5   2  11   26.47    2.05
   5   2  11   23.96    2.25
   5   2  11   28.38    2.15
  -5   2 -11   28.15    2.16
   6  -2  11    0.04    0.45
  -6  -2 -11   -0.35    0.32
  -6  -2 -11    0.30    0.43
   6  -2  11    0.22    0.28
   6  -2  11   -0.26    0.41
   6   2  11    0.35    0.40
   6   2  11   -0.16    0.36
   6   2  11   -0.07    0.44
  -6   2 -11   -0.05    0.38
  -6   2 -11    0.65    0.47
  -7  -2 -11   47.62    3.54
  -7  -2 -11   39.40    3.19
   7  -2  11   51.48    3.54
   7  -2  11   47.70    3.65
  -7   2 -11   43.42    3.48
   7   2  11   50.26    3.51
   7   2  11   48.35    3.71
   7   2  11   44.95    3.36
  -7   2 -11   47.94    3.37
  -7  -3  11    1.33    0.47
  -7  -3  11    1.23    0.57
   7  -3 -11    1.87    0.53
   7  -3 -11    0.96    0.54
  -7  -3  11   -0.53    0.49
   7   3 -11    1.52    0.63
   7   3 -11   -0.30    0.50
  -7   3  11    1.07    0.53
  -7   3  11    0.99    0.61
  -6  -3  11    1.20    0.55
  -6  -3  11    0.54    0.45
   6  -3 -11    0.80    0.50
  -6  -3  11    0.28    0.45
  -6  -3  11    1.07    0.53
   6  -3 -11    0.25    0.47
   6   3 -11    0.40    0.53
   6   3 -11    0.08    0.45
  -6   3  11    0.01    0.49
   5  -3 -11    1.93    0.52
  -5  -3  11    0.79    0.41
  -5  -3  11    1.58    0.50
  -5  -3  11    1.08    0.46
   5  -3 -11    1.15    0.47
  -5  -3  11    1.73    0.51
   5   3 -11    0.79    0.47
  -5   3  11    0.53    0.47
   5   3 -11    1.72    0.52
   4  -3 -11    1.40    0.43
  -4  -3  11    0.81    0.46
  -4  -3  11    0.98    0.46
   4  -3 -11    1.18    0.50
  -4  -3  11    0.71    0.41
  -4  -3  11    1.16    0.44
  -4   3  11    1.21    0.43
   4   3 -11    1.50    0.43
   4   3 -11    0.47    0.45
   3  -3 -11    0.19    0.36
  -3  -3  11    0.43    0.37
   3  -3 -11    0.10    0.38
  -3  -3  11   -0.21    0.34
  -3  -3  11    0.55    0.39
  -3  -3  11    0.06    0.38
  -3   3  11    0.61    0.38
   3   3 -11    0.40    0.39
  -2  -3  11    0.30    0.35
   2  -3 -11    0.38    0.38
  -2  -3  11   -0.22    0.34
   2  -3 -11    0.91    0.37
  -2  -3  11    0.66    0.39
  -2  -3  11    0.71    0.37
   2   3 -11    0.20    0.42
  -2   3  11    0.31    0.35
   1  -3 -11    9.38    0.96
   1  -3 -11   10.97    1.00
  -1  -3  11   11.28    1.01
  -1  -3  11   10.14    1.08
  -1  -3  11   11.15    0.98
  -1  -3  11   10.41    0.99
  -1   3  11    9.53    0.97
   1   3 -11    9.95    1.03
   0  -3  11    0.38    0.41
   0  -3  11    0.79    0.34
   0  -3 -11    0.14    0.33
   0  -3  11    0.40    0.34
   0  -3 -11    0.54    0.34
   0  -3  11    0.78    0.36
   0   3 -11    0.49    0.38
   0   3  11    0.02    0.31
   1  -3  11    3.74    0.61
   1  -3  11    3.48    0.49
   1  -3  11    2.95    0.50
  -1  -3 -11    2.05    0.46
  -1  -3 -11    3.00    0.48
   1  -3  11    3.64    0.49
   1   3  11    3.16    0.48
  -1   3 -11    2.46    0.49
  -2  -3 -11    2.13    0.45
  -2  -3 -11    2.00    0.42
  -2  -3 -11    0.81    0.39
   2  -3  11    1.57    0.41
   2  -3  11    1.97    0.54
   2  -3  11    1.46    0.40
   2  -3  11    2.39    0.45
  -2   3 -11    1.41    0.43
   2   3  11    1.20    0.41
  -3  -3 -11    6.08    0.72
   3  -3  11    7.80    0.77
  -3  -3 -11    7.70    0.76
   3  -3  11    7.86    0.77
  -3  -3 -11    7.48    0.78
   3  -3  11    7.70    0.80
   3  -3  11    7.78    0.94
   3   3  11    6.95    0.76
   3   3  11    5.94    0.80
  -3   3 -11    5.89    0.76
  -4  -3 -11    2.01    0.48
   4  -3  11    1.63    0.44
  -4  -3 -11    1.08    0.45
   4  -3  11    1.88    0.46
  -4  -3 -11    2.25    0.51
  -4   3 -11    1.23    0.49
   4   3  11    1.18    0.46
   4   3  11    1.09    0.43
   5  -3  11    0.55    0.40
   5  -3  11   -0.09    0.41
  -5  -3 -11    0.18    0.43
  -5  -3 -11   -0.01    0.44
  -5  -3 -11    0.44    0.42
  -5  -3 -11    1.30    0.44
   5   3  11    0.13    0.42
  -5   3 -11   -0.08    0.43
   5   3  11    0.32    0.43
   5   3  11   -0.47    0.36
   6  -3  11    9.15    0.96
  -6  -3 -11    9.37    0.98
  -6  -3 -11   12.07    1.13
   6  -3  11   11.64    1.10
  -6  -3 -11    9.44    0.97
  -6  -3 -11    9.65    1.02
   6   3  11    8.36    0.97
   6   3  11   10.64    1.00
   6   3  11   10.69    1.15
  -6   3 -11    9.09    0.94
  -6   3 -11   10.21    1.03
   6  -4 -11    1.03    0.54
   6  -4 -11   -0.36    0.45
  -6  -4  11    0.63    0.47
   6  -4 -11    1.62    0.51
  -6  -4  11    0.40    0.48
  -6  -4  11    0.46    0.54
  -6  -4  11    0.50    0.55
  -6   4  11   -0.08    0.51
   6   4 -11    0.37    0.53
   5  -4 -11   12.99    1.43
  -5  -4  11   14.72    1.35
   5  -4 -11   14.09    1.40
  -5  -4  11   15.50    1.44
   5  -4 -11   15.28    1.37
  -5  -4  11   16.92    1.41
  -5  -4  11   15.64    1.52
  -5   4  11   15.65    1.46
   5   4 -11   16.15    1.45
  -4  -4  11   33.22    2.44
   4  -4 -11   29.47    2.52
   4  -4 -11   32.40    2.50
   4  -4 -11   36.26    2.46
  -4  -4  11   33.37    2.55
  -4  -4  11   30.03    2.73
  -4  -4  11   32.25    2.51
  -4   4  11   34.40    2.53
   4   4 -11   33.69    2.54
   3  -4 -11   29.50    2.21
  -3  -4  11   29.87    2.23
   3  -4 -11   27.58    2.16
   3  -4 -11   30.18    2.27
  -3  -4  11   29.16    2.15
  -3  -4  11   29.19    2.26
  -3  -4  11   30.30    2.46
   3   4 -11   27.92    2.24
  -3   4  11   25.40    2.22
  -2  -4  11   36.58    2.88
   2  -4 -11   41.02    3.01
   2  -4 -11   39.53    2.90
  -2  -4  11   40.93    3.31
  -2  -4  11   40.65    3.02
   2  -4 -11   40.42    3.02
  -2  -4  11   43.74    3.03
  -2   4  11   41.12    3.02
   2   4 -11   39.54    3.04
   1  -4 -11    1.09    0.40
   1  -4 -11    1.17    0.42
   1  -4 -11    0.91    0.49
  -1  -4  11    0.88    0.41
  -1  -4  11    0.75    0.38
  -1  -4  11    0.79    0.40
  -1  -4  11    1.57    0.52
   1   4 -11    1.11    0.46
  -1   4  11    1.79    0.44
   0  -4 -11   40.94    2.99
   0  -4  11   41.94    3.31
   0  -4  11   38.49    2.99
   0  -4  11   46.63    2.92
   0  -4 -11   35.89    2.98
   0  -4  11   46.98    3.03
   0  -4  11   34.54    2.85
   0  -4 -11   34.96    2.85
   0   4 -11   43.88    3.03
   0   4  11   43.38    3.02
   1  -4  11    7.89    0.90
  -1  -4 -11    9.33    0.86
   1  -4  11    9.74    0.93
  -1  -4 -11    9.45    0.91
  -1  -4 -11   10.01    0.96
   1  -4  11    9.21    0.98
   1  -4  11    8.38    1.06
   1   4  11    9.07    0.95
  -1   4 -11   10.77    1.00
   2  -4  11   20.88    1.50
  -2  -4 -11   18.04    1.47
   2  -4  11   15.91    1.52
   2  -4  11   17.14    1.47
  -2  -4 -11   18.67    1.50
  -2  -4 -11   20.46    1.54
   2  -4  11   18.01    1.71
   2   4  11   18.34    1.53
  -2   4 -11   17.19    1.54
   3  -4  11   36.04    2.69
   3  -4  11   32.56    2.54
   3  -4  11   34.38    2.64
  -3  -4 -11   37.68    2.65
  -3  -4 -11   31.63    2.55
  -3   4 -11   36.08    2.69
   3   4  11   36.76    2.83
   3   4  11   35.88    2.68
   4  -4  11    6.66    0.77
   4  -4  11    6.16    0.64
  -4  -4 -11    6.62    0.76
   4  -4  11    6.02    0.70
  -4  -4 -11    7.50    0.82
  -4  -4 -11    6.32    0.72
  -4   4 -11    6.96    0.81
   4   4  11    5.84    0.79
   4   4  11    6.64    0.79
  -5  -4 -11   34.62    2.47
  -5  -4 -11   28.88    2.40
   5  -4  11   32.27    2.33
   5  -4  11   26.55    2.37
  -5  -4 -11   33.09    2.38
   5   4  11   31.51    2.58
  -5   4 -11   32.86    2.46
   5   4  11   30.94    2.44
  -6  -4 -11    0.56    0.43
   6  -4  11   -0.17    0.45
  -6  -4 -11    0.77    0.48
  -6  -4 -11   -0.24    0.55
   6  -4  11    0.89    0.43
  -6  -4 -11    0.66    0.52
   6   4  11    0.60    0.49
   6   4  11    0.00    0.51
  -6   4 -11    0.34    0.54
  -5  -5  11    0.39    0.51
   5  -5 -11    1.14    0.43
  -5  -5  11    1.23    0.49
  -5  -5  11    0.87    0.46
   5  -5 -11    1.52    0.49
   5  -5 -11    0.87    0.55
   5   5 -11    0.66    0.51
  -5   5  11   -0.01    0.59
  -4  -5  11   20.49    1.76
   4  -5 -11   19.49    1.63
  -4  -5  11   18.90    1.62
  -4  -5  11   18.53    1.86
   4  -5 -11   19.85    1.77
  -4  -5  11   21.61    1.67
   4  -5 -11   21.06    1.59
  -4   5  11   17.03    1.69
   4   5 -11   20.56    1.71
   3  -5 -11    8.47    0.98
   3  -5 -11    8.14    0.78
  -3  -5  11    7.71    0.80
   3  -5 -11    8.81    0.89
  -3  -5  11    8.41    0.86
  -3  -5  11    6.75    0.96
  -3  -5  11    9.52    0.97
  -3   5  11    7.54    0.89
   3   5 -11    9.06    0.90
  -2  -5  11    7.88    0.84
   2  -5 -11    9.32    1.00
  -2  -5  11    9.25    0.92
   2  -5 -11    7.83    0.83
  -2  -5  11    7.72    0.84
   2  -5 -11    8.79    0.81
  -2  -5  11    9.16    1.05
  -2   5  11    9.34    0.92
   2   5 -11    7.70    0.86
   2   5 -11    6.27    0.88
  -1  -5  11    9.93    0.99
  -1  -5  11    9.84    1.14
  -1  -5  11    8.70    0.89
  -1  -5  11    8.58    0.89
   1  -5 -11    9.11    0.90
   1  -5 -11    9.86    0.86
   1  -5 -11    8.85    1.02
  -1  -5  11    9.49    0.95
   1   5 -11    9.67    0.99
  -1   5  11   11.43    1.06
   0  -5  11   -0.52    0.44
   0  -5 -11   -0.67    0.50
   0  -5  11    0.53    0.53
   0  -5  11   -0.29    0.34
   0  -5 -11    0.20    0.37
   0  -5  11    0.20    0.40
   0  -5  11   -0.33    0.30
   0  -5 -11    0.30    0.30
   0   5 -11    0.46    0.46
   0   5  11    0.10    0.39
  -1  -5 -11   16.35    1.30
  -1  -5 -11   17.31    1.34
   1  -5  11   17.20    1.65
  -1  -5 -11   17.43    1.49
   1  -5  11   15.16    1.38
   1  -5  11   14.05    1.41
   1  -5  11   16.98    1.37
   1  -5  11   16.35    1.30
  -1   5 -11   15.30    1.42
   1   5  11   16.25    1.42
   2  -5  11   14.77    1.42
  -2  -5 -11   15.23    1.39
  -2  -5 -11   18.55    1.50
  -2  -5 -11   19.39    1.37
   2  -5  11   15.53    1.65
   2  -5  11   15.40    1.47
   2  -5  11   18.52    1.35
  -2   5 -11   15.87    1.49
   2   5  11   16.56    1.47
   3  -5  11   14.68    1.27
  -3  -5 -11   15.77    1.38
  -3  -5 -11   17.34    1.30
   3  -5  11   13.47    1.35
   3  -5  11   16.14    1.45
   3  -5  11   15.49    1.27
   3   5  11   15.26    1.43
  -3   5 -11   15.16    1.47
   4  -5  11    2.41    0.46
   4  -5  11    2.36    0.55
   4  -5  11    3.55    0.65
  -4  -5 -11    3.06    0.49
   4  -5  11    3.33    0.56
  -4  -5 -11    2.90    0.63
  -4  -5 -11    3.04    0.60
  -4   5 -11    3.15    0.65
   4   5  11    3.29    0.62
  -1  -6  11   -1.04    0.42
   1  -6 -11    0.82    0.47
  -1  -6  11   -0.16    0.40
  -1  -6  11   -0.46    0.47
  -1  -6  11    0.11    0.57
   1  -6 -11    0.20    0.58
   1   6 -11   -0.70    0.55
  -1   6  11   -0.02    0.49
   0  -6  11   12.01    1.33
   0  -6  11   12.35    1.19
   0  -6  11   14.37    1.29
   0  -6 -11   16.03    1.47
   0  -6  11   13.64    1.54
   0  -6 -11   13.53    1.22
   0   6 -11   15.24    1.36
   0   6  11   13.48    1.32
   1  -6  11   -0.05    0.63
   1  -6  11    0.28    0.45
  -1  -6 -11   -0.51    0.58
   1  -6  11    0.22    0.46
  -1  -6 -11    0.42    0.41
   1  -6  11    0.37    0.45
   1   6  11    0.57    0.46
  -1   6 -11    0.21    0.52
   8   0 -12   18.98    1.47
  -8   0  12   16.42    1.55
   8   0 -12   15.14    1.43
  -8   0  12   15.19    1.36
   7   0 -12   15.84    1.37
  -7   0  12   14.45    1.44
  -7   0  12   17.17    1.38
   7   0 -12   14.94    1.37
  -6   0  12   39.24    3.05
  -6   0  12   38.64    2.77
  -6   0  12   37.97    2.70
   6   0 -12   39.86    2.70
   6   0 -12   31.93    2.74
  -5   0  12    0.73    0.48
   5   0 -12    2.03    0.45
   5   0 -12    0.59    0.43
  -5   0  12    0.93    0.38
  -5   0  12    1.19    0.44
  -5   0  12    1.01    0.43
   5   0 -12    0.18    0.44
  -4   0  12  103.43    7.45
   4   0 -12  108.94    7.44
   4   0 -12  106.39    7.52
  -4   0  12   95.44    7.24
   4   0 -12  106.40    7.24
  -4   0  12  113.08    8.03
   4   0 -12   99.41    7.05
  -4   0  12  119.36    7.54
  -4   0  12   88.66    7.04
  -3   0  12   21.09    1.88
   3   0 -12   22.22    1.83
  -3   0  12   22.02    1.68
   3   0 -12   23.62    1.69
   3   0 -12   21.51    1.82
  -3   0  12   24.50    1.82
  -3   0  12   20.30    1.71
  -3   0  12   24.70    1.83
   3   0 -12   24.51    1.74
  -2   0  12   54.87    4.97
  -2   0  12   66.42    4.39
   2   0 -12   64.84    4.50
   2   0 -12   67.15    4.71
   2   0 -12   67.55    4.64
  -2   0  12   64.66    4.50
  -2   0  12   65.82    4.69
   2   0 -12   62.41    4.39
   2   0 -12   65.54    4.66
  -2   0  12   64.35    4.65
  -1   0  12   66.01    4.48
  -1   0  12   61.15    4.58
   1   0 -12   65.38    4.78
   1   0 -12   70.15    4.75
  -1   0  12   65.67    5.09
   1   0 -12   63.87    4.58
  -1   0  12   67.18    4.74
  -1   0  12   67.40    4.79
   1   0 -12   64.62    4.48
   0   0  12    1.00    0.37
   0   0  12    1.35    0.35
   0   0 -12    1.68    0.37
   0   0 -12    1.22    0.33
   0   0  12    0.94    0.32
   0   0 -12    1.00    0.42
   0   0 -12    1.66    0.45
   0   0  12    1.47    0.38
   0   0  12    1.39    0.39
  -1   0 -12   68.45    4.30
   1   0  12   61.42    4.00
  -1   0 -12   51.99    4.06
   1   0  12   55.25    4.08
   1   0  12   58.04    4.26
   1   0  12   60.18    4.55
   1   0  12   52.38    4.21
  -1   0 -12   57.00    3.99
  -1   0 -12   61.76    4.23
   2   0  12   14.81    1.06
  -2   0 -12   12.17    1.13
  -2   0 -12   13.53    1.06
   2   0  12   10.33    1.10
   2   0  12   13.65    1.17
   2   0  12   11.59    1.09
  -2   0 -12   11.74    1.02
  -2   0 -12   10.42    1.12
   2   0  12   11.31    1.03
   3   0  12  105.78    6.64
   3   0  12   90.73    6.46
   3   0  12   88.63    6.82
  -3   0 -12   95.25    6.92
  -3   0 -12   98.75    6.84
  -3   0 -12   99.47    6.48
   3   0  12   96.30    7.22
   3   0  12   89.29    6.90
  -3   0 -12   95.97    6.64
   4   0  12   48.83    3.42
  -4   0 -12   45.86    3.29
  -4   0 -12   48.33    3.44
  -4   0 -12   46.97    3.46
  -4   0 -12   47.48    3.22
   4   0  12   42.55    3.28
   4   0  12   45.14    3.46
   4   0  12   47.94    3.61
   4   0  12   42.27    3.21
   5   0  12   10.33    0.97
   5   0  12    9.32    0.94
   5   0  12   11.26    1.10
  -5   0 -12    9.38    0.96
  -5   0 -12    8.79    0.90
   6   0  12   28.03    2.48
  -6   0 -12   31.08    2.27
  -6   0 -12   30.86    2.27
   6   0  12   29.98    2.26
   6   0  12   30.73    2.23
   7   0  12    1.81    0.53
   7   0  12    1.72    0.46
   7   0  12    1.04    0.50
  -7   0 -12    0.12    0.51
  -7   0 -12    1.01    0.44
  -7  -1  12    0.91    0.40
   7  -1 -12    0.67    0.59
   7  -1 -12    1.01    0.44
   7  -1 -12    1.39    0.40
  -7  -1  12    1.01    0.51
  -7  -1  12    1.19    0.57
  -7  -1  12    1.87    0.55
  -7   1  12    2.07    0.59
  -7   1  12    0.77    0.49
   7   1 -12    2.56    0.62
   7   1 -12    1.07    0.53
  -6  -1  12    0.32    0.39
   6  -1 -12   -0.05    0.33
  -6  -1  12   -0.66    0.39
  -6  -1  12   -0.07    0.36
   6  -1 -12    0.18    0.44
   6  -1 -12   -0.05    0.39
  -6  -1  12    0.04    0.44
  -6  -1  12    0.62    0.42
  -6   1  12    0.03    0.41
  -6   1  12    0.46    0.46
   6   1 -12    1.18    0.45
   6   1 -12    0.43    0.52
   5  -1 -12    4.07    0.68
   5  -1 -12    3.26    0.49
  -5  -1  12    2.65    0.54
  -5  -1  12    2.89    0.58
  -5  -1  12    3.29    0.52
  -5  -1  12    3.98    0.54
   5  -1 -12    3.93    0.52
   5   1 -12    5.99    0.70
  -5   1  12    3.75    0.55
   5   1 -12    2.93    0.56
  -5   1  12    3.95    0.64
  -5   1  12    3.59    0.56
  -4  -1  12    0.03    0.35
   4  -1 -12    0.63    0.44
  -4  -1  12    0.67    0.35
   4  -1 -12    0.56    0.35
   4  -1 -12    0.97    0.35
  -4  -1  12    0.68    0.39
   4  -1 -12    0.61    0.48
  -4  -1  12    0.66    0.39
  -4   1  12    0.33    0.31
   4   1 -12    0.12    0.46
  -4   1  12    0.21    0.42
   4   1 -12    0.16    0.41
  -4   1  12    0.70    0.40
   3  -1 -12   31.03    2.07
   3  -1 -12   24.53    2.09
   3  -1 -12   26.25    2.15
  -3  -1  12   29.86    2.25
  -3  -1  12   27.59    2.11
   3  -1 -12   28.46    2.24
  -3  -1  12   28.44    2.13
  -3  -1  12   25.86    2.35
  -3  -1  12   31.81    2.07
  -3   1  12   31.47    2.15
   3   1 -12   25.48    2.22
   3   1 -12   31.59    2.16
  -3   1  12   30.25    2.33
  -3   1  12   30.47    2.24
   2  -1 -12    0.12    0.30
  -2  -1  12    0.62    0.36
  -2  -1  12    0.47    0.31
  -2  -1  12    0.60    0.30
  -2  -1  12    0.19    0.34
  -2  -1  12    0.61    0.32
   2  -1 -12    0.66    0.32
   2  -1 -12    0.36    0.37
   2  -1 -12   -0.06    0.36
   2   1 -12    0.62    0.44
   2   1 -12   -0.11    0.32
   2   1 -12    0.60    0.38
  -2   1  12    0.05    0.37
  -2   1  12    0.32    0.29
  -2   1  12    0.40    0.34
  -1  -1  12    0.36    0.32
   1  -1 -12    0.07    0.30
   1  -1 -12   -0.13    0.36
  -1  -1  12    0.34    0.35
  -1  -1  12    0.47    0.33
  -1  -1  12    0.15    0.30
  -1  -1  12    0.09    0.29
   1  -1 -12    0.32    0.29
  -1  -1  12    0.84    0.32
   1  -1 -12    0.53    0.35
   1   1 -12    0.92    0.39
  -1   1  12    0.93    0.31
   1   1 -12    0.67    0.32
  -1   1  12    0.26    0.34
  -1   1  12    0.88    0.37
   0  -1  12    3.58    0.53
   0  -1 -12    3.20    0.44
   0  -1 -12    3.14    0.42
   0  -1  12    3.59    0.45
   0  -1  12    3.50    0.57
   0  -1 -12    2.83    0.45
   0  -1 -12    3.99    0.55
   0  -1  12    3.20    0.42
   0  -1  12    3.66    0.50
   0  -1  12    4.43    0.56
   0   1  12    3.16    0.48
   0   1 -12    2.81    0.50
   0   1 -12    3.27    0.44
   0   1  12    2.96    0.47
   0   1  12    1.96    0.42
   1  -1  12    0.53    0.41
  -1  -1 -12    0.11    0.28
  -1  -1 -12    0.44    0.36
  -1  -1 -12    0.25    0.33
  -1  -1 -12    0.83    0.33
   1  -1  12    0.47    0.28
   1  -1  12    0.57    0.31
   1  -1  12    0.31    0.31
   1  -1  12    0.42    0.32
   1  -1  12    0.30    0.27
   1   1  12    0.34    0.32
   1   1  12    0.33    0.32
   1   1  12    0.03    0.31
  -1   1 -12    0.46    0.35
  -1   1 -12    0.60    0.33
   2  -1  12   25.32    1.98
   2  -1  12   24.71    1.84
   2  -1  12   20.23    1.87
   2  -1  12   23.63    1.73
   2  -1  12   22.18    1.67
  -2  -1 -12   21.75    1.72
  -2  -1 -12   21.84    1.67
  -2  -1 -12   24.03    1.70
   2  -1  12   24.76    1.70
  -2  -1 -12   22.67    1.84
   2   1  12   21.58    1.80
   2   1  12   22.25    1.75
  -2   1 -12   22.42    1.74
  -2   1 -12   21.83    1.81
   3  -1  12    0.38    0.36
   3  -1  12    0.23    0.32
  -3  -1 -12   -0.18    0.38
  -3  -1 -12   -0.29    0.41
   3  -1  12   -0.33    0.31
  -3  -1 -12    0.40    0.30
   3  -1  12    0.18    0.39
   3  -1  12    0.33    0.37
  -3  -1 -12    0.14    0.33
  -3   1 -12   -0.07    0.40
   3   1  12   -0.08    0.35
   3   1  12    0.43    0.36
  -3   1 -12    0.37    0.35
   3   1  12   -0.34    0.37
   4  -1  12    6.57    0.71
  -4  -1 -12    6.07    0.68
   4  -1  12    8.33    0.75
   4  -1  12    7.98    0.87
   4  -1  12    8.28    0.86
  -4  -1 -12    8.13    0.74
  -4  -1 -12    7.87    0.85
   4   1  12    7.32    0.82
   4   1  12    7.55    0.86
   4   1  12    6.64    0.75
  -4   1 -12    6.23    0.80
  -4   1 -12    7.08    0.77
   5  -1  12    3.28    0.58
  -5  -1 -12    2.29    0.41
   5  -1  12    1.32    0.49
   5  -1  12    2.67    0.41
  -5  -1 -12    1.88    0.58
  -5  -1 -12    2.03    0.47
   5  -1  12    2.56    0.45
   5   1  12    2.74    0.55
  -5   1 -12    2.59    0.48
   5   1  12    1.76    0.54
  -5   1 -12    1.07    0.50
   5   1  12    1.89    0.50
  -6  -1 -12    0.38    0.40
   6  -1  12   -0.16    0.31
  -6  -1 -12    0.71    0.35
   6  -1  12    0.01    0.41
   6  -1  12   -0.26    0.45
   6  -1  12    0.50    0.38
  -6  -1 -12   -0.66    0.48
   6   1  12    0.43    0.40
   6   1  12    0.51    0.47
  -6   1 -12    0.15    0.51
  -6   1 -12   -0.32    0.41
   6   1  12   -0.36    0.43
   7  -1  12    0.74    0.45
   7  -1  12    0.90    0.34
   7  -1  12    0.45    0.51
  -7  -1 -12    0.58    0.38
  -7  -1 -12    0.52    0.45
   7  -1  12    0.54    0.48
  -7  -1 -12    0.85    0.58
  -7   1 -12   -0.06    0.46
   7   1  12    0.47    0.42
  -7   1 -12    0.12    0.54
   7   1  12    1.22    0.52
  -7  -2  12    2.55    0.57
  -7  -2  12    1.98    0.60
  -7  -2  12    2.59    0.46
   7  -2 -12    2.91    0.58
  -7   2  12    1.31    0.60
   7   2 -12    2.73    0.67
  -7   2  12    2.35    0.62
   7   2 -12    1.24    0.55
   6  -2 -12   15.78    1.49
  -6  -2  12   16.78    1.58
  -6  -2  12   16.75    1.29
  -6  -2  12   18.45    1.51
  -6   2  12   18.77    1.58
  -6   2  12   13.79    1.41
   6   2 -12   13.59    1.43
   6   2 -12   18.06    1.60
  -5  -2  12    1.38    0.48
  -5  -2  12    0.86    0.45
  -5  -2  12    0.97    0.37
  -5  -2  12    0.62    0.45
   5  -2 -12    0.67    0.47
   5  -2 -12    1.70    0.50
   5   2 -12    0.74    0.49
  -5   2  12    0.80    0.49
   5   2 -12    0.90    0.48
  -5   2  12    0.69    0.43
  -4  -2  12   24.05    2.19
   4  -2 -12   25.67    2.20
   4  -2 -12   29.74    2.15
  -4  -2  12   30.39    2.15
  -4  -2  12   29.04    1.99
  -4  -2  12   29.48    2.38
  -4  -2  12   23.42    2.19
   4   2 -12   26.29    2.23
  -4   2  12   31.74    2.22
   4   2 -12   29.77    2.14
  -4   2  12   29.87    2.13
   3  -2 -12    3.05    0.52
  -3  -2  12    2.40    0.51
  -3  -2  12    2.02    0.46
   3  -2 -12    3.09    0.53
   3  -2 -12    2.95    0.38
  -3  -2  12    2.82    0.48
  -3  -2  12    1.88    0.44
  -3  -2  12    3.05    0.39
   3   2 -12    2.32    0.51
  -3   2  12    2.19    0.50
   3   2 -12    2.98    0.52
  -3   2  12    2.69    0.49
   2  -2 -12   11.16    1.08
   2  -2 -12    9.17    1.01
  -2  -2  12   11.55    0.95
  -2  -2  12   10.55    1.17
   2  -2 -12   13.67    0.94
  -2  -2  12   11.03    1.06
  -2  -2  12   10.99    1.10
  -2  -2  12   12.03    1.12
   2   2 -12   12.40    1.06
  -2   2  12   13.73    1.14
   2   2 -12   13.66    1.21
  -2   2  12   13.03    1.10
   1  -2 -12    5.80    0.66
   1  -2 -12    6.88    0.67
  -1  -2  12    6.16    0.69
  -1  -2  12    5.27    0.52
  -1  -2  12    5.23    0.72
  -1  -2  12    6.52    0.70
  -1  -2  12    5.23    0.64
   1  -2 -12    5.47    0.51
   1   2 -12    5.01    0.59
  -1   2  12    5.32    0.61
   1   2 -12    5.24    0.69
  -1   2  12    5.66    0.66
   0  -2 -12    1.15    0.38
   0  -2  12    1.07    0.37
   0  -2  12    1.20    0.39
   0  -2  12    2.26    0.51
   0  -2 -12    1.21    0.28
   0  -2  12    1.10    0.30
   0  -2 -12    1.04    0.42
   0  -2  12    1.09    0.38
   0   2  12    1.26    0.40
   0   2 -12    1.26    0.43
   0   2 -12    0.90    0.37
   0   2  12    0.75    0.36
  -1  -2 -12   32.45    2.24
   1  -2  12   31.00    2.24
   1  -2  12   29.12    2.33
   1  -2  12   28.83    2.35
  -1  -2 -12   26.41    2.12
   1  -2  12   30.89    2.54
   1  -2  12   28.07    2.13
  -1  -2 -12   31.60    2.37
   1  -2  12   34.11    2.47
  -1   2 -12   31.95    2.35
   1   2  12   33.93    2.29
   1   2  12   32.55    2.34
  -1   2 -12   31.33    2.27
   2  -2  12    0.38    0.40
   2  -2  12    0.64    0.35
   2  -2  12    0.04    0.30
   2  -2  12    0.00    0.37
   2  -2  12   -0.08    0.36
  -2  -2 -12    0.21    0.28
  -2  -2 -12    0.18    0.39
  -2  -2 -12   -0.29    0.35
   2  -2  12    0.10    0.25
  -2   2 -12    0.29    0.34
  -2   2 -12    0.13    0.40
   2   2  12    0.24    0.35
   2   2  12    0.05    0.35
   3  -2  12    9.47    0.88
   3  -2  12    9.20    0.93
  -3  -2 -12    5.80    0.80
   3  -2  12    7.84    0.83
  -3  -2 -12    8.72    0.82
   3  -2  12    6.82    0.77
   3  -2  12    7.33    0.70
  -3  -2 -12    6.80    0.71
  -3   2 -12    6.55    0.75
   3   2  12    9.20    0.87
   3   2  12    8.37    0.84
   3   2  12    7.82    0.88
  -3   2 -12    9.00    0.90
   4  -2  12    3.66    0.57
   4  -2  12    4.39    0.64
  -4  -2 -12    3.25    0.45
   4  -2  12    4.18    0.61
   4  -2  12    3.67    0.44
  -4  -2 -12    5.43    0.67
  -4  -2 -12    3.16    0.60
   4  -2  12    4.64    0.64
  -4   2 -12    3.38    0.60
   4   2  12    4.18    0.60
   4   2  12    3.35    0.61
   4   2  12    3.17    0.54
  -4   2 -12    3.44    0.54
  -5  -2 -12    3.64    0.49
   5  -2  12    3.72    0.67
   5  -2  12    5.50    0.70
   5  -2  12    4.20    0.64
  -5  -2 -12    5.27    0.73
   5  -2  12    4.24    0.48
  -5   2 -12    4.45    0.61
  -5   2 -12    4.99    0.70
   5   2  12    4.71    0.61
   5   2  12    5.09    0.69
   5   2  12    3.94    0.69
  -6  -2 -12    6.05    0.71
  -6  -2 -12    8.86    0.97
   6  -2  12    8.36    0.92
   6  -2  12    8.12    0.94
   6   2  12    6.85    0.94
   6   2  12    8.61    0.88
  -6   2 -12    9.39    0.87
  -6   2 -12    8.89    0.94
   6   2  12    8.58    0.93
   7  -2  12    2.93    0.63
   7  -2  12    3.09    0.66
  -7  -2 -12    2.96    0.67
  -7   2 -12    3.50    0.70
   7   2  12    3.76    0.74
   7   2  12    3.75    0.67
   7   2  12    3.14    0.59
  -7   2 -12    3.58    0.61
  -6  -3  12    3.40    0.67
   6  -3 -12    4.58    0.76
  -6  -3  12    4.56    0.74
   6  -3 -12    3.84    0.70
  -6  -3  12    4.11    0.69
  -6   3  12    4.53    0.77
   6   3 -12    5.34    0.79
   6   3 -12    5.07    0.71
  -5  -3  12   38.46    3.43
   5  -3 -12   44.30    3.09
  -5  -3  12   36.90    3.19
   5  -3 -12   40.43    3.20
  -5  -3  12   49.94    3.26
  -5  -3  12   48.82    3.12
   5   3 -12   38.04    3.20
   5   3 -12   44.13    3.12
  -5   3  12   41.08    3.22
  -4  -3  12   -0.21    0.45
  -4  -3  12   -0.53    0.36
  -4  -3  12    0.11    0.43
  -4  -3  12    0.41    0.44
   4  -3 -12    0.21    0.42
   4  -3 -12   -1.13    0.44
   4   3 -12    0.34    0.45
  -4   3  12    0.89    0.45
   4   3 -12    0.69    0.51
   3  -3 -12   51.97    3.92
  -3  -3  12   52.99    3.94
  -3  -3  12   50.98    3.75
  -3  -3  12   53.18    4.24
  -3  -3  12   56.23    3.94
   3  -3 -12   47.53    3.76
  -3   3  12   54.83    3.93
   3   3 -12   49.20    3.91
   3   3 -12   63.56    3.85
  -2  -3  12   32.60    2.32
   2  -3 -12   27.79    2.23
   2  -3 -12   28.37    2.29
  -2  -3  12   31.36    2.32
  -2  -3  12   25.53    2.48
  -2  -3  12   30.00    2.22
  -2   3  12   30.70    2.31
   2   3 -12   33.29    2.37
   1  -3 -12   15.64    1.41
  -1  -3  12   20.52    1.47
  -1  -3  12   18.07    1.43
   1  -3 -12   17.28    1.38
  -1  -3  12   14.31    1.52
  -1  -3  12   15.49    1.37
  -1   3  12   14.71    1.40
   1   3 -12   17.75    1.47
   0  -3  12   60.43    4.40
   0  -3  12   71.22    4.41
   0  -3 -12   58.25    4.18
   0  -3  12   65.20    4.21
   0  -3  12   57.87    4.76
   0  -3 -12   52.82    4.39
   0   3 -12   63.62    4.40
   0   3  12   54.14    4.36
   1  -3  12    1.18    0.41
  -1  -3 -12    1.02    0.40
   1  -3  12    0.69    0.39
   1  -3  12    0.67    0.35
  -1  -3 -12    0.37    0.40
   1  -3  12    1.81    0.50
   1   3  12    0.40    0.37
  -1   3 -12    1.04    0.42
  -2  -3 -12   56.48    4.13
   2  -3  12   53.97    4.13
   2  -3  12   60.18    4.13
  -2  -3 -12   56.40    4.02
   2  -3  12   53.54    3.94
   2  -3  12   53.36    4.47
  -2  -3 -12   57.08    3.94
  -2   3 -12   60.94    4.14
   2   3  12   54.60    4.10
   3  -3  12   15.10    1.35
   3  -3  12   12.73    1.29
  -3  -3 -12   14.96    1.33
  -3  -3 -12   14.63    1.32
   3  -3  12   16.08    1.28
   3   3  12   16.20    1.34
  -3   3 -12   15.82    1.40
   3   3  12   12.69    1.37
   4  -3  12   22.29    1.73
  -4  -3 -12   23.75    1.80
  -4  -3 -12   21.96    1.81
   4  -3  12   22.56    1.79
   4   3  12   24.50    1.73
  -4   3 -12   22.76    1.85
   4   3  12   18.32    1.87
   4   3  12   18.71    1.79
  -5  -3 -12   42.29    2.98
   5  -3  12   40.75    3.07
  -5  -3 -12   38.94    3.09
   5  -3  12   43.34    2.97
  -5  -3 -12   39.98    3.08
   5   3  12   32.89    3.21
  -5   3 -12   39.03    2.96
   5   3  12   41.53    3.08
   5   3  12   44.28    2.97
  -5   3 -12   41.34    3.10
   6  -3  12    4.16    0.62
   6  -3  12    3.17    0.60
  -6  -3 -12    2.41    0.61
  -6  -3 -12    2.94    0.66
  -6   3 -12    3.49    0.62
   6   3  12    2.75    0.57
  -6   3 -12    3.09    0.68
   6   3  12    2.13    0.65
   6   3  12    2.53    0.63
   5  -4 -12    3.92    0.64
  -5  -4  12    4.18    0.67
  -5  -4  12    5.08    0.69
   5  -4 -12    4.08    0.71
  -5  -4  12    3.25    0.71
  -5  -4  12    4.23    0.73
   5  -4 -12    3.74    0.74
  -5   4  12    5.43    0.79
   5   4 -12    5.24    0.77
  -4  -4  12    0.35    0.41
  -4  -4  12    0.15    0.48
  -4  -4  12    0.58    0.45
   4  -4 -12   -0.20    0.40
   4  -4 -12   -0.10    0.51
   4  -4 -12    0.08    0.53
  -4  -4  12   -0.56    0.46
  -4   4  12    0.03    0.50
   4   4 -12   -0.45    0.48
  -3  -4  12   -0.30    0.44
  -3  -4  12    0.87    0.45
   3  -4 -12    0.21    0.45
  -3  -4  12   -0.12    0.42
  -3  -4  12   -0.19    0.45
   3  -4 -12   -0.06    0.50
   3  -4 -12    0.81    0.44
  -3   4  12   -0.07    0.44
   3   4 -12    0.35    0.49
  -2  -4  12   -0.30    0.49
   2  -4 -12    1.26    0.43
  -2  -4  12    0.33    0.45
  -2  -4  12    0.99    0.40
   2  -4 -12    0.34    0.46
   2  -4 -12    0.90    0.56
  -2  -4  12    0.89    0.41
   2   4 -12    0.42    0.54
   2   4 -12    1.34    0.48
  -2   4  12   -0.12    0.43
  -1  -4  12    7.43    0.79
   1  -4 -12    5.72    0.69
   1  -4 -12    6.07    0.71
  -1  -4  12    5.99    0.69
  -1  -4  12    5.80    0.84
  -1  -4  12    6.18    0.72
   1  -4 -12    4.96    0.79
  -1   4  12    5.90    0.71
   1   4 -12    5.95    0.76
   0  -4  12    6.92    0.79
   0  -4 -12    6.84    0.79
   0  -4  12    7.37    0.79
   0  -4  12    9.96    0.90
   0  -4 -12    6.75    0.86
   0  -4 -12    7.03    0.78
   0  -4  12   10.03    1.06
   0   4 -12    7.78    0.87
   0   4  12    7.64    0.83
  -1  -4 -12    0.28    0.49
  -1  -4 -12    0.28    0.41
  -1  -4 -12   -0.57    0.36
   1  -4  12    0.88    0.42
   1  -4  12   -0.13    0.36
   1  -4  12    0.99    0.43
   1  -4  12    0.29    0.53
   1   4  12    0.38    0.41
  -1   4 -12    0.19    0.42
  -2  -4 -12    0.88    0.43
   2  -4  12    0.92    0.45
   2  -4  12    0.18    0.43
   2  -4  12    0.61    0.40
   2  -4  12    1.81    0.59
  -2  -4 -12   -0.23    0.41
  -2  -4 -12    0.72    0.44
   2   4  12    0.63    0.44
  -2   4 -12    0.94    0.47
   3  -4  12    6.67    0.77
  -3  -4 -12    4.31    0.65
   3  -4  12    5.25    0.66
  -3  -4 -12    5.76    0.73
   3  -4  12    3.97    0.65
   3   4  12    5.18    0.71
   3   4  12    6.31    0.81
  -3   4 -12    4.99    0.75
  -4  -4 -12    1.57    0.50
   4  -4  12    2.17    0.60
   4  -4  12    3.09    0.56
   4  -4  12    1.68    0.49
  -4  -4 -12    2.04    0.53
   4   4  12    1.98    0.58
   4   4  12    1.85    0.55
  -4   4 -12    1.27    0.57
   5  -4  12   -0.11    0.50
   5  -4  12   -0.65    0.56
  -5  -4 -12   -0.04    0.45
   5  -4  12   -0.72    0.42
  -5  -4 -12    0.45    0.49
  -5  -4 -12   -0.83    0.49
   5   4  12   -0.13    0.47
   5   4  12    0.12    0.50
  -5   4 -12    0.01    0.56
  -4  -5  12    0.70    0.62
   4  -5 -12    0.62    0.41
   4  -5 -12    0.79    0.65
  -4  -5  12    0.46    0.58
   4  -5 -12    1.46    0.54
  -4  -5  12    0.38    0.51
  -4  -5  12    1.33    0.46
  -4   5  12    0.62    0.57
   4   5 -12    0.15    0.54
   3  -5 -12    9.56    0.89
   3  -5 -12    7.87    0.97
  -3  -5  12    7.58    0.94
  -3  -5  12    7.44    0.87
   3  -5 -12    6.85    0.87
  -3  -5  12    6.98    0.98
  -3  -5  12    7.53    0.79
  -3   5  12    8.73    0.94
   3   5 -12    7.48    0.92
  -2  -5  12    5.87    0.91
   2  -5 -12    7.28    0.72
  -2  -5  12    8.23    0.76
  -2  -5  12    7.40    0.83
   2  -5 -12    6.71    0.79
  -2  -5  12    7.30    0.86
   2  -5 -12    6.53    0.92
   2   5 -12    6.60    0.81
  -2   5  12    6.29    0.83
   2   5 -12    7.09    0.90
   1  -5 -12   11.66    1.06
  -1  -5  12    9.32    0.98
  -1  -5  12    9.82    0.96
   1  -5 -12    9.73    1.06
   1  -5 -12    8.96    0.91
  -1  -5  12    9.31    1.14
  -1  -5  12    9.18    0.93
  -1   5  12    8.39    0.96
   1   5 -12    9.78    1.03
   0  -5 -12   20.09    1.60
   0  -5  12   20.92    1.74
   0  -5 -12   19.47    1.78
   0  -5  12   19.77    1.91
   0  -5  12   21.05    1.66
   0  -5 -12   20.24    1.61
   0  -5  12   19.23    1.59
   0   5  12   20.11    1.71
   0   5 -12   21.62    1.76
   1  -5  12    0.40    0.44
   1  -5  12   -0.02    0.34
  -1  -5 -12    0.08    0.41
  -1  -5 -12   -0.57    0.35
   1  -5  12    0.31    0.48
   1  -5  12    0.24    0.58
  -1  -5 -12   -0.58    0.48
  -1   5 -12    0.65    0.50
   1   5  12    0.39    0.45
  -2  -5 -12   13.50    1.10
   2  -5  12   11.70    1.09
   2  -5  12   11.20    1.10
   2  -5  12   10.89    1.16
  -2  -5 -12   13.34    1.26
  -2  -5 -12   10.70    1.15
   2  -5  12   13.63    1.44
   2   5  12   11.89    1.24
  -2   5 -12   12.67    1.27
   3  -5  12    5.34    0.64
  -3  -5 -12    5.88    0.64
   3  -5  12    3.64    0.66
  -3  -5 -12    5.34    0.74
   3  -5  12    5.17    0.75
   3  -5  12    6.11    0.72
   3   5  12    6.22    0.79
  -3   5 -12    5.58    0.79
   7   0 -13   -1.10    0.47
  -7   0  13    0.37    0.43
  -7   0  13   -0.40    0.46
   7   0 -13   -1.28    0.48
   6   0 -13    0.16    0.43
  -6   0  13    0.82    0.49
   6   0 -13   -0.70    0.45
  -6   0  13    0.23    0.40
  -6   0  13    0.16    0.47
  -5   0  13   -0.07    0.38
  -5   0  13   -0.32    0.38
  -5   0  13   -0.32    0.43
   5   0 -13    0.03    0.42
   5   0 -13   -0.58    0.44
  -5   0  13   -0.79    0.49
  -4   0  13    0.02    0.39
  -4   0  13    0.28    0.43
  -4   0  13    0.19    0.38
   4   0 -13    0.08    0.39
   4   0 -13    0.33    0.44
   4   0 -13   -0.38    0.40
  -4   0  13    1.12    0.38
   3   0 -13    0.01    0.46
   3   0 -13    0.06    0.37
  -3   0  13   -0.43    0.35
  -3   0  13   -0.17    0.39
  -3   0  13   -0.82    0.32
  -3   0  13   -0.22    0.39
  -3   0  13    0.35    0.37
   3   0 -13    0.33    0.41
   3   0 -13   -0.05    0.36
   2   0 -13    0.17    0.41
   2   0 -13    0.28    0.33
  -2   0  13    0.29    0.35
  -2   0  13   -0.35    0.34
  -2   0  13    0.31    0.33
   2   0 -13    0.15    0.35
   2   0 -13   -0.14    0.46
  -2   0  13   -0.14    0.39
   2   0 -13    0.75    0.38
  -2   0  13    0.13    0.34
   1   0 -13    0.28    0.33
  -1   0  13    0.09    0.36
   1   0 -13    0.20    0.37
  -1   0  13   -0.09    0.34
  -1   0  13   -0.13    0.31
   1   0 -13   -0.36    0.32
  -1   0  13    0.37    0.34
  -1   0  13   -0.18    0.32
   1   0 -13    0.19    0.31
   1   0 -13    0.19    0.40
   0   0  13    0.09    0.32
   0   0 -13   -0.09    0.34
   0   0 -13   -0.58    0.36
   0   0  13    0.12    0.34
   0   0  13   -0.37    0.32
   0   0 -13    0.15    0.31
   0   0 -13    0.27    0.38
   0   0  13   -0.17    0.30
   0   0  13    0.02    0.35
   1   0  13   -0.34    0.35
  -1   0 -13   -0.28    0.37
   1   0  13   -0.27    0.30
   1   0  13    0.19    0.36
  -1   0 -13    0.41    0.42
  -1   0 -13   -0.31    0.32
   1   0  13   -0.19    0.32
  -1   0 -13    0.73    0.36
   1   0  13    0.06    0.36
   2   0  13   -0.37    0.38
  -2   0 -13   -0.26    0.38
  -2   0 -13    0.01    0.30
   2   0  13    0.34    0.32
   2   0  13    0.04    0.36
  -2   0 -13    0.59    0.39
  -2   0 -13    0.33    0.42
   2   0  13    0.63    0.37
   2   0  13    0.41    0.35
  -3   0 -13    0.52    0.36
   3   0  13    0.13    0.39
  -3   0 -13    0.35    0.45
  -3   0 -13    0.41    0.33
   3   0  13    0.41    0.45
  -3   0 -13    0.44    0.42
   3   0  13   -0.09    0.33
   3   0  13    0.53    0.35
   3   0  13    0.02    0.36
  -4   0 -13    0.65    0.43
   4   0  13    0.25    0.46
   4   0  13   -0.07    0.38
   4   0  13   -0.06    0.36
  -4   0 -13    0.16    0.37
  -5   0 -13   -0.12    0.36
   5   0  13    0.16    0.38
   5   0  13    0.07    0.44
   5   0  13    0.00    0.38
  -5   0 -13    0.14    0.40
   6   0  13    0.26    0.47
   6   0  13   -1.02    0.43
  -6   0 -13   -0.66    0.47
   6   0  13    0.93    0.42
  -6   0 -13   -0.41    0.39
  -7  -1  13   37.45    2.97
  -7  -1  13   38.12    3.08
   7  -1 -13   37.14    2.69
   7  -1 -13   33.93    2.86
  -7  -1  13   37.96    2.67
   7  -1 -13   36.45    2.64
  -7  -1  13   35.33    2.68
  -7   1  13   46.28    2.97
  -7   1  13   31.55    2.77
   7   1 -13   37.47    2.79
  -6  -1  13   14.36    1.25
  -6  -1  13   14.39    1.29
   6  -1 -13   15.88    1.27
  -6  -1  13   15.28    1.45
   6  -1 -13   18.32    1.51
  -6  -1  13   15.31    1.49
  -6  -1  13   13.65    1.29
   6  -1 -13   13.79    1.24
   6   1 -13   14.30    1.35
  -6   1  13   14.23    1.46
  -6   1  13   14.30    1.38
   6   1 -13   19.73    1.54
  -5  -1  13   24.06    1.73
  -5  -1  13   24.94    1.92
   5  -1 -13   20.10    1.73
  -5  -1  13   23.00    2.00
  -5  -1  13   23.40    1.78
   5  -1 -13   24.60    1.94
   5  -1 -13   22.21    1.71
   5   1 -13   24.61    1.97
  -5   1  13   23.41    1.93
   5   1 -13   20.03    1.81
  -5   1  13   22.07    1.81
  -4  -1  13   21.25    1.77
  -4  -1  13   17.27    1.64
   4  -1 -13   19.80    1.51
   4  -1 -13   18.70    1.53
   4  -1 -13   20.17    1.70
  -4  -1  13   19.45    1.51
  -4  -1  13   18.12    1.54
  -4   1  13   22.54    1.71
  -4   1  13   19.18    1.58
   4   1 -13   21.07    1.61
   4   1 -13   19.45    1.72
  -3  -1  13   -0.56    0.36
  -3  -1  13    0.15    0.38
  -3  -1  13   -0.45    0.34
   3  -1 -13    0.09    0.33
   3  -1 -13   -0.25    0.32
   3  -1 -13    0.50    0.36
   3  -1 -13    0.05    0.42
  -3  -1  13    0.46    0.39
  -3   1  13    0.10    0.45
   3   1 -13    0.18    0.38
   3   1 -13    0.76    0.43
  -3   1  13   -0.20    0.36
   2  -1 -13   71.67    4.98
  -2  -1  13   73.31    5.71
  -2  -1  13   68.98    5.33
   2  -1 -13   69.30    5.33
  -2  -1  13   74.41    4.98
   2  -1 -13   84.05    5.11
   2  -1 -13   72.21    5.10
  -2  -1  13   64.90    5.11
   2   1 -13   78.23    5.33
  -2   1  13   80.18    5.15
   2   1 -13   75.59    5.29
   2   1 -13   77.46    5.14
  -2   1  13   65.21    5.28
  -1  -1  13   24.49    1.75
  -1  -1  13   22.25    1.62
   1  -1 -13   23.90    1.66
   1  -1 -13   18.09    1.75
  -1  -1  13   20.25    1.65
  -1  -1  13   23.41    1.79
   1  -1 -13   22.95    1.71
  -1  -1  13   21.50    1.89
   1  -1 -13   21.47    1.62
  -1   1  13   20.95    1.83
  -1   1  13   21.99    1.77
   1   1 -13   23.55    1.81
   1   1 -13   22.38    1.69
  -1   1  13   21.21    1.69
   0  -1  13   32.44    2.29
   0  -1 -13   30.71    2.22
   0  -1 -13   30.88    2.25
   0  -1  13   33.58    2.23
   0  -1  13   28.46    2.40
   0  -1  13   27.78    2.25
   0  -1 -13   31.18    2.41
   0  -1 -13   36.83    2.30
   0  -1  13   31.12    2.57
   0   1 -13   32.05    2.41
   0   1  13   31.12    2.51
   0   1  13   29.80    2.28
   0   1  13   33.29    2.38
   0   1 -13   28.80    2.26
   1  -1  13   76.54    5.06
   1  -1  13   77.01    5.20
   1  -1  13   75.79    5.80
   1  -1  13   78.71    5.18
   1  -1  13   64.96    5.40
  -1  -1 -13   68.80    5.41
  -1  -1 -13   76.66    5.17
  -1  -1 -13   75.47    5.06
  -1  -1 -13   66.98    5.12
  -1   1 -13   75.10    5.36
   1   1  13   82.89    5.39
   1   1  13   76.20    5.76
   1   1  13   71.62    5.21
  -1   1 -13   75.53    5.21
   2  -1  13    5.20    0.60
  -2  -1 -13    5.36    0.71
  -2  -1 -13    5.11    0.55
  -2  -1 -13    4.29    0.58
   2  -1  13    6.95    0.74
   2  -1  13    4.39    0.68
   2  -1  13    7.73    0.84
   2  -1  13    5.49    0.58
  -2   1 -13    6.40    0.72
   2   1  13    4.92    0.67
   2   1  13    5.17    0.62
  -2   1 -13    6.41    0.66
  -3  -1 -13   47.73    3.19
   3  -1  13   42.24    3.44
   3  -1  13   46.72    3.60
   3  -1  13   46.15    3.20
   3  -1  13   49.81    3.26
  -3  -1 -13   48.29    3.25
  -3  -1 -13   40.11    3.44
  -3   1 -13   44.08    3.30
   3   1  13   50.37    3.43
   3   1  13   41.03    3.58
  -3   1 -13   47.72    3.44
   3   1  13   45.31    3.31
   4  -1  13    1.80    0.51
  -4  -1 -13    1.62    0.41
   4  -1  13    1.89    0.55
  -4  -1 -13    2.47    0.39
  -4  -1 -13    2.30    0.57
   4  -1  13    1.60    0.41
   4  -1  13    1.28    0.44
   4   1  13    2.73    0.52
  -4   1 -13    1.83    0.59
   4   1  13    2.54    0.54
  -4   1 -13    1.90    0.48
   4   1  13    1.46    0.50
  -5  -1 -13   13.06    1.42
   5  -1  13   15.20    1.18
   5  -1  13   13.80    1.38
   5  -1  13   14.76    1.41
   5  -1  13   12.86    1.19
  -5  -1 -13   14.86    1.24
  -5  -1 -13   16.88    1.19
   5   1  13   15.03    1.38
   5   1  13   13.33    1.30
  -5   1 -13   12.84    1.26
  -5   1 -13   15.53    1.43
   5   1  13   13.17    1.41
   6  -1  13   33.64    2.72
  -6  -1 -13   39.68    3.03
  -6  -1 -13   39.94    2.76
   6  -1  13   40.21    2.75
   6  -1  13   35.77    2.97
   6  -1  13   35.90    3.10
  -6  -1 -13   35.64    2.74
   6   1  13   40.43    2.85
  -6   1 -13   40.72    2.85
  -6   1 -13   39.43    2.98
   6   1  13   42.61    2.99
   6   1  13   36.60    3.10
  -7  -2  13    1.72    0.65
   7   2 -13    1.19    0.60
  -7   2  13    2.23    0.63
   7   2 -13    2.94    0.76
   6  -2 -13    8.38    1.00
  -6  -2  13   10.52    1.03
  -6  -2  13    6.47    0.98
  -6  -2  13    8.91    0.85
  -6   2  13    8.29    0.89
   6   2 -13    7.89    0.91
   6   2 -13    7.48    0.97
  -6   2  13    8.10    1.02
  -5  -2  13   24.26    1.90
   5  -2 -13   22.38    1.89
  -5  -2  13   20.66    1.99
   5  -2 -13   20.72    1.90
  -5  -2  13   22.70    1.65
  -5   2  13   21.86    1.80
   5   2 -13   26.15    1.85
   5   2 -13   22.62    1.96
  -5   2  13   20.89    1.93
   4  -2 -13    1.85    0.35
   4  -2 -13    2.76    0.58
  -4  -2  13    2.02    0.39
   4  -2 -13    2.25    0.55
  -4  -2  13    0.70    0.47
  -4  -2  13    1.68    0.51
  -4  -2  13    2.24    0.56
   4   2 -13    2.26    0.49
  -4   2  13    3.10    0.61
  -4   2  13    1.63    0.48
   4   2 -13    1.95    0.60
  -3  -2  13   20.87    1.84
   3  -2 -13   22.91    1.60
  -3  -2  13   23.73    1.62
   3  -2 -13   23.39    1.83
  -3  -2  13   22.53    1.82
  -3  -2  13   21.87    1.95
   3  -2 -13   21.99    1.78
  -3  -2  13   18.74    1.72
   3   2 -13   23.43    1.75
   3   2 -13   20.94    1.86
  -3   2  13   22.92    1.74
  -3   2  13   21.20    1.83
   2  -2 -13    1.89    0.51
  -2  -2  13    1.41    0.47
   2  -2 -13    1.70    0.48
  -2  -2  13    1.84    0.35
  -2  -2  13    2.07    0.52
  -2  -2  13    1.70    0.47
   2  -2 -13    1.92    0.34
  -2  -2  13    1.52    0.42
  -2   2  13    1.25    0.46
   2   2 -13    1.53    0.42
   2   2 -13    1.92    0.57
  -2   2  13    2.14    0.46
  -1  -2  13   36.44    2.56
   1  -2 -13   30.14    2.56
  -1  -2  13   34.38    2.77
   1  -2 -13   35.90    2.46
  -1  -2  13   31.65    2.57
   1  -2 -13   33.25    2.32
  -1  -2  13   33.34    2.45
  -1  -2  13   31.13    2.33
  -1   2  13   36.72    2.57
   1   2 -13   32.14    2.58
  -1   2  13   34.54    2.46
   1   2 -13   33.88    2.45
   0  -2  13   32.07    2.31
   0  -2  13   35.59    2.45
   0  -2  13   31.12    2.19
   0  -2  13   28.76    2.60
   0  -2 -13   27.84    2.28
   0  -2 -13   31.88    2.44
   0  -2 -13   30.89    2.18
   0  -2  13   30.66    2.41
   0   2  13   31.55    2.32
   0   2  13   32.11    2.41
   0   2 -13   33.22    2.33
   0   2 -13   31.86    2.43
   1  -2  13    3.88    0.46
  -1  -2 -13    3.62    0.53
   1  -2  13    3.88    0.62
   1  -2  13    4.07    0.59
  -1  -2 -13    3.37    0.43
   1  -2  13    4.35    0.69
   1  -2  13    3.88    0.58
   1  -2  13    4.29    0.56
  -1  -2 -13    4.09    0.63
  -1   2 -13    3.46    0.53
   1   2  13    4.55    0.59
  -1   2 -13    5.06    0.63
   1   2  13    3.08    0.53
   2  -2  13   16.30    1.49
  -2  -2 -13   16.69    1.29
   2  -2  13   17.96    1.43
   2  -2  13   15.16    1.27
  -2  -2 -13   15.64    1.49
   2  -2  13   17.11    1.60
  -2  -2 -13   17.42    1.42
   2  -2  13   17.28    1.48
   2  -2  13   17.44    1.53
   2   2  13   19.19    1.50
  -2   2 -13   18.39    1.45
   2   2  13   19.12    1.47
  -2   2 -13   17.95    1.52
   3  -2  13   -0.08    0.41
   3  -2  13   -0.23    0.29
   3  -2  13   -0.04    0.42
   3  -2  13   -0.24    0.39
  -3  -2 -13   -0.05    0.31
  -3  -2 -13   -0.06    0.44
  -3  -2 -13    0.73    0.42
   3   2  13    0.01    0.40
   3   2  13    0.29    0.46
  -3   2 -13    0.83    0.42
  -3   2 -13    0.56    0.44
   3   2  13    0.77    0.44
   4  -2  13   37.35    2.44
   4  -2  13   33.35    2.50
   4  -2  13   34.93    2.59
  -4  -2 -13   30.81    2.50
  -4  -2 -13   30.51    2.23
   4  -2  13   29.14    2.23
   4   2  13   32.87    2.42
   4   2  13   26.94    2.58
  -4   2 -13   30.66    2.52
   4   2  13   35.29    2.51
  -4   2 -13   31.05    2.39
  -5  -2 -13    6.55    0.80
   5  -2  13    5.17    0.73
  -5  -2 -13    4.86    0.56
   5  -2  13    4.37    0.76
  -5   2 -13    5.78    0.80
   5   2  13    4.83    0.76
   5   2  13    5.37    0.69
   5   2  13    6.72    0.79
  -5   2 -13    5.81    0.74
  -6  -2 -13    2.45    0.45
   6  -2  13    2.67    0.59
  -6  -2 -13    2.88    0.65
   6  -2  13    4.13    0.66
   6   2  13    2.37    0.66
   6   2  13    3.39    0.65
  -6   2 -13    2.34    0.55
   6   2  13    3.17    0.58
  -6   2 -13    3.74    0.72
   6  -3 -13   -1.90    0.52
  -6  -3  13   -0.42    0.46
   6  -3 -13   -0.61    0.47
  -6  -3  13    0.54    0.54
   6   3 -13    0.85    0.57
  -6   3  13    0.06    0.60
   6   3 -13   -0.43    0.59
  -6   3  13   -1.37    0.47
   5  -3 -13    0.57    0.55
  -5  -3  13   -0.37    0.50
  -5  -3  13   -0.09    0.47
   5  -3 -13    0.50    0.45
  -5  -3  13    0.45    0.45
   5   3 -13   -0.57    0.57
   5   3 -13   -0.29    0.49
  -5   3  13   -0.62    0.55
   4  -3 -13    8.13    0.85
  -4  -3  13    5.94    0.88
   4  -3 -13    7.35    0.87
  -4  -3  13    6.64    0.84
  -4  -3  13    6.71    0.86
  -4  -3  13    7.77    0.85
  -4   3  13    6.14    0.84
   4   3 -13    6.59    0.80
   4   3 -13    7.01    0.89
   3  -3 -13    1.64    0.49
  -3  -3  13    1.65    0.50
   3  -3 -13    1.04    0.50
  -3  -3  13    1.79    0.50
  -3  -3  13    1.79    0.50
  -3  -3  13    1.29    0.54
  -3   3  13    1.51    0.52
   3   3 -13    1.55    0.52
   3   3 -13    1.90    0.49
  -2  -3  13    2.62    0.55
  -2  -3  13    4.78    0.65
   2  -3 -13    3.81    0.61
  -2  -3  13    3.74    0.67
   2  -3 -13    3.75    0.62
  -2  -3  13    4.75    0.64
   2   3 -13    3.84    0.68
   2   3 -13    3.37    0.59
  -2   3  13    5.03    0.66
  -1  -3  13    0.46    0.39
   1  -3 -13    1.36    0.45
  -1  -3  13    0.70    0.45
   1  -3 -13    0.69    0.44
  -1  -3  13    0.23    0.43
  -1  -3  13    1.48    0.52
  -1   3  13    0.71    0.42
   1   3 -13    1.18    0.49
   0  -3 -13    0.20    0.44
   0  -3  13    0.12    0.48
   0  -3  13    0.67    0.43
   0  -3  13    1.13    0.42
   0  -3  13    0.59    0.43
   0  -3 -13    0.62    0.39
   0   3 -13    0.56    0.44
   0   3  13    0.71    0.41
  -1  -3 -13    2.78    0.55
   1  -3  13    2.61    0.52
  -1  -3 -13    2.94    0.51
   1  -3  13    2.13    0.62
   1  -3  13    3.11    0.55
   1  -3  13    3.34    0.56
  -1   3 -13    2.39    0.55
   1   3  13    3.80    0.56
  -2  -3 -13    2.73    0.59
  -2  -3 -13    2.66    0.53
  -2  -3 -13    2.37    0.55
   2  -3  13    3.19    0.55
   2  -3  13    2.81    0.64
   2  -3  13    2.36    0.54
   2  -3  13    3.77    0.61
   2   3  13    3.26    0.58
  -2   3 -13    3.07    0.61
  -3  -3 -13   13.42    1.38
   3  -3  13   14.88    1.36
   3  -3  13   14.90    1.35
   3  -3  13   17.56    1.42
  -3  -3 -13   14.39    1.35
  -3   3 -13   14.33    1.39
   3   3  13   15.71    1.32
   3   3  13   16.04    1.47
   3   3  13   15.45    1.39
  -3   3 -13   14.38    1.43
  -4  -3 -13   -0.29    0.46
   4  -3  13    0.72    0.42
   4  -3  13    0.07    0.42
  -4  -3 -13   -0.73    0.47
   4  -3  13    0.78    0.50
  -4   3 -13    0.20    0.51
  -4   3 -13   -0.15    0.43
   4   3  13    0.11    0.45
   4   3  13    0.07    0.47
   4   3  13    0.02    0.42
  -5  -3 -13    0.91    0.61
   5  -3  13    0.76    0.47
   5  -3  13    0.47    0.49
  -5  -3 -13    0.36    0.53
  -5   3 -13    1.41    0.49
   5   3  13    0.69    0.48
   5   3  13    0.50    0.49
  -5   3 -13    0.47    0.57
   5   3  13    0.47    0.50
   5  -4 -13   12.32    1.21
   5  -4 -13   12.20    1.19
   5  -4 -13    9.36    1.18
  -5  -4  13   11.07    1.14
  -5  -4  13   13.39    1.29
  -5  -4  13   11.57    1.18
  -5   4  13   12.01    1.24
   5   4 -13   11.29    1.19
  -4  -4  13    1.90    0.53
  -4  -4  13    2.27    0.62
   4  -4 -13    0.51    0.61
   4  -4 -13    2.46    0.55
  -4  -4  13    1.67    0.51
  -4  -4  13    1.35    0.60
  -4   4  13    2.48    0.65
   4   4 -13    1.29    0.60
  -3  -4  13   33.82    2.79
  -3  -4  13   37.60    2.68
   3  -4 -13   35.11    2.74
   3  -4 -13   36.50    2.70
  -3  -4  13   37.26    2.77
   3   4 -13   36.50    2.81
  -3   4  13   35.62    2.80
   2  -4 -13    0.72    0.53
   2  -4 -13    2.33    0.50
  -2  -4  13    1.73    0.48
  -2  -4  13    0.97    0.51
  -2  -4  13    1.25    0.50
  -2  -4  13    0.84    0.48
   2  -4 -13    1.02    0.63
   2   4 -13    0.93    0.57
   2   4 -13    1.83    0.54
  -2   4  13    2.03    0.56
  -1  -4  13   25.74    2.24
  -1  -4  13   29.60    2.31
  -1  -4  13   28.09    2.19
   1  -4 -13   28.07    2.19
  -1  -4  13   32.22    2.53
   1  -4 -13   27.80    2.32
   1  -4 -13   32.04    2.28
  -1   4  13   26.43    2.27
   1   4 -13   32.08    2.34
   0  -4 -13   20.49    1.49
   0  -4 -13   16.27    1.58
   0  -4 -13   15.88    1.49
   0  -4  13   17.46    1.69
   0  -4  13   17.45    1.49
   0  -4  13   16.97    1.49
   0  -4  13   14.79    1.54
   0   4  13   20.71    1.55
   0   4 -13   18.64    1.58
   1  -4  13   10.03    1.03
  -1  -4 -13    9.61    1.05
   1  -4  13   11.37    1.21
   1  -4  13    9.78    0.96
   1  -4  13    9.89    1.01
  -1  -4 -13    9.59    0.94
  -1  -4 -13   10.06    1.04
   1   4  13   10.84    1.10
  -1   4 -13    9.20    1.01
  -2  -4 -13   46.89    3.38
  -2  -4 -13   41.38    3.28
   2  -4  13   44.30    3.41
   2  -4  13   52.10    3.48
   2  -4  13   54.60    3.33
   2  -4  13   38.80    3.72
  -2  -4 -13   42.01    3.42
  -2   4 -13   49.22    3.46
   2   4  13   46.09    3.44
   3  -4  13    1.10    0.46
  -3  -4 -13    2.24    0.55
   3  -4  13    1.78    0.56
   3  -4  13    1.74    0.47
  -3  -4 -13    0.94    0.49
  -3   4 -13    1.38    0.58
   3   4  13    1.70    0.58
   3   4  13    1.18    0.52
   4  -4  13   20.24    1.74
   4  -4  13   19.37    1.84
   4  -4  13   22.09    1.74
  -4  -4 -13   18.23    1.75
  -4  -4 -13   21.06    1.78
  -4   4 -13   21.50    1.90
   4   4  13   20.95    1.88
   4   4  13   23.76    1.86
  -2  -5  13    6.76    0.75
  -2  -5  13    7.40    0.90
  -2  -5  13    6.42    0.83
   2  -5 -13    8.13    0.88
   2  -5 -13    6.85    0.97
  -2  -5  13    8.74    1.07
   2  -5 -13    6.91    0.73
   2   5 -13    7.14    0.87
   2   5 -13    5.58    0.86
  -2   5  13    6.66    0.87
  -1  -5  13   -0.08    0.42
   1  -5 -13    1.07    0.61
  -1  -5  13    0.54    0.60
  -1  -5  13   -0.22    0.48
   1  -5 -13    0.18    0.39
  -1  -5  13    1.07    0.51
   1  -5 -13    0.06    0.48
  -1   5  13    1.55    0.52
   1   5 -13   -0.65    0.51
   0  -5  13    0.49    0.67
   0  -5 -13    1.42    0.65
   0  -5  13    1.55    0.54
   0  -5  13    2.05    0.48
   0  -5  13    3.10    0.60
   0  -5 -13    2.12    0.50
   0  -5 -13    1.13    0.44
   0   5 -13    2.48    0.60
   0   5  13    1.73    0.53
   1  -5  13    3.54    0.66
  -1  -5 -13    1.94    0.66
   1  -5  13    2.80    0.61
  -1  -5 -13    1.76    0.48
   1  -5  13    3.21    0.76
   1  -5  13    3.29    0.52
  -1  -5 -13    2.00    0.50
   1   5  13    3.38    0.65
  -1   5 -13    2.51    0.64
  -2  -5 -13    1.35    0.54
   2  -5  13    0.29    0.46
  -2  -5 -13    0.30    0.45
   2  -5  13    0.66    0.43
   2  -5  13    1.22    0.52
  -2  -5 -13    1.13    0.42
   2  -5  13   -0.27    0.70
  -2   5 -13    0.29    0.49
   2   5  13    0.60    0.51
   6   0 -14    1.25    0.53
  -6   0  14    1.04    0.56
   6   0 -14    2.16    0.51
  -6   0  14    1.39    0.52
   5   0 -14   13.95    1.35
  -5   0  14   16.44    1.54
  -5   0  14   15.10    1.40
  -5   0  14   16.45    1.36
   5   0 -14   17.03    1.42
   4   0 -14   33.25    2.52
  -4   0  14   34.53    2.85
  -4   0  14   37.56    2.52
  -4   0  14   32.42    2.58
   4   0 -14   36.13    2.58
   3   0 -14   11.23    1.05
   3   0 -14    9.61    1.11
  -3   0  14   11.81    1.15
  -3   0  14   11.85    1.06
   3   0 -14   13.01    1.11
  -3   0  14   11.35    1.07
  -3   0  14   10.51    1.10
   2   0 -14   31.63    2.34
   2   0 -14   30.81    2.31
   2   0 -14   29.13    2.28
  -2   0  14   23.87    2.36
   2   0 -14   30.29    2.17
   2   0 -14   27.44    2.11
  -2   0  14   27.94    2.11
  -2   0  14   29.88    2.28
  -2   0  14   30.93    2.17
   1   0 -14    2.16    0.52
  -1   0  14    1.50    0.39
  -1   0  14    1.66    0.51
   1   0 -14    0.95    0.52
   1   0 -14    2.10    0.45
  -1   0  14    2.38    0.49
  -1   0  14    1.86    0.43
  -1   0  14    2.21    0.50
   1   0 -14    1.23    0.41
   0   0  14   71.38    4.45
   0   0  14   60.64    5.05
   0   0  14   68.43    4.55
   0   0 -14   61.58    4.71
   0   0 -14   67.87    4.54
   0   0  14   63.31    4.76
   0   0 -14   64.43    4.43
   0   0 -14   65.28    4.76
   0   0  14   58.54    4.69
   1   0  14    7.62    0.92
  -1   0 -14    8.46    0.92
  -1   0 -14    8.95    0.83
  -1   0 -14    8.13    0.92
   1   0  14    8.90    0.84
  -1   0 -14    8.46    0.87
   1   0  14    8.72    0.90
   1   0  14    8.38    0.87
   1   0  14    9.64    0.96
   2   0  14   10.31    0.96
   2   0  14   11.41    1.09
  -2   0 -14   11.00    1.11
  -2   0 -14    9.98    1.01
   2   0  14    7.88    1.02
  -2   0 -14    9.49    0.93
   2   0  14   12.79    1.03
  -2   0 -14   10.72    1.01
   3   0  14   49.42    3.77
  -3   0 -14   45.52    3.35
   3   0  14   46.69    3.42
   3   0  14   50.70    3.36
  -3   0 -14   47.65    3.41
   4   0  14    3.81    0.54
   4   0  14    4.03    0.59
  -4   0 -14    3.59    0.53
   4   0  14    5.08    0.74
  -4   0 -14    3.58    0.57
   5   0  14   39.38    2.94
   5   0  14   39.17    2.90
  -5   0 -14   46.26    2.94
  -5   0 -14   38.41    2.94
   6   0  14   -0.33    0.47
   6   0  14   -0.77    0.46
  -6   0 -14   -0.20    0.50
   6   0  14    0.84    0.43
  -6   0 -14    0.44    0.43
  -6  -1  14    8.36    1.04
  -6  -1  14    7.47    0.83
  -6  -1  14   10.48    1.10
   6  -1 -14   10.15    0.94
   6  -1 -14    9.49    0.90
  -6  -1  14    9.47    0.87
   6  -1 -14    9.48    1.06
  -6  -1  14    6.43    0.80
  -6   1  14    8.43    1.03
  -6   1  14    7.90    0.95
   6   1 -14   10.64    0.95
  -5  -1  14    1.73    0.51
   5  -1 -14    1.53    0.62
  -5  -1  14    2.96    0.65
   5  -1 -14    2.72    0.49
  -5  -1  14    1.59    0.50
   5  -1 -14    2.66    0.47
  -5  -1  14    1.77    0.56
  -5   1  14    2.64    0.63
   5   1 -14    1.87    0.64
  -5   1  14    2.31    0.54
   5   1 -14    1.79    0.54
   4  -1 -14    0.74    0.41
   4  -1 -14    0.79    0.39
  -4  -1  14    0.60    0.41
  -4  -1  14    0.30    0.46
  -4  -1  14    0.50    0.41
  -4  -1  14    0.63    0.48
   4  -1 -14    0.47    0.54
   4   1 -14    0.63    0.56
   4   1 -14    0.71    0.48
  -4   1  14    0.62    0.43
  -4   1  14   -0.11    0.49
  -3  -1  14   20.95    1.75
   3  -1 -14   14.39    1.61
  -3  -1  14   20.47    1.65
  -3  -1  14   18.34    1.52
  -3  -1  14   20.17    1.48
   3  -1 -14   19.99    1.50
   3  -1 -14   18.79    1.48
  -3   1  14   16.74    1.52
   3   1 -14   20.15    1.55
  -3   1  14   19.82    1.68
   3   1 -14   19.31    1.69
  -2  -1  14    0.63    0.44
   2  -1 -14    0.51    0.38
   2  -1 -14    0.16    0.36
  -2  -1  14    0.98    0.37
  -2  -1  14    0.03    0.40
   2  -1 -14    0.47    0.43
  -2  -1  14    0.79    0.38
  -2   1  14   -0.39    0.37
   2   1 -14    0.08    0.45
  -2   1  14    0.41    0.46
   2   1 -14    0.86    0.51
   2   1 -14    0.45    0.38
  -1  -1  14   22.33    1.74
  -1  -1  14   23.59    2.01
  -1  -1  14   22.54    1.71
   1  -1 -14   22.84    1.74
   1  -1 -14   23.01    1.71
  -1  -1  14   24.69    1.91
   1  -1 -14   24.12    1.90
  -1   1  14   20.41    1.85
   1   1 -14   26.03    1.94
  -1   1  14   24.82    1.79
   1   1 -14   20.71    1.77
   0  -1 -14    0.65    0.46
   0  -1  14   -0.23    0.36
   0  -1 -14    0.33    0.37
   0  -1  14   -0.44    0.39
   0  -1  14    0.23    0.42
   0  -1 -14    0.21    0.35
   0  -1  14    1.21    0.37
   0   1  14    0.40    0.35
   0   1 -14    0.36    0.45
   0   1 -14    0.71    0.39
   0   1  14    0.41    0.42
   1  -1  14    4.02    0.50
  -1  -1 -14    3.31    0.49
   1  -1  14    2.57    0.46
  -1  -1 -14    3.69    0.48
   1  -1  14    3.62    0.60
   1  -1  14    3.58    0.61
  -1  -1 -14    3.87    0.64
   1  -1  14    3.17    0.62
   1   1  14    4.15    0.60
  -1   1 -14    2.75    0.47
   1   1  14    3.92    0.53
  -1   1 -14    3.33    0.62
   2  -1  14   20.95    1.93
  -2  -1 -14   24.68    1.71
   2  -1  14   22.31    1.86
   2  -1  14   21.46    1.70
   2  -1  14   24.04    1.72
  -2  -1 -14   20.94    1.88
   2  -1  14   22.55    2.00
  -2  -1 -14   24.59    1.70
   2   1  14   25.20    1.88
  -2   1 -14   22.03    1.86
   2   1  14   21.10    1.92
  -2   1 -14   21.77    1.76
   2   1  14   22.55    1.75
   3  -1  14   -0.33    0.37
   3  -1  14    0.15    0.32
   3  -1  14   -0.38    0.40
  -3  -1 -14    0.28    0.35
   3  -1  14    0.19    0.46
  -3  -1 -14    0.07    0.36
  -3  -1 -14   -0.50    0.43
  -3   1 -14   -0.04    0.41
   3   1  14    0.17    0.42
   3   1  14    0.00    0.43
   3   1  14    0.38    0.41
  -3   1 -14   -0.43    0.47
   4  -1  14   10.32    0.95
  -4  -1 -14   10.03    0.94
   4  -1  14   10.26    1.14
   4  -1  14    9.55    1.06
  -4  -1 -14   10.48    0.96
  -4  -1 -14    8.99    1.07
   4  -1  14    8.87    0.91
  -4   1 -14   13.44    1.23
   4   1  14   11.39    1.15
   4   1  14    9.26    0.98
  -4   1 -14   11.55    1.06
   4   1  14    9.24    1.02
   5  -1  14    0.56    0.53
   5  -1  14   -0.29    0.32
  -5  -1 -14   -0.24    0.37
   5  -1  14   -0.65    0.47
  -5  -1 -14    0.26    0.56
   5  -1  14    0.41    0.39
  -5  -1 -14    0.17    0.42
   5   1  14    0.28    0.51
   5   1  14    0.32    0.53
  -5   1 -14    0.10    0.43
   5   1  14    0.83    0.44
  -5   1 -14   -0.92    0.54
  -6  -1 -14   10.72    1.01
  -6  -1 -14    8.03    1.11
   6  -1  14   10.50    1.01
   6  -1  14    8.75    1.13
  -6  -1 -14   12.24    0.93
   6  -1  14   10.50    0.95
   6  -1  14    8.74    1.08
   6   1  14    8.33    0.96
   6   1  14    9.43    1.14
  -6   1 -14    9.19    0.98
  -6  -2  14    4.26    0.73
  -6  -2  14    3.49    0.50
  -6  -2  14    2.87    0.68
   6  -2 -14    4.18    0.75
  -6   2  14    2.44    0.73
   6   2 -14    2.37    0.74
  -6   2  14    3.64    0.64
   6   2 -14    3.40    0.68
   5  -2 -14   10.28    1.20
  -5  -2  14   11.16    1.03
  -5  -2  14   12.39    1.33
  -5  -2  14   13.20    1.31
   5   2 -14   11.56    1.13
   5   2 -14   12.18    1.23
  -5   2  14   12.22    1.19
  -5   2  14   12.57    1.27
   4  -2 -14    4.53    0.69
  -4  -2  14    3.81    0.64
  -4  -2  14    4.57    0.53
  -4  -2  14    4.01    0.75
   4   2 -14    4.46    0.76
  -4   2  14    3.58    0.71
  -4   2  14    4.53    0.62
   4   2 -14    4.49    0.66
   3  -2 -14    0.48    0.47
  -3  -2  14    0.51    0.36
  -3  -2  14    0.93    0.47
   3  -2 -14    0.11    0.48
  -3  -2  14    0.13    0.46
  -3   2  14   -0.06    0.44
   3   2 -14    0.73    0.44
   3   2 -14    0.84    0.55
  -3   2  14    0.50    0.50
  -2  -2  14   32.03    2.80
   2  -2 -14   28.44    2.58
   2  -2 -14   34.69    2.53
  -2  -2  14   34.82    2.49
  -2  -2  14   33.76    2.36
  -2  -2  14   33.69    2.61
  -2   2  14   38.34    2.52
   2   2 -14   31.54    2.49
  -2   2  14   35.54    2.62
   2   2 -14   34.84    2.61
   2   2 -14   33.49    2.66
   1  -2 -14    0.03    0.42
   1  -2 -14   -0.68    0.40
  -1  -2  14    0.07    0.31
   1  -2 -14    0.15    0.31
  -1  -2  14   -0.20    0.43
  -1  -2  14    0.31    0.42
  -1  -2  14    0.43    0.46
  -1   2  14    0.09    0.42
   1   2 -14   -0.33    0.48
  -1   2  14    0.71    0.37
   1   2 -14    0.07    0.42
   0  -2  14   28.49    2.74
   0  -2  14   30.90    2.31
   0  -2  14   34.68    2.67
   0  -2 -14   35.32    2.46
   0  -2  14   31.59    2.56
   0  -2 -14   33.27    2.31
   0  -2 -14   31.71    2.56
   0  -2  14   34.65    2.46
   0   2  14   33.90    2.47
   0   2  14   35.43    2.56
   0   2 -14   35.79    2.60
   0   2 -14   33.81    2.45
   1  -2  14    1.08    0.35
   1  -2  14    1.37    0.48
  -1  -2 -14    1.74    0.45
  -1  -2 -14    1.50    0.34
   1  -2  14    1.51    0.49
  -1  -2 -14    1.92    0.54
   1  -2  14    1.33    0.45
   1  -2  14    1.40    0.53
  -1   2 -14    2.25    0.46
   1   2  14    1.03    0.45
   1   2  14    0.61    0.46
  -1   2 -14    0.73    0.52
   2  -2  14    3.46    0.59
   2  -2  14    4.00    0.64
   2  -2  14    4.63    0.76
  -2  -2 -14    3.43    0.59
  -2  -2 -14    3.74    0.65
   2  -2  14    3.41    0.45
  -2  -2 -14    4.57    0.48
   2  -2  14    3.37    0.61
  -2   2 -14    4.00    0.64
   2   2  14    3.91    0.61
  -2   2 -14    4.89    0.63
   2   2  14    3.66    0.61
  -3  -2 -14   20.24    1.84
  -3  -2 -14   21.12    1.60
   3  -2  14   20.13    1.83
   3  -2  14   20.96    1.89
   3   2  14   23.28    1.93
   3   2  14   24.83    1.81
  -3   2 -14   22.38    1.78
   3   2  14   24.91    1.87
  -3   2 -14   20.11    1.86
   4  -2  14    0.26    0.33
  -4  -2 -14    0.04    0.34
  -4  -2 -14    0.53    0.54
   4  -2  14    0.13    0.45
   4  -2  14   -0.34    0.48
   4   2  14    0.58    0.47
  -4   2 -14    0.31    0.52
   4   2  14    1.07    0.51
  -4   2 -14    0.87    0.49
   4   2  14    0.44    0.47
  -5  -2 -14   30.09    2.17
   5  -2  14   31.00    2.58
  -5  -2 -14   28.48    2.49
  -5   2 -14   32.82    2.39
   5   2  14   27.48    2.56
  -5   2 -14   33.47    2.55
   5   2  14   33.91    2.52
   5   2  14   30.55    2.39
  -5  -3  14    6.82    0.90
   5  -3 -14    6.76    0.93
   5  -3 -14    6.43    0.90
  -5  -3  14    6.90    0.96
   5   3 -14    9.82    0.94
  -5   3  14    7.38    1.00
  -5   3  14    7.47    0.90
   5   3 -14    7.65    1.00
  -4  -3  14   12.25    1.39
  -4  -3  14   12.08    1.22
  -4  -3  14   12.71    1.29
   4  -3 -14   12.44    1.24
   4  -3 -14   11.91    1.24
  -4   3  14   13.86    1.38
   4   3 -14   11.76    1.26
   4   3 -14   14.61    1.28
  -3  -3  14   24.52    1.89
   3  -3 -14   22.68    1.87
  -3  -3  14   21.76    1.83
  -3  -3  14   19.10    2.00
  -3  -3  14   24.11    1.92
   3  -3 -14   25.58    1.88
   3   3 -14   22.18    1.96
  -3   3  14   18.40    1.89
   3   3 -14   24.99    1.84
  -2  -3  14    0.72    0.48
  -2  -3  14    0.35    0.45
  -2  -3  14    0.77    0.43
   2  -3 -14   -0.37    0.52
  -2  -3  14    0.16    0.44
   2  -3 -14    1.66    0.49
   2   3 -14    0.41    0.45
   2   3 -14    1.06    0.54
   2   3 -14    1.28    0.60
  -2   3  14    0.87    0.52
  -1  -3  14   36.12    2.59
   1  -3 -14   31.88    2.68
   1  -3 -14   35.66    2.61
  -1  -3  14   38.49    2.70
  -1  -3  14   35.64    2.94
  -1  -3  14   34.86    2.70
   1   3 -14   34.66    2.73
  -1   3  14   32.21    2.69
   1   3 -14   35.93    2.59
   0  -3  14    2.03    0.59
   0  -3  14    3.55    0.58
   0  -3  14    3.94    0.58
   0  -3 -14    2.41    0.57
   0  -3 -14    1.95    0.56
   0  -3  14    2.37    0.53
   0   3 -14    3.10    0.63
   0   3 -14    3.43    0.56
   0   3  14    2.07    0.56
   1  -3  14   27.29    2.07
   1  -3  14   28.08    2.17
  -1  -3 -14   26.30    2.06
   1  -3  14   28.86    2.16
  -1  -3 -14   23.54    2.13
   1  -3  14   23.42    2.30
  -1   3 -14   26.37    2.09
   1   3  14   29.29    2.17
  -1   3 -14   28.37    2.18
  -2  -3 -14   18.28    1.68
   2  -3  14   20.23    1.64
   2  -3  14   19.35    1.85
  -2  -3 -14   18.70    1.69
   2  -3  14   21.78    1.73
  -2  -3 -14   22.52    1.68
   2  -3  14   18.51    1.70
   2   3  14   21.88    1.70
  -2   3 -14   18.73    1.72
  -2   3 -14   20.16    1.68
   2   3  14   19.56    1.71
  -3  -3 -14    2.81    0.63
   3  -3  14    2.76    0.57
  -3  -3 -14    3.21    0.60
   3  -3  14    3.16    0.61
   3  -3  14    3.14    0.64
  -3   3 -14    3.10    0.65
   3   3  14    4.89    0.75
  -3   3 -14    3.02    0.61
   3   3  14    3.35    0.63
   3   3  14    2.39    0.60
   4  -3  14   19.55    1.72
  -4  -3 -14   22.63    1.74
   4  -3  14   20.48    1.72
  -4  -3 -14   18.65    1.75
   4   3  14   15.38    1.77
   4   3  14   19.01    1.76
   4   3  14   21.91    1.71
  -4   3 -14   19.41    1.80
  -4   3 -14   22.95    1.70
  -4  -4  14    3.59    0.69
   3  -4 -14    1.53    0.54
  -3  -4  14    2.09    0.50
   3  -4 -14    1.86    0.59
  -3  -4  14    0.53    0.57
  -3  -4  14    0.00    0.48
  -3  -4  14    0.22    0.55
   3   4 -14    0.71    0.57
  -3   4  14    1.01    0.57
  -2  -4  14    0.36    0.55
   2  -4 -14    0.46    0.60
   2  -4 -14   -0.41    0.51
  -2  -4  14   -0.29    0.42
  -2  -4  14    0.21    0.48
   2  -4 -14   -0.31    0.47
  -2  -4  14   -0.21    0.50
  -2   4  14    0.33    0.53
   2   4 -14    0.10    0.52
   2   4 -14   -0.97    0.57
   1  -4 -14   -0.25    0.56
   1  -4 -14   -0.15    0.54
   1  -4 -14    1.36    0.48
  -1  -4  14    0.04    0.56
  -1  -4  14    0.36    0.44
  -1  -4  14    0.74    0.48
  -1  -4  14    0.51    0.47
  -1   4  14   -0.09    0.48
   1   4 -14    0.20    0.59
   0  -4  14    2.81    0.57
   0  -4 -14    1.34    0.52
   0  -4  14    3.47    0.70
   0  -4 -14    2.42    0.66
   0  -4  14    2.07    0.53
   0  -4  14    2.00    0.56
   0  -4 -14    2.22    0.54
   0   4 -14    2.38    0.64
   0   4  14    1.81    0.55
  -1  -4 -14    7.77    0.80
   1  -4  14    6.78    0.82
   1  -4  14    7.50    1.00
  -1  -4 -14    8.00    0.94
   1  -4  14    7.10    0.81
   1  -4  14    8.54    0.90
  -1  -4 -14    7.77    0.85
  -1   4 -14    6.28    0.88
   1   4  14    6.55    0.86
  -2  -4 -14    1.69    0.52
   2  -4  14    0.85    0.65
   2  -4  14    1.33    0.51
   2  -4  14    1.84    0.49
   2  -4  14    1.27    0.53
  -2  -4 -14   -0.23    0.49
   2   4  14    1.84    0.57
  -2   4 -14    1.24    0.53
   3  -4  14   -0.61    0.54
  -3  -4 -14    0.41    0.50
   3  -4  14    0.41    0.45
  -3  -4 -14    0.33    0.53
   3  -4  14   -0.06    0.47
   3   4  14    1.28    0.55
   3   4  14    0.80    0.56
  -3   4 -14    0.75    0.56
   6   0 -15   -0.99    0.50
  -6   0  15    0.17    0.52
   6   0 -15   -0.23    0.54
  -5   0  15    0.03    0.50
   5   0 -15   -0.70    0.46
   5   0 -15   -1.13    0.49
  -5   0  15    0.48    0.50
  -4   0  15   -0.10    0.40
  -4   0  15    0.01    0.46
   4   0 -15   -0.24    0.42
   4   0 -15    0.06    0.46
  -4   0  15    0.03    0.45
  -3   0  15   -0.10    0.44
  -3   0  15    0.93    0.46
   3   0 -15    0.13    0.44
   3   0 -15    0.77    0.45
  -3   0  15    0.35    0.44
   2   0 -15   -0.06    0.42
   2   0 -15   -0.24    0.40
  -2   0  15    0.00    0.39
  -2   0  15   -0.71    0.40
  -2   0  15   -0.04    0.40
   2   0 -15    0.05    0.41
  -1   0  15    0.60    0.43
  -1   0  15    0.34    0.41
   1   0 -15    0.38    0.40
  -1   0  15    0.23    0.40
  -1   0  15   -0.37    0.49
   1   0 -15    0.38    0.41
   0   0 -15    0.72    0.41
   0   0  15    0.34    0.42
   0   0  15    0.50    0.37
   0   0 -15    0.16    0.37
   0   0  15    0.34    0.40
  -1   0 -15    0.38    0.40
   1   0  15    0.15    0.36
   1   0  15    0.31    0.38
  -1   0 -15   -0.40    0.37
   1   0  15    0.16    0.45
   2   0  15   -0.42    0.42
   2   0  15   -0.35    0.41
   2   0  15    0.41    0.40
  -2   0 -15    0.05    0.42
  -2   0 -15    0.08    0.37
  -3   0 -15    0.21    0.35
   3   0  15    0.42    0.39
  -3   0 -15    0.06    0.43
   3   0  15   -0.01    0.45
   3   0  15    0.23    0.43
  -4   0 -15   -0.40    0.37
  -4   0 -15   -0.52    0.42
   4   0  15    0.34    0.39
   4   0  15   -0.29    0.51
   4   0  15    0.06    0.45
  -5   0 -15    0.24    0.49
   5   0  15    0.69    0.52
   5   0  15    0.68    0.42
   5   0  15    0.37    0.39
  -5   0 -15   -0.77    0.41
  -5  -1  15   39.00    2.92
   5  -1 -15   38.63    2.65
   5  -1 -15   33.29    2.88
  -5  -1  15   35.92    2.69
   5  -1 -15   36.60    2.61
  -5  -1  15   35.00    2.63
  -5  -1  15   34.84    3.05
  -5   1  15   36.99    2.75
  -5   1  15   36.18    2.92
   5   1 -15   38.09    2.75
   4  -1 -15    4.23    0.73
  -4  -1  15    4.72    0.63
  -4  -1  15    4.82    0.80
   4  -1 -15    5.60    0.64
  -4  -1  15    4.47    0.66
  -4  -1  15    4.78    0.72
   4  -1 -15    5.50    0.61
  -4   1  15    6.24    0.72
  -4   1  15    5.44    0.80
   4   1 -15    5.45    0.85
   4   1 -15    5.54    0.73
  -3  -1  15   18.81    1.54
  -3  -1  15   16.10    1.64
  -3  -1  15   18.85    1.50
  -3  -1  15   19.65    1.78
   3  -1 -15   20.95    1.51
   3  -1 -15   19.18    1.69
   3  -1 -15   21.08    1.52
  -3   1  15   18.01    1.58
   3   1 -15   19.74    1.74
   3   1 -15   18.96    1.59
  -3   1  15   17.57    1.69
   2  -1 -15   15.85    1.34
   2  -1 -15   14.82    1.52
  -2  -1  15   17.12    1.36
  -2  -1  15   17.07    1.60
  -2  -1  15   16.48    1.39
  -2  -1  15   16.40    1.53
   2  -1 -15   17.19    1.37
  -2   1  15   18.27    1.56
   2   1 -15   14.47    1.54
   2   1 -15   19.07    1.57
   2   1 -15   18.90    1.44
  -2   1  15   16.15    1.42
   1  -1 -15    0.16    0.38
  -1  -1  15    0.97    0.46
   1  -1 -15    0.16    0.44
   1  -1 -15    0.95    0.39
  -1  -1  15    0.30    0.48
  -1  -1  15    0.26    0.38
  -1  -1  15   -0.46    0.38
  -1   1  15    0.55    0.48
  -1   1  15    0.26    0.38
   1   1 -15   -0.25    0.40
   1   1 -15   -0.22    0.50
   0  -1  15   27.61    2.38
   0  -1  15   26.09    2.22
   0  -1  15   28.00    2.04
   0  -1  15   31.03    2.09
   0  -1 -15   28.31    2.05
   0  -1 -15   26.56    2.25
   0  -1 -15   30.98    2.08
   0   1  15   25.83    2.11
   0   1 -15   26.77    2.11
   0   1  15   25.84    2.21
   0   1 -15   29.71    2.26
   1  -1  15    2.48    0.44
  -1  -1 -15    2.71    0.46
   1  -1  15    2.42    0.47
  -1  -1 -15    2.85    0.64
   1  -1  15    2.78    0.57
  -1  -1 -15    2.23    0.45
   1  -1  15    3.33    0.61
   1  -1  15    2.08    0.58
   1   1  15    3.22    0.58
   1   1  15    2.19    0.46
  -1   1 -15    2.68    0.58
  -1   1 -15    1.83    0.42
   2  -1  15   31.06    2.46
   2  -1  15   27.63    2.50
  -2  -1 -15   31.81    2.15
  -2  -1 -15   30.51    2.17
   2  -1  15   30.42    2.18
  -2  -1 -15   27.86    2.36
   2  -1  15   26.76    2.34
   2  -1  15   27.91    2.15
   2   1  15   33.70    2.37
   2   1  15   30.66    2.46
  -2   1 -15   29.29    2.22
  -2   1 -15   27.46    2.34
   2   1  15   28.99    2.23
  -3  -1 -15   15.84    1.28
   3  -1  15   15.61    1.30
  -3  -1 -15   15.34    1.26
   3  -1  15   13.67    1.47
   3  -1  15   16.55    1.26
   3  -1  15   16.07    1.52
  -3  -1 -15   15.26    1.47
  -3   1 -15   15.27    1.49
   3   1  15   15.25    1.47
  -3   1 -15   14.72    1.34
   3   1  15   16.15    1.49
   3   1  15   15.16    1.32
  -4  -1 -15    6.93    0.66
   4  -1  15    5.41    0.67
   4  -1  15    4.90    0.81
   4  -1  15    6.30    0.65
   4  -1  15    5.51    0.88
  -4  -1 -15    6.93    0.69
  -4  -1 -15    5.87    0.85
  -4   1 -15    7.10    0.87
   4   1  15    6.06    0.75
   4   1  15    6.03    0.88
  -4   1 -15    6.31    0.76
   4   1  15    7.10    0.88
   5  -1  15   13.27    1.41
   5  -1  15   12.62    1.17
  -5  -1 -15   12.80    1.36
  -5  -1 -15   11.90    1.17
  -5  -1 -15   15.26    1.15
   5  -1  15   11.83    1.32
   5  -1  15   13.43    1.12
   5   1  15   12.72    1.25
  -5   1 -15   13.46    1.24
   5   1  15   13.09    1.43
  -5  -2  15    1.25    0.39
   5  -2 -15    1.75    0.53
  -5  -2  15    0.13    0.55
  -5  -2  15    0.74    0.50
   5   2 -15   -0.07    0.61
   5   2 -15   -0.90    0.55
  -5   2  15   -1.08    0.56
  -5   2  15    0.32    0.49
   4  -2 -15   26.92    2.14
  -4  -2  15   26.24    1.86
  -4  -2  15   23.46    2.10
  -4  -2  15   25.41    2.28
   4   2 -15   27.68    2.07
   4   2 -15   22.21    2.21
  -4   2  15   26.09    2.18
  -4   2  15   25.73    2.04
  -3  -2  15    7.06    0.88
  -3  -2  15    8.21    0.75
   3  -2 -15    6.21    0.83
  -3  -2  15    6.84    0.95
  -3   2  15    7.10    0.79
  -3   2  15    6.31    0.88
   3   2 -15    7.46    0.82
   3   2 -15    6.50    0.89
  -2  -2  15    3.81    0.72
   2  -2 -15    4.20    0.69
  -2  -2  15    5.20    0.72
  -2  -2  15    4.11    0.51
   2   2 -15    4.14    0.66
   2   2 -15    4.77    0.70
  -2   2  15    4.45    0.60
  -2   2  15    4.25    0.69
   2   2 -15    3.82    0.73
   1  -2 -15   18.21    1.75
   1  -2 -15   23.04    1.79
  -1  -2  15   20.35    1.89
  -1  -2  15   22.42    1.80
   1  -2 -15   20.13    1.51
  -1  -2  15   21.04    1.53
  -1   2  15   23.64    1.72
   1   2 -15   23.50    1.85
   1   2 -15   19.13    1.67
  -1   2  15   18.17    1.74
   0  -2  15    0.08    0.43
   0  -2 -15   -0.27    0.29
   0  -2  15    0.44    0.32
   0  -2  15    0.59    0.48
   0  -2 -15    0.71    0.49
   0  -2  15    0.40    0.49
   0  -2 -15   -0.04    0.46
   0   2 -15    0.16    0.48
   0   2 -15   -0.19    0.42
   0   2  15   -0.03    0.48
   0   2  15   -0.09    0.41
  -1  -2 -15   44.03    3.43
  -1  -2 -15   44.73    3.11
   1  -2  15   47.13    3.57
   1  -2  15   43.13    3.12
   1  -2  15   44.31    3.67
   1  -2  15   42.73    3.42
   1   2  15   44.56    3.29
  -1   2 -15   50.19    3.45
  -1   2 -15   46.73    3.28
   1   2  15   46.71    3.41
   2  -2  15    0.52    0.32
  -2  -2 -15    0.40    0.32
  -2  -2 -15    0.01    0.50
   2  -2  15    0.64    0.52
   2  -2  15   -0.34    0.55
   2  -2  15    1.11    0.51
  -2   2 -15    0.43    0.52
   2   2  15    0.40    0.45
  -2   2 -15    0.81    0.46
   2   2  15    0.08    0.49
   2   2  15    0.51    0.47
   3  -2  15    9.15    1.03
   3  -2  15    8.04    0.96
  -3  -2 -15    8.82    0.97
  -3   2 -15    8.60    0.92
  -3   2 -15    8.27    1.00
   3   2  15    8.11    1.02
   3   2  15    7.80    0.95
   3   2  15   11.68    1.08
   4  -2  15   20.64    1.84
   4  -2  15   18.79    1.77
  -4  -2 -15   18.08    1.80
  -4  -2 -15   20.16    1.50
  -4   2 -15   19.87    1.70
   4   2  15   20.36    1.82
   4   2  15   22.89    1.74
  -4   2 -15   22.04    1.88
   4   2  15   19.68    1.85
  -4  -3  15    1.47    0.62
   4  -3 -15    1.58    0.75
  -4  -3  15    1.65    0.59
   4  -3 -15    1.79    0.60
  -4   3  15    1.26    0.56
   4   3 -15    1.89    0.57
  -4   3  15    2.68    0.71
   4   3 -15    1.75    0.68
  -3  -3  15    2.46    0.67
   3  -3 -15    1.00    0.51
   3  -3 -15    1.78    0.62
  -3  -3  15    1.11    0.53
  -3  -3  15    1.31    0.55
   3   3 -15    1.84    0.65
  -3   3  15    0.36    0.52
   3   3 -15    1.34    0.52
  -3   3  15   -0.09    0.55
  -2  -3  15    1.37    0.57
  -2  -3  15    0.03    0.45
   2  -3 -15   -0.54    0.54
  -2  -3  15   -0.20    0.49
   2  -3 -15    1.07    0.51
  -2  -3  15   -0.27    0.48
  -2   3  15    0.49    0.52
   2   3 -15    0.49    0.53
   2   3 -15    0.82    0.46
   2   3 -15    0.00    0.62
  -2   3  15    0.45    0.48
   1  -3 -15   -0.09    0.56
   1  -3 -15    1.21    0.50
  -1  -3  15    0.79    0.56
  -1  -3  15    0.73    0.48
  -1  -3  15    0.80    0.47
  -1  -3  15    0.15    0.50
  -1   3  15    1.11    0.49
  -1   3  15    0.62    0.46
   1   3 -15    0.84    0.62
   1   3 -15    0.99    0.41
   0  -3 -15    5.17    0.69
   0  -3 -15    4.58    0.69
   0  -3  15    4.20    0.76
   0  -3  15    4.82    0.69
   0  -3  15    3.71    0.66
   0  -3  15    4.28    0.70
   0   3 -15    3.53    0.71
   0   3  15    5.19    0.71
   0   3 -15    3.34    0.65
   0   3  15    4.19    0.66
   1  -3  15    0.14    0.50
  -1  -3 -15    1.20    0.55
   1  -3  15    1.16    0.53
   1  -3  15    0.49    0.51
  -1  -3 -15    0.02    0.49
   1  -3  15   -0.14    0.51
   1   3  15    0.83    0.51
  -1   3 -15    0.40    0.48
  -1   3 -15    0.33    0.56
   1   3  15    0.76    0.51
  -2  -3 -15    0.41    0.46
   2  -3  15    0.42    0.50
   2  -3  15    0.01    0.47
   2  -3  15    0.75    0.66
  -2  -3 -15    0.94    0.53
   2   3  15    0.94    0.53
  -2   3 -15    0.78    0.55
   2   3  15    1.20    0.54
  -2   3 -15    0.42    0.50
  -3  -3 -15    0.86    0.50
   3  -3  15   -0.63    0.49
   3  -3  15    0.94    0.48
  -3  -3 -15    1.71    0.58
   3   3  15    0.73    0.53
   3   3  15    0.05    0.49
   3   3  15   -0.41    0.55
  -3   3 -15    0.32    0.60
  -3   3 -15   -0.23    0.52
   2  -4 -15    7.57    0.91
  -2  -4  15    8.02    0.95
   2  -4 -15    7.72    0.88
  -2  -4  15    8.29    0.90
   2  -4 -15    6.45    0.98
  -2  -4  15    6.33    0.86
   2   4 -15    9.80    1.06
  -2   4  15    7.71    0.97
   2   4 -15    8.62    0.95
   1  -4 -15   18.67    1.78
   1  -4 -15   21.23    1.69
  -1  -4  15   20.25    1.75
   1  -4 -15   17.91    1.65
  -1  -4  15   18.35    1.83
  -1  -4  15   20.06    1.68
  -1  -4  15   18.03    1.64
  -1   4  15   18.41    1.71
   1   4 -15   20.56    1.82
   0  -4 -15   -0.24    0.57
   0  -4  15   -0.87    0.45
   0  -4  15   -0.13    0.57
   0  -4 -15   -0.22    0.49
   0  -4  15   -0.23    0.44
   0  -4  15    1.27    0.63
   0  -4 -15    0.50    0.47
   0   4 -15    0.19    0.59
   0   4  15    0.35    0.55
  -1  -4 -15    9.01    1.04
  -1  -4 -15    9.42    0.99
  -1  -4 -15    9.45    0.96
   1  -4  15    7.48    0.94
   1  -4  15    9.57    1.06
   1  -4  15    9.57    0.99
   1   4  15   13.14    1.21
  -1   4 -15    8.95    1.02
  -5   0  16    9.79    0.96
   5   0 -16    9.44    0.95
   5   0 -16    9.23    0.92
  -4   0  16    5.16    0.77
  -4   0  16    6.28    0.77
   4   0 -16    6.38    0.74
   4   0 -16    5.39    0.72
  -3   0  16   61.09    4.34
   3   0 -16   63.77    4.24
   3   0 -16   58.01    4.32
  -3   0  16   60.90    4.25
   2   0 -16   27.86    2.06
  -2   0  16   26.20    2.33
   2   0 -16   25.55    2.02
  -2   0  16   27.08    2.00
  -2   0  16   26.66    2.05
  -1   0  16   32.69    2.38
   1   0 -16   35.32    2.39
  -1   0  16   30.47    2.41
  -1   0  16   30.21    2.70
   1   0 -16   34.54    2.42
   0   0 -16   39.40    2.89
   0   0 -16   39.79    2.84
   0   0  16   37.19    3.23
   0   0  16   39.80    2.89
   0   0  16   42.73    2.84
  -1   0 -16    0.39    0.45
   1   0  16    0.82    0.40
   1   0  16   -0.38    0.39
   1   0  16   -0.54    0.49
  -1   0 -16   -0.62    0.40
   2   0  16   40.46    3.16
  -2   0 -16   35.05    2.83
   2   0  16   39.48    2.85
   2   0  16   39.21    2.80
  -2   0 -16   41.61    2.81
   3   0  16    3.88    0.60
   3   0  16    5.00    0.67
  -3   0 -16    3.96    0.63
  -3   0 -16    4.17    0.60
   3   0  16    4.54    0.75
  -4   0 -16   15.35    1.39
  -4   0 -16   16.86    1.33
   4   0  16   14.89    1.35
   4   0  16   16.46    1.60
   4   0  16   16.00    1.41
   4  -1 -16    3.01    0.58
  -4  -1  16    2.65    0.68
  -4  -1  16    3.15    0.57
   4  -1 -16    3.32    0.78
  -4  -1  16    4.78    0.61
  -4  -1  16    4.80    0.72
   4  -1 -16    3.87    0.57
  -4   1  16    3.92    0.64
  -4   1  16    4.79    0.81
   4   1 -16    4.01    0.66
   3  -1 -16   -0.16    0.40
   3  -1 -16    0.45    0.51
   3  -1 -16   -0.20    0.39
  -3  -1  16    0.62    0.42
  -3  -1  16    0.35    0.42
  -3  -1  16   -0.66    0.51
  -3  -1  16    0.31    0.52
   3   1 -16    0.54    0.49
  -3   1  16    0.27    0.55
   3   1 -16   -0.04    0.61
  -3   1  16   -0.04    0.50
  -2  -1  16    4.84    0.74
  -2  -1  16    3.53    0.68
   2  -1 -16    4.45    0.56
  -2  -1  16    3.82    0.59
   2  -1 -16    4.16    0.72
  -2  -1  16    4.81    0.59
   2  -1 -16    4.17    0.57
  -2   1  16    3.89    0.61
   2   1 -16    3.97    0.64
   2   1 -16    4.28    0.82
  -2   1  16    4.21    0.72
   2   1 -16    5.86    0.77
  -1  -1  16    4.88    0.59
  -1  -1  16    4.69    0.59
   1  -1 -16    4.25    0.71
  -1  -1  16    4.67    0.75
   1  -1 -16    4.34    0.57
   1  -1 -16    5.01    0.57
  -1  -1  16    4.35    0.76
   1   1 -16    4.40    0.80
  -1   1  16    3.40    0.59
   1   1 -16    3.38    0.58
  -1   1  16    3.72    0.74
   0  -1 -16    1.21    0.43
   0  -1 -16    1.57    0.57
   0  -1  16    1.79    0.60
   0  -1  16    0.10    0.49
   0  -1  16    1.64    0.41
   0  -1 -16    1.49    0.45
   0  -1  16    1.02    0.44
   0   1 -16    1.03    0.54
   0   1 -16    1.54    0.47
   0   1  16    0.46    0.45
   0   1  16    1.76    0.54
   1  -1  16    1.58    0.45
   1  -1  16    0.72    0.49
   1  -1  16    0.93    0.42
  -1  -1 -16    2.09    0.57
   1  -1  16    1.18    0.52
   1  -1  16    1.92    0.53
  -1  -1 -16    1.29    0.41
  -1  -1 -16    1.66    0.45
  -1   1 -16    1.73    0.62
  -1   1 -16    1.35    0.49
   1   1  16    0.79    0.49
   1   1  16    1.77    0.50
   2  -1  16    0.40    0.53
   2  -1  16    0.70    0.40
  -2  -1 -16   -0.21    0.36
  -2  -1 -16    1.54    0.55
   2  -1  16    0.02    0.37
   2  -1  16   -0.33    0.48
  -2  -1 -16    0.65    0.42
   2   1  16    0.01    0.50
   2   1  16   -0.62    0.45
   2   1  16    1.10    0.43
  -2   1 -16   -0.29    0.41
  -2   1 -16   -0.29    0.54
   3  -1  16    8.70    0.83
  -3  -1 -16    8.22    0.81
   3  -1  16    6.57    0.75
  -3  -1 -16    8.26    0.97
  -3  -1 -16    6.59    0.73
   3  -1  16    8.00    0.98
   3  -1  16    8.29    1.00
   3   1  16    6.83    0.94
   3   1  16    7.74    0.89
  -3   1 -16    7.10    0.89
  -3   1 -16    7.14    0.80
   3   1  16    6.23    0.77
  -4  -1 -16    0.23    0.57
   4  -1  16   -0.69    0.56
   4  -1  16   -0.54    0.54
   4  -1  16    0.31    0.38
  -4  -1 -16   -0.83    0.43
   4  -1  16    0.98    0.41
  -4  -1 -16   -0.13    0.36
   4   1  16    0.73    0.58
   4   1  16    0.34    0.46
  -4   1 -16    0.27    0.43
  -4  -2  16   -0.31    0.55
   4  -2 -16    0.73    0.52
  -4  -2  16    0.96    0.53
  -4   2  16   -0.89    0.48
   4   2 -16   -0.29    0.50
   4   2 -16    0.12    0.66
  -4   2  16   -1.10    0.60
  -3  -2  16    8.58    0.87
  -3  -2  16    9.20    1.15
   3  -2 -16    7.31    0.95
  -3  -2  16    8.96    1.01
  -3   2  16   10.56    1.09
   3   2 -16   10.41    1.10
  -3   2  16    8.39    0.93
   3   2 -16    9.66    0.95
  -2  -2  16    3.24    0.68
  -2  -2  16    3.76    0.48
  -2  -2  16    3.65    0.69
   2  -2 -16    3.45    0.68
  -2   2  16    4.20    0.65
   2   2 -16    4.11    0.63
   2   2 -16    4.38    0.72
  -2   2  16    3.92    0.75
   2   2 -16    3.78    0.76
   1  -2 -16    0.92    0.57
  -1  -2  16    2.18    0.42
  -1  -2  16    2.04    0.64
  -1  -2  16    2.49    0.57
   1   2 -16    2.56    0.68
   1   2 -16    2.44    0.52
  -1   2  16    2.62    0.58
  -1   2  16    3.06    0.65
   0  -2  16   15.46    1.71
   0  -2  16   19.31    1.38
   0  -2  16   20.68    1.64
   0  -2  16   16.80    1.64
   0  -2 -16   18.27    1.65
   0   2  16   17.76    1.52
   0   2 -16   17.70    1.68
   0   2 -16   19.33    1.55
   0   2  16   17.55    1.64
   1  -2  16    0.88    0.55
   1  -2  16    0.47    0.54
   1  -2  16    0.89    0.56
   1  -2  16    1.00    0.34
  -1  -2 -16    1.38    0.53
  -1   2 -16    0.70    0.56
   1   2  16    0.32    0.54
  -1   2 -16    0.57    0.44
   1   2  16    0.01    0.44
   2  -2  16   17.40    1.51
   2  -2  16   17.72    1.55
   2  -2  16   16.08    1.61
  -2  -2 -16   12.06    1.46
   2   2  16   15.27    1.54
  -2   2 -16   15.90    1.40
  -2   2 -16   15.90    1.57
   2   2  16   15.41    1.39
   2   2  16   14.32    1.49
   3  -2  16   -0.54    0.54
   3  -2  16    0.80    0.52
  -3  -2 -16   -0.59    0.46
   3   2  16   -1.08    0.52
   3   2  16   -0.62    0.58
  -3   2 -16    0.92    0.52
   3   2  16    0.60    0.50
  -3   2 -16    0.12    0.54
   2  -3 -16   18.74    1.77
  -2  -3  16   20.46    1.77
   2  -3 -16   22.40    1.80
  -2  -3  16   17.69    1.91
   2   3 -16   17.36    1.88
  -2   3  16   22.15    1.86
   2   3 -16   22.84    1.87
  -2   3  16   20.94    1.74
   2   3 -16   21.54    1.72
   1  -3 -16   23.57    2.00
  -1  -3  16   21.85    2.17
   1  -3 -16   26.52    1.97
  -1  -3  16   21.66    1.94
  -1  -3  16   22.01    1.96
   1   3 -16   24.03    1.94
  -1   3  16   24.61    1.93
  -1   3  16   25.66    2.04
   1   3 -16   24.63    2.09
   0  -3  16    3.45    0.73
   0  -3 -16    4.29    0.68
   0  -3  16    2.55    0.63
   0  -3 -16    4.72    0.70
   0  -3  16    4.74    0.69
   0   3 -16    2.92    0.65
   0   3 -16    3.54    0.74
   0   3  16    4.69    0.66
   0   3  16    5.33    0.76
  -1  -3 -16   27.10    2.33
   1  -3  16   28.44    2.54
   1  -3  16   31.60    2.29
  -1  -3 -16   29.67    2.26
   1  -3  16   26.08    2.32
  -1   3 -16   30.40    2.40
   1   3  16   28.76    2.25
   1   3  16   31.87    2.38
  -1   3 -16   27.57    2.26
   2  -3  16    0.55    0.50
  -2   3 -16   -0.30    0.60
   2   3  16    0.41    0.54
   3   0 -17   -0.18    0.48
  -3   0  17   -0.19    0.51
   3   0 -17   -0.46    0.48
  -3   0  17   -0.03    0.46
  -2   0  17    0.26    0.47
   2   0 -17   -0.19    0.46
   2   0 -17   -0.21    0.50
  -2   0  17    0.27    0.47
   1   0 -17    0.07    0.47
  -1   0  17    0.16    0.47
   1   0 -17    0.38    0.44
  -1   0  17    0.09    0.46
   0   0 -17    0.23    0.45
   0   0  17   -0.13    0.43
   0   0  17   -0.73    0.44
   0   0 -17   -0.48    0.42
   1   0  17    0.27    0.44
  -1   0 -17   -0.49    0.49
   1   0  17   -0.52    0.43
  -1   0 -17   -0.04    0.41
   1   0  17   -0.17    0.50
   2   0  17    0.16    0.47
   2   0  17   -0.02    0.49
  -2   0 -17   -0.07    0.44
   2   0  17   -0.29    0.44
  -2   0 -17    1.45    0.48
  -3  -1  17   20.78    1.56
   3  -1 -17   19.56    1.78
  -3  -1  17   18.73    1.84
  -3  -1  17   18.31    1.53
   3  -1 -17   18.62    1.53
   3  -1 -17   20.05    1.56
  -3   1  17   18.91    1.79
  -3   1  17   19.45    1.63
   3   1 -17   17.40    1.63
   2  -1 -17    0.15    0.41
  -2  -1  17   -0.80    0.42
  -2  -1  17   -0.85    0.54
  -2  -1  17   -0.37    0.51
   2  -1 -17   -0.08    0.52
  -2  -1  17   -0.27    0.43
   2  -1 -17    1.23    0.38
   2   1 -17    1.20    0.47
  -2   1  17    0.09    0.57
  -2   1  17   -0.20    0.43
   1  -1 -17   27.16    2.51
  -1  -1  17   29.78    2.67
  -1  -1  17   31.85    2.33
  -1  -1  17   30.72    2.29
  -1  -1  17   35.44    2.59
   1  -1 -17   34.79    2.32
   1  -1 -17   32.63    2.30
   1   1 -17   31.42    2.64
  -1   1  17   33.10    2.56
   1   1 -17   31.70    2.58
  -1   1  17   31.29    2.39
   1   1 -17   28.32    2.36
   0  -1  17    6.14    0.85
   0  -1 -17    6.47    0.66
   0  -1 -17    6.10    0.67
   0  -1  17    5.58    0.66
   0  -1  17    5.95    0.66
   0  -1 -17    5.99    0.81
   0  -1  17    5.86    0.77
   0   1 -17    7.02    0.96
   0   1 -17    6.04    0.72
   0   1  17    6.74    0.83
   0   1  17    4.61    0.70
  -1  -1 -17    8.43    0.84
   1  -1  17   10.86    0.95
   1  -1  17    8.36    0.85
   1  -1  17    9.06    1.06
  -1  -1 -17    8.09    1.04
   1  -1  17    8.27    1.02
   1  -1  17    8.76    1.11
  -1  -1 -17   11.04    0.95
   1   1  17    9.05    1.01
  -1   1 -17    8.58    0.89
   1   1  17   10.01    0.93
  -1   1 -17    9.09    1.21
  -2  -1 -17   25.50    1.72
   2  -1  17   23.10    1.74
  -2  -1 -17   23.15    1.72
   2  -1  17   25.01    1.74
   2  -1  17   25.98    2.00
  -2  -1 -17   18.79    1.92
   2  -1  17   21.21    2.00
   2   1  17   17.91    1.96
  -2   1 -17   21.68    1.80
   2   1  17   21.06    1.81
  -2  -2  17   16.47    1.66
   2  -2 -17   14.41    1.52
  -2  -2  17   17.15    1.54
  -2   2  17   16.66    1.44
   2   2 -17   18.66    1.67
   2   2 -17   18.20    1.71
   2   2 -17   14.59    1.42
  -2   2  17   12.92    1.47
  -1  -2  17    0.25    0.57
   1  -2 -17    0.96    0.52
  -1  -2  17    0.02    0.34
  -1  -2  17    0.61    0.54
   1   2 -17   -0.08    0.49
  -1   2  17    1.18    0.47
  -1   2  17   -1.50    0.55
   1   2 -17   -0.67    0.63
   0  -2  17    5.37    0.59
   0  -2  17    4.94    0.78
   0  -2  17    5.69    0.85
   0  -2 -17    6.07    0.79
   0  -2  17    6.99    0.84
   0   2 -17    5.54    0.74
   0   2  17    5.57    0.74
   0   2  17    4.82    0.79
   0   2 -17    4.82    0.89
   1  -2  17   18.58    1.91
   1  -2  17   21.51    1.81
   1  -2  17   21.43    1.89
  -1  -2 -17   18.87    1.81
   1   2  17   20.66    1.72
   1   2  17   22.24    1.86
  -1   2 -17   20.80    1.68
  -1   2 -17   24.01    1.95
   0   0   0    0.00    0.00
;
_shelx_hkl_checksum              8557
#END Tags that were not found in dictionaries
loop_
_space_group_symop_operation_xyz
'x, y, z'
'-x, y+1/2, -z+1/2'
'-x, -y, -z'
'x, -y-1/2, z-1/2'
loop_
_atom_site_label
_atom_site_type_symbol
_atom_site_fract_x
_atom_site_fract_y
_atom_site_fract_z
_atom_site_U_iso_or_equiv
_atom_site_adp_type
_atom_site_occupancy
_atom_site_site_symmetry_order
_atom_site_calc_flag
_atom_site_refinement_flags_posn
Br1 Br 0.79294(2) 0.07105(4) 0.43300(2) 0.01288(7) Uani 1 1 d .
O1 O 0.4206(2) -0.0073(3) 0.29383(13) 0.0170(3) Uani 1 1 d .
O2 O 0.03946(19) 0.6343(3) 0.36386(12) 0.0162(3) Uani 1 1 d .
N1 N 0.1995(2) 0.2903(3) 0.31154(13) 0.0139(3) Uani 1 1 d .
H1 H 0.1198 0.2331 0.2636 0.017 Uiso 1 1 calc R
C1 C 0.6652(2) 0.4786(4) 0.55396(14) 0.0100(3) Uani 1 1 d .
C2 C 0.6258(2) 0.3114(3) 0.47208(14) 0.0100(3) Uani 1 1 d .
C3 C 0.4570(2) 0.3363(3) 0.41959(14) 0.0097(3) Uani 1 1 d .
C4 C 0.3671(2) 0.1802(4) 0.33402(15) 0.0125(3) Uani 1 1 d .
C5 C 0.1709(2) 0.4979(4) 0.37199(15) 0.0123(3) Uani 1 1 d .
loop_
_atom_site_aniso_label
_atom_site_aniso_U_11
_atom_site_aniso_U_22
_atom_site_aniso_U_33
_atom_site_aniso_U_23
_atom_site_aniso_U_13
_atom_site_aniso_U_12
Br1 0.00969(10) 0.01428(11) 0.01463(11) -0.00158(6) 0.00003(7) 0.00371(6)
O1 0.0166(7) 0.0164(7) 0.0179(7) -0.0048(6) 0.0006(5) 0.0000(6)
O2 0.0112(6) 0.0199(7) 0.0169(7) -0.0005(6) -0.0056(5) 0.0046(5)
N1 0.0113(7) 0.0169(8) 0.0130(7) -0.0014(6) -0.0043(6) -0.0002(6)
C1 0.0087(7) 0.0114(8) 0.0099(7) 0.0009(6) -0.0013(6) 0.0009(6)
C2 0.0083(7) 0.0111(8) 0.0106(8) 0.0008(6) 0.0005(6) 0.0023(6)
C3 0.0086(7) 0.0112(8) 0.0093(7) 0.0006(6) -0.0010(6) 0.0008(6)
C4 0.0101(7) 0.0146(9) 0.0126(8) -0.0001(7) -0.0002(6) -0.0003(6)
C5 0.0097(7) 0.0152(8) 0.0118(8) 0.0018(7) -0.0021(6) -0.0002(6)
loop_
_atom_type_symbol
_atom_type_description
_atom_type_scat_dispersion_real
_atom_type_scat_dispersion_imag
_atom_type_scat_source
C C 0.0033 0.0016 'International Tables Vol C Tables 4.2.6.8 and 6.1.1.4'
H H 0.0000 0.0000 'International Tables Vol C Tables 4.2.6.8 and 6.1.1.4'
N N 0.0061 0.0033 'International Tables Vol C Tables 4.2.6.8 and 6.1.1.4'
O O 0.0106 0.0060 'International Tables Vol C Tables 4.2.6.8 and 6.1.1.4'
Br Br -0.2901 2.4595 'International Tables Vol C Tables 4.2.6.8 and 6.1.1.4'
loop_
_geom_angle_atom_site_label_1
_geom_angle_atom_site_label_2
_geom_angle_atom_site_label_3
_geom_angle
_geom_angle_site_symmetry_1
_geom_angle_site_symmetry_3
C5 N1 C4 113.16(15) . .
C2 C1 C3 121.66(16) . 3_666
C2 C1 C5 130.68(17) . 3_666
C3 C1 C5 107.65(16) 3_666 3_666
C1 C2 Br1 121.72(13) . .
C3 C2 Br1 121.98(14) . .
C3 C2 C1 116.29(16) . .
C1 C3 C4 107.72(15) 3_666 .
C2 C3 C1 122.04(16) . 3_666
C2 C3 C4 130.17(17) . .
O1 C4 N1 125.36(18) . .
O1 C4 C3 129.14(17) . .
N1 C4 C3 105.45(16) . .
O2 C5 N1 125.99(18) . .
O2 C5 C1 128.17(19) . 3_666
N1 C5 C1 105.83(16) . 3_666
loop_
_geom_bond_atom_site_label_1
_geom_bond_atom_site_label_2
_geom_bond_distance
_geom_bond_site_symmetry_2
Br1 C2 1.8707(18) .
O1 C4 1.207(3) .
O2 C5 1.219(2) .
N1 C4 1.390(2) .
N1 C5 1.377(3) .
C1 C2 1.390(3) .
C1 C3 1.397(2) 3_666
C1 C5 1.498(3) 3_666
C2 C3 1.390(2) .
C3 C1 1.397(2) 3_666
C3 C4 1.499(3) .
C5 C1 1.498(3) 3_666
loop_
_geom_torsion_atom_site_label_1
_geom_torsion_atom_site_label_2
_geom_torsion_atom_site_label_3
_geom_torsion_atom_site_label_4
_geom_torsion
_geom_torsion_site_symmetry_1
_geom_torsion_site_symmetry_4
Br1 C2 C3 C1 -177.56(14) . 3_666
Br1 C2 C3 C4 5.7(3) . .
C1 C2 C3 C1 1.1(3) . 3_666
C1 C2 C3 C4 -175.57(18) . .
C1 C3 C4 O1 -174.7(2) 3_666 .
C1 C3 C4 N1 2.7(2) 3_666 .
C2 C3 C4 O1 2.4(3) . .
C2 C3 C4 N1 179.78(19) . .
C3 C1 C2 Br1 177.57(14) 3_666 .
C3 C1 C2 C3 -1.1(3) 3_666 .
C4 N1 C5 O2 176.1(2) . .
C4 N1 C5 C1 -2.7(2) . 3_666
C5 N1 C4 O1 177.6(2) . .
C5 N1 C4 C3 0.1(2) . .
C5 C1 C2 Br1 -3.0(3) 3_666 .
C5 C1 C2 C3 178.33(18) 3_666 .
