#------------------------------------------------------------------------------
#$Date: 2016-02-18 17:37:37 +0200 (Thu, 18 Feb 2016) $
#$Revision: 176729 $
#$URL: svn://www.crystallography.net/cod/cif/1/51/66/1516666.cif $
#------------------------------------------------------------------------------
#
# This file is available in the Crystallography Open Database (COD),
# http://www.crystallography.net/
#
# All data on this site have been placed in the public domain by the
# contributors.
#
data_1516666
loop_
_publ_author_name
'Hern\'andez, Jos\'e G.'
'Butler, Ian S.'
'Fri\<s\<ci\'c, Tomislav'
_publ_section_title
;
 Multi-step and multi-component organometallic synthesis in one pot using
 orthogonal mechanochemical reactions
;
_journal_issue                   9
_journal_name_full               'Chemical Science'
_journal_page_first              3576
_journal_paper_doi               10.1039/C4SC01252F
_journal_volume                  5
_journal_year                    2014
_chemical_formula_sum            'C5 I O5 Re'
_chemical_formula_weight         453.16
_chemical_name_common            3c
_chemical_name_systematic
;
 iodo(pentacarbonyl)rhenium(I)
;
_space_group_crystal_system      orthorhombic
_space_group_IT_number           63
_space_group_name_Hall           '-C 2c 2'
_space_group_name_H-M_alt        'C m c m'
_symmetry_space_group_name_Hall  '-C 2c 2'
_symmetry_space_group_name_H-M   'C m c m'
_audit_creation_method           SHELXL-2014
_cell_angle_alpha                90
_cell_angle_beta                 90
_cell_angle_gamma                90
_cell_formula_units_Z            4
_cell_length_a                   7.6549(7)
_cell_length_b                   11.1028(11)
_cell_length_c                   10.9893(11)
_cell_measurement_temperature    293(2)
_cell_volume                     933.99(16)
_computing_structure_refinement  'SHELXL-2014 (Sheldrick, 2014)'
_diffrn_ambient_temperature      293(2)
_diffrn_measured_fraction_theta_full 1.000
_diffrn_measured_fraction_theta_max 0.975
_diffrn_radiation_type           MoK\a
_diffrn_radiation_wavelength     0.71073
_diffrn_reflns_av_R_equivalents  0.0427
_diffrn_reflns_av_unetI/netI     0.0227
_diffrn_reflns_Laue_measured_fraction_full 1.000
_diffrn_reflns_Laue_measured_fraction_max 0.975
_diffrn_reflns_limit_h_max       10
_diffrn_reflns_limit_h_min       -10
_diffrn_reflns_limit_k_max       14
_diffrn_reflns_limit_k_min       -14
_diffrn_reflns_limit_l_max       14
_diffrn_reflns_limit_l_min       -13
_diffrn_reflns_number            5114
_diffrn_reflns_point_group_measured_fraction_full 1.000
_diffrn_reflns_point_group_measured_fraction_max 0.975
_diffrn_reflns_theta_full        25.242
_diffrn_reflns_theta_max         28.126
_diffrn_reflns_theta_min         3.232
_exptl_absorpt_coefficient_mu    16.296
_exptl_absorpt_correction_type   multi-scan
_exptl_absorpt_process_details
;
 multi-scan from symmetry-related measurements
 Sortav (Blessing 1995)
;
_exptl_crystal_density_diffrn    3.223
_exptl_crystal_F_000             792
_exptl_transmission_factor_max   0.7457
_exptl_transmission_factor_min   0.3741
_refine_diff_density_max         1.401
_refine_diff_density_min         -0.536
_refine_diff_density_rms         0.133
_refine_ls_extinction_coef       0.0089(3)
_refine_ls_extinction_expression Fc^*^=kFc[1+0.001xFc^2^\l^3^/sin(2\q)]^-1/4^
_refine_ls_extinction_method     SHELXL
_refine_ls_goodness_of_fit_ref   1.190
_refine_ls_hydrogen_treatment    undef
_refine_ls_matrix_type           full
_refine_ls_number_parameters     36
_refine_ls_number_reflns         628
_refine_ls_number_restraints     0
_refine_ls_restrained_S_all      1.190
_refine_ls_R_factor_all          0.0167
_refine_ls_R_factor_gt           0.0165
_refine_ls_shift/su_max          0.000
_refine_ls_shift/su_mean         0.000
_refine_ls_structure_factor_coef Fsqd
_refine_ls_weighting_details
'w=1/[\s^2^(Fo^2^)+(0.0111P)^2^+1.6455P] where P=(Fo^2^+2Fc^2^)/3'
_refine_ls_weighting_scheme      calc
_refine_ls_wR_factor_gt          0.0389
_refine_ls_wR_factor_ref         0.0390
_reflns_Friedel_coverage         0.000
_reflns_number_gt                621
_reflns_number_total             628
_reflns_threshold_expression     'I > 2\s(I)'
_cod_data_source_file            c4sc01252f3.cif
_cod_data_source_block           3c
_cod_depositor_comments
'Adding full bibliography for 1516666--1516668.cif.'
_cod_database_code               1516666
#BEGIN Tags that were not found in dictionaries:
_shelx_space_group_comment
;
The symmetry employed for this shelxl refinement is uniquely defined
by the following loop, which should always be used as a source of
symmetry information in preference to the above space-group names.
They are only intended as comments.
;
_shelxl_version_number           2014-3
_shelx_res_file
;
TITL AK9_0m in Cmc2(1)
CELL  0.71073   7.6549  11.1028  10.9893   90.000   90.000   90.000
ZERR     4.00   0.0007   0.0011   0.0011    0.000    0.000    0.000
LATT   7
SYMM  - X, - Y, 1/2 + Z
SYMM    X, - Y, - Z
SYMM  - X,   Y, 1/2 - Z
SFAC  C        2.31000 20.84392  1.02000 10.20751   1.58860   0.56870 =
         0.86500  51.65125   0.21560   0.003   0.002    11.500   0.770  12.011
SFAC  O        3.04850 13.27711  2.28680  5.70111   1.54630   0.32390 =
         0.86700  32.90894   0.25080   0.011   0.006    32.500   0.660  15.999
SFAC  I       20.14722  4.34700 18.99492  0.38140   7.51381  27.76604 =
         2.27350  66.87767   4.07120  -0.474   1.812  7730.000   1.330 126.904
SFAC  RE      28.76213  1.67191 15.71892  9.09228  14.55641   0.35050 =
         5.44174  52.08615  10.47201  -1.018   7.231 30100.000   1.370 186.207
UNIT  20   20   4    4
MERG   2
FMAP   2
PLAN   20
ACTA
L.S.  12
WGHT    0.011100    1.645500
EXTI    0.008862
FVAR       0.08511
RE1   4    0.000000    0.360070    0.250000    10.25000    0.03398    0.02840 =
         0.04989    0.00000    0.00000    0.00000
I1    3    0.000000    0.613050    0.250000    10.25000    0.04306    0.02979 =
         0.07830    0.00000    0.00000    0.00000
O1    2    0.000000    0.083406    0.250000    10.25000    0.05843    0.02882 =
         0.12630    0.00000    0.00000    0.00000
O2    2    0.295866    0.374080    0.447030    11.00000    0.05949    0.07167 =
         0.07232   -0.00259   -0.02166    0.00329
C1    1    0.000000    0.185999    0.250000    10.25000    0.03721    0.03975 =
         0.06720    0.00000    0.00000    0.00000
C2    1    0.189018    0.367471    0.377114    11.00000    0.04629    0.03367 =
         0.06183    0.00109    0.00125    0.00165
HKLF    4

REM  AK9_0m in Cmc2(1)
REM R1 =  0.0165 for     621 Fo > 4sig(Fo)  and  0.0167 for all     628 data
REM     36 parameters refined using      0 restraints

END

WGHT      0.0092      1.7109

REM Highest difference peak  1.401,  deepest hole -0.536,  1-sigma level  0.133
Q1    1   0.0000  0.2865  0.2500  10.25000  0.05    1.40
Q2    1   0.0000  0.4444  0.2500  10.25000  0.05    0.77
Q3    1   0.0000  0.6926  0.2500  10.25000  0.05    0.71
Q4    1   0.0000  0.1522  0.2500  10.25000  0.05    0.63
Q5    1  -0.0515  0.5359  0.2500  10.50000  0.05    0.58
Q6    1   0.0000  0.8466  0.2500  10.25000  0.05    0.52
Q7    1   0.0000  0.3615  0.3375  10.50000  0.05    0.49
Q8    1   0.0000  0.0467  0.2500  10.25000  0.05    0.49
Q9    1   0.0731  0.2782  0.3312  11.00000  0.05    0.41
Q10   1   0.0000  0.4903  0.3406  10.50000  0.05    0.35
Q11   1   0.0000  0.2127  0.3080  10.50000  0.05    0.34
Q12   1  -0.0489  0.6882  0.3193  11.00000  0.05    0.33
Q13   1   0.1282  0.4936  0.4222  11.00000  0.05    0.33
Q14   1   0.0778  0.4532  0.3362  11.00000  0.05    0.32
Q15   1   0.0000  0.7271  0.3478  10.50000  0.05    0.31
Q16   1   0.0000  0.5880  0.3189  10.50000  0.05    0.31
Q17   1   0.5000  0.4067  0.4999  10.50000  0.05    0.29
Q18   1   0.1774  0.3611  0.3181  11.00000  0.05    0.29
Q19   1  -0.0767  0.5109  0.3498  11.00000  0.05    0.28
Q20   1   0.4410  0.5000  0.5000  10.50000  0.05    0.26
;
_shelx_res_checksum              49044
_shelx_hkl_file
;
   2   0   0  522.64   24.81
   2   0   0  590.82   22.70
  -2   0   0  478.29   27.92
   4   0   0  720.55   28.60
   4   0   0  638.12   31.28
  -4   0   0  648.29   35.22
   6   0   0  341.21   14.94
   6   0   0  339.47   16.34
  -6   0   0  359.40   18.44
   8   0   0   80.84    4.06
  -8   0   0   94.84    5.06
   8   0   0   92.92    4.48
 -10   0   0   42.60    2.65
 -10   0   0   44.07    2.44
  -1   1   0  362.38   17.75
  -1   1   0  305.52   19.31
   1  -1   0  346.94   14.45
  -1  -1   0  339.76   17.72
  -1  -1   0  334.45   15.78
   3   1   0  346.88   13.96
   3  -1   0  325.98   15.25
  -3   1   0  316.26   18.61
  -3   1   0  327.29   17.21
   3   1   0  309.94   15.26
  -3  -1   0  307.74   17.18
   3  -1   0  345.37   13.94
  -5  -1   0  154.53    8.64
   5  -1   0  156.94    6.98
   5  -1   0  163.45    7.65
   5   1   0  161.31    7.01
  -5   1   0  171.13    8.70
   5   1   0  158.63    7.66
   7   1   0   80.95    4.05
   7   1   0   79.35    3.70
  -7  -1   0   83.83    4.58
   7  -1   0   85.08    4.04
  -7   1   0   85.55    4.62
   7  -1   0   74.99    3.67
   9   1   0   22.65    1.29
  -9  -1   0   22.94    1.57
  -9  -1   0   22.84    1.45
   9  -1   0   21.21    1.28
  -9   1   0   25.64    1.65
   9  -1   0   25.31    1.46
   0   2   0   12.03    0.68
   0   2   0   10.67    0.56
   2  -2   0    3.35    0.25
  -2  -2   0    3.18    0.28
  -2   2   0    2.58    0.28
  -2   2   0    3.56    0.34
   2  -2   0    3.27    0.21
   2   2   0    2.75    0.24
  -4  -2   0    3.17    0.31
  -4  -2   0    2.46    0.25
   4  -2   0    2.52    0.20
  -4   2   0    1.99    0.18
   4  -2   0    3.00    0.25
   4   2   0    3.64    0.27
   4   2   0    2.29    0.21
   6  -2   0    1.56    0.27
  -6   2   0    1.59    0.38
   6   2   0    2.01    0.28
  -6  -2   0    1.48    0.32
  -6  -2   0    1.98    0.32
   6  -2   0    1.33    0.22
  -8  -2   0    0.36    0.29
  -8  -2   0    0.53    0.31
   8   2   0    0.41    0.23
   8  -2   0    0.51    0.24
  -8   2   0    0.62    0.34
   8  -2   0    0.72    0.27
  10  -2   0    0.58    0.40
  -1   3   0  317.51   21.29
   1   3   0  424.62   15.84
   1  -3   0  368.59   17.32
   1  -3   0  349.19   15.82
  -1   3   0  384.79   19.52
  -1  -3   0  326.41   19.46
  -1  -3   0  426.07   17.35
  -3   3   0  366.89   20.96
  -3  -3   0  370.87   19.23
  -3  -3   0  365.15   17.17
   3  -3   0  321.59   17.12
   3  -3   0  357.32   15.64
   3   3   0  379.84   15.68
   3   3   0  389.87   21.01
  -3   3   0  375.42   19.34
   5  -3   0  190.13    9.31
   5   3   0  192.75    8.54
  -5   3   0  209.17   10.61
  -5  -3   0  195.43    9.36
  -5  -3   0  203.51   10.47
   5  -3   0  190.40    8.50
   7  -3   0   91.00    4.21
  -7  -3   0   98.00    5.19
  -7  -3   0   96.67    4.67
  -7   3   0   97.50    5.33
   7   3   0   92.67    4.24
   7  -3   0   91.05    4.62
  -9   3   0   30.39    1.92
   9   3   0   27.35    1.47
  -9  -3   0   29.14    1.66
   9  -3   0   26.71    1.47
   9  -3   0   26.70    1.61
   0   4   0  856.80   50.05
   0  -4   0  947.26   40.85
   0   4   0  884.53   37.37
   0   4   0  804.36   45.93
  -2   4   0  384.49   19.08
  -2  -4   0  363.23   16.94
   2  -4   0  361.49   15.43
  -2   4   0  350.22   20.76
   2   4   0  381.79   20.81
   2   4   0  360.51   15.46
  -2  -4   0  374.15   18.95
   2  -4   0  313.79   16.89
   4  -4   0  474.20   21.00
   4  -4   0  433.56   22.99
  -4   4   0  477.58   28.12
   4   4   0  536.37   28.19
  -4   4   0  518.09   25.98
  -4  -4   0  515.26   25.82
  -4  -4   0  478.73   23.04
   4   4   0  496.17   21.04
  -6  -4   0  253.31   13.14
   6  -4   0  231.80   11.71
  -6   4   0  260.28   13.34
   6  -4   0  251.04   10.70
  -6  -4   0  251.59   11.76
   6   4   0  238.92   10.72
   8   4   0   58.69    2.86
   8  -4   0   63.10    3.15
  -8  -4   0   61.53    3.16
  -8   4   0   64.01    3.66
   8  -4   0   61.43    2.86
   1   5   0  207.90    8.61
   1   5   0  201.18   11.69
  -1  -5   0  225.04    9.45
   1  -5   0  210.48    9.43
  -1   5   0  182.90   10.64
   1   5   0  190.45   10.54
   1  -5   0  188.95    8.60
   3  -5   0  176.92    7.47
  -3   5   0  175.63   10.05
   3   5   0  191.52   10.11
   3   5   0  173.45    7.49
   3  -5   0  161.26    8.18
  -3  -5   0  155.32    9.13
  -3   5   0  181.37    9.31
   5  -5   0   80.24    3.62
  -5   5   0   85.79    4.63
  -5  -5   0   81.73    4.02
   5   5   0   82.89    3.65
   5  -5   0   80.28    3.97
   7   5   0   36.00    1.88
   7  -5   0   40.83    2.08
   7  -5   0   40.23    1.89
  -7   5   0   45.01    2.55
  -7  -5   0   38.52    2.09
   9  -5   0   11.45    0.81
   9   5   0    9.98    0.70
  -9   5   0   10.67    1.01
  -9  -5   0   10.57    0.81
   0   6   0   17.29    1.28
   0  -6   0   19.41    0.95
   0   6   0   17.03    1.06
   0  -6   0   19.87    0.85
   2  -6   0    7.63    0.43
   2  -6   0    6.93    0.37
  -2   6   0    6.13    0.59
  -2  -6   0    6.90    0.47
   2   6   0    6.99    0.39
  -2   6   0    8.63    0.58
   2   6   0    7.35    0.63
   4   6   0    9.65    0.74
   4   6   0    9.69    0.54
  -4  -6   0    9.06    0.62
   4  -6   0    9.67    0.58
  -4   6   0    9.56    0.77
   4  -6   0    9.52    0.51
  -4   6   0    8.61    0.68
   6  -6   0    7.12    0.53
  -6  -6   0    7.38    0.55
  -6   6   0    6.99    0.74
   6  -6   0    6.82    0.47
   6   6   0    6.75    0.47
   8   6   0    2.68    0.36
   8  -6   0    2.75    0.40
  -8  -6   0    2.50    0.41
  -8   6   0    2.85    0.57
  -1  -7   0  291.99   13.06
   1  -7   0  252.75   11.88
   1  -7   0  281.55   13.04
  -1   7   0  303.43   14.71
   1   7   0  300.30   16.15
  -1   7   0  236.35   16.09
   1   7   0  278.83   11.90
   3   7   0  214.62   11.38
   3  -7   0  185.68    9.19
   3  -7   0  196.73    8.38
  -3   7   0  200.08   11.34
   3   7   0  184.78    8.40
  -3   7   0  194.11   10.44
  -3  -7   0  186.80    9.24
  -5   7   0  137.93    7.15
   5  -7   0  122.40    6.18
   5   7   0  122.89    5.66
  -5  -7   0  132.76    6.26
   5  -7   0  130.90    5.63
   7   7   0   57.03    2.68
  -7   7   0   63.99    3.55
   7  -7   0   57.24    2.93
  -7  -7   0   55.63    2.96
   0  -8   0  332.65   15.93
   0   8   0  378.50   19.71
   0  -8   0  308.92   14.52
   2   8   0  138.21    7.77
  -2  -8   0  130.32    6.26
   2   8   0  128.02    5.67
   2  -8   0  127.87    6.21
  -2   8   0  148.65    7.09
   2  -8   0  128.55    5.65
  -2   8   0  114.46    7.71
  -4   8   0  153.64    7.71
  -4   8   0  135.92    8.23
   4  -8   0  129.44    6.69
  -4  -8   0  129.71    6.75
   4   8   0  134.65    6.12
   4   8   0  159.50    8.29
  -6   8   0   83.82    4.58
  -6  -8   0   78.26    3.91
   6  -8   0   74.94    3.84
   6   8   0   76.76    3.52
  -8   8   0   21.88    1.67
   1  -9   0   43.46    1.90
  -1   9   0   39.53    2.73
  -1  -9   0   40.94    2.13
   1   9   0   43.30    1.90
   1   9   0   45.85    2.77
   1  -9   0   41.59    2.11
   3   9   0   35.48    2.13
   3   9   0   30.13    1.49
  -3   9   0   30.73    2.10
   3  -9   0   31.54    1.64
  -3  -9   0   31.28    1.70
   5   9   0   15.84    0.86
   5  -9   0   14.57    0.93
  -5   9   0   15.94    1.25
  -5  -9   0   16.69    1.02
  -7  -9   0    6.81    0.61
   7  -9   0    6.90    0.58
   7   9   0    6.31    0.52
  -7   9   0    7.10    0.83
   0 -10   0   16.20    0.81
   0 -10   0   15.56    0.93
   0  10   0   18.32    1.31
   2  10   0    7.89    0.46
  -2 -10   0    7.96    0.57
   2 -10   0    8.03    0.53
   2  10   0    7.68    0.74
  -2  10   0    6.73    0.73
   4 -10   0    7.91    0.58
   4  10   0    9.05    0.76
  -4  10   0    7.27    0.72
  -4 -10   0    6.86    0.63
   4  10   0    8.01    0.52
  -6  10   0    7.81    0.85
   6 -10   0    6.13    0.57
  -6 -10   0    6.00    0.60
   6  10   0    6.97    0.52
   1  11   0   85.29    4.99
  -1  11   0   81.94    4.99
   1 -11   0   76.79    3.92
  -1 -11   0   78.42    3.95
   3 -11   0   48.69    2.50
  -3 -11   0   49.23    2.58
   3  11   0   47.89    2.27
  -3  11   0   46.73    3.17
   3  11   0   55.02    3.21
   5  11   0   39.76    1.83
   5 -11   0   38.22    2.01
  -5 -11   0   34.48    2.06
   0  12   0   55.89    3.33
   0 -12   0   45.66    2.54
   2  12   0   21.71    1.51
   2 -12   0   18.06    1.09
  -2  12   0   17.45    1.47
  -2 -12   0   17.76    1.14
   4  12   0   18.55    1.05
  -4 -12   0   17.88    1.25
   4 -12   0   19.13    1.16
  -4  12   0   19.64    1.50
   4  12   0   22.49    1.52
   1 -13   0    1.94    0.33
  -1  13   0    1.75    0.51
   1  13   0    1.34    0.44
  -1 -13   0    1.19    0.32
   3  13   0    0.99    0.38
  -3  13   0    0.89    0.39
   3 -13   0    1.15    0.31
  -3 -13   0    0.47    0.33
   0 -14   0   10.54    0.78
   0  14   0    9.62    1.00
   2 -14   0    4.58    0.49
   0   0  -1    2.46    0.14
   0   0   1    2.30    0.18
  -4   0  -1    0.13    0.18
   4   0   1    0.82    0.16
   4   0   1    0.29    0.14
  -4   0   1    0.09    0.22
   6   0  -1    1.21    0.23
   6   0   1    0.64    0.21
   6   0  -1    1.42    0.25
   6   0   1    0.77    0.22
  -6   0   1   -0.07    0.32
  -6   0  -1    0.13    0.31
  -8   0   1   -0.08    0.35
  -8   0  -1    0.52    0.41
  -8   0   1    2.17    0.38
   8   0  -1    1.48    0.34
   8   0   1    0.81    0.27
   8   0   1    1.39    0.34
   8   0  -1    0.91    0.27
 -10   0   1    0.80    0.42
 -10   0   1    0.04    0.40
 -10   0  -1    0.01    0.42
   1  -1   1  109.94    4.49
   1   1  -1  108.46    4.51
   1  -1   1  108.91    5.54
   1   1  -1  109.73    6.04
  -1  -1  -1  107.38    5.52
   1  -1   1   93.66    4.93
  -1   1   1  100.68    6.03
   1  -1  -1   96.89    4.92
   1   1   1  109.85    5.52
  -1  -1   1  100.97    4.93
  -1  -1   1  106.22    5.54
   1  -1  -1  105.19    4.51
   1   1   1  102.08    4.94
  -1   1  -1  111.08    6.04
  -1   1  -1  110.14    5.54
   1   1   1  100.16    6.03
   3  -1   1   60.14    2.69
   3   1  -1   58.08    2.45
  -3   1   1   48.63    3.07
   3   1  -1   51.41    3.21
  -3  -1  -1   54.82    3.03
   3  -1   1   55.57    2.44
  -3   1   1   56.33    3.20
   3  -1  -1   55.84    2.44
   3   1   1   57.07    2.47
  -3   1  -1   56.72    3.05
   3  -1  -1   57.60    2.66
  -3   1  -1   56.03    3.22
   3   1   1   54.39    3.20
   3   1   1   55.64    2.68
  -3  -1   1   53.93    2.68
   5   1  -1   38.50    1.99
   5   1  -1   40.14    1.84
  -5   1   1   37.82    2.33
  -5  -1  -1   37.35    2.27
   5  -1   1   41.46    2.01
   5  -1   1   38.63    1.82
   5   1   1   39.09    2.00
   5   1   1   37.17    1.84
  -5  -1   1   39.48    2.00
   5  -1  -1   40.21    1.98
   5  -1  -1   40.06    1.82
  -5  -1   1   42.20    2.30
  -5   1  -1   40.27    2.30
  -7  -1  -1   16.67    1.18
   7  -1   1   18.63    1.04
   7  -1   1   16.45    0.93
   7   1  -1   16.06    0.94
  -7   1   1   16.39    1.23
  -7   1  -1   15.86    1.19
   7   1   1   15.37    0.92
   7  -1  -1   17.17    1.01
   7   1   1   17.34    1.04
  -7  -1   1   15.98    1.16
  -7  -1   1   17.27    1.04
   7  -1  -1   15.57    0.91
  -9  -1  -1    7.12    0.71
   9  -1   1    6.66    0.67
  -9  -1  -1    6.45    0.71
  -9   1   1    6.50    0.72
   9   1  -1    5.23    0.58
   9  -1   1    6.13    0.58
  -9  -1   1    5.74    0.67
  -9  -1   1    7.12    0.72
   9  -1  -1    6.53    0.57
  -9   1  -1    5.81    0.76
   9  -1  -1    6.30    0.65
   9   1   1    5.81    0.53
   0  -2   1  113.49    5.32
   0   2   1  107.03    5.97
   0   2  -1  116.14    6.57
   0   2   1  122.57    4.86
   0  -2  -1  111.01    5.32
   0  -2  -1  114.69    4.86
   0  -2   1  116.25    5.97
   0   2  -1  119.24    4.85
   0   2   1   96.19    6.55
   2  -2   1    4.63    0.25
   2  -2   1    4.90    0.30
   2   2  -1    4.01    0.36
   2   2  -1    4.32    0.28
  -2   2   1    4.52    0.33
  -2  -2  -1    4.10    0.32
  -2   2   1    4.08    0.39
   2   2   1    4.07    0.34
   2  -2  -1    4.76    0.28
  -2   2  -1    3.96    0.37
  -2   2  -1    4.82    0.35
  -2  -2   1    3.54    0.29
   2  -2  -1    4.47    0.27
   2   2   1    3.96    0.27
  -4  -2  -1   25.01    1.28
   4   2  -1   24.64    1.16
  -4  -2  -1   21.46    1.41
   4  -2   1   24.22    1.26
   4   2  -1   23.63    1.49
  -4   2   1   24.11    1.43
   4  -2   1   23.66    1.13
   4   2   1   25.16    1.17
  -4  -2   1   24.53    1.28
  -4   2  -1   25.30    1.48
  -4  -2   1   26.25    1.43
   4   2   1   23.56    1.27
  -4   2  -1   23.15    1.43
   4  -2  -1   26.54    1.25
   4   2   1   22.36    1.44
   4  -2  -1   23.71    1.14
   6  -2   1   19.46    1.10
  -6  -2  -1   23.22    1.27
  -6  -2  -1   20.10    1.39
   6  -2   1   23.99    1.25
   6   2  -1   21.11    1.14
  -6   2   1   23.40    1.50
   6   2   1   22.19    1.25
   6  -2  -1   22.86    1.22
  -6   2  -1   21.35    1.45
  -6  -2   1   22.60    1.26
  -6  -2   1   23.74    1.41
   6  -2  -1   21.30    1.11
   6   2   1   23.76    1.15
   8  -2   1    4.72    0.53
  -8   2   1    4.72    0.64
  -8  -2  -1    5.40    0.56
   8   2  -1    3.99    0.47
  -8  -2  -1    4.95    0.56
   8  -2   1    4.71    0.46
  -8  -2   1    5.16    0.53
   8   2   1    4.56    0.45
  -8   2  -1    5.17    0.67
   8  -2  -1    4.65    0.48
  -8  -2   1    4.86    0.57
   8  -2  -1    4.60    0.44
  -1  -3  -1    0.54    0.09
   1  -3   1    0.94    0.10
   1  -3   1    0.58    0.05
   1   3  -1    0.48    0.07
  -1   3   1    0.47    0.12
  -1   3   1    0.54    0.12
   1   3  -1    0.61    0.15
  -1   3  -1    0.39    0.14
   1   3   1    0.30    0.11
   1   3   1    0.44    0.06
  -1  -3   1    0.68    0.07
  -3  -3  -1    1.13    0.16
   3  -3   1    0.77    0.13
  -3  -3  -1    0.79    0.16
   3  -3   1    0.57    0.09
  -3   3   1    0.56    0.11
  -3   3   1    0.26    0.19
  -3  -3   1    0.70    0.13
   3  -3  -1    0.81    0.13
  -3   3  -1    0.51    0.16
   3   3   1    0.44    0.13
   3   3   1    0.68    0.12
  -3   3  -1    0.59    0.18
   5  -3   1    0.91    0.20
  -5  -3  -1    0.42    0.20
   5   3  -1    0.75    0.20
  -5   3   1    0.45    0.30
   5  -3   1    0.59    0.14
  -5  -3  -1    0.81    0.22
  -5  -3   1    0.75    0.21
  -5   3  -1    0.88    0.30
   5  -3  -1    0.97    0.18
   5   3   1    0.53    0.17
   5  -3  -1    0.73    0.16
   7   3  -1    0.66    0.24
  -7   3   1    0.08    0.36
  -7  -3  -1    0.51    0.26
  -7  -3  -1    0.31    0.28
   7  -3   1    0.52    0.23
   7  -3   1    1.12    0.25
  -7  -3   1    0.29    0.26
  -7   3  -1    0.52    0.33
  -7  -3   1    0.74    0.25
   7  -3  -1    0.77    0.21
   7   3   1    1.08    0.24
   7  -3  -1    0.96    0.26
   9  -3   1    0.79    0.32
  -9   3   1    0.30    0.41
  -9  -3  -1    0.54    0.34
   9   3  -1    0.39    0.28
   9  -3  -1    0.53    0.33
  -9   3  -1    0.24    0.41
   9  -3  -1    0.59    0.29
   9   3   1    0.56    0.26
  -9  -3   1    0.38    0.32
   0   4   1  127.31    7.11
   0  -4  -1  133.35    6.34
   0   4   1  139.88    5.79
   0   4  -1  117.04    7.88
   0  -4   1  136.81    6.35
   0  -4  -1  137.41    5.79
   0  -4   1  142.87    7.11
   0   4  -1  142.74    5.78
   2  -4   1   96.88    3.95
  -2  -4  -1   82.65    4.36
  -2   4   1   91.32    5.34
   2   4  -1   90.24    3.97
   2   4  -1   76.65    5.39
   2  -4   1   94.68    4.35
  -2  -4  -1   90.19    4.82
   2  -4  -1   96.55    3.96
  -2  -4   1   96.96    4.85
   2   4   1   95.82    3.97
   2   4   1   75.60    5.35
  -2  -4   1   96.93    4.36
   2  -4  -1   93.33    4.33
  -2   4  -1  100.21    4.93
   4  -4   1   63.02    2.74
   4   4  -1   67.03    2.79
  -4  -4  -1   63.90    3.07
   4   4  -1   63.94    3.72
  -4  -4  -1   61.97    3.36
  -4   4   1   53.51    3.50
   4  -4   1   64.81    3.03
  -4   4   1   59.24    3.63
  -4   4  -1   58.22    3.66
   4  -4  -1   63.06    2.75
   4   4   1   61.56    3.68
   4   4   1   62.60    2.77
   4  -4  -1   65.47    3.01
  -4   4  -1   61.15    3.48
  -4  -4   1   60.30    3.04
  -4  -4   1   61.33    3.36
  -6  -4  -1   27.13    1.73
  -6   4   1   31.09    1.93
   6  -4   1   28.35    1.41
  -6  -4  -1   27.77    1.60
   6  -4   1   30.18    1.58
   6   4  -1   28.74    1.45
   6   4   1   29.91    1.44
  -6  -4   1   30.99    1.74
  -6  -4   1   29.52    1.58
   6  -4  -1   30.45    1.56
  -6   4  -1   29.23    1.87
   6  -4  -1   30.45    1.43
   8   4  -1    8.76    0.66
  -8   4   1    8.98    0.98
   8  -4   1   10.45    0.77
  -8  -4  -1    9.94    0.77
   8   4   1   10.51    0.67
   8  -4  -1   10.81    0.76
   8  -4  -1   10.75    0.69
  -8  -4   1   10.78    0.77
  -8   4  -1    9.17    0.94
   1  -5   1  143.49    6.40
   1   5  -1  117.08    7.97
   1  -5   1  135.72    5.82
  -1  -5  -1  144.95    6.42
   1   5  -1  142.06    5.84
  -1   5   1  124.71    7.92
   1  -5  -1  141.78    6.39
   1  -5  -1  133.17    5.83
  -1   5  -1  115.50    7.97
  -1  -5   1  141.75    7.14
   1   5   1  146.03    5.84
  -1   5  -1  140.12    7.21
   3  -5   1   84.55    4.08
   3   5  -1   84.85    5.09
  -3   5   1   71.97    4.67
  -3   5   1   90.93    5.01
  -3  -5  -1   85.91    4.50
   3  -5   1   87.55    3.70
   3   5  -1   90.80    3.74
  -3  -5  -1   84.06    4.12
   3  -5  -1   89.79    3.72
   3   5   1   81.81    3.73
  -3   5  -1   78.40    5.05
  -3  -5   1   78.23    4.10
  -3  -5   1   83.11    4.53
   3   5   1   93.77    5.06
   3  -5  -1   89.13    4.07
  -3   5  -1   86.46    4.67
   5  -5   1   71.29    3.49
   5   5  -1   69.37    3.20
  -5   5   1   74.51    4.11
  -5  -5  -1   69.12    3.52
   5  -5   1   72.32    3.16
  -5  -5   1   69.86    3.51
  -5   5  -1   71.79    4.04
   5   5   1   73.39    3.21
   5  -5  -1   72.81    3.47
   5  -5  -1   69.44    3.17
  -5  -5   1   72.24    3.87
  -7   5   1   31.77    1.99
   7  -5   1   30.47    1.62
   7   5  -1   26.15    1.45
  -7  -5  -1   30.47    1.65
   7  -5  -1   29.89    1.46
   7  -5  -1   29.08    1.59
  -7   5  -1   29.53    1.95
  -7  -5   1   30.71    1.62
   7   5   1   29.08    1.46
   9  -5   1   12.48    0.86
  -9  -5  -1   11.62    0.85
  -9  -5   1   10.55    0.83
   9   5   1    9.63    0.70
   0   6  -1   60.97    4.00
   0  -6  -1   66.75    3.13
   0  -6   1   66.45    3.13
   0   6   1   61.59    3.48
   0   6  -1   64.70    3.49
   0  -6  -1   69.19    2.85
   0   6  -1   66.92    2.83
   2  -6   1    8.04    0.45
  -2  -6  -1    8.16    0.48
  -2   6   1    6.96    0.59
  -2   6   1    5.65    0.54
   2   6  -1    7.85    0.40
   2  -6   1    7.06    0.37
   2   6  -1    6.70    0.65
  -2  -6   1    7.04    0.42
   2  -6  -1    8.05    0.43
   2   6   1    7.27    0.40
   2  -6  -1    7.28    0.38
  -2   6  -1    7.23    0.55
  -2   6  -1    5.66    0.63
   2   6   1    7.12    0.62
   4  -6   1   19.34    0.88
  -4   6   1   17.61    1.27
   4   6  -1   18.04    1.26
   4   6  -1   19.12    0.93
  -4   6   1   18.18    1.20
   4  -6   1   18.21    1.00
  -4  -6  -1   18.53    1.05
   4  -6  -1   17.93    0.90
  -4   6  -1   18.76    1.24
  -4  -6   1   16.59    1.03
  -4   6  -1   17.12    1.22
   4   6   1   17.16    0.92
   4   6   1   21.23    1.27
   4  -6  -1   18.99    0.99
   6  -6   1   14.52    0.87
  -6   6   1   15.49    1.16
   6   6  -1   14.35    0.80
  -6  -6  -1   13.44    0.89
  -6  -6   1   14.02    0.89
   6   6   1   14.48    0.80
  -6   6  -1   15.48    1.13
   6  -6  -1   14.81    0.86
   6  -6  -1   14.42    0.78
   8  -6   1    2.89    0.42
  -8  -6  -1    3.02    0.44
   8   6  -1    2.86    0.38
  -8   6   1    3.44    0.62
  -8  -6   1    3.16    0.43
  -8   6  -1    3.71    0.64
   8   6   1    2.22    0.33
  -1  -7  -1   50.72    2.30
  -1   7   1   39.99    2.88
   1   7  -1   47.57    2.97
   1  -7   1   47.14    2.04
   1  -7   1   48.48    2.28
   1   7  -1   48.70    2.06
   1  -7  -1   47.62    2.27
  -1   7  -1   41.77    2.57
  -1   7  -1   46.11    2.97
   1   7   1   41.54    2.90
   1   7   1   49.47    2.07
  -1  -7   1   47.48    2.29
   1  -7  -1   48.16    2.06
   3   7  -1   31.25    1.55
  -3  -7  -1   31.85    1.76
  -3   7   1   35.53    2.15
   3  -7   1   36.61    1.53
  -3   7   1   31.53    2.02
   3   7  -1   35.61    2.21
   3  -7   1   35.23    1.72
   3  -7  -1   33.58    1.54
  -3  -7   1   33.04    1.75
   3   7   1   37.77    2.20
   3   7   1   33.57    1.57
  -3   7  -1   32.00    2.01
  -3   7  -1   30.94    2.17
   3  -7  -1   34.86    1.70
  -5   7   1   17.30    1.30
  -5  -7  -1   18.43    1.05
   5  -7   1   15.88    0.97
   5   7  -1   16.92    0.89
   5  -7  -1   17.22    0.97
  -5  -7   1   17.01    1.03
   5   7   1   16.92    0.90
   5  -7  -1   16.83    0.88
  -5   7  -1   17.23    1.25
  -7  -7  -1    7.51    0.62
   7  -7   1    6.67    0.57
   7   7  -1    7.32    0.51
  -7   7   1    6.94    0.82
  -7  -7   1    7.15    0.59
  -7   7  -1    6.95    0.87
   7   7   1    6.18    0.49
   7  -7  -1    7.76    0.58
   0  -8   1  195.16    8.31
   0   8   1  175.31   11.32
   0   8  -1  208.04   11.41
   0  -8   1  197.26    9.14
   0  -8  -1  196.10    9.13
   0  -8  -1  189.47    8.32
   2  -8   1  147.57    6.98
  -2   8   1  138.82    7.90
  -2   8   1  145.64    8.66
   2   8  -1  168.38    8.76
   2   8  -1  145.33    6.36
  -2   8  -1  140.84    7.92
   2   8   1  156.65    8.71
   2   8   1  152.75    6.38
  -2   8  -1  126.90    8.68
   2  -8  -1  148.49    6.35
   2  -8  -1  147.52    6.97
   4   8  -1  101.48    4.58
  -4  -8  -1  100.69    5.08
   4  -8   1   96.90    5.02
  -4   8   1  102.55    6.16
  -4   8   1  106.46    5.80
   4   8  -1  112.67    6.23
   4   8   1  120.93    6.24
   4   8   1   94.57    4.58
   4  -8  -1  103.32    4.57
   4  -8  -1  104.24    5.01
  -4   8  -1  106.84    5.78
  -4   8  -1  100.01    6.18
  -6   8   1   59.89    3.32
  -6  -8  -1   56.87    2.82
   6   8  -1   53.17    2.50
   6  -8   1   53.29    2.75
   6   8   1   52.06    2.50
  -6  -8   1   51.55    2.78
   6  -8  -1   53.26    2.72
  -6   8  -1   56.26    3.28
   8   8  -1   18.68    1.09
   8  -8   1   19.72    1.22
  -8   8   1   23.17    1.62
  -8  -8   1   20.98    1.27
  -8   8  -1   20.00    1.57
   1   9  -1  108.06    5.79
   1   9  -1   92.30    4.11
  -1   9   1   80.00    5.67
   1  -9   1   92.77    4.55
  -1  -9  -1   94.29    4.56
   1  -9  -1   94.24    4.12
   1  -9  -1   94.28    4.54
   1   9   1   89.91    4.12
   1   9   1  101.83    5.75
  -1  -9   1   94.96    4.56
  -1   9  -1   99.72    5.77
   3   9  -1   60.44    3.74
   3  -9   1   59.67    2.97
  -3   9   1   60.10    3.71
  -3  -9  -1   58.38    3.02
   3   9  -1   59.21    2.70
   3  -9  -1   62.16    2.68
   3   9   1   57.79    2.70
  -3  -9   1   60.55    3.03
  -3   9  -1   54.52    3.72
   3   9   1   67.28    3.76
   3  -9  -1   59.30    2.95
  -3   9  -1   62.18    3.44
   5   9  -1   50.08    2.24
  -5  -9  -1   48.25    2.53
  -5   9   1   50.52    2.94
   5  -9   1   45.47    2.45
  -5  -9   1   47.03    2.51
   5   9   1   45.79    2.24
   5  -9  -1   47.93    2.43
  -5   9  -1   51.36    2.94
  -7   9   1   24.72    1.66
   7  -9   1   18.83    1.20
   7   9  -1   19.84    1.09
  -7  -9  -1   19.67    1.26
  -7  -9   1   20.66    1.27
   7   9   1   20.02    1.11
  -7   9  -1   24.27    1.64
   0  10   1   10.40    0.98
   0 -10  -1   12.02    0.62
   0 -10  -1   11.85    0.71
   0  10  -1   13.28    1.05
   0 -10   1   11.67    0.72
   2  10  -1    2.66    0.47
   2  10  -1    2.39    0.25
   2 -10   1    1.89    0.28
  -2  10   1    1.74    0.39
  -2 -10  -1    2.15    0.32
  -2 -10   1    2.00    0.31
   2 -10  -1    2.15    0.28
   2  10   1    3.77    0.53
   2 -10  -1    1.99    0.23
   2  10   1    2.03    0.23
  -2  10  -1    1.58    0.42
  -4 -10  -1    3.40    0.47
   4  10  -1    3.47    0.35
   4  10  -1    3.53    0.51
  -4  10   1    4.04    0.49
   4 -10   1    3.28    0.39
   4  10   1    2.62    0.32
  -4 -10   1    3.31    0.44
   4  10   1    3.69    0.53
   4 -10  -1    3.25    0.38
  -4  10  -1    3.85    0.54
   6 -10   1    2.89    0.42
  -6  10   1    3.53    0.65
   6  10  -1    3.03    0.37
  -6 -10  -1    2.64    0.45
  -6  10  -1    3.39    0.64
  -6 -10   1    2.51    0.44
   6  10   1    3.09    0.37
   1 -11   1   53.55    2.74
   1  11  -1   61.13    3.54
  -1 -11  -1   50.81    2.74
  -1  11   1   50.75    3.48
  -1 -11  -1   57.53    2.48
  -1  11  -1   55.26    3.52
   1 -11  -1   50.70    2.71
  -1 -11   1   52.45    2.75
   1  11   1   61.41    3.54
  -3 -11  -1   37.97    2.08
   3 -11   1   37.92    2.01
   3  11  -1   42.64    2.59
   3  11  -1   36.78    1.81
  -3  11   1   39.71    2.57
   3 -11  -1   38.47    2.00
  -3 -11   1   39.15    2.08
   3  11   1   36.94    1.82
   3  11   1   44.66    2.60
  -3  11  -1   33.86    2.54
   5 -11   1   21.66    1.29
   5  11  -1   22.28    1.15
  -5 -11  -1   22.67    1.38
   5  11   1   21.88    1.16
  -5 -11   1   21.40    1.35
   0  12  -1  127.81    7.11
   0  12   1  123.13    7.09
   0 -12  -1  108.58    5.63
   0 -12   1  108.44    5.64
  -2 -12  -1   88.71    4.44
   2 -12   1   84.43    4.38
   2  12  -1   97.06    5.53
  -2  12   1   82.80    5.49
  -2 -12  -1   92.34    4.00
   2  12   1   98.97    5.54
   2 -12  -1   86.23    4.36
  -2  12  -1   89.35    5.53
  -2 -12   1   85.89    4.43
   4  12  -1   64.11    3.87
   4 -12   1   59.98    3.11
  -4  12   1   64.56    3.88
  -4 -12  -1   56.50    3.19
  -4  12  -1   58.62    3.87
   4 -12  -1   64.81    3.11
   4  12   1   57.20    2.82
  -4 -12   1   55.87    3.17
   4  12   1   69.66    3.91
   1 -13   1   38.07    2.19
  -1 -13  -1   40.50    2.23
   1  13  -1   43.00    2.85
  -1  13   1   43.28    2.88
   1 -13  -1   41.16    2.20
  -1  13  -1   46.71    2.90
  -1 -13   1   40.14    2.24
   1  13   1   46.46    2.88
  -3  13   1   25.36    1.87
   3  13  -1   29.19    1.89
  -3 -13  -1   23.84    1.51
   3 -13   1   25.58    1.44
   3  13   1   28.57    1.88
  -3  13  -1   23.80    1.87
  -3 -13   1   22.68    1.49
   3 -13  -1   25.27    1.43
   3  13   1   23.81    1.27
   0 -14  -1    0.30    0.26
   0 -14   1    0.13    0.26
   2 -14   1    0.29    0.28
  -2 -14  -1    0.27    0.31
   2 -14  -1    0.17    0.26
   0   0   2  477.60   30.18
   0   0   2  592.98   27.82
   0   0  -2  549.07   22.58
   0   0   2  490.11   24.68
   2   0   2  942.10   39.28
  -2   0   2 1000.00   43.13
  -2   0   2  954.65   48.56
   2   0  -2  860.31   52.81
   2   0   2  837.72   42.99
   2   0  -2  931.97   39.45
   4   0   2  513.04   22.57
  -4   0  -2  543.16   30.14
   4   0   2  502.85   24.69
  -4   0  -2  548.87   27.77
  -4   0   2  581.90   27.81
   4   0  -2  473.09   24.66
   4   0  -2  522.53   30.14
   4   0  -2  532.05   22.56
   6   0  -2  269.67   12.95
   6   0   2  268.22   12.98
  -6   0   2  301.09   14.66
   6   0  -2  267.28   11.85
   6   0   2  262.29   11.86
  -6   0  -2  277.08   14.60
  -8   0   2  124.07    5.63
   8   0   2  106.89    5.10
   8   0  -2  107.20    5.12
  -8   0   2  117.87    6.34
  -8   0  -2  115.63    6.34
   8   0   2  114.44    5.64
 -10   0  -2   32.51    2.14
  -1   1   2  420.20   20.59
   1  -1   2  405.58   16.76
  -1   1   2  356.43   22.44
   1   1  -2  385.26   22.44
   1  -1   2  418.00   20.61
   1  -1   2  345.13   18.32
   1   1  -2  398.59   16.76
   1   1   2  367.31   22.44
   1   1   2  392.58   18.32
  -1   1  -2  390.34   22.47
   1  -1  -2  368.46   16.73
   1  -1  -2  361.40   18.32
  -1  -1   2  400.24   18.32
   1   1   2  420.04   20.64
   1   1   2  426.44   16.80
  -1  -1   2  421.73   20.59
   3   1  -2  240.60   13.54
  -3  -1  -2  246.20   12.47
   3  -1   2  235.79   10.14
  -3   1   2  221.37   13.54
   3   1  -2  244.99   10.15
   3  -1   2  232.10   11.11
  -3  -1   2  219.13   12.48
   3   1   2  239.09   13.54
   3   1   2  231.60   11.10
  -3   1  -2  245.39   13.54
  -3   1  -2  247.36   12.48
   3  -1  -2  227.33   11.07
   3   1   2  236.19   10.14
  -3  -1   2  240.96   11.11
   3  -1  -2  235.00   10.14
   5  -1   2  185.42    8.83
   5  -1   2  196.09    9.67
  -5   1   2  213.28   10.96
   5   1  -2  198.87    8.84
  -5  -1  -2  207.21   10.88
   5  -1  -2  194.30    8.83
   5   1   2  211.68    8.85
   5   1   2  198.83    9.68
  -5  -1   2  231.08   10.93
  -5  -1   2  201.43    9.67
   5  -1  -2  197.47    9.64
  -5   1  -2  215.10   10.92
  -7  -1  -2   60.34    3.47
   7   1  -2   57.75    2.81
  -7   1   2   61.64    3.52
   7  -1   2   56.02    2.80
   7  -1   2   59.09    3.07
   7   1   2   61.10    2.80
  -7   1  -2   62.34    3.49
   7  -1  -2   58.55    2.79
  -7  -1   2   65.20    3.49
   7   1   2   60.65    3.10
   7  -1  -2   63.58    3.06
  -7  -1   2   62.52    3.09
  -9   1   2   26.64    1.74
   9  -1   2   23.92    1.37
  -9  -1  -2   26.38    1.72
   9  -1   2   25.08    1.54
   9   1  -2   23.08    1.40
  -9  -1  -2   26.93    1.61
   9   1   2   24.42    1.34
  -9  -1   2   25.03    1.70
   9  -1  -2   25.49    1.39
  -9  -1   2   27.06    1.56
  -9   1  -2   26.54    1.76
   9   1   2   26.84    1.60
   0  -2  -2    3.90    0.25
   0  -2   2    4.28    0.26
   0   2  -2    4.69    0.36
   0  -2  -2    4.27    0.24
   0   2   2    4.00    0.28
   0   2   2    4.12    0.34
   0   2  -2    3.94    0.22
  -2   2   2    4.43    0.33
   2  -2   2    4.06    0.29
  -2  -2  -2    4.30    0.31
   2   2  -2    3.89    0.26
   2   2  -2    3.90    0.34
   2  -2   2    4.46    0.24
  -2   2  -2    3.97    0.35
   2  -2  -2    4.36    0.26
   2   2   2    4.02    0.25
   2   2   2    3.41    0.32
   2   2   2    3.61    0.29
  -2  -2   2    4.28    0.28
   2  -2  -2    4.01    0.26
   4   2  -2    1.58    0.21
   4  -2   2    1.94    0.22
  -4  -2  -2    2.27    0.27
   4  -2   2    1.96    0.20
  -4   2   2    2.31    0.21
  -4   2   2    1.85    0.32
   4   2  -2    2.14    0.23
   4   2   2    2.10    0.26
   4  -2  -2    2.09    0.20
   4   2   2    2.10    0.22
   4  -2  -2    2.38    0.21
  -4  -2   2    2.03    0.23
  -4   2  -2    1.92    0.29
  -4  -2   2    1.89    0.27
  -4   2  -2    2.30    0.25
   6  -2   2    1.08    0.25
  -6   2   2    2.54    0.44
   6   2  -2    1.60    0.26
   6  -2   2    1.25    0.23
  -6  -2  -2    1.21    0.29
  -6  -2   2    1.29    0.27
  -6  -2   2    1.31    0.30
   6  -2  -2    1.52    0.25
   6   2   2    1.10    0.26
  -6   2  -2    1.44    0.32
   6   2   2    1.72    0.26
   6  -2  -2    1.37    0.23
   8   2  -2    0.70    0.27
   8  -2   2    0.65    0.27
  -8   2   2    0.76    0.35
  -8  -2  -2    1.98    0.41
   8  -2   2    0.58    0.30
  -8  -2  -2    0.99    0.34
   8   2   2    2.28    0.32
   8  -2  -2    0.86    0.26
  -8   2  -2    0.76    0.37
   8  -2  -2    1.90    0.36
  -8  -2   2    0.84    0.33
  -8  -2   2    0.59    0.30
   1  -3   2  391.06   17.72
  -1   3   2  427.97   21.81
  -1  -3  -2  374.23   19.40
   1  -3   2  399.48   19.39
   1   3  -2  448.38   23.82
  -1   3   2  394.49   23.79
   1  -3   2  444.21   21.79
   1   3  -2  443.99   17.73
  -1  -3   2  381.42   21.78
   1   3   2  381.74   23.80
   1   3   2  431.09   21.81
  -1   3  -2  466.93   23.83
   1  -3  -2  403.72   19.39
  -1  -3   2  427.57   19.39
   1  -3  -2  381.16   17.71
   1   3   2  445.55   17.72
   3   3  -2  270.22   10.87
  -3   3   2  211.71   13.39
  -3  -3  -2  259.44   11.92
   3  -3   2  249.61   11.87
   3  -3   2  257.11   10.81
   3   3  -2  264.56   14.54
  -3   3   2  256.28   14.49
  -3  -3  -2  265.29   13.32
  -3   3  -2  284.34   13.37
   3  -3  -2  267.69   10.85
   3   3   2  243.99   14.51
   3  -3  -2  249.06   11.83
  -3  -3   2  225.54   11.86
  -3   3  -2  256.24   14.55
  -3  -3   2  227.64   13.31
   3   3   2  251.00   10.84
  -5   3   2  201.45   11.42
   5   3  -2  211.91    9.21
  -5  -3  -2  207.92   10.09
   5  -3   2  201.78    9.16
  -5  -3  -2  189.35   11.27
   5  -3   2  201.98   10.05
   5  -3  -2  213.57   10.02
  -5   3  -2  218.66   11.37
  -5  -3   2  218.68   10.05
   5  -3  -2  225.23    9.18
  -5  -3   2  229.28   11.29
   5   3   2  227.08    9.19
   7  -3   2   72.22    3.57
  -7  -3  -2   66.94    3.98
  -7   3   2   76.60    4.14
   7   3  -2   66.58    3.27
   7  -3   2   65.64    3.23
  -7  -3  -2   72.12    3.62
  -7   3  -2   71.48    4.06
  -7  -3   2   73.79    3.55
  -7  -3   2   79.31    4.00
   7  -3  -2   68.04    3.52
   7  -3  -2   70.36    3.23
   7   3   2   72.24    3.24
  -9   3   2   32.00    2.01
  -9  -3  -2   30.57    1.81
   9  -3   2   30.29    1.71
   9   3  -2   27.29    1.56
  -9  -3   2   29.08    1.67
   9   3   2   29.08    1.51
   9  -3  -2   29.39    1.54
  -9   3  -2   29.57    1.98
   0   4   2  448.24   24.34
   0  -4  -2  442.73   19.78
   0   4  -2  485.43   26.63
   0  -4  -2  457.96   21.64
   0  -4   2  451.35   21.66
   0  -4   2  478.12   24.32
   0   4  -2  480.74   19.82
   2   4  -2  684.58   36.26
   2  -4   2  558.77   29.52
   2   4  -2  707.67   27.00
  -2  -4  -2  604.11   33.17
  -2  -4  -2  579.59   29.56
  -2   4   2  600.28   36.19
  -2   4   2  602.78   33.23
   2  -4   2  632.68   26.96
   2   4   2  574.77   36.22
  -2  -4   2  677.94   29.54
  -2   4  -2  720.88   36.29
  -2   4  -2  724.25   33.21
  -2  -4   2  621.94   33.16
   2  -4  -2  590.47   26.97
   2  -4  -2  552.59   29.49
   2   4   2  680.67   26.98
   4  -4   2  316.92   14.02
  -4  -4  -2  359.14   15.45
   4   4  -2  346.69   14.09
  -4   4   2  333.42   18.79
  -4  -4  -2  314.92   17.25
   4   4  -2  321.36   18.87
   4  -4   2  317.63   15.38
  -4   4   2  284.15   17.39
   4  -4  -2  341.48   14.05
  -4   4  -2  313.31   18.87
  -4  -4   2  343.54   17.26
   4  -4  -2  326.33   15.35
  -4   4  -2  352.47   17.37
  -4  -4   2  340.30   15.40
   4   4   2  297.65   18.81
   4   4   2  328.46   14.06
   6  -4   2  178.71    8.22
   6  -4   2  182.27    9.03
  -6   4   2  211.62   10.35
   6   4  -2  168.91    8.26
  -6  -4  -2  191.70    9.09
  -6   4  -2  181.73   10.22
  -6  -4   2  194.75    9.03
   6  -4  -2  188.15    9.00
   6   4   2  196.38    8.25
  -6  -4   2  206.81   10.13
   6  -4  -2  185.97    8.24
   8   4  -2   70.25    3.49
  -8   4   2   79.44    4.41
  -8  -4  -2   77.73    3.87
   8  -4   2   77.23    3.81
  -8   4  -2   75.35    4.37
   8  -4  -2   75.71    3.46
   8   4   2   72.98    3.45
  -8  -4   2   78.22    3.79
   1   5  -2  211.66    8.97
  -1   5   2  175.70   12.10
   1  -5   2  199.46    8.94
  -1   5   2  201.99   11.05
   1  -5   2  210.33   11.05
   1   5  -2  210.95   12.18
  -1  -5  -2  215.32    9.85
   1  -5   2  218.99    9.85
   1  -5  -2  212.93    9.82
   1  -5  -2  207.92    8.98
  -1   5  -2  210.43   12.19
  -1  -5   2  213.80    9.84
   1   5   2  219.16    8.99
  -1  -5   2  211.23   11.02
  -1   5  -2  222.71   11.06
  -3   5   2  120.64    6.85
   3   5  -2  127.59    5.12
   3  -5   2  118.64    5.06
  -3  -5  -2  119.75    5.64
  -3  -5  -2  113.47    6.20
   3   5  -2  104.69    6.91
   3  -5   2  118.05    5.60
  -3   5  -2  131.32    6.35
   3   5   2  117.33    5.11
   3  -5  -2  119.43    5.56
  -3  -5   2  114.94    6.25
   3  -5  -2  116.04    5.10
  -3  -5   2  114.89    5.61
   3   5   2  108.18    6.88
  -5  -5  -2   92.51    4.61
   5   5  -2   90.81    4.19
   5  -5   2   89.66    4.57
  -5   5   2   93.42    5.30
   5  -5  -2   98.26    4.54
  -5  -5   2   94.74    4.59
   5   5   2   95.73    4.19
  -5   5  -2   97.17    5.25
   5  -5  -2   93.10    4.17
  -5  -5   2  100.05    5.10
   7   5  -2   26.03    1.42
  -7   5   2   33.35    1.96
  -7  -5  -2   27.82    1.60
   7  -5   2   30.44    1.58
   7   5   2   27.72    1.42
  -7   5  -2   26.95    1.84
  -7  -5   2   28.53    1.56
   7  -5  -2   28.67    1.42
   9  -5   2   12.12    0.87
  -9  -5   2   12.15    0.86
   9  -5  -2   11.06    0.76
   0   6  -2    8.66    0.82
   0  -6  -2   10.97    0.51
   0   6   2    9.58    0.57
   0  -6   2    9.88    0.56
   0  -6  -2   10.85    0.56
   0   6  -2   10.46    0.48
   0  -6   2   10.22    0.61
   2  -6   2   11.58    0.53
   2   6  -2   11.66    0.57
  -2   6   2    9.88    0.73
  -2   6   2   11.50    0.82
   2  -6   2   11.90    0.63
   2   6  -2   10.87    0.89
  -2  -6  -2   11.01    0.66
   2   6   2   11.30    0.57
  -2   6  -2    9.17    0.89
  -2  -6   2   11.22    0.65
   2  -6  -2   12.10    0.61
  -2  -6   2   11.54    0.64
  -2   6  -2   11.42    0.73
   2  -6  -2   11.19    0.56
   2   6   2    9.03    0.82
   4   6  -2    8.25    0.48
  -4   6   2    5.67    0.65
   4  -6   2    8.24    0.55
  -4   6   2    8.74    0.62
  -4  -6  -2    8.20    0.57
   4   6  -2    7.81    0.70
   4   6   2    9.14    0.67
  -4   6  -2    8.01    0.71
   4  -6  -2    8.19    0.49
  -4  -6   2    7.33    0.54
  -4   6  -2    8.31    0.70
   4   6   2    7.40    0.48
   6   6  -2    5.85    0.45
   6  -6   2    5.69    0.48
  -6  -6  -2    6.34    0.54
   6   6   2    6.15    0.44
  -6   6  -2    5.82    0.64
  -6  -6   2    6.21    0.52
   6  -6  -2    6.43    0.48
   6  -6  -2    6.83    0.45
   8   6  -2    2.80    0.38
  -8   6   2    3.60    0.61
  -8  -6  -2    3.08    0.46
   8  -6   2    2.25    0.39
   8   6   2    3.14    0.38
  -8   6  -2    3.32    0.60
   8  -6  -2    2.97    0.37
  -8  -6   2    3.43    0.44
   1  -7   2  253.17   11.80
  -1   7   2  237.72   13.22
   1   7  -2  261.88   10.74
   1  -7   2  248.10   10.72
   1   7  -2  230.22   14.63
  -1   7   2  237.09   14.56
  -1  -7  -2  268.17   11.81
  -1  -7   2  251.44   11.80
   1  -7  -2  257.77   10.77
  -1   7  -2  242.90   14.67
  -1   7  -2  254.12   13.26
  -1  -7   2  258.40   13.20
   1  -7  -2  252.90   11.78
   1   7   2  256.53   10.76
  -3   7   2  184.49    9.83
   3   7  -2  163.96    7.28
   3  -7   2  163.76    7.98
   3   7  -2  156.32    9.89
  -3  -7  -2  154.24    8.02
   3   7   2  164.94    7.28
  -3  -7   2  173.46    8.01
   3  -7  -2  167.87    7.94
  -3   7  -2  166.87    9.04
   3   7   2  190.99    9.89
   3  -7  -2  164.01    7.27
   5   7  -2  123.02    5.41
  -5  -7  -2  124.79    5.98
  -5   7   2  128.59    6.84
   5  -7   2  120.09    5.92
   5  -7  -2  128.53    5.89
  -5  -7   2  117.57    5.95
  -5   7  -2  125.87    6.79
   5   7   2  121.08    5.42
   5  -7  -2  119.44    5.39
  -7   7   2   51.87    2.92
   7   7  -2   45.14    2.18
  -7  -7  -2   44.78    2.42
   7  -7   2   45.21    2.40
   7  -7  -2   45.65    2.18
  -7   7  -2   46.19    2.85
   7   7   2   45.85    2.19
  -7  -7   2   47.23    2.43
   0  -8  -2  158.91    6.76
   0  -8   2  155.68    7.42
   0  -8  -2  157.48    7.41
   0   8  -2  153.78    9.31
   2   8  -2  204.59   11.97
  -2   8   2  202.51   11.88
  -2  -8  -2  208.00    9.66
   2  -8   2  199.59    9.62
   2   8  -2  199.37    8.76
  -2   8  -2  191.16   11.97
   2   8   2  210.71   11.93
   2  -8  -2  197.73    8.76
   2   8   2  207.18    8.78
  -2   8  -2  206.28   10.86
  -2  -8   2  211.28    9.64
   2  -8  -2  203.05    9.59
   4   8  -2  117.21    6.42
  -4   8   2  105.50    5.90
   4  -8   2  102.49    5.15
   4   8  -2  110.08    4.70
  -4   8   2  112.50    6.32
  -4  -8  -2  107.64    5.22
  -4  -8   2   99.66    5.18
   4  -8  -2  107.04    4.69
   4   8   2   97.28    4.69
  -4   8  -2  112.43    5.93
   4  -8  -2  109.44    5.12
  -4   8  -2   99.35    6.37
   6  -8   2   54.54    2.95
  -6  -8  -2   58.74    3.01
  -6   8   2   61.19    3.52
   6   8  -2   58.26    2.69
   6  -8  -2   57.64    2.68
  -6  -8   2   60.25    3.00
  -6   8  -2   62.29    3.51
   6   8   2   58.19    2.71
   8  -8   2   25.74    1.47
  -8  -8   2   24.33    1.46
   1  -9   2   39.71    2.05
   1   9  -2   43.41    2.74
  -1  -9  -2   41.59    1.86
  -1  -9  -2   42.44    2.07
   1   9  -2   40.93    1.82
  -1   9   2   36.63    2.62
   1   9   2   38.19    2.65
   1  -9  -2   41.22    1.85
  -1  -9   2   40.38    2.06
   1  -9  -2   42.08    2.04
  -1   9  -2   43.08    2.76
  -3  -9  -2   20.62    1.29
   3  -9   2   22.52    1.25
  -3   9   2   23.65    1.60
   3   9  -2   21.60    1.12
   3   9  -2   25.83    1.70
  -3   9  -2   21.82    1.51
   3  -9  -2   25.55    1.13
  -3  -9   2   22.78    1.29
   3  -9  -2   24.49    1.23
   3   9   2   26.51    1.67
  -3   9  -2   19.92    1.64
   3   9   2   22.32    1.13
  -5   9   2   16.43    1.26
  -5  -9  -2   17.25    1.08
   5  -9   2   16.63    1.01
   5   9  -2   18.02    0.92
  -5   9  -2   18.12    1.30
   5   9   2   17.00    0.94
   5  -9  -2   16.92    0.92
  -5  -9   2   15.80    1.06
  -7  -9  -2    4.42    0.56
   7  -9   2    6.03    0.54
  -7   9   2    5.33    0.76
   7   9  -2    4.59    0.45
   7   9   2    4.86    0.47
  -7   9  -2    5.98    0.82
  -7  -9   2    5.43    0.55
   0  10  -2   11.77    1.01
   0  10   2    9.89    0.92
   0 -10  -2   10.72    0.58
   0 -10   2   10.39    0.67
   0 -10  -2   10.34    0.65
  -2  10   2   11.61    0.94
   2 -10   2   10.49    0.67
   2  10  -2   12.22    0.99
  -2 -10  -2    9.65    0.71
   2  10   2   10.02    0.92
   2  10   2   10.39    0.59
   2 -10  -2   10.18    0.65
  -2  10  -2   10.41    0.98
  -2 -10   2   10.99    0.71
   2 -10  -2   10.61    0.58
   4  10  -2    7.60    0.51
  -4  10   2    8.25    0.73
  -4 -10  -2    7.68    0.64
   4  10  -2    7.74    0.74
   4 -10   2    7.06    0.58
   4  10   2    7.42    0.52
   4  10   2    9.10    0.78
  -4  10  -2    6.54    0.75
   4 -10  -2    7.73    0.55
  -4 -10   2    6.67    0.62
  -6 -10  -2    5.10    0.56
   6 -10   2    4.42    0.53
   6  10  -2    5.57    0.44
  -6  10  -2    5.98    0.80
   6  10   2    5.14    0.47
  -6 -10   2    5.44    0.55
  -1  11   2   63.33    4.38
  -1 -11  -2   71.13    3.15
   1 -11   2   69.18    3.48
   1  11  -2   75.20    4.45
  -1 -11  -2   66.19    3.47
   1  11   2   75.20    4.45
  -1  11  -2   78.38    4.50
  -1 -11   2   68.88    3.49
   1 -11  -2   69.56    3.45
   1 -11  -2   68.93    3.13
   3 -11   2   49.44    2.51
  -3  11   2   49.52    3.16
   3  11  -2   51.40    3.19
  -3 -11  -2   48.41    2.58
   3 -11  -2   48.85    2.47
  -3  11  -2   43.35    3.16
   3  11   2   55.95    3.22
   3  11   2   47.11    2.26
  -3 -11   2   48.04    2.55
   5  11  -2   37.23    1.69
  -5 -11  -2   37.08    1.98
   5 -11   2   33.41    1.88
   5  11   2   31.83    1.68
  -5 -11   2   32.69    1.92
   0 -12  -2   25.06    1.24
   0 -12  -2   24.08    1.38
   0  12   2   29.12    1.92
   0 -12   2   22.43    1.39
   0  12  -2   26.72    1.89
   2 -12   2   28.98    1.59
  -2 -12  -2   27.11    1.61
   2  12  -2   30.88    2.08
  -2 -12  -2   28.64    1.43
  -2  12   2   26.75    2.05
  -2 -12   2   28.96    1.63
  -2  12  -2   30.47    2.13
   2 -12  -2   30.64    1.57
   2  12   2   29.09    2.07
  -4  12   2   16.80    1.29
  -4 -12  -2   15.45    1.10
   4  12  -2   15.63    1.26
   4 -12   2   15.68    1.00
   4  12   2   18.63    1.32
  -4 -12   2   13.89    1.03
   4  12   2   15.02    0.89
  -4  12  -2   14.20    1.28
  -1  13   2    1.23    0.46
   1 -13   2    1.88    0.35
  -1 -13  -2    1.40    0.35
   1  13  -2    1.46    0.45
   1 -13  -2    1.22    0.30
  -1  13  -2    1.90    0.52
  -1 -13   2    0.86    0.30
   1  13   2    1.32    0.44
   3 -13   2    0.81    0.30
   3  13  -2    0.78    0.37
  -3  13   2    0.15    0.35
  -3 -13  -2    0.70    0.25
  -3 -13  -2    0.55    0.36
  -3 -13   2    0.59    0.33
  -3  13  -2    0.77    0.41
   3  13   2    0.57    0.35
   3  13   2    0.32    0.21
   0 -14  -2    6.06    0.58
  -2 -14  -2    4.68    0.60
   0   0  -3    1.80    0.14
  -2   0   3    0.44    0.13
  -2   0   3    0.61    0.11
   4   0   3    0.39    0.14
  -4   0  -3    0.55    0.13
   4   0  -3    0.21    0.12
  -4   0  -3    0.19    0.15
   4   0  -3    0.15    0.10
  -4   0   3    0.14    0.16
   4   0   3    0.29    0.11
  -4   0   3    0.15    0.12
  -6   0   3    0.58    0.20
   6   0   3    0.58    0.20
  -6   0  -3    0.91    0.29
  -6   0   3    0.95    0.34
   6   0  -3    0.33    0.18
   6   0   3    0.63    0.23
   8   0   3    0.77    0.25
  -8   0   3    0.26    0.39
   8   0  -3    0.59    0.26
   8   0   3    1.21    0.35
  -8   0  -3    0.58    0.38
   1  -1   3   90.58    3.65
   1   1  -3   81.07    4.95
   1   1  -3   80.83    3.68
   1  -1   3   80.90    4.04
  -1   1   3   88.10    4.54
   1  -1   3   87.16    4.52
  -1   1   3   82.60    4.95
  -1   1  -3   81.83    4.95
   1  -1  -3   84.46    3.68
   1   1   3   89.88    3.67
  -1  -1   3   93.21    4.54
   1   1   3   87.14    4.51
   1   1   3   85.59    4.03
   1   1   3   84.50    4.95
  -1  -1   3   82.77    4.00
  -3   1   3   43.27    2.59
   3   1  -3   46.08    2.74
   3  -1   3   43.97    2.06
   3  -1   3   48.60    2.29
  -3   1   3   47.80    2.75
   3   1  -3   49.15    2.09
  -3  -1  -3   47.21    2.52
  -3   1  -3   46.41    2.54
   3   1   3   45.40    2.06
   3  -1  -3   45.15    2.23
   3   1   3   50.54    2.76
  -3  -1   3   43.68    2.56
  -3   1  -3   46.21    2.74
   3   1   3   48.64    2.29
   3  -1  -3   50.98    2.09
  -3  -1   3   42.77    2.25
  -5   1   3   42.41    2.32
   5   1  -3   37.66    1.80
   5  -1   3   37.19    1.98
  -5  -1  -3   36.18    2.21
   5  -1   3   39.35    1.81
  -5   1  -3   37.70    2.24
   5  -1  -3   38.04    1.93
  -5  -1   3   37.11    1.96
   5  -1  -3   37.80    1.80
  -5  -1   3   40.95    2.26
   5   1   3   40.77    1.80
   5   1   3   39.68    1.99
  -7  -1  -3   11.79    0.95
   7   1  -3   11.74    0.76
   7  -1   3   13.33    0.87
   7  -1   3   12.72    0.77
  -7   1   3   12.79    1.02
  -7  -1   3   13.12    0.98
  -7   1  -3   12.21    0.95
   7  -1  -3   12.64    0.82
   7   1   3   13.63    0.88
  -7  -1   3   12.77    0.84
   7   1   3   12.93    0.75
   7  -1  -3   11.99    0.75
   9   1  -3    6.27    0.61
  -9   1   3    7.61    0.82
  -9  -1  -3    7.18    0.75
   9  -1   3    7.01    0.71
  -9   1  -3    6.52    0.79
   9   1   3    7.36    0.57
  -9  -1   3    6.79    0.74
   9  -1  -3    7.42    0.63
   9   1   3    7.40    0.75
   0  -2  -3   35.65    1.49
   0  -2   3   35.08    1.63
   0  -2   3   32.92    1.83
   0   2   3   35.48    1.83
   0   2   3   31.97    2.02
   0   2  -3   32.28    2.03
   0  -2  -3   31.45    1.61
   0   2  -3   33.03    1.47
  -2   2   3  107.48    6.42
   2   2  -3  111.70    6.43
  -2   2   3  105.46    5.92
   2  -2   3  115.00    5.90
   2   2  -3  114.60    4.80
   2  -2   3  106.98    4.76
   2  -2   3  109.02    5.26
   2  -2  -3  110.39    5.20
   2   2   3  105.72    6.42
  -2   2  -3  111.69    6.43
   2   2   3  110.17    5.27
  -2  -2   3  112.87    5.91
   2   2   3  114.01    5.86
  -2  -2   3  111.37    5.23
   2   2   3  115.44    4.79
  -4   2   3   14.54    0.86
  -4   2   3   11.39    0.89
   4   2  -3   12.06    0.84
   4   2  -3   13.52    0.69
  -4  -2  -3   12.89    0.82
   4  -2   3   12.00    0.67
   4  -2   3   13.62    0.76
   4  -2  -3   13.26    0.69
   4   2   3   13.73    0.68
  -4   2  -3   13.30    0.84
  -4  -2   3   12.47    0.73
  -4  -2   3   12.77    0.84
  -4   2  -3   12.63    0.86
   4   2   3   13.40    0.77
   4   2   3   13.30    0.85
   4  -2  -3   13.68    0.71
  -6  -2  -3    8.21    0.66
  -6   2   3    8.83    0.79
   6  -2   3    8.18    0.61
   6  -2   3    8.68    0.57
   6   2  -3    8.72    0.57
   6   2   3    8.46    0.54
   6   2   3    8.55    0.63
   6  -2  -3    8.96    0.57
  -6  -2   3    9.80    0.70
  -6  -2   3    8.99    0.60
  -6   2  -3    7.56    0.70
   6  -2  -3    8.44    0.55
  -8  -2  -3   13.63    1.09
   8   2  -3   13.46    0.89
  -8  -2  -3   14.42    1.02
   8  -2   3   13.03    0.97
  -8   2   3   14.91    1.18
   8  -2  -3   15.60    0.89
  -8  -2   3   14.89    0.95
   8   2   3   15.71    1.04
  -8  -2   3   16.49    1.10
  -8   2  -3   14.03    1.10
   8   2   3   14.32    0.84
   1  -3   3    0.69    0.11
   1  -3   3    0.69    0.10
   1   3  -3    0.60    0.09
  -1  -3  -3    0.75    0.12
  -1   3   3    0.62    0.10
  -1   3   3    0.57    0.12
   1   3   3    0.98    0.08
  -1  -3   3    0.65    0.09
   1  -3  -3    0.78    0.07
   1   3   3    0.48    0.12
   1  -3  -3    0.50    0.08
  -1   3  -3    0.85    0.16
  -1  -3   3    0.74    0.11
   1   3   3    0.64    0.08
   3  -3   3    1.06    0.16
  -3   3   3    0.70    0.18
   3   3  -3    1.15    0.16
  -3  -3  -3    0.95    0.14
  -3  -3  -3    0.97    0.18
  -3   3   3    0.82    0.15
   3  -3   3    0.76    0.12
   3   3  -3    0.81    0.17
   3   3   3    0.89    0.16
   3  -3  -3    1.02    0.15
  -3   3  -3    1.47    0.20
  -3   3  -3    0.82    0.19
   3   3   3    0.84    0.12
  -3  -3   3    1.37    0.17
   3  -3  -3    0.90    0.12
   5  -3   3    1.13    0.19
  -5  -3  -3    1.09    0.23
  -5   3   3    0.91    0.31
  -5  -3  -3    1.61    0.28
   5   3  -3    0.89    0.20
   5  -3   3    1.09    0.23
  -5   3  -3    1.08    0.29
  -5  -3   3    1.26    0.25
   5   3   3    1.49    0.22
  -5  -3   3    1.60    0.24
   5  -3  -3    1.41    0.20
   5  -3  -3    1.27    0.21
   7   3  -3    1.50    0.30
  -7   3   3   -0.03    0.33
   7  -3   3    0.64    0.24
  -7  -3  -3    0.63    0.27
   7  -3  -3    0.30    0.20
   7   3   3    0.32    0.19
  -7   3  -3   -0.18    0.24
  -7  -3   3    0.81    0.24
  -7  -3   3    0.63    0.29
   9  -3   3    0.58    0.32
  -9  -3  -3    0.64    0.42
  -9   3   3    0.26    0.41
   9   3  -3    0.53    0.31
   9   3   3    0.69    0.27
   9  -3  -3    0.77    0.29
  -9   3  -3    0.47    0.42
   0  -4   3   86.91    4.19
   0   4  -3   87.68    5.20
   0   4   3   88.37    4.68
   0  -4  -3   86.76    4.17
   0  -4  -3   92.31    3.83
   0  -4   3   89.57    4.71
   0   4  -3   89.67    3.79
   0   4   3   85.98    5.20
   2  -4   3   88.28    4.74
  -2   4   3   89.93    4.77
   2   4  -3   88.39    5.21
   2   4  -3   85.60    3.86
   2  -4   3   90.04    4.23
  -2  -4  -3   84.85    4.25
   2  -4   3   88.81    3.80
  -2   4   3   82.71    5.17
   2  -4  -3   86.77    3.84
  -2  -4   3   88.50    4.21
  -2  -4   3   89.49    4.73
  -2   4  -3   90.06    4.74
  -2   4  -3   91.89    5.23
   2   4   3   85.52    5.20
   2  -4  -3   90.66    4.17
   2   4   3   89.17    4.67
   2   4   3   92.47    3.85
  -4  -4  -3   46.99    2.38
  -4   4   3   40.26    2.67
  -4  -4  -3   46.52    2.56
   4   4  -3   44.08    2.82
   4   4  -3   47.89    2.14
  -4   4   3   46.70    2.78
   4  -4   3   46.66    2.08
   4  -4   3   47.66    2.32
  -4  -4   3   44.14    2.57
  -4   4  -3   46.68    2.63
   4  -4  -3   51.58    2.27
   4  -4  -3   51.85    2.13
  -4   4  -3   49.88    2.87
   4   4   3   44.56    2.11
   4   4   3   44.80    2.79
  -4  -4   3   43.83    2.31
   6  -4   3   21.33    1.20
   6   4  -3   21.04    1.13
  -6   4   3   18.61    1.44
  -6  -4  -3   19.17    1.24
   6  -4  -3   21.44    1.09
  -6  -4   3   22.62    1.20
  -6   4  -3   19.48    1.40
  -6  -4   3   22.90    1.33
   6   4   3   23.12    1.10
  -8  -4  -3   10.28    0.82
   8   4  -3    9.59    0.72
   8  -4   3    8.85    0.73
  -8   4   3    9.73    0.94
   8   4   3    9.50    0.64
   8  -4  -3   10.05    0.69
  -8   4  -3    8.63    0.90
  -8  -4   3   10.01    0.71
   1  -5   3  115.55    5.40
   1   5  -3  117.27    6.71
   1  -5   3  110.68    4.87
   1   5  -3  107.22    4.91
  -1   5   3  110.38    6.68
  -1   5   3  109.44    6.04
  -1  -5  -3  116.39    5.41
   1  -5   3  115.59    6.07
   1  -5  -3  117.16    4.93
  -1  -5   3  113.84    5.40
  -1   5  -3  117.99    6.72
  -1  -5   3  112.90    6.05
   1   5   3  116.95    5.99
   1  -5  -3  116.60    5.37
   1   5   3  106.96    6.69
   1   5   3  119.89    4.93
  -3  -5  -3   90.74    4.23
   3   5  -3   83.43    5.17
   3   5  -3   90.82    3.83
   3  -5   3   86.90    4.19
  -3   5   3   81.74    5.10
  -3  -5   3   88.17    4.19
   3   5   3   88.50    3.82
   3  -5  -3   92.69    4.14
  -3  -5   3   86.26    4.68
   3  -5  -3   87.72    3.81
  -3   5  -3   90.80    4.72
  -3   5  -3   81.78    5.20
   3   5   3   80.56    5.14
   5  -5   3   52.81    2.74
   5   5  -3   52.84    2.53
  -5  -5  -3   54.96    2.80
   5  -5  -3   54.46    2.50
  -5   5  -3   53.80    3.17
   5  -5  -3   60.11    2.71
  -5  -5   3   56.28    3.06
   5   5   3   56.27    2.52
  -5  -5   3   54.35    2.76
   7  -5   3   22.42    1.34
  -7  -5  -3   23.14    1.39
   7   5  -3   22.22    1.24
  -7   5   3   24.99    1.67
   7   5   3   22.70    1.20
  -7  -5   3   25.02    1.35
   7  -5  -3   25.01    1.23
  -7   5  -3   23.17    1.59
  -9  -5   3   12.00    0.85
   9  -5  -3   10.97    0.76
   0   6  -3    1.59    0.32
   0   6   3    1.14    0.25
   0  -6   3    1.73    0.18
   0  -6  -3    1.73    0.15
   0  -6   3    1.60    0.17
   0   6   3    1.80    0.14
   0   6  -3    1.61    0.11
   0  -6  -3    1.56    0.16
  -2  -6  -3   53.10    2.70
   2  -6   3   56.81    2.68
   2   6  -3   56.12    3.39
  -2   6   3   54.51    3.33
   2   6  -3   51.99    2.42
  -2   6   3   49.54    3.00
  -2  -6   3   53.67    2.97
  -2   6  -3   55.39    3.42
   2   6   3   56.38    2.44
  -2  -6   3   58.20    2.68
   2  -6  -3   56.46    2.43
   2   6   3   49.37    3.35
   2  -6  -3   58.63    2.63
  -2   6  -3   57.59    3.02
  -4   6   3    8.40    0.80
   4   6  -3   12.09    0.63
  -4  -6  -3   12.16    0.74
   4   6  -3   10.22    0.88
   4  -6   3   11.27    0.69
  -4   6   3   11.65    0.80
   4   6   3   11.92    0.86
  -4   6  -3   10.92    0.81
   4  -6  -3   11.32    0.62
  -4  -6   3   10.50    0.73
  -4   6  -3    9.84    0.91
   4   6   3   10.75    0.61
  -4  -6   3    9.85    0.68
   4  -6  -3   12.44    0.64
   6  -6   3    5.36    0.46
   6   6  -3    5.82    0.44
  -6  -6  -3    6.90    0.54
  -6   6   3    5.55    0.66
  -6   6  -3    5.11    0.62
   6  -6  -3    5.11    0.44
  -6  -6   3    5.07    0.47
   6   6   3    5.47    0.42
  -8  -6  -3    8.36    0.72
   8  -6   3    7.53    0.66
  -8   6   3    8.97    0.91
   8   6  -3    8.07    0.59
  -8  -6   3    7.50    0.65
  -8   6  -3    7.02    0.79
   8   6   3    7.84    0.58
   8  -6  -3    7.78    0.60
  -1   7   3   29.55    2.16
   1  -7   3   34.59    1.70
   1   7  -3   34.03    1.51
  -1  -7  -3   35.89    1.71
   1   7  -3   33.01    2.25
   1   7   3   28.91    2.18
  -1   7  -3   35.39    2.29
  -1  -7   3   33.76    1.87
   1   7   3   34.63    1.54
  -1   7  -3   34.06    1.90
   1  -7  -3   35.44    1.54
  -1  -7   3   34.87    1.71
   1  -7  -3   35.92    1.67
   3   7  -3   30.94    1.36
  -3  -7  -3   27.33    1.55
  -3   7   3   26.45    1.71
   3  -7   3   29.84    1.51
   3   7  -3   26.80    1.96
  -3   7   3   30.37    1.87
   3   7   3   31.03    1.94
   3   7   3   28.18    1.36
   3  -7  -3   28.71    1.36
  -3  -7   3   29.88    1.52
  -3   7  -3   24.53    1.98
   3  -7  -3   30.31    1.46
  -3   7  -3   29.64    1.73
   5   7  -3   11.42    0.65
   5  -7   3   10.97    0.72
  -5  -7  -3   12.29    0.79
  -5   7   3    9.56    0.91
  -5   7  -3   11.20    0.92
  -5  -7   3   11.32    0.76
   5  -7  -3   12.18    0.68
   5   7   3   10.32    0.65
  -7  -7  -3    6.04    0.57
  -7   7   3    7.13    0.78
   7   7  -3    6.38    0.50
   7  -7   3    5.88    0.53
  -7   7  -3    5.64    0.76
   7  -7  -3    5.89    0.48
  -7  -7   3    7.14    0.59
   7   7   3    6.11    0.50
   0  -8   3  135.34    7.20
   0  -8  -3  141.03    5.86
   0  -8   3  137.02    6.43
   0   8  -3  123.98    8.08
   0  -8  -3  137.69    6.41
  -2   8   3  137.59    7.93
   2  -8   3  136.72    6.40
   2   8  -3  127.51    8.02
   2   8  -3  131.89    5.80
  -2  -8  -3  135.63    6.43
  -2   8  -3  139.94    7.22
   2  -8  -3  131.89    5.82
   2   8   3  135.22    5.83
   2   8   3  124.12    7.95
  -2  -8   3  142.54    6.42
   2  -8  -3  140.77    6.35
  -2   8  -3  123.08    8.04
  -4  -8  -3   87.39    4.02
   4  -8   3   80.61    3.94
  -4   8   3   69.70    4.45
   4   8  -3   79.95    4.94
  -4   8   3   89.86    4.84
   4   8  -3   88.01    3.58
   4   8   3   73.70    3.58
   4  -8  -3   84.40    3.59
  -4  -8   3   78.70    3.96
  -4   8  -3   81.19    4.52
  -4   8  -3   69.25    4.91
   6   8  -3   40.94    1.89
  -6   8   3   37.97    2.48
  -6  -8  -3   42.82    2.15
   6  -8   3   38.39    2.09
  -6  -8   3   38.60    2.11
   6   8   3   39.03    1.91
   6  -8  -3   39.95    1.89
  -6   8  -3   40.47    2.50
  -1  -9  -3   75.04    3.57
  -1   9   3   70.76    4.50
   1   9  -3   69.60    4.58
  -1  -9  -3   74.67    3.25
   1  -9   3   73.13    3.57
  -1   9  -3   72.20    4.62
   1  -9  -3   74.24    3.54
  -1  -9   3   74.96    3.58
   1  -9  -3   73.76    3.24
   3  -9   3   61.24    3.11
   3   9  -3   59.76    2.81
  -3  -9  -3   58.65    3.16
   3   9  -3   62.53    3.98
  -3   9   3   64.67    3.88
   3   9   3   61.99    2.83
   3  -9  -3   65.64    3.07
   3  -9  -3   66.28    2.83
   3   9   3   71.96    3.97
  -3   9  -3   61.61    3.58
  -3  -9   3   62.83    3.14
  -3   9  -3   57.37    3.98
   5  -9   3   33.53    1.80
  -5   9   3   30.70    2.07
   5   9  -3   35.61    1.62
  -5  -9  -3   36.61    1.88
   5   9   3   30.85    1.62
  -5   9  -3   36.43    2.19
   5  -9  -3   34.61    1.64
  -5  -9   3   30.63    1.82
   7  -9   3   16.93    1.09
  -7   9   3   17.70    1.37
  -7  -9  -3   17.56    1.13
   7   9  -3   17.40    0.96
  -7  -9   3   17.27    1.13
   7   9   3   16.62    0.98
  -7   9  -3   18.62    1.40
   0 -10  -3    0.68    0.19
   0  10  -3    0.77    0.37
   0 -10   3    1.39    0.24
   0 -10  -3    0.47    0.15
   0  10   3    0.61    0.30
  -2 -10  -3    9.84    0.68
  -2  10   3   10.14    0.90
   2 -10   3    9.78    0.65
   2  10  -3   10.15    0.96
   2 -10  -3   10.34    0.62
   2  10   3   10.72    0.94
  -2  10  -3   10.06    0.99
  -2 -10   3    9.84    0.67
   2 -10  -3    9.53    0.57
   2  10   3    9.96    0.57
   4  10  -3    2.87    0.52
  -4 -10  -3    2.37    0.42
  -4  10   3    3.21    0.47
   4 -10   3    2.53    0.37
   4  10   3    4.01    0.51
   4  10   3    2.45    0.33
  -4 -10   3    2.40    0.39
  -4  10  -3    2.79    0.54
  -4  10  -3    4.43    0.61
   4 -10  -3    2.72    0.34
   6 -10   3    0.53    0.28
  -6 -10  -3    1.18    0.36
   6  10  -3    1.26    0.26
  -6  10  -3    0.81    0.44
  -6 -10   3    0.98    0.33
   6  10   3    1.11    0.27
   1 -11   3   39.99    2.14
   1  11  -3   43.75    2.84
  -1 -11  -3   42.89    1.93
  -1 -11  -3   40.50    2.13
  -1  11   3   39.12    2.76
  -1  11  -3   41.90    2.84
   1 -11  -3   41.23    1.92
   1 -11  -3   42.59    2.11
  -1 -11   3   40.13    2.15
   1  11   3   44.09    2.82
  -3  11   3   35.31    2.30
   3  11  -3   35.30    2.36
   3 -11   3   31.90    1.80
  -3 -11  -3   32.10    1.86
  -3  11  -3   31.21    2.35
   3 -11  -3   33.28    1.62
   3  11   3   32.99    1.62
   3  11   3   39.80    2.38
  -3 -11   3   32.89    1.84
  -5 -11  -3   17.64    1.14
   5 -11   3   17.29    1.07
   5  11   3   16.65    0.96
  -5 -11   3   14.95    1.07
   0  12  -3   84.54    5.14
   0 -12  -3   79.42    4.00
   0  12   3   84.12    5.13
   0 -12   3   78.95    4.03
   0 -12  -3   81.62    3.65
   2  12  -3   86.65    5.18
   2 -12   3   77.93    4.07
  -2  12   3   84.37    5.15
  -2 -12  -3   78.01    4.11
  -2 -12  -3   81.05    3.71
  -2 -12   3   83.05    4.13
   2 -12  -3   77.38    3.68
  -2  12  -3   87.02    5.22
   2  12   3   90.10    5.19
   4 -12   3   51.16    2.60
   4  12  -3   51.79    3.24
  -4  12   3   54.43    3.23
  -4 -12  -3   47.71    2.66
  -4 -12   3   47.78    2.63
   4  12   3   47.65    2.33
  -4  12  -3   45.31    3.23
   1  13  -3   32.05    2.25
  -1 -13  -3   31.71    1.54
  -1 -13  -3   30.86    1.73
  -1  13   3   27.05    2.20
   1 -13   3   30.85    1.72
  -1 -13   3   29.95    1.73
   1  13   3   35.04    2.30
  -1  13  -3   33.85    2.31
   3 -13   3   27.40    1.59
  -3 -13  -3   26.68    1.42
  -3  13   3   28.71    2.04
  -3 -13  -3   24.83    1.62
   3  13  -3   28.52    2.02
   3  13   3   32.29    2.09
  -3  13  -3   26.79    2.04
  -2 -14  -3    0.21    0.24
  -2 -14  -3    0.05    0.29
   0   0   4  506.28   31.88
   0   0  -4  598.32   23.78
   0   0   4  565.17   26.09
   2   0   4  697.94   34.08
   2   0   4  593.95   30.29
   2   0   4  587.51   37.12
   2   0  -4  619.31   27.69
   2   0   4  684.93   27.69
  -2   0   4  699.72   30.31
   2   0  -4  611.16   37.12
  -2   0   4  692.76   34.06
   4   0  -4  451.88   19.04
  -4   0  -4  452.49   23.37
  -4   0  -4  446.60   25.45
   4   0   4  451.49   20.84
  -4   0   4  477.70   20.79
  -4   0   4  406.96   23.42
   4   0   4  420.07   19.00
   4   0  -4  443.89   25.45
   6   0  -4  175.54    8.09
  -6   0   4  196.32   10.03
  -6   0  -4  176.41    9.95
   6   0   4  184.01    8.88
   6   0   4  195.85    8.08
  -8   0   4  102.10    5.30
  -8   0  -4   90.74    5.21
   8   0   4   91.70    4.68
   8   0   4   93.18    4.20
   8   0  -4   89.15    4.25
   1   1  -4  239.13   14.49
  -1   1   4  235.74   14.49
  -1   1   4  268.74   13.28
   1  -1   4  256.60   13.26
   1   1  -4  234.45   10.79
   1  -1   4  224.46   11.81
  -1  -1   4  252.18   11.77
   1   1   4  268.93   10.77
   1   1   4  258.35   13.25
  -1  -1   4  281.45   13.29
   1   1   4  254.04   11.80
   1   1   4  254.77   14.50
  -1   1  -4  235.62   14.49
  -1   1  -4  264.55   10.75
   1  -1  -4  252.20   10.79
   3  -1   4  270.97   14.21
   3  -1   4  271.65   11.53
  -3   1   4  266.36   15.50
   3  -1   4  247.88   12.67
   3   1  -4  279.80   11.58
  -3   1   4  277.96   14.27
  -3   1   4  265.87   12.62
   3   1  -4  271.87   15.49
  -3   1  -4  268.52   15.49
  -3  -1   4  259.19   14.24
   3   1   4  283.10   11.55
   3  -1  -4  271.99   11.58
  -3  -1   4  257.94   12.62
   3   1   4  268.10   12.67
   3   1   4  272.99   14.19
   3   1   4  278.00   15.51
  -5  -1  -4   97.95    5.37
   5   1  -4  101.83    4.40
  -5   1   4  102.84    4.76
  -5   1   4   99.17    5.47
   5  -1   4   99.34    4.82
   5  -1   4   99.30    4.36
   5  -1  -4   98.39    4.39
   5   1   4   94.37    4.36
  -5  -1   4  106.56    5.45
   5   1   4   95.60    4.81
  -5  -1   4  103.70    4.77
  -5   1  -4   92.23    5.37
   7  -1   4   66.55    2.82
  -7  -1  -4   58.36    3.47
   7   1  -4   58.56    2.84
   7  -1   4   55.15    3.10
  -7  -1   4   68.50    3.56
   7   1   4   60.49    3.14
   7   1   4   63.06    2.81
   7  -1  -4   59.86    2.83
  -7   1  -4   59.76    3.50
  -9   1   4   19.18    1.38
  -9  -1  -4   19.14    1.35
   9  -1   4   16.84    1.19
   9   1  -4   17.07    1.10
   9  -1  -4   17.22    1.07
  -9  -1   4   19.70    1.36
   9   1   4   17.43    1.01
   9   1   4   18.17    1.26
  -9   1  -4   16.65    1.33
   0  -2   4    2.30    0.17
   0   2  -4    2.51    0.15
   0  -2  -4    2.51    0.17
   0   2   4    2.35    0.20
   0   2  -4    2.07    0.25
   0  -2  -4    2.26    0.16
   0  -2   4    1.96    0.20
   0   2   4    2.52    0.25
   2   2  -4    3.01    0.31
  -2   2   4    3.03    0.28
   2   2  -4    3.27    0.23
   2  -2   4    3.43    0.17
  -2   2   4    3.11    0.30
   2  -2   4    3.07    0.25
   2  -2   4    3.38    0.27
   2  -2  -4    3.00    0.18
   2   2   4    3.42    0.24
  -2  -2   4    3.64    0.30
  -2   2  -4    3.24    0.32
   2  -2  -4    3.38    0.24
   2   2   4    3.59    0.31
   2   2   4    3.38    0.26
  -2  -2   4    3.50    0.22
   2   2   4    3.13    0.20
  -4   2   4    2.31    0.34
   4  -2   4    1.95    0.20
   4  -2   4    1.92    0.25
   4   2  -4    2.58    0.27
  -4   2   4    2.07    0.26
   4   2  -4    2.26    0.25
   4  -2  -4    1.82    0.23
  -4   2  -4    2.26    0.29
  -4  -2   4    1.85    0.22
   4   2   4    1.87    0.25
   4  -2  -4    2.06    0.19
  -4  -2   4    1.78    0.28
  -4   2  -4    1.85    0.26
   4   2   4    2.55    0.29
   4   2   4    1.86    0.21
  -6   2   4    0.92    0.35
   6   2  -4    0.62    0.22
   6  -2   4    0.92    0.24
  -6  -2  -4    1.04    0.28
  -6  -2   4    1.08    0.30
  -6   2  -4    0.93    0.29
   6  -2  -4    0.98    0.23
   6   2   4    1.12    0.27
   6   2   4    1.20    0.23
  -6  -2   4    1.06    0.23
  -8  -2  -4    0.04    0.32
  -8   2   4    0.43    0.40
   8   2  -4    1.81    0.35
   8  -2   4    0.45    0.28
  -8   2  -4    0.53    0.33
   8   2   4    1.03    0.35
   8   2   4    1.08    0.27
  -8  -2   4    0.71    0.35
   8  -2  -4    0.82    0.26
   1  -3   4  286.31   14.76
   1   3  -4  282.85   16.13
   1  -3   4  276.61   13.14
  -1  -3  -4  242.74   13.14
  -1   3   4  282.66   14.75
  -1   3   4  267.01   16.12
   1   3  -4  289.73   11.98
   1   3   4  292.30   11.99
  -1  -3   4  288.52   14.77
  -1   3  -4  288.12   16.13
   1  -3  -4  293.05   13.08
   1  -3  -4  284.14   11.99
   1   3   4  264.02   16.12
   1   3   4  286.39   14.72
  -1  -3   4  279.31   13.11
  -3   3   4  292.51   17.10
  -3  -3  -4  300.43   15.64
   3  -3   4  284.34   13.99
  -3   3   4  297.85   15.75
   3   3  -4  303.94   17.12
  -3  -3  -4  291.15   14.01
   3   3  -4  306.27   12.77
   3  -3   4  287.25   12.71
   3   3   4  289.33   17.11
  -3   3  -4  298.20   15.69
   3   3   4  314.32   12.76
  -3   3  -4  317.41   17.13
  -3  -3   4  296.80   15.71
   3  -3  -4  294.83   13.91
  -3  -3   4  301.88   13.96
   3  -3  -4  283.39   12.77
  -5  -3  -4  111.81    5.25
  -5   3   4  101.06    5.95
   5   3  -4  107.64    4.77
  -5  -3  -4  106.63    5.82
   5  -3   4  107.14    5.21
   5  -3  -4  113.29    4.76
  -5  -3   4  113.51    5.85
   5   3   4  102.58    4.73
   5   3   4  110.03    5.24
  -5   3  -4  103.83    5.85
  -5  -3   4  107.80    5.18
   7  -3   4   65.62    3.50
   7   3  -4   68.66    3.23
  -7  -3  -4   66.53    3.55
  -7   3   4   71.54    4.08
  -7   3  -4   63.92    3.95
   7   3   4   73.12    3.18
   7  -3  -4   69.80    3.19
  -7  -3   4   71.08    3.92
  -7  -3   4   76.05    3.47
   9   3  -4   22.14    1.31
  -9   3   4   23.00    1.63
   9  -3   4   22.18    1.38
   9   3   4   21.81    1.18
  -9   3  -4   21.75    1.57
   9  -3  -4   20.77    1.23
   0   4  -4  429.26   23.54
   0   4   4  410.83   21.50
   0  -4  -4  421.69   17.50
   0   4  -4  415.08   17.46
   0  -4   4  401.90   19.15
   0   4   4  374.44   23.52
   0  -4   4  410.90   21.53
   0  -4  -4  412.29   19.13
   2  -4   4  425.62   21.35
   2  -4   4  473.44   23.99
  -2   4   4  424.11   26.16
  -2  -4  -4  459.95   21.39
   2   4  -4  463.36   19.51
  -2   4   4  473.77   24.00
   2   4  -4  478.74   26.20
   2   4   4  465.16   19.49
   2   4   4  464.52   23.92
  -2  -4   4  460.83   23.99
   2  -4  -4  424.38   19.49
  -2  -4   4  461.96   21.33
   2   4   4  440.94   26.19
  -2   4  -4  486.48   26.21
   2  -4  -4  437.25   21.28
  -4   4   4  282.02   15.49
   4   4  -4  303.41   12.54
  -4   4   4  288.87   16.75
   4  -4   4  286.62   13.72
  -4  -4  -4  297.76   13.78
  -4  -4  -4  307.20   15.36
   4   4  -4  296.26   16.79
  -4  -4   4  280.96   13.70
  -4   4  -4  303.56   16.82
   4   4   4  285.28   16.77
   4  -4  -4  290.11   12.53
   4   4   4  293.83   12.52
  -4   4  -4  299.27   15.41
  -4  -4   4  259.13   15.38
   6  -4   4  112.15    5.71
  -6   4   4  111.46    6.55
  -6  -4  -4  111.47    5.77
   6   4  -4  121.53    5.26
  -6  -4   4  131.79    6.42
   6   4   4  121.90    5.22
  -6  -4   4  126.48    5.71
   6  -4  -4  116.16    5.21
  -6   4  -4  108.42    6.46
  -8   4   4   72.68    3.91
   8   4  -4   60.40    3.05
   8  -4   4   59.51    3.28
  -8  -4  -4   67.93    3.40
   8   4   4   68.08    2.99
  -8   4  -4   61.60    3.75
   8  -4  -4   61.94    2.99
  -1   5   4  126.07    6.93
   1  -5   4  136.17    6.97
  -1   5   4  122.93    7.65
   1   5  -4  132.39    7.67
   1  -5   4  130.34    6.20
  -1  -5  -4  135.75    5.66
   1   5  -4  118.48    5.63
  -1  -5  -4  132.27    6.20
   1  -5  -4  136.17    5.66
  -1  -5   4  132.75    6.19
  -1   5  -4  134.48    7.68
   1  -5  -4  136.37    6.15
   1   5   4  128.76    6.89
  -1  -5   4  131.76    6.96
   1   5   4  132.83    5.65
   1   5   4  128.20    7.67
  -3   5   4  121.74    7.33
   3  -5   4  126.68    6.01
   3   5  -4  118.93    5.48
  -3  -5  -4  135.61    6.05
   3   5  -4  122.61    7.38
  -3   5   4  121.36    6.77
   3   5   4  118.36    7.37
  -3  -5   4  126.46    6.73
   3   5   4  128.94    5.47
  -3   5  -4  130.51    6.74
  -3  -5   4  127.36    5.99
   3  -5  -4  123.64    5.47
  -3   5  -4  127.47    7.41
   3  -5  -4  130.59    5.93
   5   5  -4   42.44    2.04
   5  -5   4   47.58    2.23
  -5   5   4   36.16    2.56
  -5  -5  -4   44.38    2.26
  -5  -5   4   42.59    2.21
   5   5   4   42.36    2.01
   5  -5  -4   43.77    2.01
  -5  -5   4   45.21    2.47
  -5   5  -4   44.32    2.53
   7   5  -4   28.13    1.43
  -7  -5  -4   27.06    1.58
  -7   5   4   28.51    1.89
   7  -5   4   25.29    1.51
   7  -5  -4   25.86    1.37
  -7  -5   4   29.38    1.52
  -7   5  -4   26.05    1.77
   7   5   4   27.02    1.37
   0   6   4    8.50    0.48
   0   6   4    7.34    0.67
   0  -6  -4    8.00    0.43
   0   6  -4    8.88    0.70
   0  -6   4    8.72    0.54
   0  -6  -4    7.55    0.45
   0  -6   4    7.87    0.48
  -2   6   4   12.57    0.91
   2   6  -4   12.52    0.63
   2  -6   4   14.83    0.73
  -2   6   4   11.77    0.77
  -2  -6  -4   11.05    0.73
   2  -6   4   12.33    0.79
   2   6  -4   12.51    0.95
  -2  -6   4   12.53    0.70
   2  -6  -4   12.80    0.64
   2   6   4   12.18    0.63
   2   6   4   12.35    0.95
  -2   6  -4   11.26    0.95
   2  -6  -4   13.14    0.65
  -2   6  -4   12.91    0.79
  -2  -6   4   11.58    0.77
   4   6  -4    7.99    0.50
  -4  -6  -4    8.66    0.61
  -4   6   4    8.30    0.64
   4   6  -4    8.28    0.73
  -4   6   4    8.07    0.69
   4  -6   4    7.78    0.55
  -4   6  -4    8.32    0.78
  -4   6  -4    8.05    0.65
   4  -6  -4    8.33    0.52
   4   6   4    8.19    0.50
  -4  -6   4    7.49    0.55
   4   6   4    7.67    0.68
  -4  -6   4    7.39    0.60
   6   6  -4    4.33    0.39
  -6   6   4    3.49    0.59
   6  -6   4    3.93    0.42
  -6  -6  -4    4.49    0.50
  -6  -6   4    4.63    0.45
  -6   6  -4    3.62    0.55
   6   6   4    4.25    0.38
   6  -6  -4    4.35    0.41
  -8  -6  -4    2.78    0.47
  -8   6   4    4.00    0.69
   8   6  -4    2.88    0.41
   8  -6   4    3.20    0.46
  -8  -6   4    3.28    0.47
   8  -6  -4    2.88    0.40
   8   6   4    3.08    0.39
  -8   6  -4    3.04    0.56
   1  -7   4  176.45    9.18
   1  -7   4  171.50    8.17
  -1   7   4  156.90   10.10
  -1  -7  -4  176.74    8.17
   1   7  -4  171.70   10.15
  -1  -7  -4  177.38    7.46
  -1   7  -4  175.65   10.18
  -1  -7   4  171.04    9.15
   1   7   4  163.75   10.14
  -1  -7   4  178.74    8.17
   1  -7  -4  175.21    8.12
   1  -7  -4  176.27    7.46
   3   7  -4  170.63   10.12
  -3  -7  -4  167.81    8.21
  -3   7   4  167.74    9.19
   3   7  -4  180.94    7.44
   3  -7   4  169.69    8.17
  -3   7   4  176.13   10.04
   3   7   4  166.43   10.09
   3  -7  -4  165.02    7.44
  -3   7  -4  177.31    9.20
   3   7   4  177.93    7.46
  -3   7  -4  169.07   10.17
  -3  -7   4  172.80    8.17
  -5  -7  -4   69.38    3.27
   5   7  -4   67.40    2.92
  -5   7   4   59.24    3.70
   5  -7   4   64.99    3.22
  -5  -7   4   62.15    3.23
   5   7   4   60.96    2.93
   5  -7  -4   66.36    2.94
  -5   7  -4   65.26    3.70
  -7  -7  -4   44.26    2.33
   7  -7   4   40.34    2.27
   7   7  -4   42.09    2.07
  -7   7   4   44.68    2.77
   7  -7  -4   44.27    2.09
   7   7   4   44.70    2.10
  -7   7  -4   41.55    2.68
  -7  -7   4   46.88    2.32
   0   8   4  110.23    7.31
   0  -8   4  124.70    6.57
   0  -8   4  123.06    5.87
   0  -8  -4  129.38    5.35
   0   8  -4  124.80    7.39
   0  -8  -4  124.22    5.83
  -2   8   4  147.91    8.26
   2  -8   4  138.87    6.65
   2   8  -4  136.17    8.32
  -2  -8  -4  141.28    6.68
  -2   8  -4  149.96    7.49
   2   8   4  125.54    8.27
   2   8   4  138.39    6.06
  -2  -8   4  140.40    6.66
  -2   8  -4  136.43    8.36
   2  -8  -4  138.11    6.06
   4   8  -4   96.83    3.98
  -4   8   4   93.89    5.37
   4  -8   4   91.90    4.39
  -4   8   4   82.98    4.95
  -4  -8  -4   93.75    4.45
   4   8  -4   85.78    5.49
   4  -8  -4   88.95    3.99
   4   8   4   86.21    3.99
  -4   8  -4   91.64    4.99
  -4  -8   4   87.11    4.39
  -4   8  -4   86.52    5.54
   6   8  -4   39.32    1.81
  -6  -8  -4   39.20    2.04
  -6   8   4   34.94    2.37
   6  -8   4   37.32    2.01
   6   8   4   35.61    1.82
  -6  -8   4   37.36    2.03
  -6   8  -4   38.21    2.40
   6  -8  -4   38.43    1.82
  -1   9   4   22.95    1.67
  -1  -9  -4   24.54    1.25
  -1  -9  -4   23.82    1.14
   1   9  -4   23.42    1.75
   1  -9   4   23.69    1.26
   1  -9  -4   23.57    1.13
   1  -9  -4   25.00    1.22
   1   9   4   18.89    1.64
  -1  -9   4   24.31    1.27
  -1   9  -4   22.47    1.76
  -3   9   4   22.90    1.55
   3  -9   4   21.61    1.22
  -3  -9  -4   20.86    1.26
   3   9  -4   20.64    1.64
  -3   9  -4   22.81    1.43
   3   9   4   21.12    1.09
  -3   9  -4   19.12    1.67
   3  -9  -4   22.43    1.09
  -3  -9   4   22.58    1.24
   3   9   4   24.21    1.64
   5   9  -4    8.32    0.53
   5  -9   4    7.60    0.59
  -5  -9  -4    8.36    0.68
  -5   9   4    6.51    0.71
   5   9   4    7.25    0.53
   5  -9  -4    7.34    0.54
  -5  -9   4    6.96    0.63
  -5   9  -4    7.93    0.79
  -7  -9  -4    4.45    0.56
  -7   9   4    4.91    0.74
   7  -9   4    4.33    0.53
   7   9  -4    4.57    0.45
   7  -9  -4    4.78    0.50
  -7   9  -4    5.37    0.77
  -7  -9   4    4.57    0.57
   0  10  -4    6.55    0.82
   0 -10   4    7.77    0.54
   0 -10  -4    8.31    0.48
   0 -10  -4    7.82    0.51
   0  10   4    6.36    0.75
   2  10  -4    9.88    1.03
  -2 -10  -4   11.15    0.74
  -2  10   4   12.24    1.00
  -2 -10  -4   11.26    0.64
   2 -10   4   10.24    0.70
   2 -10  -4   10.57    0.62
  -2 -10   4   11.37    0.73
  -2  10  -4   12.41    1.16
   2  10   4   12.35    1.05
   4 -10   4    6.72    0.56
   4  10  -4    6.97    0.78
  -4 -10  -4    6.60    0.62
  -4  10   4    7.78    0.72
   4 -10  -4    6.99    0.52
   4  10   4    6.73    0.50
  -4 -10   4    6.20    0.59
  -4  10  -4    7.84    0.77
  -4  10  -4    6.40    0.84
  -6 -10  -4    4.44    0.55
   6 -10   4    3.57    0.48
  -6 -10   4    3.03    0.50
   6  10   4    3.48    0.41
  -6  10  -4    3.43    0.64
   6 -10  -4    3.60    0.44
   1  11  -4   46.04    3.08
  -1 -11  -4   46.73    2.32
  -1  11   4   45.15    3.01
  -1 -11  -4   47.79    2.11
   1 -11   4   45.83    2.33
  -1 -11   4   45.60    2.34
  -1  11  -4   43.65    3.09
   1  11   4   40.74    2.99
   1 -11  -4   45.78    2.10
   3  11  -4   52.99    3.38
   3 -11   4   48.62    2.60
  -3 -11  -4   47.21    2.64
  -3  11   4   53.22    3.29
  -3 -11   4   50.78    2.64
   3  11   4   60.84    3.40
  -3  11  -4   52.22    3.42
   3  11   4   47.65    2.34
   3 -11  -4   46.46    2.34
  -5 -11  -4   20.63    1.24
   5 -11   4   18.92    1.16
   5  11   4   16.26    1.00
  -5 -11   4   17.70    1.16
   0 -12   4   16.97    1.03
   0 -12  -4   17.81    0.92
   0  12  -4   17.82    1.49
   0  12   4   14.47    1.37
  -2 -12  -4   21.81    1.17
  -2 -12  -4   23.15    1.33
   2 -12   4   20.57    1.28
   2  12  -4   21.38    1.74
  -2  12   4   22.84    1.73
   2 -12  -4   21.20    1.15
   2  12   4   23.56    1.76
  -2 -12   4   22.72    1.34
  -2  12  -4   26.94    1.88
   4 -12   4   13.35    0.93
  -4  12   4   13.72    1.14
  -4 -12  -4   13.07    1.00
  -4  12  -4   10.39    1.16
  -4 -12   4   13.52    0.97
   4  12   4   16.93    1.27
   4  12   4   12.42    0.80
   1  13  -4    0.51    0.37
  -1  13   4    0.54    0.39
  -1 -13  -4    0.84    0.24
   1 -13   4    0.50    0.27
  -1  13  -4    1.83    0.53
   1 -13  -4    0.60    0.22
   1  13   4    0.41    0.38
  -1 -13   4    2.40    0.40
  -3 -13  -4    0.39    0.36
  -3 -13  -4    0.14    0.23
  -3  13   4    0.90    0.41
   3  13   4    1.22    0.45
  -3  13  -4    0.30    0.44
   0   0   5    0.01    0.08
   0   0   5    0.27    0.07
   0   0  -5    0.07    0.06
  -2   0  -5    0.02    0.12
   2   0   5    0.15    0.12
   2   0   5    1.00    0.15
   2   0   5    0.11    0.09
   2   0  -5    0.42    0.14
  -2   0   5    0.48    0.06
   2   0   5    0.60    0.08
   2   0  -5    0.46    0.13
  -2   0   5    0.14    0.11
   4   0   5    0.36    0.15
   4   0  -5    0.13    0.14
   4   0   5    0.31    0.10
  -4   0   5    0.31    0.20
   4   0  -5    0.28    0.15
  -4   0  -5    0.85    0.18
  -4   0  -5    0.25    0.16
   6   0   5    0.52    0.19
   6   0  -5    0.65    0.22
  -6   0   5    1.15    0.35
   6   0   5    0.67    0.24
  -6   0  -5    0.37    0.24
  -8   0   5    0.01    0.36
   8   0  -5    1.01    0.30
  -8   0  -5    0.55    0.36
   8   0   5    0.45    0.31
   1  -1   5   36.86    2.00
  -1   1   5   37.11    2.02
   1   1  -5   34.48    2.22
  -1   1   5   35.43    2.22
   1   1  -5   36.25    1.64
   1  -1   5   38.67    1.79
  -1  -1  -5   37.92    1.61
  -1   1  -5   37.03    1.59
  -1  -1   5   38.53    2.03
   1   1   5   35.92    1.99
   1  -1  -5   37.18    1.63
  -1  -1   5   37.77    1.75
   1   1   5   36.66    2.23
   1   1   5   36.11    1.77
  -1   1  -5   33.40    2.21
  -3   1   5   86.03    4.92
   3  -1   5   83.43    4.49
  -3   1   5   83.18    4.54
   3   1  -5   82.55    4.91
   3  -1   5   85.75    4.03
   3   1  -5   82.42    3.68
   3  -1   5   82.76    3.61
  -3   1  -5   81.15    4.91
   3   1   5   81.99    3.63
   3   1   5   83.83    4.47
  -3  -1   5   82.66    4.53
   3   1   5   87.34    4.93
   3   1   5   83.28    4.02
   3  -1  -5   83.13    3.68
  -3  -1   5   84.19    3.95
   5   1  -5    8.75    0.58
  -5  -1  -5    9.02    0.65
   5  -1   5    9.56    0.64
  -5   1   5    8.64    0.76
   5  -1   5    8.49    0.51
   5  -1  -5    9.15    0.57
  -5   1  -5    9.14    0.66
   5   1   5   10.97    0.66
   5   1   5    8.92    0.52
  -5  -1   5    8.64    0.71
   7  -1   5   16.08    1.07
   7   1  -5   16.78    0.98
  -7   1   5   18.20    1.30
  -7  -1  -5   15.13    1.17
   7  -1  -5   17.21    0.97
   7   1   5   18.26    1.12
  -7  -1   5   19.29    1.26
   7   1   5   17.74    0.94
  -7   1  -5   15.54    1.20
  -9   1   5    4.81    0.74
  -9   1  -5    4.19    0.65
  -9  -1   5    4.79    0.70
   0   2  -5   55.25    3.49
   0   2   5   58.00    3.49
   0   2   5   60.18    3.16
   0  -2   5   58.25    3.17
   0  -2   5   61.58    2.81
   0   2  -5   56.69    2.55
   0  -2  -5   61.11    2.57
  -2   2   5    9.20    0.62
   2  -2   5    9.76    0.44
  -2   2   5    9.25    0.69
   2  -2   5   10.07    0.62
   2   2  -5    9.86    0.70
   2   2  -5    9.56    0.51
   2  -2   5   10.49    0.57
   2   2   5    9.66    0.48
  -2   2  -5    9.59    0.70
  -2  -2   5    9.25    0.51
   2  -2  -5    9.31    0.51
  -2  -2   5    9.86    0.65
   2   2   5   10.23    0.59
   2   2   5    9.57    0.69
   2   2   5    9.79    0.56
  -4  -2  -5   30.08    1.73
  -4   2   5   30.91    1.86
  -4   2   5   32.53    1.93
   4  -2   5   30.50    1.61
   4   2  -5   31.18    1.47
   4   2  -5   31.14    1.92
   4  -2  -5   31.96    1.47
   4   2   5   33.00    1.63
  -4   2  -5   29.57    1.77
   4   2   5   32.97    1.94
   4   2   5   30.58    1.43
  -4  -2   5   27.29    1.79
  -4   2  -5   31.53    1.93
  -4  -2   5   30.62    1.55
  -6   2   5   10.75    0.93
   6   2  -5   11.64    0.71
   6  -2   5   10.23    0.74
  -6  -2  -5   11.28    0.83
   6   2   5   11.23    0.66
  -6   2  -5   10.57    0.83
  -6  -2   5   11.95    0.87
   6   2   5   11.72    0.79
   6  -2  -5   11.59    0.69
  -8   2   5    7.45    0.79
   8   2  -5    6.39    0.59
   8  -2   5    6.93    0.63
   8   2   5    6.95    0.54
  -8  -2   5    6.85    0.70
   8  -2  -5    5.71    0.53
  -8   2  -5    5.88    0.67
   8   2   5    6.87    0.68
   1   3  -5    0.98    0.11
  -1  -3  -5    1.07    0.17
   1  -3   5    0.96    0.15
   1  -3   5    1.08    0.14
  -1   3   5    0.88    0.14
   1   3  -5    0.75    0.18
  -1   3   5    1.02    0.20
  -1  -3  -5    1.52    0.12
  -1   3  -5    0.80    0.19
  -1  -3   5    1.21    0.17
   1  -3  -5    1.01    0.13
  -1  -3   5    0.89    0.11
   1   3   5    0.90    0.12
   1   3   5    0.87    0.18
   3  -3   5    8.33    0.56
   3   3  -5    7.65    0.45
  -3  -3  -5    7.10    0.52
   3  -3   5    8.22    0.51
  -3   3   5    7.90    0.58
   3   3  -5    7.85    0.62
  -3   3   5    8.07    0.61
  -3  -3   5    8.86    0.59
   3  -3  -5    7.70    0.47
   3   3   5    7.18    0.60
   3   3   5    8.08    0.53
   3   3   5    7.99    0.50
  -3  -3   5    8.14    0.46
   3   3   5    7.82    0.43
  -3   3  -5    7.32    0.62
   5  -3   5    1.52    0.27
  -5  -3  -5    1.70    0.26
   5   3  -5    1.11    0.23
  -5   3   5    1.01    0.31
  -5  -3   5    1.42    0.30
   5   3   5    1.25    0.21
  -5   3  -5    1.42    0.27
   5  -3  -5    1.27    0.24
  -5  -3   5    1.29    0.22
   5   3   5    1.88    0.31
   7   3  -5    2.11    0.34
   7  -3   5    1.84    0.34
  -7  -3  -5    1.02    0.34
  -7   3   5    1.28    0.42
  -7  -3   5    1.73    0.39
  -7   3  -5    1.58    0.40
   7  -3  -5    1.66    0.31
   7   3   5    1.86    0.29
   9   3   5    0.50    0.28
  -9  -3   5    0.42    0.38
   0  -4  -5   59.40    2.55
   0   4   5   58.55    3.11
   0  -4   5   57.59    2.78
   0   4  -5   56.06    2.50
   0  -4   5   59.59    3.15
   0  -4  -5   58.59    2.75
   0   4  -5   56.15    3.47
   0   4   5   57.67    3.48
  -2   4   5   52.88    2.92
   2   4  -5   53.98    3.22
  -2  -4  -5   53.41    2.64
   2  -4   5   53.86    2.92
   2  -4   5   54.61    2.62
   2   4  -5   54.25    2.37
  -2   4   5   51.06    3.20
   2   4   5   53.65    3.23
  -2  -4   5   50.98    2.56
   2   4   5   53.81    2.36
   2   4   5   52.72    2.85
  -2  -4   5   53.62    2.93
   2  -4  -5   55.27    2.37
  -2   4  -5   52.29    3.22
   4   4  -5   33.49    1.53
  -4  -4  -5   31.96    1.79
  -4   4   5   31.64    1.93
  -4  -4  -5   28.69    1.70
   4  -4   5   32.38    1.67
   4   4  -5   32.20    2.03
  -4   4   5   33.19    2.01
   4  -4  -5   33.89    1.54
   4   4   5   32.08    1.50
   4   4   5   32.63    2.02
  -4  -4   5   29.67    1.87
  -4   4  -5   31.21    1.85
  -4   4  -5   32.99    2.05
  -4  -4   5   32.90    1.64
   6   4  -5   14.17    0.83
  -6  -4  -5   12.63    0.92
  -6   4   5   12.19    1.08
   6  -4   5   13.83    0.88
  -6   4  -5   11.43    0.98
   6  -4  -5   15.00    0.81
  -6  -4   5   15.52    1.00
   6   4   5   13.28    0.78
  -6  -4   5   15.24    0.87
  -8   4   5    7.38    0.83
   8   4  -5    7.67    0.64
  -8  -4  -5    5.89    0.72
   8  -4   5    6.03    0.62
   8   4   5    7.09    0.56
   8  -4  -5    6.83    0.56
  -8   4  -5    5.37    0.75
   1   5  -5   66.59    4.10
   1  -5   5   70.71    3.71
  -1   5   5   65.98    4.10
  -1   5   5   66.19    3.67
   1  -5   5   68.62    3.30
   1   5  -5   69.61    2.98
  -1  -5  -5   71.51    3.01
  -1  -5  -5   66.17    3.29
   1   5   5   68.30    3.64
  -1  -5   5   67.52    3.28
  -1  -5   5   67.89    3.71
   1   5   5   69.57    4.13
   1  -5  -5   68.50    3.01
  -1   5  -5   67.85    4.11
   1  -5  -5   72.14    3.24
  -3  -5  -5  102.41    4.86
  -3   5   5   96.58    5.90
  -3   5   5   98.35    5.43
   3  -5   5  104.62    4.84
   3   5  -5   95.63    4.40
   3   5  -5   98.80    5.93
   3   5   5   98.36    5.93
  -3  -5   5  102.85    4.80
  -3   5  -5   99.61    5.95
   3  -5  -5  102.88    4.40
  -3  -5   5  100.28    5.42
  -3   5  -5   99.45    5.40
   3   5   5  102.22    4.38
   5  -5   5   23.92    1.28
  -5   5   5   20.43    1.49
   5   5  -5   22.67    1.18
  -5  -5  -5   22.77    1.32
   5   5   5   21.37    1.14
   5  -5  -5   24.02    1.16
  -5  -5   5   25.47    1.44
  -5   5  -5   22.38    1.43
  -5  -5   5   22.41    1.26
  -7   5   5   20.54    1.62
  -7  -5  -5   24.27    1.42
   7  -5   5   23.63    1.37
   7   5  -5   25.32    1.31
  -7   5  -5   22.58    1.59
   7  -5  -5   22.93    1.23
   7   5   5   24.28    1.24
   0  -6   5   31.26    1.73
   0  -6  -5   30.87    1.50
   0  -6  -5   30.99    1.40
   0  -6   5   30.36    1.54
   0   6  -5   29.36    1.98
   0   6   5   30.56    1.99
  -2   6   5   10.89    0.70
  -2  -6  -5    9.28    0.66
   2   6  -5   10.79    0.87
   2   6  -5   11.39    0.58
  -2   6   5   10.75    0.85
   2  -6   5   11.65    0.75
   2  -6   5   11.80    0.67
  -2  -6   5   11.04    0.73
  -2  -6   5   10.56    0.64
   2   6   5   11.68    0.58
   2  -6  -5   11.69    0.60
  -2   6  -5   10.61    0.90
   2   6   5   11.40    0.88
   4   6  -5   16.99    0.88
  -4  -6  -5   16.68    1.00
  -4   6   5   16.14    1.15
   4  -6   5   17.25    0.97
  -4   6   5   15.87    1.11
   4   6  -5   17.03    1.22
   4   6   5   17.44    0.87
  -4  -6   5   15.90    1.07
  -4   6  -5   16.62    1.27
  -4  -6   5   17.14    0.96
   4  -6  -5   16.60    0.88
   4   6   5   15.88    1.19
  -4   6  -5   15.90    1.07
   6   6  -5    6.02    0.51
  -6  -6  -5    6.73    0.59
   6  -6   5    6.63    0.54
  -6   6   5    5.96    0.70
  -6  -6   5    6.49    0.55
   6   6   5    5.27    0.46
   6  -6  -5    6.90    0.51
  -6   6  -5    6.06    0.66
  -8   6   5    4.53    0.73
  -8  -6  -5    4.37    0.57
   8  -6   5    3.10    0.47
   8   6  -5    3.14    0.44
   8   6   5    4.30    0.46
   8  -6  -5    3.86    0.46
  -1  -7  -5   27.08    1.24
   1  -7   5   25.59    1.36
   1   7  -5   25.27    1.78
  -1  -7  -5   26.79    1.35
   1  -7   5   27.75    1.54
  -1   7   5   25.75    1.78
  -1  -7   5   26.43    1.52
   1  -7  -5   26.66    1.24
  -1  -7   5   25.32    1.35
   1   7   5   27.43    1.82
  -1   7  -5   25.44    1.79
  -3   7   5    7.85    0.63
   3  -7   5    8.34    0.58
  -3  -7  -5    9.03    0.64
   3   7  -5    9.06    0.50
   3   7  -5    8.54    0.78
  -3   7   5    8.49    0.72
  -3  -7   5    8.05    0.62
   3   7   5    8.37    0.51
  -3   7  -5    8.45    0.85
  -3   7  -5    9.41    0.66
   3  -7  -5    8.52    0.52
  -3  -7   5    8.82    0.57
   3   7   5    8.20    0.77
  -5   7   5   10.58    0.94
   5   7  -5   12.91    0.72
  -5  -7  -5   13.98    0.86
   5  -7   5   12.72    0.81
  -5   7  -5   13.03    0.96
   5  -7  -5   11.75    0.73
   5   7   5   11.61    0.72
  -5  -7   5   11.97    0.80
   7  -7   5    2.35    0.39
   7   7  -5    2.17    0.34
  -7   7   5    1.79    0.52
  -7  -7  -5    2.18    0.42
  -7   7  -5    2.79    0.57
   7  -7  -5    2.38    0.37
   7   7   5    2.42    0.37
  -7  -7   5    2.44    0.42
   0  -8  -5   94.65    4.48
   0  -8   5   96.06    5.08
   0  -8  -5   94.61    4.12
   0  -8   5   94.46    4.52
   0   8   5   90.71    5.69
   0   8  -5   92.33    5.71
  -2  -8  -5   88.67    3.81
  -2   8   5   86.36    5.22
   2  -8   5   85.59    4.18
   2   8  -5   86.06    5.27
  -2  -8  -5   85.39    4.20
   2  -8  -5   87.33    3.81
   2   8   5   83.10    5.27
  -2  -8   5   86.83    4.18
  -2   8  -5   84.45    5.30
  -2   8  -5   90.16    4.71
   2   8   5   83.62    3.79
  -4   8   5   61.42    3.51
  -4  -8  -5   60.30    2.92
   4   8  -5   57.45    3.63
   4  -8   5   57.01    2.86
  -4   8   5   52.98    3.20
  -4   8  -5   51.25    3.66
   4  -8  -5   55.18    2.59
  -4   8  -5   56.59    3.24
   4   8   5   56.92    2.59
  -4  -8   5   56.08    2.85
  -6   8   5   20.73    1.68
   6   8  -5   27.32    1.31
   6  -8   5   26.74    1.47
  -6  -8  -5   29.88    1.53
  -6   8  -5   23.91    1.75
  -6  -8   5   25.13    1.47
   6  -8  -5   25.82    1.33
   6   8   5   25.19    1.33
   1  -9   5   48.88    2.72
  -1   9   5   43.83    3.08
   1  -9   5   49.12    2.42
  -1  -9  -5   50.42    2.40
   1   9  -5   48.64    3.16
  -1  -9  -5   47.27    2.19
  -1   9  -5   46.90    3.17
   1   9   5   47.28    3.14
  -1  -9   5   49.20    2.42
   1  -9  -5   48.65    2.19
   3   9  -5   56.02    3.65
  -3  -9  -5   50.42    2.86
  -3   9   5   57.98    3.54
   3  -9   5   55.53    2.84
   3   9   5   65.27    3.67
  -3  -9   5   57.69    2.85
   3   9   5   54.38    2.57
   3  -9  -5   57.29    2.58
  -3   9  -5   51.88    3.68
  -3   9  -5   58.40    3.22
  -5  -9  -5   22.44    1.25
   5  -9   5   18.44    1.14
   5  -9  -5   19.32    1.06
  -5  -9   5   17.98    1.17
   5   9   5   17.58    1.03
  -5   9  -5   20.56    1.42
  -7   9   5   14.48    1.25
   7  -9  -5   16.36    0.96
  -7  -9   5   15.34    1.07
   0 -10   5    4.56    0.41
   0  10   5    3.95    0.65
   0  10  -5    4.70    0.74
   0 -10  -5    4.54    0.35
   2  10  -5    2.99    0.59
  -2  10   5    2.81    0.52
   2 -10   5    2.88    0.36
  -2 -10  -5    3.16    0.30
   2 -10  -5    3.10    0.32
  -2 -10   5    3.11    0.38
   2  10   5    2.30    0.51
  -2  10  -5    3.00    0.66
   4 -10   5    2.65    0.40
  -4  10   5    3.08    0.51
  -4 -10  -5    3.56    0.51
   4  10  -5    3.30    0.63
   4  10   5    3.35    0.37
  -4 -10   5    2.88    0.42
  -4  10  -5    2.43    0.62
  -4  10  -5    4.17    0.59
   4  10   5    3.86    0.61
   4 -10  -5    3.30    0.39
  -6 -10  -5    1.28    0.40
   6 -10  -5    1.18    0.33
  -6  10  -5    1.08    0.47
  -6 -10   5    0.87    0.37
   1  11  -5   26.04    2.03
  -1  11   5   27.60    1.99
  -1 -11  -5   27.67    1.33
   1 -11   5   29.59    1.50
   1 -11  -5   28.10    1.34
  -1 -11   5   27.14    1.49
  -1  11  -5   24.93    2.06
   1  11   5   23.34    1.95
   3 -11   5   17.12    1.08
   3  11  -5   16.42    1.48
  -3  11   5   20.61    1.46
  -3 -11  -5   15.74    1.12
  -3 -11  -5   17.45    0.98
  -3  11  -5   18.19    1.60
   3 -11  -5   17.56    0.97
  -3 -11   5   18.25    1.12
   3  11   5   21.82    1.54
  -5 -11  -5   15.10    1.04
  -5 -11   5   12.26    0.95
   5 -11  -5   14.42    0.90
   0 -12   5   56.99    2.83
   0  12  -5   58.15    3.74
   0  12   5   51.84    3.64
   0 -12  -5   54.27    2.55
   2 -12   5   51.56    2.79
  -2  12   5   58.03    3.61
  -2 -12  -5   52.56    2.53
   2  12  -5   52.61    3.64
  -2  12  -5   55.61    3.71
  -2 -12   5   53.20    2.82
   2  12   5   63.77    3.70
   2 -12  -5   51.99    2.53
   4  12  -5   37.41    2.59
  -4  12   5   38.82    2.51
  -4 -12  -5   32.89    2.05
  -4  12  -5   36.49    2.63
   4 -12  -5   36.81    1.81
  -1  13   5   21.11    1.72
  -1 -13  -5   20.21    1.12
  -1  13  -5   22.70    1.79
   1 -13  -5   20.38    1.11
   3 -13  -5   21.63    1.18
   0   0   6  509.73   25.24
   0   0  -6  519.57   20.50
   0   0  -6  455.90   27.56
   0   0   6  461.46   27.56
   0   0   6  453.69   22.42
   2   0  -6  364.17   20.79
  -2   0  -6  362.82   20.78
  -2   0  -6  369.38   15.43
   2   0   6  351.52   16.93
   2   0   6  353.38   15.42
  -2   0   6  375.66   19.06
   2   0   6  370.19   19.01
   2   0  -6  342.61   15.48
   4   0   6  258.09   12.16
   4   0   6  267.40   11.04
   4   0  -6  256.36   14.86
  -4   0   6  251.79   13.69
   4   0   6  243.89   13.60
   4   0  -6  263.00   11.12
  -4   0  -6  253.83   13.60
  -4   0  -6  264.02   14.87
  -6   0  -6  131.50    7.54
  -6   0   6  146.05    7.68
   6   0  -6  141.80    6.19
   6   0   6  140.77    6.78
  -8   0  -6   42.63    2.75
   8   0  -6   44.66    2.27
  -8   0   6   53.84    2.92
   8   0   6   45.22    2.51
   1  -1   6  169.82    7.98
   1  -1   6  167.68    8.96
   1   1  -6  160.00    7.29
  -1  -1  -6  175.21    7.26
   1   1  -6  158.22    9.82
  -1   1   6  179.52    8.98
  -1   1   6  163.75    9.82
   1  -1  -6  176.07    7.29
   1   1   6  162.98    7.96
  -1   1  -6  158.68    9.82
  -1   1  -6  177.56    7.25
   1   1   6  166.50    9.82
  -1  -1   6  182.29    8.99
  -1  -1   6  169.95    7.93
   1   1   6  170.32    8.95
  -3   1   6  149.52    8.09
  -3   1   6  159.46    8.81
   3  -1   6  148.53    6.48
   3   1  -6  149.04    8.80
   3   1  -6  147.39    6.56
   3  -1   6  156.66    8.04
   3  -1   6  155.38    7.19
   3  -1  -6  149.75    6.57
  -3   1  -6  146.10    8.80
  -3  -1   6  150.68    8.09
   3   1   6  150.09    8.02
   3   1   6  150.67    6.51
   3   1   6  155.85    8.82
   3   1   6  147.17    7.18
  -5  -1  -6   65.06    3.63
  -5   1   6   64.27    3.76
   5   1  -6   66.47    3.02
   5  -1   6   69.11    3.32
   5   1   6   68.15    3.30
  -5   1  -6   65.49    3.65
   5  -1  -6   66.97    3.01
  -5  -1   6   60.60    3.71
   5   1   6   70.01    2.96
  -7  -1  -6   31.24    2.06
   7   1  -6   32.87    1.71
   7  -1   6   33.37    1.88
  -7   1   6   38.87    2.23
  -7   1  -6   31.61    2.08
   7  -1  -6   33.03    1.70
  -7  -1   6   37.32    2.17
   7   1   6   34.80    1.90
  -9   1  -6   10.94    1.00
   0   2  -6    2.49    0.19
   0  -2  -6    2.48    0.18
   0   2   6    2.41    0.28
   0  -2  -6    2.26    0.19
   0   2  -6    2.30    0.30
   0  -2   6    2.39    0.23
   0   2   6    2.50    0.22
   0  -2   6    2.20    0.19
   2   2  -6    2.29    0.21
   2  -2   6    2.15    0.24
  -2   2   6    2.73    0.26
   2  -2   6    2.06    0.22
   2   2  -6    1.67    0.28
  -2   2   6    1.90    0.29
  -2  -2   6    2.17    0.26
   2   2   6    1.82    0.28
   2   2   6    1.98    0.16
  -2   2  -6    2.28    0.32
   2   2   6    1.99    0.22
   2  -2  -6    2.11    0.22
  -2  -2   6    1.94    0.16
  -2   2  -6    2.01    0.13
   2   2   6    2.04    0.19
   4   2  -6    1.49    0.28
   4  -2   6    1.40    0.25
  -4   2   6    1.53    0.28
  -4   2   6    1.56    0.30
   4   2  -6    1.91    0.25
   4   2   6    1.65    0.29
  -4  -2   6    1.91    0.32
   4   2   6    1.47    0.25
  -4   2  -6    1.44    0.29
  -4   2  -6    2.13    0.27
   4  -2  -6    1.92    0.26
   4   2   6    1.71    0.19
   6   2  -6    1.00    0.26
  -6   2   6    1.12    0.37
   6  -2   6    0.80    0.26
  -6  -2  -6    0.79    0.26
  -6  -2   6    0.88    0.31
   6   2   6    0.78    0.26
  -6   2  -6    0.92    0.28
   6   2   6    0.63    0.19
   8   2  -6    0.59    0.29
  -8   2   6    0.03    0.40
   8  -2   6    0.59    0.31
  -8  -2   6    0.58    0.36
   8   2   6    0.40    0.24
   8  -2  -6    0.50    0.26
  -8   2  -6    0.55    0.34
   8   2   6    0.70    0.36
   1  -3   6  191.10   10.12
  -1  -3  -6  169.57    9.01
   1  -3   6  190.81    9.01
   1   3  -6  190.30   11.09
  -1   3   6  185.23   11.08
  -1   3   6  200.28   10.12
  -1  -3  -6  198.46    8.21
   1   3  -6  189.99    8.20
   1   3   6  192.11   10.09
   1  -3  -6  202.70    8.23
  -1   3  -6  194.00   11.10
   1   3   6  186.51   11.09
  -1  -3   6  186.96    8.97
  -1  -3   6  198.07   10.14
   3   3  -6  170.68    7.20
   3  -3   6  164.03    8.84
  -3   3   6  162.66    9.66
  -3   3   6  171.78    8.89
   3  -3   6  167.77    7.90
   3   3  -6  166.15    9.67
  -3  -3  -6  157.20    7.90
   3   3   6  166.49    8.79
  -3  -3   6  176.92    8.89
   3   3   6  156.75    7.89
  -3  -3   6  168.42    7.82
  -3   3  -6  169.53    9.68
   3   3   6  165.20    9.67
   3   3   6  167.20    7.17
   3  -3  -6  160.62    7.20
  -5  -3  -6   82.65    4.42
   5  -3   6   78.52    4.00
   5   3  -6   85.23    3.67
  -5  -3   6   81.91    4.50
   5  -3  -6   78.03    3.64
   5   3   6   81.14    3.62
  -5   3  -6   82.61    4.47
   5   3   6   80.28    4.02
   7  -3   6   37.55    2.16
  -7  -3  -6   38.06    2.20
   7   3  -6   43.44    2.02
  -7  -3   6   44.14    2.45
  -7   3  -6   38.63    2.44
   7  -3  -6   39.89    1.96
   7   3   6   40.70    1.95
  -9  -3   6   17.86    1.34
   0   4   6  310.19   19.15
   0  -4   6  333.88   17.52
   0   4  -6  331.68   19.16
   0  -4  -6  349.65   14.23
   0  -4   6  326.27   15.57
   0  -4  -6  335.24   15.52
   0   4   6  338.52   17.48
   2   4  -6  247.85   10.46
   2  -4   6  247.94   11.49
   2  -4   6  243.87   12.88
   2   4  -6  251.82   14.10
  -2   4   6  238.09   12.88
  -2  -4  -6  237.31   11.50
  -2   4   6  229.67   14.08
   2  -4  -6  249.34   10.48
   2   4   6  241.45   10.45
  -2  -4   6  234.10   11.43
  -2   4  -6  247.04   14.10
   2   4   6  247.70   12.82
   2   4   6  233.55   14.09
  -2  -4   6  259.25   12.92
   4   4  -6  178.63    7.53
   4   4  -6  182.16   10.11
  -4   4   6  170.70   10.07
  -4   4   6  174.98    9.32
   4  -4   6  175.68    8.25
  -4  -4  -6  161.81    8.28
   4   4   6  179.14   10.10
   4   4   6  173.10    7.50
   4  -4  -6  166.87    7.53
  -4  -4   6  185.98    8.20
  -4   4  -6  174.89   10.11
  -4  -4   6  159.27    9.26
  -4   4  -6  165.93    9.23
  -6  -4  -6   91.11    4.44
  -6   4   6   82.54    5.03
   6   4  -6   94.85    4.04
   6  -4   6   91.38    4.39
  -6  -4   6   95.41    4.93
  -6   4  -6   82.08    4.91
   6   4   6   83.21    3.96
  -8  -4  -6   30.52    1.86
  -8   4   6   31.08    2.15
   8   4  -6   33.75    1.71
   8  -4   6   28.58    1.76
   8  -4  -6   30.52    1.60
   8   4   6   31.43    1.59
  -8  -4   6   34.24    1.98
  -8   4  -6   28.73    2.03
  -1   5   6   76.38    4.23
   1   5  -6   78.21    4.72
  -1  -5  -6   75.94    3.78
   1  -5   6   79.98    4.27
   1  -5   6   82.55    3.80
  -1  -5  -6   79.76    3.45
  -1   5   6   78.58    4.72
   1   5   6   80.88    4.20
  -1  -5   6   75.57    3.77
   1  -5  -6   79.90    3.46
  -1  -5   6   80.30    4.28
   1   5   6   79.25    4.74
  -1   5  -6   77.63    4.72
   3  -5   6   68.08    3.81
   3   5  -6   69.26    4.20
  -3  -5  -6   70.88    3.44
   3  -5   6   72.00    3.42
   3   5  -6   69.30    3.10
  -3   5   6   78.95    4.20
  -3   5   6   64.86    3.81
   3  -5  -6   65.02    3.09
   3   5   6   68.84    4.21
  -3   5  -6   71.16    4.23
   3   5   6   68.74    3.08
  -3  -5   6   68.64    3.83
  -3  -5   6   68.22    3.36
  -5  -5  -6   28.71    1.66
   5  -5   6   31.67    1.63
   5   5  -6   31.97    1.50
  -5   5   6   30.57    1.91
  -5  -5   6   30.62    1.60
  -5   5  -6   28.76    1.80
  -5  -5   6   29.07    1.82
   5   5   6   29.61    1.45
   5  -5  -6   29.17    1.48
  -7   5   6   13.05    1.17
   7   5  -6   15.82    0.93
  -7  -5  -6   15.16    1.03
   7  -5   6   13.88    0.95
   7   5   6   14.85    0.87
  -7   5  -6   13.43    1.12
   7  -5  -6   14.29    0.86
   0  -6   6   10.30    0.67
   0  -6  -6    9.78    0.53
   0   6  -6    8.81    0.79
   0  -6   6    9.91    0.58
   0   6   6    9.89    0.81
  -2  -6  -6    8.66    0.48
   2  -6   6    8.46    0.62
  -2   6   6    8.06    0.71
   2  -6   6    8.68    0.56
   2   6  -6    9.01    0.74
  -2   6   6    8.75    0.58
  -2  -6  -6    6.83    0.54
  -2  -6   6    8.50    0.53
   2   6   6    8.08    0.74
  -2   6  -6    8.26    0.76
   2   6   6    9.01    0.48
   2  -6  -6    8.86    0.50
  -2  -6   6    8.50    0.63
   4  -6   6    6.98    0.51
   4   6  -6    7.04    0.47
   4   6  -6    6.87    0.66
  -4   6   6    5.84    0.56
  -4   6   6    6.12    0.59
  -4  -6  -6    6.72    0.55
  -4  -6   6    6.33    0.58
   4   6   6    6.08    0.64
   4  -6  -6    5.67    0.47
  -4   6  -6    6.16    0.54
  -4  -6   6    6.62    0.48
  -4   6  -6    6.67    0.71
   4   6   6    6.02    0.43
  -6  -6  -6    3.94    0.49
  -6   6   6    3.54    0.59
   6  -6   6    3.91    0.42
   6   6  -6    3.98    0.45
   6   6   6    3.97    0.42
   6  -6  -6    3.76    0.42
  -6   6  -6    4.78    0.54
   8   6  -6    3.05    0.46
  -1   7   6  114.57    6.92
   1  -7   6  113.00    5.55
  -1  -7  -6  117.48    5.53
   1   7  -6  114.58    6.92
  -1  -7  -6  115.25    5.06
   1  -7   6  118.69    6.25
  -1  -7   6  116.50    6.25
   1  -7  -6  121.03    5.07
   1   7   6  117.82    6.96
  -1   7  -6  115.35    6.93
  -1  -7   6  112.38    5.54
  -3   7   6   93.06    5.14
  -3   7   6   90.52    5.66
   3  -7   6   95.63    4.61
   3   7  -6   96.86    5.73
  -3  -7  -6   93.58    4.63
   3  -7  -6   95.24    4.19
   3   7   6   98.56    4.18
  -3  -7   6   97.59    4.58
  -3  -7   6   92.39    5.16
   3   7   6   96.61    5.74
  -3   7  -6   92.03    5.15
  -3   7  -6   93.96    5.75
  -5   7   6   50.45    2.99
   5  -7   6   51.99    2.61
   5   7  -6   51.48    2.36
  -5  -7  -6   51.76    2.64
  -5  -7   6   51.83    2.61
   5   7   6   48.42    2.36
   5  -7  -6   50.59    2.39
  -5   7  -6   49.92    2.95
  -7   7   6   20.70    1.73
   7   7  -6   29.94    1.37
  -7  -7  -6   24.87    1.48
   7  -7   6   24.24    1.45
   7   7   6   24.99    1.32
   7  -7  -6   25.69    1.34
  -7   7  -6   24.18    1.75
   0   8  -6   99.38    6.17
   0  -8   6   99.71    4.92
   0  -8   6  105.57    5.54
   0  -8  -6  102.66    4.49
   0   8   6  103.64    6.20
  -2   8   6   73.67    4.55
   2   8  -6   76.24    4.60
   2  -8   6   73.98    3.64
   2  -8   6   73.79    4.10
  -2  -8  -6   76.31    3.31
  -2  -8  -6   72.47    3.64
   2  -8  -6   74.60    3.31
  -2  -8   6   74.90    3.63
   2   8   6   74.57    4.62
  -2   8  -6   71.06    4.60
   4   8  -6   54.48    3.48
  -4   8   6   56.04    3.37
   4  -8   6   53.05    2.74
  -4   8   6   49.06    3.06
  -4  -8  -6   56.39    2.79
   4  -8  -6   51.01    2.49
  -4   8  -6   50.82    3.08
   4   8   6   62.13    3.49
  -4   8  -6   51.66    3.52
   4   8   6   53.99    2.49
  -4  -8   6   55.86    2.75
  -6   8   6   26.07    1.91
   6  -8   6   30.06    1.64
  -6  -8  -6   30.53    1.67
   6  -8  -6   31.43    1.51
   6   8   6   27.49    1.49
  -6  -8   6   29.22    1.67
  -6   8  -6   30.29    1.95
  -1   9   6   12.91    1.09
   1  -9   6   12.01    0.77
   1   9  -6   12.41    1.10
  -1  -9  -6   12.61    0.69
   1  -9   6   13.58    0.89
  -1  -9   6   12.46    0.77
  -1   9  -6   11.89    1.11
   1   9   6   13.43    1.13
   1  -9  -6   13.21    0.70
  -3   9   6   12.01    0.98
  -3  -9  -6    9.21    0.75
   3  -9   6   10.39    0.73
   3   9  -6   12.36    1.06
   3   9   6   11.14    0.65
   3  -9  -6   10.30    0.65
  -3   9  -6   11.05    0.84
  -3   9  -6   10.37    1.08
   3   9   6   12.39    1.05
  -3  -9   6   11.55    0.75
  -5  -9  -6    6.05    0.59
   5  -9   6    4.68    0.47
  -5  -9   6    4.21    0.53
  -5   9  -6    4.69    0.64
   5  -9  -6    4.17    0.47
   5   9   6    4.59    0.44
   0 -10   6    8.71    0.61
   0 -10  -6    9.38    0.55
   0  10   6    7.69    0.86
   0  10  -6    7.94    0.92
  -2 -10  -6    7.32    0.52
   2  10  -6    8.68    0.90
  -2  10   6    8.03    0.84
   2 -10   6    9.45    0.61
   2  10   6    7.18    0.86
  -2  10  -6    7.56    0.92
   2 -10  -6    7.51    0.52
  -2 -10   6    7.87    0.59
  -4 -10  -6    5.56    0.60
  -4  10   6    6.15    0.66
   4  10  -6    6.19    0.80
   4 -10   6    5.57    0.53
  -4 -10   6    6.17    0.55
   4  10   6    6.76    0.78
   4 -10  -6    5.98    0.51
  -4  10  -6    5.75    0.66
  -4  10  -6    5.88    0.94
   4  10   6    4.63    0.43
  -6 -10  -6    3.60    0.54
  -6 -10   6    2.90    0.52
   1 -11   6   30.48    1.74
  -1  11   6   33.85    2.35
   1  11  -6   32.00    2.38
  -1 -11  -6   32.88    1.58
  -1 -11   6   35.00    1.77
  -1  11  -6   31.55    2.40
   1  11   6   30.26    2.33
   1 -11  -6   33.71    1.58
  -3  11   6   30.66    2.07
  -3 -11  -6   26.98    1.44
   3 -11   6   25.76    1.58
   3  11  -6   24.50    2.10
  -3  11  -6   33.36    2.32
   3  11   6   34.16    2.19
  -3 -11   6   29.04    1.63
   3 -11  -6   27.09    1.43
  -5 -11  -6   16.34    1.12
  -5  11  -6   16.29    1.36
   0  12   6   12.72    1.29
   0  12  -6   15.28    1.39
   0 -12   6   13.98    0.91
   0 -12  -6   14.13    0.81
  -2  12   6   11.52    1.13
  -2 -12  -6   10.74    0.70
   2  12  -6   11.75    1.17
   2 -12   6   10.21    0.79
   2  12   6   13.66    1.23
  -2 -12   6   11.11    0.83
  -2  12  -6   11.85    1.25
   2 -12  -6   10.73    0.70
  -4  12   6    9.07    0.96
   4  12   6    9.54    1.01
   0   0   7    0.03    0.09
   0   0  -7    0.04    0.08
   0   0  -7    0.44    0.17
   2   0   7    0.05    0.10
   2   0  -7    0.30    0.18
  -2   0   7    0.22    0.15
   2   0  -7    0.28    0.14
  -2   0  -7   -0.10    0.14
  -2   0  -7    0.27    0.08
   2   0   7    0.44    0.13
  -4   0   7    0.11    0.21
   4   0  -7   -0.03    0.17
   4   0   7    1.11    0.21
   4   0   7    0.23    0.17
   4   0  -7    0.24    0.19
  -4   0  -7    0.02    0.20
  -6   0  -7    0.09    0.22
   6   0  -7    0.58    0.24
  -6   0   7    0.38    0.32
   6   0   7    0.32    0.24
   8   0   7    1.02    0.36
  -8   0  -7    0.24    0.35
   8   0  -7    0.70    0.29
  -8   0   7    0.36    0.42
  -1   1   7   43.63    2.68
   1  -1   7   41.35    2.40
  -1  -1  -7   44.65    1.93
   1   1  -7   43.49    2.69
  -1   1   7   44.10    2.42
   1   1  -7   42.71    1.96
   1  -1   7   43.48    2.13
   1  -1  -7   44.69    1.96
   1   1   7   44.78    2.69
   1   1   7   43.97    2.12
  -1   1  -7   42.43    2.68
   1   1   7   44.03    2.40
  -1  -1   7   43.21    2.43
  -1   1  -7   44.93    1.92
   3  -1   7   14.40    0.83
   3   1  -7   14.15    0.76
  -3   1   7   13.95    0.95
  -3   1   7   16.55    1.05
   3  -1   7   14.46    0.90
   3   1  -7   13.82    1.03
  -3  -1   7   13.79    0.96
   3   1   7   15.55    1.05
   3  -1  -7   14.02    0.78
   3   1   7   14.72    0.82
   3   1   7   14.00    0.69
   3  -1  -7   15.41    1.04
  -3   1  -7   14.25    1.04
   3   1   7   14.07    0.88
   5   1  -7   22.92    1.24
  -5   1   7   23.08    1.57
   5  -1   7   26.61    1.39
  -5  -1  -7   24.44    1.46
   5   1   7   25.63    1.37
  -5  -1   7   21.13    1.53
   5  -1  -7   25.72    1.25
  -5   1  -7   23.06    1.46
   5   1   7   27.08    1.19
   7   1  -7    4.81    0.53
   7  -1   7    4.95    0.58
  -7  -1  -7    5.71    0.61
  -7   1   7    4.87    0.71
  -7   1  -7    5.42    0.61
   7  -1  -7    5.22    0.51
   7   1   7    5.75    0.57
  -7  -1   7    5.88    0.70
   0  -2  -7   20.83    0.97
   0  -2   7   20.85    1.06
   0   2   7   22.30    1.20
   0  -2   7   21.49    1.23
   0   2  -7   20.65    0.97
   0   2   7   20.39    1.38
   0   2  -7   18.59    1.37
  -2   2   7   29.05    1.67
   2   2  -7   28.40    1.35
  -2  -2  -7   28.43    1.31
   2  -2   7   27.37    1.64
  -2   2   7   28.84    1.85
   2  -2   7   30.10    1.49
   2   2  -7   29.13    1.86
   2   2   7   27.78    1.61
   2   2   7   29.05    1.86
  -2   2  -7   27.95    1.85
   2  -2  -7   30.10    1.36
   2   2   7   29.34    1.47
  -2  -2   7   30.82    1.70
  -4   2   7   12.25    0.88
   4   2  -7   12.07    0.91
   4  -2   7   11.97    0.75
   4   2  -7   12.37    0.69
  -4   2   7   12.51    0.92
   4  -2   7   11.21    0.79
  -4  -2   7   10.57    0.84
   4   2   7   12.12    0.74
   4  -2  -7   11.40    0.68
   4   2   7   11.84    0.77
  -4   2  -7   12.41    0.93
   4   2   7   11.91    0.62
   4   2   7   12.71    0.93
  -6  -2  -7   13.17    0.94
   6   2  -7   13.60    0.82
  -6   2   7   12.02    1.05
   6  -2   7   14.04    0.92
  -6  -2   7   15.36    1.06
   6   2   7   13.69    0.91
  -6   2  -7   12.92    0.95
   6   2   7   13.40    0.77
   6  -2  -7   14.45    0.83
   8  -2   7    4.58    0.59
  -8   2   7    3.92    0.72
   8   2  -7    3.76    0.53
   8   2   7    4.82    0.63
  -8   2  -7    3.56    0.61
   8  -2  -7    4.07    0.50
  -8  -2   7    5.77    0.72
   1   3  -7    1.95    0.33
   1   3  -7    2.26    0.20
   1  -3   7    2.17    0.23
  -1   3   7    2.66    0.26
  -1  -3  -7    2.25    0.19
  -1   3   7    2.25    0.34
   1  -3   7    2.55    0.28
  -1  -3  -7    2.53    0.27
  -1   3  -7    1.96    0.33
  -1  -3   7    1.94    0.27
   1   3   7    2.08    0.33
   1   3   7    2.28    0.23
  -1  -3   7    2.19    0.19
   1  -3  -7    2.69    0.23
   3  -3   7    0.43    0.17
   3   3  -7    0.76    0.17
   3  -3   7    0.52    0.17
   3   3  -7    0.63    0.23
  -3   3   7    0.34    0.18
  -3   3   7    0.42    0.20
   3   3   7    0.54    0.14
  -3   3  -7    0.60    0.25
   3  -3  -7    0.44    0.18
   3   3   7    0.66    0.18
  -3  -3   7    0.63    0.21
   3   3   7    0.62    0.12
   3   3   7    0.56    0.21
   5   3  -7    3.17    0.36
  -5  -3  -7    2.68    0.34
   5  -3   7    3.00    0.38
  -5   3   7    3.12    0.49
  -5  -3   7    2.66    0.43
   5   3   7    3.28    0.29
  -5   3  -7    2.77    0.38
   5  -3  -7    2.47    0.33
   5   3   7    2.64    0.39
   7   3  -7    0.25    0.25
  -7  -3  -7   -0.01    0.29
  -7   3   7    0.08    0.34
   7  -3   7    0.11    0.24
  -7  -3   7    0.87    0.35
   7  -3  -7    0.29    0.24
  -7   3  -7    0.39    0.30
   7   3   7   -0.03    0.18
   0  -4   7   32.89    1.63
   0  -4  -7   33.46    1.49
   0   4   7   33.13    2.09
   0   4  -7   30.81    2.08
   0  -4   7   32.56    1.86
   0   4   7   32.86    1.81
  -2   4   7   25.63    1.71
   2  -4   7   28.36    1.39
   2   4  -7   26.26    1.72
  -2   4   7   24.31    1.51
   2  -4   7   25.53    1.52
  -2  -4  -7   25.91    1.21
  -2  -4  -7   25.13    1.38
   2   4  -7   26.06    1.21
  -2   4  -7   25.87    1.72
  -2  -4   7   25.22    1.30
   2   4   7   26.46    1.46
   2   4   7   26.39    1.72
   2  -4  -7   26.02    1.24
  -2  -4   7   27.41    1.56
  -4   4   7   16.48    1.19
   4   4  -7   17.57    1.22
  -4   4   7   17.19    1.14
  -4  -4  -7   14.36    1.00
   4  -4   7   15.74    1.06
   4  -4   7   17.95    0.99
   4   4  -7   17.85    0.90
  -4   4  -7   18.22    1.25
  -4   4  -7   15.65    1.06
   4   4   7   17.52    1.22
   4   4   7   16.77    0.85
   4  -4  -7   16.03    0.90
  -4  -4   7   15.72    1.11
  -6  -4  -7    8.12    0.72
   6  -4   7    9.28    0.68
  -6   4   7    8.56    0.84
   6   4  -7   10.18    0.66
   6  -4  -7    8.46    0.61
  -6  -4   7    9.70    0.81
   6   4   7    8.69    0.59
  -6   4  -7    7.67    0.72
  -8  -4  -7    3.25    0.59
   8   4  -7    3.35    0.51
   8   4   7    3.48    0.44
  -8  -4   7    3.13    0.55
   1  -5   7   64.63    3.03
  -1  -5  -7   60.28    2.74
  -1   5   7   59.03    3.77
  -1   5   7   60.62    3.36
   1  -5   7   61.61    3.40
   1   5  -7   59.78    3.76
  -1  -5   7   60.80    2.99
  -1  -5   7   62.73    3.42
  -1   5  -7   60.86    3.78
   1  -5  -7   63.85    2.75
   1   5   7   66.03    3.81
   1   5   7   62.13    3.33
   3  -5   7   28.56    1.71
  -3   5   7   28.64    1.71
  -3  -5  -7   28.22    1.56
   3  -5   7   31.28    1.55
   3   5  -7   28.59    1.91
  -3   5   7   28.37    1.89
   3  -5  -7   28.94    1.40
  -3   5  -7   28.72    1.93
  -3  -5   7   30.21    1.74
   3   5   7   27.16    1.35
   3   5   7   29.29    1.93
  -3  -5   7   29.94    1.48
   5  -5   7   34.87    1.80
   5   5  -7   34.27    1.65
  -5   5   7   34.02    2.09
  -5  -5  -7   32.27    1.83
  -5   5  -7   32.15    1.99
   5   5   7   33.68    1.61
  -5  -5   7   33.47    2.03
   5  -5  -7   33.37    1.64
   7  -5   7   10.09    0.77
  -7   5   7    8.48    0.92
  -7  -5  -7    9.35    0.80
   7   5  -7   10.47    0.74
   7  -5  -7    9.93    0.67
  -7   5  -7    9.12    0.86
   7   5   7    9.01    0.66
   0  -6  -7   13.93    0.73
   0  -6   7   14.81    0.94
   0   6   7   14.68    1.11
   0  -6   7   13.50    0.80
   0   6  -7   15.80    1.11
  -2   6   7   14.33    1.11
  -2   6   7   15.23    0.94
   2   6  -7   14.59    1.13
   2  -6   7   15.23    0.88
  -2  -6  -7   14.60    0.77
   2  -6   7   14.76    0.97
  -2  -6   7   15.35    1.00
  -2  -6   7   15.12    0.84
   2   6   7   17.37    1.19
   2  -6  -7   15.41    0.79
  -2   6  -7   14.11    1.14
   4  -6   7    7.57    0.56
   4   6  -7    7.67    0.72
  -4   6   7    6.72    0.67
  -4   6   7    7.63    0.65
  -4  -6  -7    7.41    0.59
  -4  -6   7    8.05    0.54
   4  -6  -7    7.76    0.53
   4   6   7    7.15    0.72
  -4  -6   7    6.53    0.63
  -4   6  -7    6.65    0.75
   4   6   7    7.79    0.49
  -4   6  -7    6.83    0.60
  -6   6   7    7.28    0.78
   6   6  -7    7.62    0.60
   6  -6   7    7.25    0.59
  -6  -6  -7    7.26    0.64
   6  -6  -7    7.82    0.56
   6   6   7    6.76    0.54
  -6   6  -7    6.79    0.70
  -1   7   7    8.32    0.78
  -1  -7  -7    8.18    0.50
   1  -7   7    8.14    0.56
   1   7  -7    8.38    0.77
   1  -7   7    7.73    0.63
  -1  -7   7    9.59    0.56
   1  -7  -7    8.25    0.50
  -1   7  -7    8.46    0.80
  -1  -7   7    8.27    0.65
   1   7   7    9.49    0.84
  -3   7   7   11.63    0.90
   3  -7   7   10.90    0.70
   3  -7   7   10.41    0.76
  -3   7   7    9.44    0.72
  -3  -7  -7    9.20    0.70
   3   7  -7   10.16    0.89
   3  -7  -7   10.71    0.62
  -3   7  -7    9.53    0.92
  -3  -7   7   10.68    0.67
  -3   7  -7    9.93    0.75
   3   7   7    9.70    0.58
   3   7   7   10.13    0.93
  -3  -7   7   10.35    0.78
   5  -7   7    2.30    0.36
  -5  -7  -7    2.15    0.39
  -5   7   7    1.81    0.40
   5   7   7    2.20    0.30
  -5   7  -7    1.87    0.39
   5  -7  -7    2.40    0.35
  -7   7   7    1.62    0.53
  -7  -7  -7    2.23    0.42
   7   7   7    2.20    0.36
   0   8   7   60.20    3.68
   0  -8   7   57.86    2.85
   0  -8  -7   55.74    2.59
   0   8  -7   55.04    3.63
   0  -8   7   59.11    3.23
   2  -8   7   45.61    2.36
  -2  -8  -7   44.48    2.13
   2   8  -7   46.44    3.01
  -2   8   7   46.49    2.99
   2  -8   7   46.39    2.66
  -2  -8   7   45.23    2.65
   2   8   7   48.42    3.07
  -2  -8   7   47.85    2.34
   2  -8  -7   47.30    2.14
  -2   8  -7   45.14    3.02
   4  -8   7   30.56    1.71
  -4   8   7   34.22    2.14
   4   8  -7   33.45    2.23
  -4  -8  -7   32.62    1.76
  -4   8  -7   29.91    2.25
  -4   8  -7   29.58    1.92
  -4  -8   7   32.12    1.72
   4   8   7   34.53    2.23
   4   8   7   30.37    1.54
   4  -8  -7   30.39    1.56
  -6   8   7   15.83    1.26
  -6  -8  -7   18.23    1.11
   6  -8   7   17.62    1.09
  -6   8  -7   16.67    1.30
   6   8   7   16.08    0.97
   6  -8  -7   17.20    0.99
   1  -9   7   39.57    2.26
   1   9  -7   37.82    2.58
  -1   9   7   38.90    2.60
   1  -9   7   38.98    1.99
  -1  -9  -7   36.98    1.79
   1   9   7   38.36    2.63
   1  -9  -7   38.68    1.80
  -1  -9   7   36.86    1.97
  -1   9  -7   38.54    2.62
  -3   9   7   22.72    1.59
  -3  -9  -7   20.62    1.10
   3  -9   7   20.57    1.23
   3   9  -7   23.03    1.67
   3  -9  -7   20.72    1.11
  -3   9  -7   21.06    1.71
   3   9   7   23.02    1.69
  -3  -9   7   21.98    1.24
  -3   9  -7   19.91    1.38
   5  -9   7   20.86    1.27
  -5  -9  -7   22.21    1.33
  -5  -9   7   22.91    1.32
  -5   9  -7   21.22    1.49
   5   9   7   20.61    1.15
   5  -9  -7   20.69    1.17
   0  10   7    2.93    0.59
   0 -10   7    3.37    0.39
   0  10  -7    3.57    0.67
   0 -10  -7    3.24    0.34
  -2 -10  -7    2.32    0.30
   2 -10   7    2.65    0.36
  -2  10   7    2.54    0.54
   2  10  -7    3.05    0.62
   2  10   7    2.57    0.57
  -2  10  -7    2.90    0.63
  -2 -10   7    2.89    0.38
   2 -10  -7    2.33    0.32
   4  10  -7    1.69    0.54
  -4  10   7    1.63    0.44
  -4 -10  -7    1.31    0.28
   4 -10   7    0.95    0.30
   4 -10  -7    1.70    0.32
   4  10   7    1.41    0.49
  -4  10  -7    1.84    0.64
  -4 -10   7    1.66    0.38
   4  10   7    1.43    0.27
  -4  10  -7    1.47    0.40
  -1 -11  -7   13.37    0.79
  -1  11   7   13.90    1.26
   1 -11   7   14.07    0.90
   1  11  -7   12.91    1.27
   1 -11  -7   14.55    0.80
  -1  11  -7   12.82    1.31
   1  11   7   13.60    1.28
  -1 -11   7   13.81    0.90
  -3  11   7   13.57    1.15
  -3 -11  -7   10.82    0.74
   3  11  -7   12.63    1.27
   3 -11   7   11.86    0.86
  -3  11  -7   11.19    1.32
   3  11   7   14.24    1.28
   3 -11  -7   11.99    0.76
  -3 -11   7   12.87    0.87
   0 -12   7   34.15    1.88
   0 -12  -7   35.45    1.71
   0  12  -7   35.16    2.59
   0  12   7   33.54    2.52
  -2 -12   7   29.37    1.72
  -2  12  -7   32.08    2.44
   0   0  -8  240.69    9.94
   0   0  -8  219.57   13.41
   0   0   8  233.46   12.25
   2   0  -8  224.78   12.57
   2   0  -8  209.53    9.34
  -2   0  -8  217.86   12.56
   2   0   8  210.04   11.44
  -2   0   8  217.01   11.50
   2   0   8  216.27   10.19
  -2   0  -8  217.39    9.27
   4   0  -8  140.97    7.89
   4   0   8  122.29    7.16
   4   0  -8  140.65    5.89
  -4   0   8  126.58    7.26
   4   0   8  132.61    6.43
  -4   0  -8  139.97    7.90
  -6   0   8   63.52    3.95
   6   0   8   75.04    3.51
  -6   0  -8   68.38    3.84
   6   0  -8   67.76    3.18
  -8   0  -8   26.20    1.81
   8   0   8   27.84    1.66
  -1   1   8  105.21    6.35
  -1  -1  -8  106.85    4.65
  -1   1   8  103.82    5.77
   1  -1   8  111.13    5.12
   1  -1   8  105.06    5.76
   1   1  -8  106.38    4.69
   1   1  -8  111.76    6.37
  -1   1  -8  110.90    4.64
  -1   1  -8  107.24    6.36
   1   1   8  109.48    6.36
   1  -1  -8  109.32    4.68
  -1  -1   8  105.42    5.78
   1   1   8  104.25    5.75
   3  -1   8   45.87    2.63
  -3   1   8   46.44    2.69
  -3  -1  -8   51.02    2.96
   3   1  -8   44.84    2.18
   3  -1   8   52.15    2.40
  -3  -1  -8   45.72    2.10
   3   1  -8   46.57    2.94
   3  -1  -8   45.09    2.18
  -3   1  -8   45.21    2.94
   3  -1  -8   49.37    2.96
  -3  -1   8   44.23    2.69
   3   1   8   47.03    2.62
   3   1   8   50.68    2.38
   3   1   8   50.39    2.97
  -5  -1  -8   53.43    2.96
   5   1  -8   50.19    2.47
   5  -1   8   58.03    2.73
  -5   1   8   51.01    3.08
  -5   1  -8   52.02    2.98
   5   1   8   54.96    2.70
  -5  -1   8   49.84    3.07
   5  -1  -8   53.14    2.47
  -7   1   8   15.87    1.22
   7   1  -8   14.51    0.92
   7  -1   8   13.59    0.97
  -7  -1  -8   13.93    1.04
   7   1   8   14.79    1.00
  -7  -1   8   14.41    1.15
  -7   1  -8   13.58    1.05
   7  -1  -8   13.51    0.89
   0  -2  -8    1.96    0.19
   0   2   8    1.72    0.23
   0   2   8    1.98    0.33
   0  -2   8    1.68    0.25
  -2   2   8    1.22    0.23
   2   2  -8    1.10    0.29
   2   2  -8    1.00    0.19
  -2  -2  -8    1.44    0.16
  -2   2   8    1.12    0.28
   2  -2   8    1.30    0.21
   2  -2  -8    1.11    0.22
   2   2   8    1.27    0.29
  -2   2  -8    1.35    0.32
   2   2   8    1.53    0.21
   4  -2   8    0.97    0.24
   4   2  -8    0.61    0.22
   4   2  -8    1.11    0.32
   4  -2   8    1.27    0.25
  -4   2   8    0.73    0.27
  -4   2   8    0.84    0.27
   4   2   8    1.67    0.25
  -4  -2   8    0.78    0.28
   4  -2  -8    0.83    0.23
   4   2   8    1.00    0.23
   4   2   8    1.77    0.37
   4   2   8    0.80    0.16
  -4   2  -8    1.32    0.36
  -6  -2  -8    0.56    0.25
  -6   2   8    0.58    0.34
   6   2  -8    0.31    0.24
   6  -2   8    0.49    0.26
   6   2   8    0.57    0.28
  -6   2  -8    0.84    0.28
   6  -2  -8    0.53    0.24
  -6  -2   8    1.16    0.39
  -8   2  -8    0.55    0.40
  -8  -2   8    0.41    0.39
   1  -3   8  112.90    6.47
   1  -3   8  132.11    5.78
  -1  -3  -8  122.42    5.24
   1   3  -8  122.80    7.14
  -1   3   8  118.36    6.46
  -1   3   8  111.90    7.12
   1   3   8  120.70    7.14
   1  -3  -8  124.16    5.26
  -1  -3   8  125.67    6.50
   1   3   8  119.89    6.43
  -1   3  -8  117.35    7.13
  -3  -3  -8   56.91    2.83
   3   3  -8   57.89    3.50
   3   3  -8   59.67    2.58
  -3   3   8   55.69    3.49
  -3  -3  -8   54.66    2.52
  -3   3   8   56.30    3.18
   3  -3   8   57.31    2.83
   3  -3   8   55.00    3.15
  -3  -3   8   57.05    3.21
   3   3   8   54.56    2.52
   3  -3  -8   54.94    2.58
   3   3   8   57.70    2.83
   3   3   8   59.26    3.10
   3   3   8   57.72    3.51
  -3   3  -8   57.35    3.51
   5  -3   8   61.75    3.07
  -5   3   8   60.72    3.51
   5   3  -8   63.33    2.81
   5  -3  -8   58.41    2.78
  -5  -3   8   55.23    3.45
  -5   3  -8   58.00    3.39
   5   3   8   63.79    3.09
   5   3   8   62.99    2.74
   7  -3   8   17.91    1.16
  -7   3   8   17.31    1.43
   7   3  -8   20.14    1.12
  -7  -3  -8   18.23    1.22
   7  -3  -8   17.53    1.05
  -7   3  -8   17.06    1.28
  -7  -3   8   19.19    1.34
   0  -4   8  157.20    7.20
   0  -4   8  154.12    8.13
   0   4  -8  146.46    8.92
   0   4   8  156.33    8.07
   0  -4  -8  148.22    6.58
   0   4   8  149.00    8.93
  -2   4   8  136.36    7.41
  -2   4   8  130.07    8.15
   2  -4   8  132.05    7.42
   2  -4   8  150.26    6.63
   2   4  -8  140.68    8.17
  -2  -4  -8  135.18    6.00
   2   4   8  139.62    8.18
  -2   4  -8  135.75    8.17
   2   4   8  140.78    7.36
   2  -4  -8  137.41    6.04
  -2  -4   8  145.40    7.47
   4   4  -8   86.97    3.78
   4   4  -8   89.04    5.11
  -4  -4  -8   80.39    4.17
   4  -4   8   81.37    4.62
  -4   4   8   86.98    4.69
  -4   4   8   83.06    5.08
   4  -4   8   84.96    4.15
  -4   4  -8   84.52    5.11
   4  -4  -8   80.64    3.78
  -4  -4   8   79.77    4.67
   4   4   8   85.96    3.73
   4   4   8   88.42    5.12
   6  -4   8   47.35    2.46
  -6   4   8   47.35    2.88
  -6  -4  -8   46.33    2.49
   6   4  -8   51.91    2.28
  -6   4  -8   43.32    2.72
   6  -4  -8   43.88    2.22
   6   4   8   46.21    2.19
  -6  -4   8   47.08    2.78
  -8  -4   8   20.23    1.47
  -1  -5  -8   42.93    1.98
  -1   5   8   41.98    2.77
  -1   5   8   43.77    2.43
   1  -5   8   41.63    2.47
   1   5  -8   43.47    2.77
   1  -5   8   46.80    2.21
  -1  -5   8   44.33    2.16
  -1   5  -8   42.01    2.77
  -1  -5   8   46.08    2.51
   1   5   8   44.19    2.79
   1  -5  -8   44.89    2.00
   3   5  -8   19.21    1.40
   3  -5   8   19.63    1.24
  -3   5   8   19.27    1.23
  -3  -5  -8   18.09    0.96
  -3   5   8   19.80    1.40
   3  -5   8   21.10    1.12
  -3  -5   8   19.91    1.27
  -3   5  -8   19.64    1.42
   3   5   8   19.98    1.42
   3  -5  -8   20.09    1.02
  -5   5   8   23.15    1.51
   5  -5   8   22.47    1.28
  -5  -5  -8   22.92    1.32
  -5  -5   8   21.92    1.46
  -5   5  -8   20.06    1.39
   5   5   8   21.86    1.13
   5  -5  -8   21.51    1.17
  -7  -5  -8    5.47    0.65
   7  -5   8    6.45    0.60
   7   5  -8    5.90    0.62
  -7   5   8    4.58    0.76
   7   5   8    4.42    0.49
  -7   5  -8    5.12    0.69
  -7  -5   8    5.89    0.68
   7  -5  -8    4.89    0.49
   0  -6   8    8.39    0.63
   0  -6   8    7.89    0.51
   0   6  -8    7.61    0.74
   0   6   8    8.48    0.76
   0  -6  -8    7.34    0.46
   2  -6   8    5.41    0.46
  -2  -6  -8    5.55    0.37
   2   6  -8    5.28    0.60
   2  -6   8    5.76    0.51
  -2   6   8    4.98    0.45
  -2   6   8    5.04    0.58
   2  -6  -8    5.10    0.39
  -2  -6   8    5.75    0.52
  -2   6  -8    5.30    0.63
  -2  -6   8    5.56    0.41
   2   6   8    5.77    0.62
   4  -6   8    4.72    0.43
   4   6  -8    4.15    0.60
  -4   6   8    4.19    0.54
  -4  -6  -8    5.09    0.48
  -4   6   8    4.66    0.50
  -4   6  -8    4.13    0.63
  -4   6  -8    4.01    0.45
   4   6   8    4.25    0.61
   4  -6  -8    3.87    0.41
  -4  -6   8    4.04    0.53
   4   6   8    4.58    0.37
   6  -6   8    3.11    0.44
  -6  -6  -8    2.79    0.44
  -6   6   8    3.37    0.59
   6  -6  -8    3.09    0.41
   6   6   8    2.48    0.35
  -6   6  -8    3.13    0.49
   1  -7   8   73.77    3.46
  -1   7   8   69.22    4.35
  -1  -7  -8   67.78    3.13
   1   7  -8   68.26    4.33
   1  -7   8   70.22    3.90
  -1  -7   8   71.16    3.43
  -1  -7   8   68.30    3.90
  -1   7  -8   68.88    4.34
   1  -7  -8   70.97    3.14
   1   7   8   73.07    4.40
   3  -7   8   35.85    1.92
  -3   7   8   36.77    2.11
   3  -7   8   36.27    2.16
   3   7  -8   36.77    2.43
  -3  -7  -8   35.03    1.71
  -3   7   8   35.47    2.38
   3   7   8   38.47    2.48
  -3   7  -8   35.53    2.45
  -3  -7   8   36.74    2.18
   3  -7  -8   36.69    1.74
  -5  -7  -8   39.76    2.04
   5  -7   8   38.25    2.02
  -5   7   8   38.99    2.32
  -5   7  -8   36.03    2.26
   5   7   8   36.75    1.81
   5  -7  -8   35.72    1.85
   0  -8  -8   49.40    2.26
   0   8  -8   46.89    3.17
   0  -8   8   50.12    2.83
   0   8   8   52.19    3.25
   0  -8   8   47.74    2.47
  -2  -8  -8   38.14    1.92
  -2   8   8   40.89    2.73
   2  -8   8   41.72    2.15
   2   8  -8   38.71    2.72
   2  -8   8   41.81    2.43
   2  -8  -8   40.59    1.94
  -2   8  -8   46.65    2.82
   2   8   8   44.73    2.83
  -2  -8   8   41.54    2.12
  -2  -8   8   40.21    2.43
   4  -8   8   26.86    1.54
   4   8  -8   28.91    2.02
  -4   8   8   27.93    1.92
  -4  -8  -8   26.59    1.38
  -4   8  -8   30.26    2.10
  -4   8  -8   27.19    1.74
   4   8   8   29.96    2.02
   4  -8  -8   25.68    1.40
   4   8   8   26.73    1.37
  -6   8   8   14.25    1.16
  -1  -9  -8    6.73    0.46
   1  -9   8    6.49    0.62
   1   9  -8    6.43    0.75
   1  -9   8    6.21    0.50
  -1   9   8    6.12    0.78
  -1   9  -8    6.72    0.80
  -1  -9   8    6.40    0.52
   1   9   8    6.35    0.79
   1  -9  -8    6.36    0.46
  -3   9   8    2.69    0.53
   3  -9   8    2.62    0.38
  -3  -9  -8    2.44    0.32
   3   9  -8    2.61    0.57
  -3  -9   8    2.65    0.37
  -3   9  -8    2.43    0.42
  -3   9  -8    2.59    0.60
   3  -9  -8    2.57    0.34
   3   9   8    3.07    0.61
  -5   9  -8    3.65    0.58
   0 -10  -8    7.73    0.52
   0  10   8    8.14    0.91
   0  10  -8    8.07    0.91
   0 -10   8    6.86    0.57
   2 -10   8    4.90    0.47
  -2  10   8    5.56    0.78
   2  10  -8    5.49    0.80
  -2 -10  -8    4.59    0.40
  -2  10  -8    4.59    0.78
   2 -10  -8    4.68    0.42
  -2  10  -8    4.30    0.56
  -2 -10   8    4.91    0.49
   2  10   8    5.12    0.83
  -4  10   8    4.77    0.70
   4  10  -8    4.19    0.77
  -4  10  -8    3.13    0.54
   4  10   8    5.51    0.82
  -4  10  -8    4.14    0.87
  -1  11   8   22.30    1.79
   1  11  -8   21.49    1.78
  -1 -11  -8   20.28    1.14
   1 -11   8   22.17    1.27
  -1 -11   8   22.89    1.29
  -1  11  -8   21.45    1.79
   1  11   8   22.11    1.81
   1 -11  -8   21.01    1.14
  -3  11   8   13.54    1.23
  -3  11  -8   11.41    1.38
  -3 -11   8   12.81    0.94
   3  11   8   16.22    1.39
   0   0  -9    0.05    0.12
   0   0   9    0.07    0.14
   0   0  -9    0.12    0.22
   2   0  -9    0.21    0.19
  -2   0   9   -0.12    0.14
   2   0   9    0.06    0.13
  -2   0  -9    0.16    0.24
   2   0  -9   -0.01    0.20
   4   0   9   -0.02    0.16
  -4   0  -9    0.16    0.28
   4   0  -9    0.63    0.29
  -4   0   9    0.14    0.22
   4   0  -9    0.11    0.20
  -6   0  -9    0.61    0.29
   6   0  -9   -0.01    0.22
   6   0   9    0.31    0.27
  -6   0   9   -0.12    0.29
  -8   0  -9    0.32    0.40
  -1   1   9   21.83    1.51
  -1  -1  -9   21.62    1.03
   1  -1   9   21.00    1.31
   1   1  -9   23.40    1.53
   1   1  -9   22.25    1.08
  -1   1   9   21.93    1.32
  -1   1  -9   21.63    1.51
   1  -1  -9   21.98    1.52
   1   1   9   20.33    1.28
   1  -1  -9   23.08    1.07
   1   1   9   22.84    1.52
  -1  -1   9   21.49    1.32
  -3  -1  -9   12.35    0.97
   3   1  -9   13.12    0.99
   3  -1   9   12.06    0.82
  -3   1   9   11.60    0.86
   3  -1   9   14.01    0.77
   3   1  -9   10.88    0.69
   3  -1  -9   13.05    1.00
  -3  -1   9   11.73    0.88
   3  -1  -9   12.15    0.71
   3   1   9   12.02    0.80
   5  -1   9   10.84    0.75
  -5  -1  -9   11.47    0.77
   5   1  -9   10.69    0.69
  -5   1   9   10.31    0.87
  -5   1  -9   10.10    0.77
  -5  -1   9    9.43    0.85
   5  -1  -9    9.89    0.67
   5   1   9    9.82    0.72
  -7  -1  -9    4.74    0.62
   7   1  -9    4.32    0.52
   7  -1   9    5.14    0.61
  -7   1   9    5.28    0.76
   7  -1  -9    4.77    0.54
  -7   1  -9    5.05    0.59
   7   1   9    5.56    0.63
  -7  -1   9    5.03    0.74
   0  -2   9   27.92    1.60
   0   2   9   26.33    1.56
   0  -2  -9   28.08    1.27
   0   2  -9   26.80    1.81
   0   2   9   26.54    1.81
   2  -2   9   10.68    0.68
  -2   2   9   10.98    0.78
   2  -2   9   10.05    0.75
  -2  -2  -9   11.88    0.59
   2   2  -9   12.15    0.65
   2   2  -9   11.25    0.91
  -2   2   9   10.81    0.89
  -2  -2   9   11.68    0.80
   2   2   9   11.17    0.73
  -2   2  -9   11.35    0.93
   2  -2  -9   11.73    0.65
   2   2   9   11.16    0.91
  -4   2   9   13.57    1.04
   4   2  -9   14.73    1.13
   4   2  -9   15.03    0.85
   4  -2   9   14.94    0.92
   4  -2   9   13.91    0.98
   4   2   9   16.43    1.19
  -4  -2   9   14.76    1.06
   4   2   9   14.48    0.95
  -4   2  -9   15.03    1.18
   4  -2  -9   16.29    1.16
   4  -2  -9   13.79    0.83
   6   2  -9    6.06    0.56
   6  -2   9    7.19    0.62
  -6   2   9    5.87    0.73
  -6  -2   9    5.86    0.71
   6   2   9    6.56    0.59
  -6   2  -9    7.01    0.64
   6  -2  -9    6.52    0.55
   1   3  -9    1.47    0.34
  -1  -3  -9    1.50    0.19
  -1   3   9    1.43    0.24
  -1   3   9    1.40    0.32
   1  -3   9    1.43    0.25
  -1   3  -9    1.10    0.32
   1   3   9    1.33    0.32
  -1  -3   9    1.84    0.30
   1   3   9    1.37    0.23
   1  -3  -9    1.54    0.22
  -3  -3  -9    0.40    0.14
  -3   3   9    0.46    0.26
   3  -3   9    0.42    0.19
   3  -3   9    0.55    0.20
  -3   3   9    0.81    0.25
   3   3  -9    0.55    0.27
  -3  -3   9    0.83    0.26
   3  -3  -9    0.52    0.22
   3   3   9    0.66    0.18
  -3   3  -9    0.38    0.29
   3   3   9    0.55    0.26
  -5   3   9    0.70    0.33
  -5  -3  -9    1.07    0.31
   5   3  -9    1.53    0.31
   5  -3   9    1.10    0.30
   5   3   9    1.24    0.32
  -5   3  -9    0.89    0.30
   5  -3  -9    1.02    0.27
  -5  -3   9    0.97    0.36
  -7  -3  -9   -0.03    0.34
   7  -3   9    0.36    0.31
  -7   3   9   -0.17    0.39
   7   3  -9    1.06    0.34
  -7  -3   9    0.88    0.40
  -7   3  -9    0.28    0.31
   7  -3  -9    0.25    0.26
   0  -4   9   15.24    0.98
   0   4   9   14.97    0.91
   0  -4  -9   14.21    0.75
   0   4  -9   14.28    1.13
   0   4   9   14.48    1.11
  -2   4   9   10.75    0.91
   2  -4   9    9.84    0.76
  -2   4   9   11.01    0.76
   2  -4   9   11.66    0.72
  -2  -4  -9   10.46    0.60
   2   4  -9   11.14    0.94
  -2  -4   9   11.61    0.82
   2   4   9   11.17    0.94
  -2   4  -9   11.45    0.95
   2   4   9   11.24    0.72
   2  -4  -9   12.12    0.66
   4  -4   9    8.38    0.61
  -4   4   9    7.39    0.68
  -4   4   9    7.53    0.74
   4  -4   9    7.50    0.65
   4   4  -9    8.61    0.80
  -4  -4  -9    7.45    0.48
   4  -4  -9    7.97    0.56
   4   4   9    8.64    0.80
  -4   4  -9    7.16    0.80
   4   4   9    7.78    0.48
  -4  -4   9    7.89    0.72
   6  -4   9    3.86    0.50
  -6  -4  -9    3.62    0.52
  -6   4   9    3.77    0.63
   6   4  -9    4.73    0.51
   6   4   9    4.43    0.40
  -6  -4   9    4.45    0.62
   6  -4  -9    4.32    0.47
  -6   4  -9    3.59    0.53
   1  -5   9   30.03    1.85
  -1  -5  -9   30.01    1.47
  -1   5   9   32.37    1.80
   1   5  -9   29.87    2.08
  -1   5   9   31.61    2.11
   1  -5   9   34.05    1.65
   1  -5  -9   31.77    1.48
  -1  -5   9   34.19    1.89
   1   5   9   30.62    2.11
  -1   5  -9   29.14    2.08
   3  -5   9   18.79    1.26
   3  -5   9   20.88    1.14
  -3   5   9   17.51    1.40
   3   5  -9   20.37    1.45
  -3  -5  -9   18.64    0.98
  -3   5   9   19.94    1.26
   3   5   9   21.12    1.48
  -3   5  -9   20.23    1.47
  -3  -5   9   20.61    1.31
   3  -5  -9   19.98    1.04
  -5   5   9   17.18    1.20
   5  -5   9   16.52    1.00
   5  -5  -9   15.64    0.92
   5   5   9   16.11    0.87
  -5   5  -9   14.28    1.08
  -5  -5   9   14.88    1.15
  -7  -5  -9    6.54    0.70
  -7  -5   9    6.55    0.76
   0  -6   9   14.41    0.83
   0  -6  -9   13.84    0.75
   0   6  -9   12.88    1.11
   0  -6   9   13.92    0.96
   0   6   9   15.45    1.16
   2   6  -9    5.87    0.65
  -2   6   9    6.02    0.50
  -2  -6  -9    5.57    0.39
  -2   6   9    6.22    0.65
   2  -6   9    5.83    0.54
   2  -6   9    6.45    0.51
  -2   6  -9    5.80    0.67
  -2  -6   9    5.58    0.56
   2   6   9    5.66    0.68
   2  -6  -9    5.85    0.43
  -4   6   9    7.33    0.76
  -4   6   9    7.82    0.67
   4  -6   9    7.00    0.66
   4   6  -9    8.29    0.80
  -4  -6  -9    7.29    0.50
   4  -6   9    7.50    0.60
   4   6   9    7.83    0.82
   4  -6  -9    7.51    0.56
  -4   6  -9    7.17    0.65
  -4   6  -9    8.65    0.88
  -4  -6   9    6.85    0.70
  -6   6   9    3.39    0.59
   6  -6   9    3.57    0.49
   6   6   9    3.05    0.39
  -6   6  -9    3.51    0.53
   6  -6  -9    3.64    0.45
  -1   7   9    3.74    0.57
   1  -7   9    2.65    0.42
   1   7  -9    3.52    0.56
  -1  -7  -9    2.65    0.30
   1  -7   9    3.22    0.38
  -1  -7   9    3.13    0.45
   1  -7  -9    3.14    0.31
  -1  -7   9    3.61    0.34
  -1   7  -9    2.77    0.52
   1   7   9    2.51    0.51
   3  -7   9    3.21    0.41
   3   7  -9    3.90    0.60
  -3  -7  -9    2.59    0.31
  -3   7   9    2.91    0.52
   3  -7   9    3.03    0.44
  -3   7  -9    3.56    0.63
   3  -7  -9    2.66    0.35
  -3  -7   9    3.49    0.51
   3   7   9    3.19    0.57
   5  -7   9    1.17    0.33
  -5   7   9    0.94    0.35
   5  -7  -9    1.64    0.35
  -5   7  -9    1.31    0.37
   5   7   9    1.28    0.28
   0   8  -9   26.43    1.95
   0  -8   9   28.74    1.74
   0  -8   9   28.31    1.49
   0  -8  -9   25.95    1.34
   0   8   9   28.82    2.02
  -2   8   9   20.64    1.60
  -2  -8  -9   20.60    1.09
   2   8  -9   19.88    1.60
   2  -8   9   21.31    1.40
   2  -8   9   21.58    1.22
  -2   8  -9   22.42    1.67
   2   8   9   21.69    1.67
  -2  -8   9   20.67    1.41
   2  -8  -9   22.13    1.12
   4  -8   9   16.22    1.00
  -4  -8  -9   14.97    0.88
  -4   8   9   16.06    1.28
   4   8  -9   15.76    1.33
   4  -8  -9   15.89    0.94
   4   8   9   16.34    1.36
  -4   8  -9   15.66    1.38
  -4   8  -9   14.02    1.11
  -1   9   9   18.99    1.58
   1   9  -9   19.71    1.56
   1  -9   9   22.10    1.19
   1  -9   9   19.95    1.35
  -1  -9  -9   18.38    1.03
  -1   9  -9   19.43    1.59
   1  -9  -9   18.15    1.03
  -1  -9   9   20.56    1.15
   1   9   9   23.14    1.69
  -3  -9  -9   12.88    0.78
  -3   9   9   14.21    1.20
   3  -9   9   12.98    0.89
   3   9  -9   13.55    1.23
  -3   9  -9   12.24    0.99
   3   9   9   14.89    1.28
  -3   9  -9   13.58    1.29
   3  -9  -9   12.37    0.79
   0  10   9    2.75    0.64
   0 -10   9    2.88    0.40
   0  10  -9    3.06    0.64
   0 -10  -9    2.90    0.35
   2  10  -9    1.45    0.48
  -2  10   9    0.87    0.46
   2 -10   9    1.04    0.31
   2 -10   9    1.57    0.39
  -2 -10  -9    1.03    0.26
   2  10   9    0.53    0.44
  -2  10  -9    1.13    0.50
   2 -10  -9    0.92    0.26
  -2 -10   9    1.14    0.31
  -4  10   9    1.57    0.50
  -1 -11   9    6.50    0.60
   0   0 -10  117.20    6.96
   0   0  10  116.49    6.29
   2   0  10   71.51    4.14
   2   0 -10   78.54    3.42
   2   0 -10   79.97    4.65
  -2   0  10   72.32    4.19
  -2   0 -10   78.11    4.64
   4   0  10   60.54    3.61
   4   0 -10   69.49    4.06
  -4   0  10   62.54    3.72
   4   0 -10   64.33    3.00
  -4   0 -10   70.02    4.08
  -6   0 -10   27.04    1.75
  -6   0  10   26.20    1.90
   6   0 -10   29.15    1.51
   6   0  10   30.82    1.65
   1   1 -10   38.07    2.39
  -1   1  10   34.46    2.09
   1  -1  10   36.70    2.10
  -1  -1 -10   36.03    2.37
  -1  -1 -10   37.60    1.67
   1   1  10   35.14    2.08
  -1   1 -10   36.99    2.38
   1  -1 -10   36.56    2.38
   1  -1 -10   39.43    1.72
  -1  -1  10   34.80    2.10
   3   1 -10   36.53    2.33
   3   1 -10   35.43    1.70
   3  -1  10   33.95    2.04
  -3  -1 -10   35.99    2.33
  -3   1  10   32.85    2.09
  -3   1 -10   38.45    2.36
   3   1  10   33.75    2.02
   3  -1 -10   37.46    2.34
   3  -1 -10   34.34    1.70
  -3  -1  10   34.96    2.11
  -5  -1 -10   13.98    0.97
  -5   1  10   15.51    1.13
   5  -1  10   13.54    0.96
   5   1 -10   12.42    0.85
   5  -1  10   15.14    0.94
   5   1  10   15.11    0.97
  -5   1 -10   13.56    0.98
  -5  -1  10   13.94    1.10
   5  -1 -10   13.00    0.84
   7  -1  10    8.35    0.76
   7   1 -10   10.01    0.76
   7   1  10   10.70    0.84
  -7   1 -10    8.53    0.84
   0  -2 -10    1.21    0.19
   0  -2  10    0.81    0.23
   0   2  10    0.90    0.20
   0   2 -10    0.79    0.30
   0   2  10    0.95    0.30
  -2   2  10    0.72    0.22
  -2  -2 -10    1.04    0.17
   2   2 -10    0.98    0.32
   2  -2  10    0.69    0.21
  -2   2  10    0.91    0.30
   2   2  10    0.82    0.29
   2  -2 -10    0.55    0.22
   2   2  10    0.89    0.21
  -2  -2  10    1.02    0.26
  -2   2 -10    1.44    0.38
   4  -2  10    1.01    0.27
   4   2 -10    0.27    0.29
  -4  -2 -10    0.61    0.34
  -4   2  10    0.61    0.29
   4   2 -10    0.47    0.25
  -4   2 -10    0.72    0.38
   4  -2 -10    0.65    0.24
  -4  -2  10    0.49    0.28
   4   2  10    0.47    0.21
   4  -2 -10    0.34    0.30
   6   2 -10    0.34    0.29
  -6   2  10    0.50    0.36
   6  -2  10    0.24    0.29
  -6  -2  10    0.17    0.35
  -6   2 -10    0.41    0.28
   6  -2 -10    0.47    0.28
  -1  -3 -10   44.14    1.96
   1  -3  10   41.56    2.45
  -1   3  10   41.49    2.75
   1   3 -10   42.52    2.76
  -1   3  10   43.94    2.43
  -1   3 -10   41.14    2.76
   1   3  10   42.23    2.76
  -1  -3  10   43.54    2.48
   1  -3 -10   44.92    1.99
   1   3  10   43.90    2.41
  -3   3  10   43.40    2.68
   3   3 -10   42.61    2.69
   3  -3  10   41.18    2.12
  -3   3  10   39.65    2.39
   3  -3  10   38.67    2.36
  -3  -3 -10   39.82    1.88
   3   3  10   40.28    2.31
   3   3  10   43.94    2.70
   3  -3 -10   41.65    1.96
  -3  -3  10   39.60    2.41
  -3   3 -10   41.61    2.70
   5  -3  10   18.54    1.09
  -5   3  10   17.52    1.27
  -5   3 -10   16.25    1.16
  -5  -3  10   15.50    1.23
   5  -3 -10   17.36    0.98
   7   3 -10   11.78    0.87
  -7  -3 -10   12.04    0.95
   0   4  10   77.09    4.00
   0  -4 -10   72.93    3.27
   0  -4  10   74.01    4.08
   0   4  10   71.94    4.51
   0   4 -10   70.88    4.51
  -2  -4 -10   46.39    2.20
   2   4 -10   47.41    3.10
  -2   4  10   49.57    3.10
   2  -4  10   46.88    2.76
  -2   4  10   49.27    2.75
  -2  -4  10   52.86    2.82
  -2   4 -10   48.25    3.11
   2  -4 -10   48.80    2.24
   2   4  10   47.79    3.11
  -4   4  10   41.64    2.50
   4  -4  10   37.35    2.44
  -4   4  10   41.93    2.73
   4  -4  10   42.49    2.21
  -4  -4 -10   40.92    1.95
   4   4 -10   44.58    2.77
  -4   4 -10   42.72    2.80
   4   4  10   47.50    2.82
   4  -4 -10   41.71    2.03
  -4  -4  10   40.75    2.51
   6  -4  10   19.07    1.19
  -6   4  10   18.37    1.42
  -6   4 -10   18.29    1.29
   6  -4 -10   19.71    1.10
  -6  -4  10   17.71    1.37
   1  -5  10   12.88    0.94
   1   5 -10   13.63    1.11
  -1   5  10   14.66    1.13
  -1  -5 -10   12.33    0.71
  -1   5  10   13.37    0.88
  -1   5 -10   13.53    1.13
  -1  -5  10   14.81    0.98
   1  -5 -10   13.44    0.75
   1   5  10   14.12    1.14
   3   5 -10   13.44    1.11
  -3   5  10   12.77    1.08
  -3  -5 -10   11.84    0.71
   3  -5  10   14.60    0.87
   3  -5  10   13.32    0.95
  -3   5  10   14.31    0.95
   3  -5 -10   13.56    0.79
   3   5  10   13.47    1.14
  -3  -5  10   13.49    0.99
  -3   5 -10   12.54    1.12
   5  -5  10    5.65    0.52
  -5  -5 -10    4.90    0.42
  -5  -5  10    4.55    0.64
   5  -5 -10    5.69    0.50
   5   5  10    5.07    0.41
  -5   5 -10    4.43    0.56
   0   6 -10    4.61    0.61
   0  -6  10    4.59    0.50
   0  -6 -10    4.33    0.35
   0   6  10    3.69    0.61
   2   6 -10    3.67    0.58
  -2  -6 -10    3.65    0.33
   2  -6  10    2.88    0.44
   2  -6  10    4.39    0.43
  -2   6  10    3.83    0.59
  -2  -6  10    3.70    0.50
   2  -6 -10    3.84    0.36
   2   6  10    4.19    0.63
  -2   6 -10    3.52    0.60
  -4   6  10    2.94    0.46
   4   6 -10    3.24    0.59
   4  -6  10    3.02    0.42
   4  -6  10    3.44    0.48
  -4   6  10    2.52    0.52
  -4  -6 -10    3.26    0.35
   4  -6 -10    3.07    0.42
  -4   6 -10    2.98    0.61
   4   6  10    2.68    0.56
  -4  -6  10    3.00    0.50
   6   6  10    1.45    0.30
   1  -7  10   29.82    1.55
  -1   7  10   26.79    2.01
   1   7 -10   27.26    1.99
   1  -7  10   29.14    1.78
  -1  -7 -10   26.51    1.37
  -1  -7  10   30.12    1.79
   1   7  10   30.72    2.08
   1  -7 -10   27.05    1.38
  -1   7 -10   27.78    2.02
   3  -7  10   25.09    1.64
  -3   7  10   24.76    1.85
  -3  -7 -10   25.36    1.29
   3  -7  10   25.98    1.45
   3   7 -10   26.00    1.88
   3  -7 -10   25.01    1.32
  -3  -7  10   25.89    1.68
   3   7  10   26.98    1.93
  -3   7 -10   26.11    1.93
   5  -7  10   12.18    0.86
  -5   7  10   12.09    0.99
  -5  -7 -10   11.62    0.75
   0   8  10   24.05    1.80
   0  -8 -10   22.66    1.17
   0   8 -10   23.45    1.75
   0  -8  10   22.30    1.51
   2   8 -10   17.20    1.37
   2  -8  10   15.03    1.14
  -2  -8 -10   13.90    0.86
   2  -8  10   16.69    1.02
  -2   8  10   16.41    1.36
  -2  -8  10   15.86    1.18
   2  -8 -10   16.55    0.91
   2   8  10   17.48    1.42
  -2   8 -10   15.84    1.38
   4  -8  10   13.21    0.90
  -4  -8 -10   12.96    0.81
   4   8 -10   14.29    1.25
  -4   8  10   14.40    1.21
  -4   8 -10   13.73    1.33
  -4   8 -10   12.18    1.03
   4   8  10   13.58    1.26
   1  -9  10    1.64    0.42
   1  -9  10    1.71    0.34
  -1  -9 -10    2.01    0.30
  -1   9  10    1.88    0.53
   1   9 -10    1.59    0.48
   1   9  10    1.42    0.50
   1  -9 -10    1.60    0.29
  -1   9 -10    2.56    0.61
  -1  -9  10    1.58    0.43
   3  -9  10    1.80    0.37
   3  -9  10    1.81    0.44
   3   9 -10    1.61    0.53
  -3   9  10    1.11    0.46
   3   9  10    2.10    0.60
  -3   9 -10    1.87    0.61
  -3   9 -10    1.55    0.40
   0 -10  10    4.51    0.49
   2 -10  10    3.68    0.60
   0   0 -11   -0.03    0.25
   0   0  11    0.39    0.20
  -2   0  11   -0.02    0.18
  -2   0 -11    0.75    0.33
   2   0  11    0.59    0.22
   2   0 -11   -0.02    0.25
   4   0 -11    0.02    0.29
  -4   0 -11    0.30    0.35
   4   0 -11    0.08    0.24
  -4   0  11    0.24    0.25
   4   0  11    0.02    0.21
  -6   0 -11    0.18    0.32
   6   0 -11    0.04    0.27
   1   1 -11    7.83    0.76
  -1  -1 -11    7.86    0.76
  -1   1  11    7.46    0.62
   1  -1  11    8.08    0.63
  -1   1 -11    7.90    0.79
   1   1  11    8.55    0.62
   1  -1 -11    7.99    0.53
  -1  -1  11    7.65    0.63
   1  -1 -11    7.88    0.78
   3   1 -11   11.98    0.99
  -3   1  11   11.26    0.85
   3  -1  11   10.50    0.80
  -3  -1 -11   11.32    0.97
   3  -1 -11   11.79    0.99
   3  -1 -11   10.89    0.69
   3   1  11   10.79    0.78
  -3  -1  11    9.78    0.83
  -3   1 -11   10.73    0.98
   5  -1  11    3.04    0.44
  -5   1  11    2.27    0.48
   5   1 -11    3.52    0.45
   5   1  11    2.99    0.42
   5  -1 -11    3.50    0.43
  -5  -1  11    2.42    0.50
   0  -2 -11    9.65    0.56
   0   2 -11    9.50    0.86
   0   2  11    9.41    0.67
   0  -2  11    9.07    0.69
   0  -2 -11    8.10    0.81
   0   2  11    9.12    0.83
   2  -2  11    9.86    0.78
  -2  -2 -11   10.47    0.94
   2   2 -11   12.20    0.99
  -2   2  11   11.65    0.81
  -2  -2  11   10.90    0.84
   2  -2 -11   10.98    0.67
   2  -2 -11   11.26    0.98
   2   2  11   11.22    0.97
   2   2  11   10.48    0.75
  -2   2 -11   12.27    1.00
   4   2 -11    7.51    0.77
   4  -2  11    5.72    0.58
  -4  -2 -11    6.68    0.78
  -4   2  11    6.76    0.66
   4   2  11    6.43    0.57
   4  -2 -11    7.08    0.56
  -4  -2  11    6.24    0.65
  -4   2 -11    7.94    0.85
   4  -2 -11    7.28    0.78
   6  -2  11    4.03    0.54
   6  -2 -11    4.09    0.48
  -6   2 -11    3.97    0.56
  -1   3  11    0.48    0.19
   1  -3  11    0.61    0.22
   1   3 -11    0.53    0.30
  -1   3  11    0.52    0.29
  -1  -3 -11    0.48    0.18
   1  -3 -11    0.85    0.22
  -1  -3  11    0.52    0.24
  -1   3 -11    0.74    0.33
   1   3  11    0.44    0.19
   1   3  11    0.39    0.27
  -3   3  11    1.81    0.43
   3  -3  11    1.71    0.32
   3   3 -11    1.77    0.44
  -3   3  11    1.65    0.35
  -3  -3  11    1.78    0.37
   3   3  11    1.71    0.44
  -3   3 -11    2.17    0.51
   3  -3 -11    1.90    0.34
  -5   3  11    0.50    0.33
   5  -3  11    0.30    0.25
  -5   3 -11    0.23    0.26
   5  -3 -11    0.21    0.25
  -5  -3  11    0.12    0.33
   0  -4 -11    4.74    0.38
   0  -4  11    5.15    0.51
   0   4  11    4.83    0.44
   0   4 -11    4.09    0.63
   0   4  11    4.52    0.60
  -2   4  11    4.75    0.47
   2   4 -11    4.37    0.66
   2  -4  11    4.60    0.48
  -2  -4 -11    4.65    0.38
  -2   4  11    4.77    0.62
  -2  -4  11    4.81    0.53
  -2   4 -11    4.95    0.69
   2   4  11    5.10    0.64
   2  -4 -11    4.22    0.40
  -4   4  11    2.78    0.46
   4  -4  11    2.48    0.43
   4   4 -11    3.60    0.61
  -4   4  11    2.89    0.54
   4  -4 -11    3.30    0.42
  -4  -4  11    3.46    0.53
  -4   4 -11    3.36    0.63
   4   4  11    3.38    0.61
   1   5 -11   11.25    1.04
  -1   5  11   12.30    1.08
  -1   5  11   12.36    0.83
  -1  -5 -11   11.00    0.67
   1  -5  11   11.80    0.90
   1  -5 -11   13.47    0.73
  -1   5 -11   11.59    1.06
  -1  -5  11   13.52    0.95
   1   5  11   13.00    1.10
  -3  -5 -11   13.51    0.78
   3   5 -11   14.93    1.22
  -3   5  11   13.42    1.00
  -3   5  11   15.14    1.20
   3  -5  11   13.13    1.01
   3   5  11   15.38    1.25
  -3  -5  11   14.84    1.09
  -3   5 -11   14.84    1.27
   3  -5 -11   14.55    0.85
   5  -5  11    5.55    0.57
  -5   5  11    5.41    0.64
  -5  -5  11    4.62    0.67
   0  -6  11    4.63    0.52
   0   6  11    4.26    0.65
   0   6 -11    3.96    0.63
   0  -6 -11    4.45    0.37
  -2  -6 -11    5.51    0.43
  -2   6  11    5.85    0.73
   2   6 -11    5.56    0.73
   2  -6  11    5.90    0.61
   2   6  11    6.58    0.79
  -2  -6  11    7.04    0.65
  -2   6 -11    5.01    0.75
   2  -6 -11    5.49    0.46
  -4   6  11    3.17    0.60
  -4  -6 -11    3.44    0.38
   4  -6  11    3.47    0.46
  -4   6  11    3.47    0.51
   4   6 -11    3.92    0.68
   4  -6  11    3.71    0.54
   4   6  11    3.93    0.69
  -4  -6  11    4.10    0.59
   4  -6 -11    3.32    0.44
  -4   6 -11    3.23    0.67
   1  -7  11    1.07    0.35
  -1  -7 -11    1.09    0.23
   1   7 -11    1.31    0.43
  -1   7  11    0.86    0.41
  -1   7 -11    1.12    0.43
  -1  -7  11    1.21    0.38
   1   7  11    1.33    0.45
   1  -7 -11    1.34    0.27
   3  -7  11    0.35    0.25
   3  -7  11    0.53    0.33
  -3   7  11    0.14    0.35
  -3  -7 -11    0.89    0.24
   3   7 -11    0.40    0.39
   3   7  11    0.22    0.39
   3  -7 -11    0.48    0.26
  -3   7 -11    0.46    0.44
  -3  -7  11    0.53    0.37
   0   8  11    9.87    1.04
   0  -8 -11    9.30    0.62
   0   8 -11   10.20    1.03
   0  -8  11   10.09    0.89
   2   8 -11   11.26    1.09
   2  -8  11   10.28    0.89
  -2  -8 -11   10.04    0.67
  -2   8  11   10.64    1.05
  -2  -8  11   10.44    0.94
   2  -8 -11    9.62    0.68
   2   8  11   10.89    1.14
  -2   8 -11   10.58    1.11
   1  -9  11    9.05    0.84
  -1  -9  11    8.92    0.85
   0   0 -12   29.37    1.88
   0   0  12   23.67    1.57
  -2   0 -12   40.69    2.58
  -2   0  12   37.17    2.27
   2   0  12   38.22    2.25
   2   0 -12   38.93    2.57
  -4   0  12   17.84    1.36
   4   0  12   18.13    1.28
   4   0 -12   22.53    1.57
  -4   0 -12   21.37    1.55
   1  -1  12   12.89    0.91
  -1   1  12   11.67    0.89
  -1  -1 -12   13.82    1.12
   1   1 -12   14.09    1.11
   1  -1 -12   12.63    1.08
  -1  -1  12   12.73    0.92
  -1   1 -12   13.27    1.12
   1   1  12   13.91    0.91
   3   1 -12   14.26    1.10
   3  -1  12   10.88    0.85
  -3  -1 -12   12.04    1.09
  -3   1  12   10.89    0.89
  -3  -1  12   11.37    0.91
  -3   1 -12   12.49    1.08
   3  -1 -12   12.78    1.10
   3   1  12   11.05    0.84
   3  -1 -12   12.02    0.76
   5  -1  12    5.76    0.61
   5   1  12    5.93    0.58
   5  -1 -12    6.46    0.58
   0  -2  12    0.27    0.21
   0   2  12    0.65    0.23
   0  -2 -12    0.69    0.33
   0   2 -12    1.48    0.41
  -2  -2 -12    0.36    0.34
   2  -2  12    0.38    0.23
   2   2 -12    0.60    0.35
  -2   2  12    0.53    0.24
   2  -2 -12    0.82    0.27
  -2  -2  12    0.55    0.26
   2   2  12    0.28    0.20
  -2   2 -12    0.28    0.34
   2  -2 -12    0.54    0.33
  -4  -2 -12    0.11    0.35
   4  -2  12    0.47    0.27
   4   2 -12    0.39    0.38
  -4   2  12    0.52    0.30
  -4  -2  12    0.48    0.34
   4  -2 -12    0.28    0.26
  -4   2 -12    0.26    0.39
   4  -2 -12    0.29    0.37
  -1   3  12   17.06    1.33
   1   3 -12   17.01    1.35
  -1   3  12   16.95    1.10
   1  -3  12   15.84    1.12
  -1  -3  12   16.07    1.14
   1   3  12   17.15    1.09
  -1   3 -12   16.64    1.35
   1  -3 -12   18.08    0.93
   1   3  12   16.46    1.34
   3  -3  12   14.66    1.07
  -3   3  12   14.96    1.08
  -3  -3 -12   15.30    1.26
   3   3 -12   16.72    1.31
  -3   3 -12   15.25    1.30
  -3  -3  12   15.13    1.13
   3  -3 -12   15.38    1.29
   3   3  12   15.75    1.29
   3  -3 -12   15.20    0.91
   5  -3 -12    8.28    0.65
   0   4  12   16.09    1.07
   0   4 -12   16.32    1.35
   0  -4 -12   16.81    0.91
   0  -4  12   18.07    1.18
   0   4  12   16.93    1.36
   2  -4  12   26.84    1.67
  -2   4  12   25.53    1.61
  -2   4  12   25.47    1.89
   2   4 -12   25.83    1.91
   2   4  12   27.73    1.95
  -2   4 -12   27.51    1.96
   2  -4 -12   26.90    1.36
  -2  -4  12   25.86    1.69
   4   4 -12   12.77    1.22
  -4   4  12   13.74    1.07
  -4   4  12   13.11    1.16
   4  -4 -12   13.61    0.88
   4   4  12   15.15    1.27
   4  -4 -12   14.87    1.22
  -4  -4  12   12.94    1.07
  -4   4 -12   13.04    1.27
  -1   5  12    4.16    0.66
   1  -5  12    4.52    0.54
   1   5 -12    4.26    0.67
  -1  -5 -12    4.14    0.38
   1   5  12    4.58    0.69
  -1  -5  12    4.17    0.56
   1  -5 -12    4.86    0.42
  -1   5 -12    3.81    0.66
  -3   5  12    4.41    0.69
  -3   5  12    4.09    0.50
   3  -5  12    4.09    0.55
   3   5 -12    4.66    0.71
   3  -5 -12    4.75    0.50
   3   5  12    4.48    0.71
  -3   5 -12    3.55    0.70
  -3  -5  12    4.69    0.63
   0  -6  12    2.14    0.43
   0   6 -12    1.34    0.45
   0  -6 -12    1.77    0.29
   0   6  12    2.21    0.53
   2  -6  12    2.43    0.45
   2   6 -12    2.70    0.54
  -2  -6 -12    1.91    0.31
  -2   6  12    1.88    0.51
  -2   6 -12    3.23    0.64
   2  -6 -12    2.27    0.35
   2   6  12    3.30    0.62
  -2  -6  12    2.58    0.50
   4   6  12    1.16    0.50
   1  -7  12   11.49    0.95
  -1  -7 -12   12.04    0.71
  -1  -7  12   11.27    0.95
   1  -7 -12   10.49    0.70
  -1   7 -12   10.49    1.09
   0   0 -13    0.29    0.33
   0   0  13   -0.01    0.20
  -2   0  13    0.07    0.23
   2   0 -13   -0.11    0.32
  -2   0 -13   -0.02    0.33
   2   0  13    0.00    0.22
  -4   0 -13    0.30    0.42
   4   0  13    0.07    0.26
   4   0 -13    0.11    0.37
  -1   1  13    3.98    0.47
  -1  -1 -13    4.03    0.64
   1  -1  13    3.61    0.44
   1   1 -13    4.27    0.63
   1   1  13    3.79    0.43
   1  -1 -13    3.84    0.61
  -1   1 -13    4.48    0.66
  -1  -1  13    4.24    0.48
  -3  -1 -13    3.21    0.59
   3   1 -13    3.51    0.63
  -3   1  13    2.75    0.46
   3  -1  13    2.82    0.43
   3  -1 -13    2.90    0.60
  -3  -1  13    2.88    0.47
   3   1  13    3.05    0.43
  -3   1 -13    3.10    0.60
   0  -2 -13    3.13    0.56
   0   2  13    3.04    0.41
   0  -2  13    3.32    0.45
   0   2 -13    3.51    0.61
  -2  -2 -13    6.33    0.76
  -2   2  13    6.63    0.62
   2   2 -13    6.95    0.79
   2  -2  13    6.06    0.59
  -2   2 -13    6.98    0.80
  -2  -2  13    6.46    0.63
   2  -2 -13    5.95    0.75
   2   2  13    6.53    0.58
   4   2 -13    3.54    0.67
  -4  -2 -13    3.60    0.68
   4  -2 -13    2.97    0.63
  -4   2 -13    4.05    0.73
   4  -2 -13    3.31    0.47
   1   3 -13    0.68    0.38
   1  -3  13    0.58    0.26
  -1  -3 -13    0.95    0.43
  -1   3  13    0.61    0.26
   1   3  13    0.75    0.25
  -1   3 -13    0.93    0.40
  -1  -3  13    0.93    0.31
   1  -3 -13    0.58    0.35
   3   3 -13    0.78    0.43
  -3   3  13    0.26    0.26
  -3  -3 -13    0.31    0.37
   3  -3 -13    0.61    0.32
  -3   3 -13    0.54    0.45
   3  -3 -13    0.11    0.35
   0  -4  13    1.97    0.42
   0   4 -13    1.89    0.50
   0   4  13    1.68    0.46
  -2   4  13    1.76    0.35
   2   4 -13    1.70    0.51
  -2   4  13    1.29    0.45
   2  -4 -13    2.12    0.37
  -2  -4  13    1.90    0.44
  -2   4 -13    1.29    0.51
   2   4  13    1.26    0.46
   1  -5 -13    5.93    0.49
   0  -6 -13    1.92    0.32
  -2  -6 -13    3.12    0.38
   0   0  14   12.09    0.91
   1   1  14    4.49    0.51
   0   2  14    0.16    0.22
   2   2  14    0.11    0.24
   0   0   0    0.00    0.00
;
_shelx_hkl_checksum              61006
#END Tags that were not found in dictionaries
loop_
_space_group_symop_operation_xyz
'x, y, z'
'-x, -y, z+1/2'
'x, -y, -z'
'-x, y, -z+1/2'
'x+1/2, y+1/2, z'
'-x+1/2, -y+1/2, z+1/2'
'x+1/2, -y+1/2, -z'
'-x+1/2, y+1/2, -z+1/2'
'-x, -y, -z'
'x, y, -z-1/2'
'-x, y, z'
'x, -y, z-1/2'
'-x+1/2, -y+1/2, -z'
'x+1/2, y+1/2, -z-1/2'
'-x+1/2, y+1/2, z'
'x+1/2, -y+1/2, z-1/2'
loop_
_atom_site_label
_atom_site_type_symbol
_atom_site_fract_x
_atom_site_fract_y
_atom_site_fract_z
_atom_site_U_iso_or_equiv
_atom_site_adp_type
_atom_site_occupancy
_atom_site_site_symmetry_order
_atom_site_calc_flag
_atom_site_refinement_flags_posn
_atom_site_refinement_flags_adp
_atom_site_refinement_flags_occupancy
Re1 Re 0.0000 0.36007(2) 0.2500 0.03742(14) Uani 1 4 d S T P
I1 I 0.0000 0.61305(4) 0.2500 0.05038(15) Uani 1 4 d S T P
O1 O 0.0000 0.0834(5) 0.2500 0.0712(17) Uani 1 4 d S T P
O2 O 0.2959(4) 0.3741(2) 0.4470(3) 0.0678(8) Uani 1 1 d . . .
C1 C 0.0000 0.1860(7) 0.2500 0.0481(15) Uani 1 4 d S T P
C2 C 0.1890(5) 0.3675(3) 0.3771(4) 0.0473(8) Uani 1 1 d . . .
loop_
_atom_site_aniso_label
_atom_site_aniso_U_11
_atom_site_aniso_U_22
_atom_site_aniso_U_33
_atom_site_aniso_U_23
_atom_site_aniso_U_13
_atom_site_aniso_U_12
Re1 0.03398(17) 0.02840(17) 0.04989(19) 0.000 0.000 0.000
I1 0.0431(3) 0.0298(2) 0.0783(3) 0.000 0.000 0.000
O1 0.058(3) 0.029(3) 0.126(5) 0.000 0.000 0.000
O2 0.0595(18) 0.072(2) 0.0723(19) -0.0026(12) -0.0217(17) 0.0033(13)
C1 0.037(3) 0.040(4) 0.067(4) 0.000 0.000 0.000
C2 0.0463(19) 0.0337(17) 0.062(2) 0.0011(13) 0.0012(17) 0.0017(12)
loop_
_atom_type_symbol
_atom_type_description
_atom_type_scat_dispersion_real
_atom_type_scat_dispersion_imag
_atom_type_scat_source
C C 0.0030 0.0020 'International Tables Vol C Tables 4.2.6.8 and 6.1.1.4'
O O 0.0110 0.0060 'International Tables Vol C Tables 4.2.6.8 and 6.1.1.4'
I I -0.4740 1.8120 'International Tables Vol C Tables 4.2.6.8 and 6.1.1.4'
Re Re -1.0180 7.2310 'International Tables Vol C Tables 4.2.6.8 and 6.1.1.4'
loop_
_geom_angle_atom_site_label_1
_geom_angle_atom_site_label_2
_geom_angle_atom_site_label_3
_geom_angle
_geom_angle_site_symmetry_1
_geom_angle_site_symmetry_3
C1 Re1 C2 92.34(8) . 4
C1 Re1 C2 92.34(8) . 11
C2 Re1 C2 87.9(2) 4 11
C1 Re1 C2 92.34(8) . 10_556
C2 Re1 C2 91.9(2) 4 10_556
C2 Re1 C2 175.32(17) 11 10_556
C1 Re1 C2 92.34(8) . .
C2 Re1 C2 175.32(17) 4 .
C2 Re1 C2 91.9(2) 11 .
C2 Re1 C2 87.9(2) 10_556 .
C1 Re1 I1 180.0 . .
C2 Re1 I1 87.66(8) 4 .
C2 Re1 I1 87.66(8) 11 .
C2 Re1 I1 87.66(8) 10_556 .
C2 Re1 I1 87.66(8) . .
O1 C1 Re1 180.0 . .
O2 C2 Re1 178.4(3) . .
loop_
_geom_bond_atom_site_label_1
_geom_bond_atom_site_label_2
_geom_bond_distance
_geom_bond_site_symmetry_2
Re1 C1 1.933(7) .
Re1 C2 2.013(4) 4
Re1 C2 2.013(4) 11
Re1 C2 2.013(4) 10_556
Re1 C2 2.013(4) .
Re1 I1 2.8088(5) .
O1 C1 1.139(10) .
O2 C2 1.125(5) .
