#------------------------------------------------------------------------------
#$Date: 2016-02-14 16:26:36 +0200 (Sun, 14 Feb 2016) $
#$Revision: 176435 $
#$URL: svn://www.crystallography.net/cod/cif/1/51/62/1516217.cif $
#------------------------------------------------------------------------------
#
# This file is available in the Crystallography Open Database (COD),
# http://www.crystallography.net/
#
# All data on this site have been placed in the public domain by the
# contributors.
#
data_1516217
loop_
_publ_author_name
'Migliorati, Valentina'
'Ballirano, Paolo'
'Gontrani, Lorenzo'
'Russina, Olga'
'Caminiti, Ruggero'
_publ_section_title
;
 Crystal polymorphism of propylammonium chloride and structural properties
 of its mixture with water.
;
_journal_issue                   41
_journal_name_full               'The journal of physical chemistry. B'
_journal_page_first              11805
_journal_page_last               11815
_journal_paper_doi               10.1021/jp206831d
_journal_volume                  115
_journal_year                    2011
_chemical_formula_sum            'C3 Cl N'
_chemical_formula_weight         85.49
_chemical_name_systematic        ' ?'
_space_group_IT_number           129
_symmetry_cell_setting           tetragonal
_symmetry_space_group_name_Hall  '-P 4a 2a'
_symmetry_space_group_name_H-M   'P 4/n m m :2'
_audit_creation_date             2011-07-21T08:53
_audit_creation_method           'from EXP file using GSAS2CIF'
_audit_update_record
' 2011-07-21T08:53  Initial CIF as created by GSAS2CIF'
_cell_angle_alpha                90.0
_cell_angle_beta                 90.0
_cell_angle_gamma                90.0
_cell_formula_units_Z            2
_cell_length_a                   6.24506(7)
_cell_length_b                   6.24506
_cell_length_c                   7.38479(19)
_cell_volume                     288.013(8)
_computing_structure_refinement  GSAS
_diffrn_radiation_probe          x-ray
_exptl_absorpt_correction_T_max  0.81792
_exptl_absorpt_correction_T_min  0.81483
_exptl_absorpt_process_details
;   GSAS Absorption/surface roughness correction: function number 0
 Debye-Scherrer absorption correction
Term (= MU.r/wave) =     0.78580E-01
Correction is not refined.
;
_pd_block_id                     2011-07-21T08:53|35|paolo|Bruker_AXS_D8_Advance
_pd_calc_method                  'Rietveld Refinement'
_pd_instr_location               ' ?'
_pd_meas_2theta_range_inc        0.022
_pd_meas_2theta_range_max        89.988
_pd_meas_2theta_range_min        3.0
_pd_meas_number_of_points        3955
_pd_phase_name                   'Propylammonium chloride'
_pd_proc_2theta_range_inc        0.022
_pd_proc_2theta_range_max        89.988
_pd_proc_2theta_range_min        3.0
_pd_proc_info_datetime           2011-07-21T08:53:08
_pd_proc_info_excluded_regions   ' ?'
_pd_proc_ls_background_function
;   GSAS Background function number 1 with 30 terms.
 Shifted Chebyshev function of 1st kind
      1:    512.836     2:   -364.492     3:    57.5962     4:    74.1677    
      5:   -69.6203     6:   0.457239     7:    65.0001     8:   -73.8759    
      9:    35.8124    10:    10.0063    11:   -29.0675    12:    25.2379    
     13:   -5.22711    14:   -7.94240    15:    2.61341    16:    1.26326    
     17:   -2.52023    18:   0.317343    19:   0.418087    20:    1.23755    
     21:   -4.80762    22:    2.56029    23:  -0.938942    24:   -1.53675    
     25:    3.11924    26:   -2.41587    27:   -1.61759    28:    2.15106    
     29:   -2.42004    30:  -0.554192    
;
_pd_proc_ls_peak_cutoff          0.00100
_pd_proc_ls_profile_function
;
 CW Profile function number 3 with  19 terms
 Pseudovoigt profile coefficients as parameterized in
 P. Thompson, D.E. Cox & J.B. Hastings (1987). J. Appl. Cryst.,20,79-83.
 Asymmetry correction of L.W. Finger, D.E. Cox & A. P. Jephcoat (1994).
 J. Appl. Cryst.,27,892-900.
 Peak tails are ignored  where the intensity is below 0.0010 times the peak
   Aniso. broadening axis   0.0   1.0   0.0
;
_pd_proc_ls_prof_R_factor        0.0451
_pd_proc_ls_prof_wR_expected     0.0413
_pd_proc_ls_prof_wR_factor       0.0613
_pd_proc_number_of_points        3955
_pd_spec_mounting                ' ?'
_refine_ls_goodness_of_fit_all   1.50
_refine_ls_matrix_type           full
_refine_ls_number_parameters     47
_refine_ls_number_restraints     8
_refine_ls_R_Fsqd_factor         0.16282
_refine_ls_shift/su_max          0.10
_refine_ls_shift/su_mean         0.01
_reflns_d_resolution_high        1.092
_reflns_d_resolution_low         7.385
_reflns_limit_h_max              5
_reflns_limit_h_min              0
_reflns_limit_k_max              4
_reflns_limit_k_min              0
_reflns_limit_l_max              6
_reflns_limit_l_min              0
_reflns_number_total             173
_cod_data_source_file            308K.cif
_cod_data_source_block           35_publ
_cod_depositor_comments
;
The following automatic conversions were performed:

'_geom_bond_publ_flag' value 'N' changed to 'n' according to
/usr/data/users/saulius/automatic-downloads/retrospective/ACS/lib/dictionaries/cif_core.dic
dictionary named 'cif_core.dic' version 2.4.2 from 2011-04-26 (24
times).

'_geom_angle_publ_flag' value 'N' changed to 'n' according
to
/usr/data/users/saulius/automatic-downloads/retrospective/ACS/lib/dictionaries/cif_core.dic
dictionary named 'cif_core.dic' version 2.4.2 from 2011-04-26 (68
times).

Automatic conversion script
Id: cif_fix_values 2281 2013-09-26 08:29:07Z andrius 
;
_cod_original_cell_volume        288.012(10)
_cod_original_sg_symbol_H-M      'p 4/n m m'
_cod_original_formula_sum        'C3.00 Cl N'
_cod_database_code               1516217
#BEGIN Tags that were not found in dictionaries:
_gsas_exptl_extinct_corr_t_min   1.00000
_gsas_exptl_extinct_corr_t_max   1.00000
#END Tags that were not found in dictionaries
loop_
_symmetry_equiv_pos_site_id
_symmetry_equiv_pos_as_xyz
1 +x,+y,+z
2 -y+1/2,+x,+z
3 -x+1/2,-y+1/2,+z
4 +y,-x+1/2,+z
5 -x+1/2,+y,+z
6 -y+1/2,-x+1/2,+z
7 +x,-y+1/2,+z
8 +y,+x,+z
-1 -x,-y,-z
-2 +y+1/2,-x,-z
-3 +x+1/2,+y+1/2,-z
-4 -y,+x+1/2,-z
-5 +x+1/2,-y,-z
-6 +y+1/2,+x+1/2,-z
-7 -x,+y+1/2,-z
-8 -y,-x,-z
loop_
_atom_site_type_symbol
_atom_site_label
_atom_site_fract_x
_atom_site_fract_y
_atom_site_fract_z
_atom_site_occupancy
_atom_site_thermal_displace_type
_atom_site_U_iso_or_equiv
_atom_site_symmetry_multiplicity
Cl CL1 0.25 -0.25 0.0 1.0 Uiso 0.1050(9) 2
C C(1) 0.25 0.3348(6) 0.29865(34) 0.25 Uiso 0.0622(16) 8
N N 0.25 0.25 0.11323(30) 1.0 Uiso 0.0622(16) 2
C C(2) 0.25 0.1500(6) 0.43723(29) 0.25 Uiso 0.0622(16) 8
C C(3) 0.25 0.25 0.6296(4) 1.0 Uiso 0.0622(16) 2
loop_
_atom_type_symbol
_atom_type_number_in_cell
_atom_type_scat_dispersion_real
_atom_type_scat_dispersion_imag
_atom_type_scat_Cromer_Mann_a1
_atom_type_scat_Cromer_Mann_a2
_atom_type_scat_Cromer_Mann_a3
_atom_type_scat_Cromer_Mann_a4
_atom_type_scat_Cromer_Mann_b1
_atom_type_scat_Cromer_Mann_b2
_atom_type_scat_Cromer_Mann_b3
_atom_type_scat_Cromer_Mann_b4
_atom_type_scat_Cromer_Mann_c
_atom_type_scat_source
Cl 2.0 0.000 0.000 11.4604 0.01040 7.19640 1.16620 6.25560 18.5194 1.64550
47.7784 -9.5574 International_Tables_Vol_C
C 6.0 0.000 0.000 2.31000 20.8439 1.02000 10.2075 1.58860 0.56870 0.86500
51.6512 0.21560 International_Tables_Vol_C
N 2.0 0.000 0.000 12.2126 0.00570 3.13220 9.89330 2.01250 28.9975 1.16630
0.58260 -11.529 International_Tables_Vol_C
loop_
_diffrn_radiation_wavelength
_diffrn_radiation_wavelength_wt
_diffrn_radiation_type
_diffrn_radiation_wavelength_id
1.540598 1.000 K\a~1~ 1
1.544390 0.500 K\a~2~ 2
loop_
_geom_angle_atom_site_label_1
_geom_angle_atom_site_label_2
_geom_angle_atom_site_label_3
_geom_angle
_geom_angle_site_symmetry_1
_geom_angle_site_symmetry_3
_geom_angle_publ_flag
C(1) C(1) C(1) 45.0 2_555 3_555 n
C(1) C(1) C(1) 90.0 2_555 4_555 n
C(1) C(1) N 75.23(10) 2_555 1_555 n
C(1) C(1) C(2) 58.06(9) 2_555 1_555 n
C(1) C(1) C(2) 92.95(16) 2_555 2_555 n
C(1) C(1) C(2) 93.76(20) 2_555 3_555 n
C(1) C(1) C(2) 51.49(15) 2_555 4_555 n
C(1) C(1) C(1) 45.0 3_555 4_555 n
C(1) C(1) N 68.86(14) 3_555 1_555 n
C(1) C(1) C(2) 41.57(16) 3_555 1_555 n
C(1) C(1) C(2) 66.18(16) 3_555 2_555 n
C(1) C(1) C(2) 95.32(28) 3_555 3_555 n
C(1) C(1) C(2) 66.18(16) 3_555 4_555 n
C(1) C(1) N 75.23(10) 4_555 1_555 n
C(1) C(1) C(2) 58.06(9) 4_555 1_555 n
C(1) C(1) C(2) 51.49(15) 4_555 2_555 n
C(1) C(1) C(2) 93.76(20) 4_555 3_555 n
C(1) C(1) C(2) 92.95(16) 4_555 4_555 n
N C(1) C(2) 110.43(26) 1_555 1_555 n
N C(1) C(2) 125.64(25) 1_555 2_555 n
N C(1) C(2) 164.2(4) 1_555 3_555 n
N C(1) C(2) 125.64(25) 1_555 4_555 n
C(2) C(1) C(2) 34.89(17) 1_555 2_555 n
C(2) C(1) C(2) 53.76(32) 1_555 3_555 n
C(2) C(1) C(2) 34.89(17) 1_555 4_555 n
C(2) C(1) C(2) 42.27(24) 2_555 3_555 n
C(2) C(1) C(2) 56.93(30) 2_555 4_555 n
C(2) C(1) C(2) 42.27(24) 3_555 4_555 n
C(1) N C(1) 29.54(20) 1_555 2_555 n
C(1) N C(1) 42.27(29) 1_555 3_555 n
C(1) N C(1) 29.54(20) 1_555 4_555 n
C(1) N C(1) 29.54(20) 2_555 3_555 n
C(1) N C(1) 42.27(29) 2_555 4_555 n
C(1) N C(1) 29.54(20) 3_555 4_555 n
C(1) C(2) C(1) 28.99(19) 1_555 2_555 n
C(1) C(2) C(1) 43.11(33) 1_555 3_555 n
C(1) C(2) C(1) 28.99(19) 1_555 4_555 n
C(1) C(2) C(2) 58.06(9) 1_555 2_555 n
C(1) C(2) C(2) 41.57(16) 1_555 3_555 n
C(1) C(2) C(2) 58.06(9) 1_555 4_555 n
C(1) C(2) C(3) 107.83(24) 1_555 1_555 n
C(1) C(2) C(1) 34.75(26) 2_555 3_555 n
C(1) C(2) C(1) 47.64(32) 2_555 4_555 n
C(1) C(2) C(2) 87.05(16) 2_555 2_555 n
C(1) C(2) C(2) 61.53(15) 2_555 3_555 n
C(1) C(2) C(2) 51.49(15) 2_555 4_555 n
C(1) C(2) C(3) 121.53(24) 2_555 1_555 n
C(1) C(2) C(1) 34.75(26) 3_555 4_555 n
C(1) C(2) C(2) 86.24(20) 3_555 2_555 n
C(1) C(2) C(2) 84.68(28) 3_555 3_555 n
C(1) C(2) C(2) 86.24(20) 3_555 4_555 n
C(1) C(2) C(3) 150.9(4) 3_555 1_555 n
C(1) C(2) C(2) 51.49(15) 4_555 2_555 n
C(1) C(2) C(2) 61.53(15) 4_555 3_555 n
C(1) C(2) C(2) 87.05(16) 4_555 4_555 n
C(1) C(2) C(3) 121.53(24) 4_555 1_555 n
C(2) C(2) C(2) 45.0 2_555 3_555 n
C(2) C(2) C(2) 90.0 2_555 4_555 n
C(2) C(2) C(3) 73.47(9) 2_555 1_555 n
C(2) C(2) C(2) 45.0 3_555 4_555 n
C(2) C(2) C(3) 66.27(13) 3_555 1_555 n
C(2) C(2) C(3) 73.47(9) 4_555 1_555 n
C(2) C(3) C(2) 33.07(17) 1_555 2_555 n
C(2) C(3) C(2) 47.47(26) 1_555 3_555 n
C(2) C(3) C(2) 33.07(17) 1_555 4_555 n
C(2) C(3) C(2) 33.07(17) 2_555 3_555 n
C(2) C(3) C(2) 47.47(26) 2_555 4_555 n
C(2) C(3) C(2) 33.07(17) 3_555 4_555 n
loop_
_geom_bond_atom_site_label_1
_geom_bond_atom_site_label_2
_geom_bond_distance
_geom_bond_site_symmetry_2
_geom_bond_publ_flag
C(1) C(1) 0.749(5) 2_555 n
C(1) C(1) 1.059(7) 3_555 n
C(1) C(1) 0.749(5) 4_555 n
C(1) N 1.4681(34) 1_555 n
C(1) C(2) 1.542(4) 1_555 n
C(1) C(2) 1.3107(34) 2_555 n
C(1) C(2) 1.0278(33) 3_555 n
C(1) C(2) 1.3107(34) 4_555 n
N C(1) 1.4681(34) 1_555 n
N C(1) 1.4681(34) 2_555 n
N C(1) 1.4681(34) 3_555 n
N C(1) 1.4681(34) 4_555 n
C(2) C(1) 1.542(4) 1_555 n
C(2) C(1) 1.3107(34) 2_555 n
C(2) C(1) 1.0278(33) 3_555 n
C(2) C(1) 1.3107(34) 4_555 n
C(2) C(2) 0.883(5) 2_555 n
C(2) C(2) 1.249(7) 3_555 n
C(2) C(2) 0.883(5) 4_555 n
C(2) C(3) 1.552(4) 1_555 n
C(3) C(2) 1.552(4) 1_555 n
C(3) C(2) 1.552(4) 2_555 n
C(3) C(2) 1.552(4) 3_555 n
C(3) C(2) 1.552(4) 4_555 n
loop_
_pd_meas_counts_total
_pd_proc_ls_weight
_pd_proc_intensity_bkg_calc
_pd_calc_intensity_total
22045.0 0.0 -15160811.00000 .
20938.0 0.0 -14793207.00000 .
20362.0 0.0 -14433911.00000 .
19567.0 0.0 -14082730.00000 .
18884.0 0.0 -13739502.00000 .
18561.0 0.0 -13404060.00000 .
17626.0 0.0 -13076246.00000 .
17218.0 0.0 -12755892.00000 .
16556.0 0.0 -12442838.00000 .
16022.0 0.0 -12136940.00000 .
15256.0 0.0 -11838038.00000 .
15050.0 0.0 -11545979.00000 .
14450.0 0.0 -11260627.00000 .
14067.0 0.0 -10981841.00000 .
13522.0 0.0 -10709465.00000 .
13289.0 0.0 -10443377.00000 .
13079.0 0.0 -10183432.00000 .
12504.0 0.0 -9929519.00000 .
12242.0 0.0 -9681484.00000 .
11670.0 0.0 -9439211.00000 .
11682.0 0.0 -9202574.00000 .
11210.0 0.0 -8971451.00000 .
10785.0 0.0 -8745726.00000 .
10648.0 0.0 -8525277.00000 .
10514.0 0.0 -8309994.50000 .
10086.0 0.0 -8099767.00000 .
9784.0 0.0 -7894474.00000 .
9650.0 0.0 -7694021.00000 .
9242.0 0.0 -7498297.50000 .
8872.0 0.0 -7307199.50000 .
8842.0 0.0 -7120626.00000 .
8561.0 0.0 -6938472.50000 .
8432.0 0.0 -6760652.50000 .
8317.0 0.0 -6587064.00000 .
8005.0 0.0 -6417613.50000 .
7706.0 0.0 -6252212.50000 .
7702.0 0.0 -6090767.00000 .
7509.0 0.0 -5933192.50000 .
7417.0 0.0 -5779402.50000 .
7244.0 0.0 -5629313.00000 .
7029.0 0.0 -5482838.00000 .
6978.0 0.0 -5339902.00000 .
6696.0 0.0 -5200424.50000 .
6553.0 0.0 -5064325.50000 .
6443.0 0.0 -4931534.50000 .
6332.0 0.0 -4801970.00000 .
6202.0 0.0 -4675566.00000 .
6312.0 0.0 -4552247.00000 .
6081.0 0.0 -4431943.00000 .
5914.0 0.0 -4314588.50000 .
5769.0 0.0 -4200117.00000 .
5636.0 0.0 -4088457.25000 .
5752.0 0.0 -3979551.75000 .
5489.0 0.0 -3873338.25000 .
5304.0 0.0 -3769749.75000 .
5338.0 0.0 -3668726.50000 .
5197.0 0.0 -3570212.75000 .
5156.0 0.0 -3474154.75000 .
5202.0 0.0 -3380485.50000 .
5024.0 0.0 -3289158.50000 .
4962.0 0.0 -3200115.75000 .
4972.0 0.0 -3113307.75000 .
4893.0 0.0 -3028678.75000 .
4764.0 0.0 -2946180.00000 .
4768.0 0.0 -2865762.50000 .
4560.0 0.0 -2787378.25000 .
4503.0 0.0 -2710977.00000 .
4539.0 0.0 -2636514.75000 .
4444.0 0.0 -2563944.50000 .
4439.0 0.0 -2493225.50000 .
4279.0 0.0 -2424307.50000 .
4311.0 0.0 -2357153.25000 .
4166.0 0.0 -2291720.25000 .
4234.0 0.0 -2227969.25000 .
4139.0 0.0 -2165857.50000 .
4182.0 0.0 -2105345.75000 .
4117.0 0.0 -2046398.00000 .
3990.0 0.0 -1988976.50000 .
4071.0 0.0 -1933043.00000 .
3873.0 0.0 -1878564.62500 .
3927.0 0.0 -1825505.12500 .
3811.0 0.0 -1773830.12500 .
3746.0 0.0 -1723507.50000 .
3824.0 0.0 -1674502.87500 .
3768.0 0.0 -1626785.75000 .
3607.0 0.0 -1580325.00000 .
3585.0 0.0 -1535088.12500 .
3572.0 0.0 -1491049.12500 .
3620.0 0.0 -1448175.87500 .
3541.0 0.0 -1406440.37500 .
3487.0 0.0 -1365814.37500 .
3348.0 0.0 -1326271.25000 .
3378.0 0.0 -1287786.12500 .
3438.0 0.0 -1250331.37500 .
3439.0 0.0 -1213880.62500 .
3284.0 0.0 -1178409.62500 .
3289.0 0.0 -1143896.00000 .
3323.0 0.0 -1110312.87500 .
3284.0 0.0 -1077639.75000 .
3229.0 0.0 -1045853.81250 .
3231.0 0.0 -1014930.75000 .
3302.0 0.0 -984850.87500 .
3140.0 0.0 -955591.06250 .
3076.0 0.0 -927134.00000 .
3097.0 0.0 -899458.56250 .
2998.0 0.0 -872541.25000 .
3057.0 0.0 -846367.50000 .
2880.0 0.0 -820915.25000 .
2957.0 0.0 -796168.31250 .
2943.0 0.0 -772108.75000 .
2970.0 0.0 -748717.31250 .
2908.0 0.0 -725978.93750 .
2846.0 0.0 -703874.50000 .
2827.0 0.0 -682389.75000 .
2921.0 0.0 -661509.37500 .
2850.0 0.0 -641214.56250 .
2830.0 0.0 -621493.43750 .
2783.0 0.0 -602328.68750 .
2800.0 0.0 -583707.93750 .
2784.0 0.0 -565616.87500 .
2660.0 0.0 -548039.06250 .
2677.0 0.0 -530964.25000 .
2736.0 0.0 -514377.43750 .
2639.0 0.0 -498266.43750 .
2636.0 0.0 -482619.34375 .
2525.0 0.0 -467422.09375 .
2589.0 0.0 -452664.90625 .
2536.0 0.0 -438334.25000 .
2631.0 0.0 -424419.93750 .
2584.0 0.0 -410911.59375 .
2519.0 0.0 -397796.21875 .
2461.0 0.0 -385065.46875 .
2419.0 0.0 -372707.06250 .
2437.0 0.0 -360712.56250 .
2432.0 0.0 -349072.31250 .
2430.0 0.0 -337775.09375 .
2359.0 0.0 -326813.12500 .
2347.0 0.0 -316176.28125 .
2432.0 0.0 -305856.50000 .
2388.0 0.0 -295845.46875 .
2434.0 0.0 -286133.34375 .
2275.0 0.0 -276713.18750 .
2303.0 0.0 -267575.75000 .
2322.0 0.0 -258714.48438 .
2253.0 0.0 -250121.95313 .
2296.0 0.0 -241789.21875 .
2298.0 0.0 -233710.67188 .
2199.0 0.0 -225877.89063 .
2187.0 0.0 -218284.75000 .
2122.0 0.0 -210925.04688 .
2178.0 0.0 -203790.89063 .
2163.0 0.0 -196877.26563 .
2192.0 0.0 -190176.87500 .
2161.0 0.0 -183684.65625 .
2067.0 0.0 -177394.50000 .
2021.0 0.0 -171299.85938 .
2119.0 0.0 -165396.04688 .
2090.0 0.0 -159677.12500 .
2097.0 0.0 -154138.31250 .
2142.0 0.0 -148774.25000 .
2031.0 0.0 -143579.53125 .
1998.0 0.0 -138549.76563 .
1966.0 0.0 -133679.78125 .
2007.0 0.0 -128965.12500 .
1981.0 0.0 -124401.75000 .
1930.0 0.0 -119984.25781 .
1890.0 0.0 -115709.27344 .
2015.0 0.0 -111571.99219 .
1980.0 0.0 -107568.68750 .
1893.0 0.0 -103695.67188 .
1946.0 0.0 -99948.56250 .
1894.0 0.0 -96323.93750 .
1889.0 0.0 -92817.92969 .
1785.0 0.0 -89427.28125 .
1891.0 0.0 -86148.56250 .
1857.0 0.0 -82978.03125 .
1882.0 0.0 -79912.75781 .
1784.0 0.0 -76949.49219 .
1768.0 0.0 -74085.08594 .
1850.0 0.0 -71316.84375 .
1690.0 0.0 -68641.28906 .
1769.0 0.0 -66056.14063 .
1749.0 0.0 -63558.19531 .
1756.0 0.0 -61145.06250 .
1695.0 0.0 -58814.18750 .
1734.0 0.0 -56562.67969 .
1741.0 0.0 -54388.46484 .
1744.0 0.0 -52288.79688 .
1687.0 0.0 -50261.66016 .
1668.0 0.0 -48304.69922 .
1778.0 0.0 -46415.53516 .
1533.0 0.0 -44592.23438 .
1545.0 0.0 -42832.59375 .
1670.0 0.0 -41134.75000 .
1554.0 0.0 -39496.72656 .
1653.0 0.0 -37916.38672 .
1590.0 0.0 -36392.13672 .
1587.0 0.0 -34921.99219 .
1635.0 0.0 -33504.37500 .
1535.0 0.0 -32137.62891 .
1627.0 0.0 -30819.86328 .
1575.0 0.0 -29549.70703 .
1530.0 0.0 -28325.47266 .
1639.0 0.0 -27145.71484 .
1556.0 0.0 -26009.06836 .
1484.0 0.0 -24913.94336 .
1474.0 0.0 -23859.11133 .
1498.0 0.0 -22843.12109 .
1539.0 0.0 -21864.76758 .
1444.0 0.0 -20922.81055 .
1473.0 0.0 -20015.89453 .
1534.0 0.0 -19142.99219 .
1423.0 0.0 -18302.87500 .
1472.0 0.0 -17494.45703 .
1465.0 0.0 -16716.69727 .
1496.0 0.0 -15968.47363 .
1360.0 0.0 -15248.85645 .
1405.0 0.0 -14556.77637 .
1384.0 0.0 -13891.35645 .
1397.0 0.0 -13251.69824 .
1428.0 0.0 -12636.80664 .
1405.0 0.0 -12045.91113 .
1335.0 0.0 -11478.11230 .
1331.0 0.0 -10932.63281 .
1319.0 0.0 -10408.69043 .
1252.0 0.0 -9905.49609 .
1369.0 0.0 -9422.33887 .
1299.0 0.0 -8958.46582 .
1275.0 0.0 -8513.23340 .
1261.0 0.0 -8085.99268 .
1284.0 0.0 -7675.99902 .
1307.0 0.0 -7282.72168 .
1253.0 0.0 -6905.49707 .
1280.0 0.0 -6543.75977 .
1226.0 0.0 -6196.97119 .
1238.0 0.0 -5864.51172 .
1213.0 0.0 -5545.91650 .
1189.0 0.0 -5240.62256 .
1212.0 0.0 -4948.18164 .
1213.0 0.0 -4668.08691 .
1224.0 0.0 -4399.87061 .
1138.0 0.0 -4143.10303 .
1201.0 0.0 -3897.31201 .
1203.0 0.0 -3662.12256 .
1173.0 0.0 -3437.12817 .
1086.0 0.0 -3221.89429 .
1149.0 0.0 -3016.08936 .
1224.0 0.0 -2819.32349 .
1081.0 0.0 -2631.25244 .
1074.0 0.0 -2451.54102 .
1145.0 0.0 -2279.85156 .
1084.0 0.0 -2115.87891 .
1060.0 0.0 -1959.29712 .
1099.0 0.0 -1809.83362 .
1117.0 0.0 -1667.19910 .
1091.0 0.0 -1531.10608 .
1075.0 0.0 -1401.30066 .
1094.0 0.0 -1277.52307 .
1053.0 0.0 -1159.53198 .
1048.0 0.0 -1047.09692 .
1061.0 0.0 -939.96564 .
1055.0 0.0 -837.94147 .
1072.0 0.0 -740.79950 .
993.0 0.0 -648.33710 .
1090.0 0.0 -560.36475 .
1086.0 0.0 -476.68372 .
1099.0 0.0 -397.11682 .
1031.0 0.0 -321.48160 .
1020.0 0.0 -249.61845 .
1027.0 0.0 -181.36142 .
996.0 0.0 -116.54868 .
1000.0 0.0 -55.03302 .
1095.0 0.0 3.32966 .
1042.0 0.0 58.67842 .
989.0 0.0 111.14368 .
1053.0 0.0 160.86429 .
1013.0 0.0 207.95361 .
982.0 0.0 252.53645 .
1011.0 0.0 294.72464 .
980.0 0.0 334.62732 .
1013.0 0.0 372.35052 .
959.0 0.0 407.99435 .
1015.0 0.0 441.65860 .
1006.0 0.0 473.43259 .
1003.0 0.0 503.40424 .
1024.0 0.0 531.66486 .
1052.0 0.0 558.29065 .
922.0 0.0 583.36389 .
981.0 0.0 606.95813 .
991.0 0.0 629.14380 .
972.0 0.0 649.99463 .
945.0 0.0 669.57208 .
959.0 0.0 687.94232 .
922.0 0.0 705.16479 .
957.0 0.0 721.29688 .
1023.0 0.0 736.39496 .
920.0 0.0 750.51117 .
934.0 0.0 763.69763 .
959.0 0.0 776.00098 .
949.0 0.0 787.46722 .
944.0 0.0 798.14258 .
953.0 0.0 808.06714 .
969.0 0.0 817.28223 .
958.0 0.0 825.82581 .
955.0 0.0 833.73419 .
961.0 0.0 841.04279 .
915.0 0.0 847.78424 .
985.0 0.0 853.99103 .
962.0 0.0 859.69232 .
1002.0 0.0 864.91711 .
877.0 0.0 869.69305 .
926.0 0.0 874.04590 .
958.0 0.0 878.00049 .
913.0 0.0 881.57996 .
894.0 0.0 884.80646 .
939.0 0.0 887.70197 .
932.0 0.0 890.28577 .
916.0 0.0 892.57733 .
878.0 0.001139 894.59460 894.63196
880.0 0.001136 896.35468 896.38843
905.0 0.001105 897.87390 897.90436
918.0 0.001089 899.16754 899.19495
929.0 0.001076 900.25031 900.27484
884.0 0.001131 901.13574 901.15765
894.0 0.001119 901.83698 901.85645
918.0 0.001089 902.36633 902.38354
922.0 0.001085 902.73535 902.75049
910.0 0.001099 902.95502 902.96826
885.0 0.001130 903.03558 903.04712
845.0 0.001183 902.98688 902.99683
854.0 0.001171 902.81805 902.82654
901.0 0.001110 902.53778 902.54492
883.0 0.001133 902.15417 902.16010
912.0 0.001096 901.67480 901.67963
869.0 0.001151 901.10687 901.11078
918.0 0.001089 900.45721 900.46021
919.0 0.001088 899.73199 899.73419
918.0 0.001089 898.93732 898.93878
892.0 0.001121 898.07855 898.07941
902.0 0.001109 897.16107 897.16138
914.0 0.001094 896.18958 896.18933
918.0 0.001089 895.16852 895.16785
890.0 0.001124 894.10242 894.10138
901.0 0.001110 892.99487 892.99359
900.0 0.001111 891.84991 891.84833
860.0 0.001163 890.67078 890.66895
933.0 0.001072 889.46057 889.45856
822.0 0.001217 888.22235 888.22015
897.0 0.001115 886.95874 886.95642
889.0 0.001125 885.67236 885.66998
835.0 0.001198 884.36560 884.36316
872.0 0.001147 883.04047 883.03796
889.0 0.001125 881.69910 881.69659
902.0 0.001109 880.34326 880.34076
881.0 0.001135 878.97467 878.97223
878.0 0.001139 877.59485 877.59241
846.0 0.001182 876.20514 876.20276
875.0 0.001143 874.80713 874.80481
907.0 0.001103 873.40161 873.39935
815.0 0.001227 871.99005 871.98785
919.0 0.001088 870.57318 870.57111
878.0 0.001139 869.15198 869.14996
874.0 0.001144 867.72717 867.72534
836.0 0.001196 866.29968 866.29785
842.0 0.001188 864.87006 864.86835
844.0 0.001185 863.43896 863.43738
886.0 0.001129 862.00665 862.00519
839.0 0.001192 860.57397 860.57263
844.0 0.001185 859.14117 861.91394
830.0 0.001205 857.70880 860.62335
882.0 0.001134 856.27692 860.76984
910.0 0.001099 854.84595 859.57819
883.0 0.001133 853.41626 858.40735
863.0 0.001159 851.98785 857.25977
821.0 0.001218 850.56128 856.13843
863.0 0.001159 849.13647 855.04608
862.0 0.001160 847.71362 853.98651
859.0 0.001164 846.29285 852.96362
876.0 0.001142 844.87433 851.98218
860.0 0.001163 843.45819 851.04767
860.0 0.001163 842.04449 850.16638
835.0 0.001198 840.63318 849.34583
839.0 0.001192 839.22461 848.59509
871.0 0.001148 837.81860 847.92487
827.0 0.001209 836.41534 847.34790
819.0 0.001221 835.01489 846.88000
862.0 0.001160 833.61725 846.54047
853.0 0.001172 832.22247 846.35297
897.0 0.001115 830.83057 846.34735
868.0 0.001152 829.44171 846.56122
937.0 0.001067 828.05591 847.04279
880.0 0.001136 826.67310 847.85474
858.0 0.001166 825.29352 849.07959
848.0 0.001179 823.91711 850.82843
922.0 0.001085 822.54401 853.25323
942.0 0.001062 821.17432 856.56873
896.0 0.001116 819.80786 861.09058
930.0 0.001075 818.44501 867.33746
962.0 0.001040 817.08569 876.38049
972.0 0.001029 815.73004 890.89648
920.0 0.001087 814.37823 917.37317
994.0 0.001006 813.03021 968.61609
1084.0 0.000923 811.68622 1063.50659
1227.0 0.000815 810.34619 1221.90234
1486.0 0.000673 809.01050 1461.69250
1792.0 0.000558 807.67914 1805.82947
2253.0 0.000444 806.35217 2298.69092
2842.0 0.000352 805.02985 3003.00366
3946.0 0.0002534 803.71228 3914.50464
4732.0 0.0002113 802.39960 4788.67676
4787.0 0.0002089 801.09198 5089.88428
4127.0 0.0002423 799.78955 4450.78711
3271.0 0.0003057 798.49255 3244.84766
2081.0 0.000481 797.20099 2122.59473
1357.0 0.000737 795.91528 1427.49817
1014.0 0.000986 794.63544 1102.29785
916.0 0.001092 793.36163 971.83484
853.0 0.001172 792.09418 916.21796
850.0 0.001176 790.83301 885.78143
851.0 0.001175 789.57861 865.32300
810.0 0.001235 788.33105 850.25830
829.0 0.001206 787.09045 838.67517
757.0 0.001321 785.85718 829.49475
829.0 0.001206 784.63129 822.02948
798.0 0.001253 783.41309 815.82349
770.0 0.001299 782.20264 810.56250
796.0 0.001256 781.00024 806.02551
755.0 0.001325 779.80615 802.05359
840.0 0.001190 778.62036 798.52881
802.0 0.001247 777.44342 795.36401
760.0 0.001316 776.27527 792.49213
777.0 0.001287 775.11609 789.86151
767.0 0.001304 773.96619 787.43207
748.0 0.001337 772.82574 785.17188
768.0 0.001302 771.69501 783.05573
802.0 0.001247 770.57404 781.06299
776.0 0.001289 769.46307 779.17694
759.0 0.001318 768.36243 777.38428
774.0 0.001292 767.27209 775.67328
803.0 0.001245 766.19238 774.03497
732.0 0.001366 765.12347 772.46143
738.0 0.001355 764.06543 770.94604
776.0 0.001289 763.01862 769.48322
735.0 0.001361 761.98297 768.06836
822.0 0.001217 760.95886 766.69739
760.0 0.001316 759.94629 765.36694
797.0 0.001255 758.94556 764.07391
767.0 0.001304 757.95660 762.81586
754.0 0.001326 756.97980 761.59052
812.0 0.001232 756.01520 760.39594
752.0 0.001330 755.06293 759.23053
764.0 0.001309 754.12299 755.49902
777.0 0.001287 753.19574 754.50659
732.0 0.001366 752.28113 752.27985
737.0 0.001357 751.37933 751.37805
795.0 0.001258 750.49048 750.48926
797.0 0.001255 749.61456 749.61334
737.0 0.001357 748.75183 748.75061
766.0 0.001305 747.90216 747.90100
732.0 0.001366 747.06586 747.06470
758.0 0.001319 746.24286 746.24176
738.0 0.001355 745.43323 745.43219
693.0 0.001443 744.63715 744.63611
749.0 0.001335 743.85449 743.85352
740.0 0.001351 743.08551 743.08453
694.0 0.001441 742.33014 742.32916
705.0 0.001418 741.58832 741.58740
816.0 0.001225 740.86023 740.85938
734.0 0.001362 740.14581 740.14496
743.0 0.001346 739.44513 739.44434
719.0 0.001391 738.75824 738.75751
768.0 0.001302 738.08502 738.08429
770.0 0.001299 737.42554 737.42487
766.0 0.001305 736.77979 736.77917
720.0 0.001389 736.14777 736.14716
718.0 0.001393 735.52948 735.52893
757.0 0.001321 734.92474 734.92426
726.0 0.001377 734.33374 734.33325
729.0 0.001372 733.75629 733.75592
720.0 0.001389 733.19244 733.19208
779.0 0.001284 732.64209 732.64178
754.0 0.001326 732.10516 732.10492
781.0 0.001280 731.58173 731.58148
714.0 0.001401 731.07153 731.07135
748.0 0.001337 730.57465 730.57446
714.0 0.001401 730.09100 730.09088
767.0 0.001304 729.62042 729.62036
732.0 0.001366 729.16284 729.16290
757.0 0.001321 728.71826 728.71832
757.0 0.001321 728.28656 728.28668
723.0 0.001383 727.86761 727.86780
762.0 0.001312 727.46130 727.46149
735.0 0.001361 727.06763 727.06787
726.0 0.001377 726.68634 726.68665
705.0 0.001418 726.31744 726.31775
750.0 0.001333 725.96075 725.96112
770.0 0.001299 725.61621 725.61664
706.0 0.001416 725.28369 725.28412
689.0 0.001451 724.96295 724.96344
751.0 0.001332 724.65405 724.65454
761.0 0.001314 724.35675 724.35730
776.0 0.001289 724.07086 724.07147
752.0 0.001330 723.79645 723.79706
750.0 0.001333 723.53314 723.53387
724.0 0.001381 723.28101 723.28174
740.0 0.001351 723.03979 723.04053
675.0 0.001481 722.80939 722.81018
764.0 0.001309 722.58960 722.59045
742.0 0.001348 722.38037 722.38123
730.0 0.001370 722.18158 722.18243
721.0 0.001387 721.99292 721.99384
728.0 0.001374 721.81439 721.81531
737.0 0.001357 721.64581 721.64679
719.0 0.001391 721.48700 721.48798
712.0 0.001404 721.33783 721.33887
710.0 0.001408 721.19812 721.19922
738.0 0.001355 721.06781 721.06891
743.0 0.001346 720.94672 720.94781
712.0 0.001404 720.83459 720.83569
749.0 0.001335 720.73145 720.73254
714.0 0.001401 720.63696 720.63812
704.0 0.001420 720.55115 720.55231
688.0 0.001453 720.47382 720.47498
742.0 0.001348 720.40472 720.40594
701.0 0.001427 720.34387 720.34509
749.0 0.001335 720.29102 720.29224
703.0 0.001422 720.24603 720.24725
727.0 0.001376 720.20880 720.21008
722.0 0.001385 720.17920 720.18048
745.0 0.001342 720.15704 720.15833
758.0 0.001319 720.14221 720.14349
751.0 0.001332 720.13464 720.13593
684.0 0.001462 720.13409 720.13538
759.0 0.001318 720.14044 720.14172
687.0 0.001456 720.15363 720.15491
675.0 0.001481 720.17346 720.17480
725.0 0.001379 720.19995 720.20123
747.0 0.001339 720.23279 720.23407
723.0 0.001383 720.27203 720.27332
732.0 0.001366 720.31738 720.31873
687.0 0.001456 720.36890 720.37018
628.0 0.001592 720.42633 720.42761
727.0 0.001376 720.48969 720.49097
757.0 0.001321 720.55884 720.56012
676.0 0.001479 720.63361 720.63483
718.0 0.001393 720.71393 720.71521
676.0 0.001479 720.79974 720.80103
720.0 0.001389 720.89093 720.89215
742.0 0.001348 720.98743 720.98865
734.0 0.001362 721.08911 721.09033
726.0 0.001377 721.19586 721.19708
740.0 0.001351 721.30774 721.30896
723.0 0.001383 721.42456 721.42572
712.0 0.001404 721.54626 721.54736
698.0 0.001433 721.67273 721.67389
701.0 0.001427 721.80402 721.80518
724.0 0.001381 721.94000 721.94110
693.0 0.001443 722.08057 722.08167
746.0 0.001340 722.22577 722.22681
709.0 0.001410 722.37543 722.37646
737.0 0.001357 722.52954 722.53058
737.0 0.001357 722.68817 722.68915
765.0 0.001307 722.85114 722.85211
706.0 0.001416 723.01843 723.01941
756.0 0.001323 723.19006 723.19098
714.0 0.001401 723.36597 723.36682
716.0 0.001397 723.54608 723.54700
728.0 0.001374 723.73047 723.73132
688.0 0.001453 723.91907 723.91992
729.0 0.001372 724.11188 724.11267
721.0 0.001387 724.30878 724.30957
729.0 0.001372 724.50989 724.51068
746.0 0.001340 724.71521 724.71594
715.0 0.001399 724.92456 724.92529
718.0 0.001393 725.13818 725.13885
722.0 0.001385 725.35583 725.35651
703.0 0.001422 725.57776 725.57837
719.0 0.001391 725.80377 725.80438
677.0 0.001477 726.03400 726.03455
725.0 0.001379 726.26843 726.26898
686.0 0.001458 726.50708 726.50757
718.0 0.001393 726.74994 726.75043
703.0 0.001422 726.99707 726.99750
728.0 0.001374 727.24847 727.24890
742.0 0.001348 727.50415 727.50458
706.0 0.001416 727.76422 727.76459
672.0 0.001488 728.02869 728.02905
692.0 0.001445 728.29761 728.29791
807.0 0.001239 728.57092 728.57123
682.0 0.001466 728.84875 728.84900
745.0 0.001342 729.13116 729.13141
740.0 0.001351 729.41815 729.41840
706.0 0.001416 729.70984 729.71002
788.0 0.001269 730.00623 730.00641
664.0 0.001506 730.30737 730.30750
738.0 0.001355 730.61328 730.61340
746.0 0.001340 730.92419 730.92426
705.0 0.001418 731.23993 731.23999
752.0 0.001330 731.56073 731.56073
712.0 0.001404 731.88660 731.88660
756.0 0.001323 732.21759 732.21759
725.0 0.001379 732.55383 732.55377
703.0 0.001422 732.89532 732.89520
722.0 0.001385 733.24219 733.24213
707.0 0.001414 733.59448 733.59436
767.0 0.001304 733.95227 733.95209
732.0 0.001366 734.31567 734.31549
769.0 0.001300 734.68469 734.68451
762.0 0.001312 735.05951 735.05927
744.0 0.001344 735.44012 735.43988
787.0 0.001271 735.82660 735.82635
683.0 0.001464 736.21912 736.21887
777.0 0.001287 736.61768 736.61737
712.0 0.001404 737.02246 737.02216
769.0 0.001300 737.43347 737.43311
761.0 0.001314 737.85077 737.85040
678.0 0.001475 738.27448 738.27411
692.0 0.001445 738.70465 738.70428
742.0 0.001348 739.14148 739.14111
753.0 0.001328 739.58502 739.58453
733.0 0.001364 740.03528 740.03479
768.0 0.001302 740.49237 740.49194
726.0 0.001377 740.95642 740.95593
775.0 0.001290 741.42755 741.42706
727.0 0.001376 741.90576 741.90521
786.0 0.001272 742.39117 742.39063
814.0 0.001229 742.88385 742.88336
728.0 0.001374 743.38397 743.38342
673.0 0.001486 743.89154 743.89099
715.0 0.001399 744.40662 744.40607
725.0 0.001379 744.92938 744.92877
717.0 0.001395 745.45984 745.45923
720.0 0.001389 745.99811 745.99750
756.0 0.001323 746.54437 746.54376
769.0 0.001300 747.09851 747.09790
786.0 0.001272 747.66071 747.66010
742.0 0.001348 748.23108 748.23047
769.0 0.001300 748.80969 748.80902
738.0 0.001355 749.39661 749.39594
791.0 0.001264 749.99188 749.99121
707.0 0.001414 750.59558 750.59491
740.0 0.001351 751.20789 751.20721
720.0 0.001389 751.82867 751.82800
728.0 0.001374 752.45825 752.45758
744.0 0.001344 753.09650 753.09589
760.0 0.001316 753.74359 753.74292
745.0 0.001342 754.39954 754.39893
692.0 0.001445 755.06451 755.06384
789.0 0.001267 755.73846 755.73779
788.0 0.001269 756.42145 756.42078
754.0 0.001326 757.11359 757.11292
803.0 0.001245 757.81494 757.81427
701.0 0.001427 758.52551 758.52484
732.0 0.001366 759.24542 759.24475
718.0 0.001393 759.97467 759.97400
731.0 0.001368 760.71332 760.71265
768.0 0.001302 761.46149 761.46082
774.0 0.001292 762.21906 762.21844
744.0 0.001344 762.98627 762.98566
728.0 0.001374 763.76300 763.76233
762.0 0.001312 764.54932 764.54871
792.0 0.001263 765.34534 765.34473
737.0 0.001357 766.15112 766.15051
787.0 0.001271 766.96655 766.96594
789.0 0.001267 767.79169 767.79108
776.0 0.001289 768.62665 768.62604
770.0 0.001299 769.47150 769.47095
769.0 0.001300 770.32605 770.32550
765.0 0.001307 771.19061 771.19000
801.0 0.001248 772.06488 774.55017
854.0 0.001171 772.94904 775.55981
822.0 0.001217 773.84320 777.81995
792.0 0.001263 774.74713 778.93182
765.0 0.001307 775.66107 780.07050
830.0 0.001205 776.58478 781.23761
835.0 0.001198 777.51843 782.43530
762.0 0.001312 778.46210 783.66620
811.0 0.001233 779.41553 784.93280
810.0 0.001235 780.37885 786.23840
855.0 0.001170 781.35199 787.58685
840.0 0.001190 782.33502 788.98236
796.0 0.001256 783.32800 790.43024
789.0 0.001267 784.33075 791.93622
821.0 0.001218 785.34332 793.50751
773.0 0.001294 786.36560 795.15253
848.0 0.001179 787.39758 796.88147
820.0 0.001220 788.43939 798.70667
887.0 0.001127 789.49078 800.64282
834.0 0.001199 790.55188 802.70856
821.0 0.001218 791.62250 804.92609
826.0 0.001211 792.70270 807.32385
822.0 0.001217 793.79248 809.93774
858.0 0.001166 794.89160 812.81299
858.0 0.001166 796.00012 816.00891
867.0 0.001153 797.11798 819.60254
851.0 0.001175 798.24530 823.69739
837.0 0.001195 799.38171 828.43347
845.0 0.001183 800.52728 834.00476
874.0 0.001144 801.68207 840.68738
837.0 0.001195 802.84583 848.88470
863.0 0.001159 804.01849 859.22992
857.0 0.001167 805.20020 872.88599
940.0 0.001064 806.39056 892.57349
927.0 0.001079 807.58978 925.50568
999.0 0.001001 808.79755 989.30157
1152.0 0.000868 810.01385 1120.15247
1432.0 0.000698 811.23877 1379.18616
1877.0 0.000533 812.47192 1848.09448
2693.0 0.000371 813.71344 2592.95215
3612.0 0.0002769 814.96313 3553.77930
4278.0 0.0002338 816.22101 4418.73145
4724.0 0.0002117 817.48676 4692.35156
4410.0 0.0002268 818.76044 4206.56445
3517.0 0.0002843 820.04199 3315.04102
2477.0 0.000404 821.33112 2365.15186
1797.0 0.000556 822.62787 1644.25854
1243.0 0.000805 823.93213 1231.22681
1036.0 0.000965 825.24365 1039.94910
910.0 0.001099 826.56244 960.81677
857.0 0.001167 827.88831 925.34387
899.0 0.001112 829.22113 905.44208
869.0 0.001151 830.56091 892.26031
812.0 0.001232 831.90735 882.93201
858.0 0.001166 833.26031 876.16595
848.0 0.001179 834.61993 871.20380
816.0 0.001225 835.98578 867.55066
839.0 0.001192 837.35785 864.87115
878.0 0.001139 838.73596 862.93182
886.0 0.001129 840.12012 861.56494
844.0 0.001185 841.50995 860.64825
861.0 0.001161 842.90552 860.09076
829.0 0.001206 844.30664 859.82361
821.0 0.001218 845.71301 859.79364
805.0 0.001242 847.12469 859.95972
834.0 0.001199 848.54138 860.28931
872.0 0.001147 849.96301 860.75629
840.0 0.001190 851.38947 861.34015
854.0 0.001171 852.82050 862.55627
817.0 0.001224 854.25592 863.35211
872.0 0.001147 855.69580 864.22437
822.0 0.001217 857.13971 865.43793
915.0 0.001093 858.58759 866.44989
885.0 0.001130 860.03937 867.51563
822.0 0.001217 861.49487 868.62970
851.0 0.001175 862.95380 869.78754
801.0 0.001248 864.41602 870.98541
861.0 0.001161 865.88165 872.22058
890.0 0.001124 867.35010 873.49036
865.0 0.001156 868.82159 874.79309
861.0 0.001161 870.29559 876.12701
873.0 0.001145 871.77216 877.49146
846.0 0.001182 873.25116 878.88599
827.0 0.001209 874.73224 877.91675
827.0 0.001209 876.21545 879.48218
867.0 0.001153 877.70044 879.87500
868.0 0.001152 879.18707 881.54663
850.0 0.001176 880.67523 883.24438
905.0 0.001105 882.16467 884.97272
912.0 0.001096 883.65546 886.73749
814.0 0.001229 885.14709 888.54529
872.0 0.001147 886.63953 890.40521
851.0 0.001175 888.13275 892.32916
883.0 0.001133 889.62634 894.33209
889.0 0.001125 891.12036 896.43451
849.0 0.001178 892.61438 898.66345
907.0 0.001103 894.10834 901.05664
878.0 0.001139 895.60217 903.66742
885.0 0.001130 897.09558 906.57227
899.0 0.001112 898.58850 909.88763
968.0 0.001033 900.08057 913.80896
857.0 0.001167 901.57172 918.74969
887.0 0.001127 903.06177 925.78259
962.0 0.001040 904.55072 937.73950
997.0 0.001003 906.03815 961.17017
1062.0 0.000942 907.52399 1008.61920
1180.0 0.000847 909.00800 1098.74548
1452.0 0.000689 910.49023 1248.73315
1735.0 0.000576 911.97028 1451.93530
2281.0 0.000438 913.44812 1650.25183
2351.0 0.000425 914.92346 1740.60779
2307.0 0.000433 916.39618 1670.06335
2056.0 0.000486 917.86621 1503.45959
1542.0 0.000649 919.33319 1308.22839
1298.0 0.000770 920.79724 1141.10815
1146.0 0.000873 922.25781 1034.56616
979.0 0.001021 923.71503 981.01685
914.0 0.001094 925.16864 958.59009
925.0 0.001081 926.61859 949.71069
938.0 0.001066 928.06451 945.74896
923.0 0.001083 929.50635 943.69165
849.0 0.001178 930.94397 942.60779
887.0 0.001127 932.37732 942.14081
952.0 0.001050 933.80603 942.09930
860.0 0.001163 935.23010 942.36243
957.0 0.001045 936.64923 942.84869
890.0 0.001124 938.06335 943.50201
907.0 0.001103 939.47235 944.28235
897.0 0.001115 940.87634 945.16077
874.0 0.001144 942.27441 946.11511
957.0 0.001045 943.66718 947.12964
937.0 0.001067 945.05396 948.19165
845.0 0.001183 946.43488 949.29138
878.0 0.001139 947.81024 950.42169
899.0 0.001112 949.17877 951.57556
879.0 0.001138 950.54144 952.74908
869.0 0.001151 951.89722 953.93719
936.0 0.001068 953.24683 955.13751
923.0 0.001083 954.58978 956.34692
914.0 0.001094 955.92554 957.56299
919.0 0.001088 957.25458 958.78406
857.0 0.001167 958.57629 960.00812
943.0 0.001060 959.89087 961.23413
883.0 0.001133 961.19843 962.46106
902.0 0.001109 962.49805 963.68719
943.0 0.001060 963.79028 964.91217
841.0 0.001189 965.07465 966.13470
981.0 0.001019 966.35120 967.35455
909.0 0.001100 967.62018 968.57117
918.0 0.001089 968.88055 969.78320
889.0 0.001125 970.13312 970.99103
978.0 0.001022 971.37714 971.66901
922.0 0.001085 972.61285 972.89038
920.0 0.001087 973.84033 974.10461
872.0 0.001147 975.05884 975.05865
938.0 0.001066 976.26886 976.26868
960.0 0.001042 977.46991 977.46967
995.0 0.001005 978.66211 978.66187
968.0 0.001033 979.84564 979.84540
1081.0 0.000925 981.01971 981.01947
982.0 0.001018 982.18475 982.18451
1037.0 0.000964 983.34039 983.34009
1023.0 0.000978 984.48676 984.48645
1018.0 0.000982 985.62402 985.62366
1045.0 0.000957 986.75122 986.75085
980.0 0.001020 987.86920 987.86884
1078.0 0.000928 988.97729 988.97693
1045.0 0.000957 990.07562 990.07526
1015.0 0.000985 991.16443 991.16406
996.0 0.001004 992.24304 992.24261
964.0 0.001037 993.31183 993.31146
1041.0 0.000961 994.37042 994.37006
960.0 0.001042 995.41907 995.41864
1017.0 0.000983 996.45776 996.45734
980.0 0.001020 997.48590 997.48547
997.0 0.001003 998.50397 998.50354
1035.0 0.000966 999.51154 999.51105
938.0 0.001066 1000.50879 1000.50830
979.0 0.001021 1001.49585 1001.49536
985.0 0.001015 1002.47205 1002.47156
938.0 0.001066 1003.43805 1003.43750
936.0 0.001068 1004.39319 1004.39264
999.0 0.001001 1005.33783 1005.33728
983.0 0.001017 1006.27197 1006.27142
1027.0 0.000974 1007.19519 1007.19464
971.0 0.001030 1008.10785 1008.10730
997.0 0.001003 1009.00958 1009.00903
1035.0 0.000966 1009.90057 1009.90002
943.0 0.001060 1010.78101 1010.78046
980.0 0.001020 1011.65027 1011.64972
951.0 0.001052 1012.50885 1012.50824
1011.0 0.000989 1013.35638 1013.35577
1011.0 0.000989 1014.19305 1014.19238
975.0 0.001026 1015.01898 1015.01837
985.0 0.001015 1015.83368 1015.83301
971.0 0.001030 1016.63763 1016.63696
982.0 0.001018 1017.43042 1017.42975
947.0 0.001056 1018.21228 1018.21161
1017.0 0.000983 1018.98328 1018.98260
960.0 0.001042 1019.74310 1019.74237
978.0 0.001022 1020.49207 1020.49139
991.0 0.001009 1021.22980 1021.22913
1002.0 0.000998 1021.95667 1021.95593
976.0 0.001025 1022.67267 1022.67200
999.0 0.001001 1023.37750 1023.37677
1026.0 0.000975 1024.07141 1024.07068
982.0 0.001018 1024.75415 1024.75354
1080.0 0.000926 1025.42615 1025.42542
1022.0 0.000978 1026.08716 1026.08643
1044.0 0.000958 1026.73718 1026.73645
984.0 0.001016 1027.37622 1027.37549
1029.0 0.000972 1028.00427 1028.00354
1055.0 0.000948 1028.62146 1028.62073
1068.0 0.000936 1029.22791 1029.22717
1030.0 0.000971 1029.82336 1029.82263
981.0 0.001019 1030.40808 1030.40735
979.0 0.001021 1030.98181 1030.98108
1029.0 0.000972 1031.54480 1031.54407
1062.0 0.000942 1032.09729 1032.09656
1061.0 0.000943 1032.63879 1032.63806
1073.0 0.000932 1033.16968 1033.16895
1047.0 0.000955 1033.68994 1042.78796
1112.0 0.000899 1034.19946 1043.75464
1144.0 0.000874 1034.69861 1044.74609
1084.0 0.000923 1035.18701 1050.36768
1081.0 0.000925 1035.66504 1051.65320
1097.0 0.000912 1036.13245 1052.99451
1056.0 0.000947 1036.58960 1054.39905
1055.0 0.000948 1037.03625 1055.87585
1117.0 0.000895 1037.47266 1057.43372
1110.0 0.000901 1037.89880 1059.08496
1133.0 0.000883 1038.31445 1060.84216
1140.0 0.000877 1038.72009 1062.72095
1125.0 0.000889 1039.11572 1064.73950
1130.0 0.000885 1039.50110 1066.91772
1092.0 0.000916 1039.87646 1069.28137
1180.0 0.000847 1040.24182 1071.85938
1180.0 0.000847 1040.59729 1074.68738
1196.0 0.000836 1040.94299 1077.80835
1181.0 0.000847 1041.27869 1081.27197
1150.0 0.000870 1041.60474 1085.14270
1208.0 0.000828 1041.92102 1089.49646
1193.0 0.000838 1042.22778 1094.43079
1201.0 0.000833 1042.52490 1100.06738
1198.0 0.000835 1042.81250 1106.55688
1151.0 0.000869 1043.09070 1114.09985
1136.0 0.000880 1043.35950 1122.95044
1262.0 0.000792 1043.61890 1133.45154
1255.0 0.000797 1043.86926 1146.06311
1214.0 0.000824 1044.11023 1161.40503
1327.0 0.000754 1044.34216 1181.35876
1308.0 0.000765 1044.56506 1205.23950
1298.0 0.000770 1044.77893 1235.89417
1309.0 0.000764 1044.98401 1276.94934
1420.0 0.000704 1045.18005 1333.73291
1504.0 0.000665 1045.36743 1423.11450
1724.0 0.000580 1045.54614 1590.62048
1989.0 0.000503 1045.71619 1950.80432
2775.0 0.000360 1045.87769 2738.78442
4111.0 0.0002432 1046.03076 4304.13428
6433.0 0.0001554 1046.17529 6904.18311
9622.0 0.0001039 1046.31165 10259.38086
12894.0 0.0000776 1046.43958 13227.32520
14702.0 0.0000680 1046.55945 14239.59961
13589.0 0.0000736 1046.67126 12968.85742
11218.0 0.0000891 1046.77490 10577.81445
7676.0 0.0001303 1046.87061 7781.80078
5272.0 0.0001897 1046.95850 5153.50391
3382.0 0.0002957 1047.03857 3265.46582
2035.0 0.000491 1047.11096 2191.38452
1585.0 0.000631 1047.17554 1685.41699
1339.0 0.000747 1047.23267 1466.74365
1249.0 0.000801 1047.28235 1362.00549
1245.0 0.000803 1047.32446 1299.62292
1244.0 0.000804 1047.35938 1256.35339
1160.0 0.000862 1047.38684 1224.36096
1140.0 0.000877 1047.40723 1200.10291
1172.0 0.000853 1047.42053 1181.47534
1102.0 0.000907 1047.42676 1167.13110
1218.0 0.000821 1047.42603 1156.20410
1119.0 0.000894 1047.41833 1148.14856
1065.0 0.000939 1047.40393 1142.70654
1132.0 0.000883 1047.38281 1139.93005
1148.0 0.000871 1047.35510 1140.50916
1188.0 0.000842 1047.32068 1146.89600
1201.0 0.000833 1047.27979 1166.20959
1297.0 0.000771 1047.23254 1215.34143
1420.0 0.000704 1047.17883 1325.35596
1584.0 0.000631 1047.11890 1533.45618
2101.0 0.000476 1047.05286 1848.05054
2533.0 0.000395 1046.98059 2201.70532
2578.0 0.000388 1046.90234 2441.58276
2372.0 0.000422 1046.81812 2436.39331
2251.0 0.000444 1046.72791 2240.99756
2068.0 0.000484 1046.63196 1971.79321
1637.0 0.000611 1046.53015 1678.37793
1426.0 0.000701 1046.42273 1425.00757
1259.0 0.000794 1046.30969 1255.42688
1128.0 0.000887 1046.19104 1163.85132
1080.0 0.000926 1046.06702 1121.63806
1131.0 0.000884 1045.93762 1102.50366
1092.0 0.000916 1045.80286 1092.22705
1064.0 0.000940 1045.66272 1085.38843
1085.0 0.000922 1045.51746 1080.25500
1086.0 0.000921 1045.36719 1067.30701
1060.0 0.000943 1045.21179 1064.41479
1012.0 0.000988 1045.05139 1062.04919
1027.0 0.000974 1044.88599 1055.72205
1025.0 0.000976 1044.71582 1054.24622
1079.0 0.000927 1044.54077 1052.98901
1093.0 0.000915 1044.36108 1051.90137
1045.0 0.000957 1044.17676 1050.94861
1025.0 0.000976 1043.98767 1050.10303
1034.0 0.000967 1043.79419 1049.34399
972.0 0.001029 1043.59607 1048.65564
979.0 0.001021 1043.39368 1048.02502
1125.0 0.000889 1043.18689 1047.44238
1030.0 0.000971 1042.97571 1046.89954
1030.0 0.000971 1042.76025 1046.38953
1033.0 0.000968 1042.54077 1045.90771
1054.0 0.000949 1042.31702 1045.44885
1056.0 0.000947 1042.08923 1045.01001
1072.0 0.000933 1041.85742 1044.58752
1042.0 0.000960 1041.62158 1044.17932
993.0 0.001007 1041.38184 1043.78296
1044.0 0.000958 1041.13818 1043.39673
1076.0 0.000929 1040.89075 1043.01917
1000.0 0.001000 1040.63953 1042.64856
998.0 0.001002 1040.38452 1042.28381
1045.0 0.000957 1040.12598 1041.92444
1010.0 0.000990 1039.86365 1041.56921
1016.0 0.000984 1039.59790 1041.21741
1026.0 0.000975 1039.32849 1040.86841
983.0 0.001017 1039.05554 1039.58704
983.0 0.001017 1038.77917 1039.28479
1026.0 0.000975 1038.49939 1038.98096
984.0 0.001016 1038.21619 1038.21606
1002.0 0.000998 1037.92981 1037.92957
1039.0 0.000962 1037.63989 1037.63977
1049.0 0.000953 1037.34692 1037.34680
1018.0 0.000982 1037.05054 1037.05042
986.0 0.001014 1036.75110 1036.75098
1030.0 0.000971 1036.44849 1036.44836
1040.0 0.000962 1036.14270 1036.14258
995.0 0.001005 1035.83386 1035.83374
983.0 0.001017 1035.52185 1035.52185
1047.0 0.000955 1035.20703 1035.20691
1004.0 0.000996 1034.88904 1034.88892
1012.0 0.000988 1034.56799 1034.56787
1046.0 0.000956 1034.24414 1034.24402
1003.0 0.000997 1033.91736 1033.91724
1042.0 0.000960 1033.58765 1033.58765
1035.0 0.000966 1033.25500 1033.25500
1030.0 0.000971 1032.91956 1032.91956
941.0 0.001063 1032.58130 1032.58130
1032.0 0.000969 1032.24023 1032.24011
1033.0 0.000968 1031.89636 1031.89636
1000.0 0.001000 1031.54968 1031.54968
1054.0 0.000949 1031.20020 1031.20020
1058.0 0.000945 1030.84802 1030.84802
996.0 0.001004 1030.49316 1030.49316
1030.0 0.000971 1030.13562 1030.13562
1036.0 0.000965 1029.77527 1029.77527
1012.0 0.000988 1029.41223 1029.41223
1048.0 0.000954 1029.04663 1029.04651
1038.0 0.000963 1028.67822 1028.67822
1114.0 0.000898 1028.30725 1028.30725
1034.0 0.000967 1027.93359 1027.93359
1014.0 0.000986 1027.55725 1027.55725
1090.0 0.000917 1027.17834 1027.17834
1021.0 0.000979 1026.79675 1026.79675
1078.0 0.000928 1026.41260 1026.41260
1050.0 0.000952 1026.02576 1026.02576
1021.0 0.000979 1025.63623 1025.63623
1073.0 0.000932 1025.24414 1025.24414
1023.0 0.000978 1024.84949 1024.84949
1002.0 0.000998 1024.45215 1024.45215
1009.0 0.000991 1024.05225 1024.05225
1046.0 0.000956 1023.64954 1023.64954
1034.0 0.000967 1023.24432 1023.24426
1001.0 0.000999 1022.83643 1022.83643
1097.0 0.000912 1022.42596 1022.42590
1000.0 0.001000 1022.01282 1022.01282
953.0 0.001049 1021.59686 1021.59680
1022.0 0.000978 1021.17841 1021.17841
1019.0 0.000981 1020.75720 1020.75714
993.0 0.001007 1020.33337 1020.33337
1021.0 0.000979 1019.90680 1019.90680
1006.0 0.000994 1019.47742 1019.47742
986.0 0.001014 1019.04547 1019.04547
937.0 0.001067 1018.61072 1018.61066
998.0 0.001002 1018.17322 1018.17322
1018.0 0.000982 1017.73303 1017.73297
1014.0 0.000986 1017.28986 1017.28979
963.0 0.001038 1016.84406 1016.84399
1026.0 0.000975 1016.39532 1016.39532
964.0 0.001037 1015.94391 1015.94385
979.0 0.001021 1015.48956 1015.48950
1028.0 0.000973 1015.03223 1015.03217
980.0 0.001020 1014.57220 1014.57214
1003.0 0.000997 1014.10907 1014.10901
1014.0 0.000986 1013.64313 1013.64307
996.0 0.001004 1013.17426 1013.17419
948.0 0.001055 1012.70227 1012.70221
1010.0 0.000990 1012.22742 1012.22736
1022.0 0.000978 1011.74945 1011.74939
1054.0 0.000949 1011.26849 1011.26843
971.0 0.001030 1010.78442 1010.78436
1062.0 0.000942 1010.29718 1010.29706
978.0 0.001022 1009.80688 1009.80682
1005.0 0.000995 1009.31335 1009.31329
983.0 0.001017 1008.81677 1008.81665
1006.0 0.000994 1008.31696 1008.31683
1005.0 0.000995 1007.81372 1007.81360
1001.0 0.000999 1007.30743 1007.30731
957.0 0.001045 1006.79767 1006.79755
999.0 0.001001 1006.28467 1006.28455
977.0 0.001024 1005.76837 1005.76825
985.0 0.001015 1005.24854 1005.24841
1026.0 0.000975 1004.72540 1004.72528
1023.0 0.000978 1004.19873 1004.19861
956.0 0.001046 1003.66864 1003.66852
965.0 0.001036 1003.13507 1003.13489
1004.0 0.000996 1002.59772 1002.59760
1010.0 0.000990 1002.05701 1002.05688
965.0 0.001036 1001.51257 1001.51239
1032.0 0.000969 1000.96460 1000.96442
989.0 0.001011 1000.41290 1000.41272
935.0 0.001070 999.85736 999.85718
971.0 0.001030 999.29828 999.29810
965.0 0.001036 998.73523 999.09271
981.0 0.001019 998.16852 998.54382
979.0 0.001021 997.59784 997.99249
986.0 0.001014 997.02325 997.43878
982.0 0.001018 996.44489 997.06781
968.0 0.001033 995.86237 996.51923
1001.0 0.000999 995.27606 995.96948
1005.0 0.000995 994.68567 995.41888
1005.0 0.000995 994.09100 994.86755
963.0 0.001038 993.49243 994.31641
991.0 0.001009 992.88965 993.76532
978.0 0.001022 992.28278 993.21527
1011.0 0.000989 991.67169 992.66669
1030.0 0.000971 991.05615 992.12036
1018.0 0.000982 990.43665 991.57727
1017.0 0.000983 989.81256 991.03827
985.0 0.001015 989.18433 990.50500
992.0 0.001008 988.55164 989.97876
978.0 0.001022 987.91443 989.46136
1066.0 0.000938 987.27289 988.95557
982.0 0.001018 986.62671 988.46375
1031.0 0.000970 985.97620 987.98981
1009.0 0.000991 985.32111 987.53802
1013.0 0.000987 984.66113 987.11401
934.0 0.001071 983.99683 992.18488
1004.0 0.000996 983.32770 992.11896
1046.0 0.000956 982.65405 992.13190
1046.0 0.000956 981.97552 994.92401
1011.0 0.000989 981.29211 995.29407
1058.0 0.000945 980.60413 995.83234
989.0 0.001011 979.91119 996.58899
975.0 0.001026 979.21344 997.63599
1019.0 0.000981 978.51080 999.08984
1020.0 0.000980 977.80310 1001.18237
1060.0 0.000943 977.09058 1004.51050
1088.0 0.000919 976.37292 1010.78479
1041.0 0.000961 975.65045 1024.40747
1048.0 0.000954 974.92279 1054.38904
1175.0 0.000851 974.18994 1113.47498
1306.0 0.000766 973.45215 1209.22632
1360.0 0.000735 972.70905 1328.39563
1406.0 0.000711 971.96094 1429.35925
1530.0 0.000654 971.20752 1463.17847
1501.0 0.000666 970.44867 1426.57043
1439.0 0.000695 969.68481 1360.36963
1315.0 0.000760 968.91559 1283.74597
1247.0 0.000802 968.14117 1200.25940
1186.0 0.000843 967.36133 1126.50085
1172.0 0.000853 966.57593 1076.14038
1103.0 0.000907 965.78540 1049.87366
985.0 0.001015 964.98920 1040.69299
1052.0 0.000951 964.18781 1041.05359
1074.0 0.000931 963.38086 1046.54883
1067.0 0.000937 962.56812 1055.71680
1074.0 0.000931 961.75024 1068.71436
1051.0 0.000951 960.92664 1086.67188
1140.0 0.000877 960.09760 1112.06165
1199.0 0.000834 959.26294 1151.23950
1313.0 0.000762 958.42242 1222.61365
1504.0 0.000665 957.57660 1376.00684
1789.0 0.000559 956.72498 1721.64478
2437.0 0.000410 955.86786 2435.13745
3589.0 0.0002786 955.00494 3668.27661
5389.0 0.0001856 954.13623 5335.98926
6999.0 0.0001429 953.26202 6945.38477
7100.0 0.0001408 952.38184 7756.05518
7066.0 0.0001415 951.49622 7460.01709
6842.0 0.0001462 950.60455 6563.36182
5212.0 0.0001919 949.70715 5489.62500
3599.0 0.0002779 948.80414 4278.67383
3011.0 0.0003321 947.89520 3090.35156
2256.0 0.000443 946.98059 2172.61841
1592.0 0.000628 946.06006 1602.68518
1233.0 0.000811 945.13348 1309.71545
1119.0 0.000894 944.20135 1175.75403
1030.0 0.000971 943.26324 1112.36731
1004.0 0.000996 942.31946 1076.34863
986.0 0.001014 941.36969 1051.71875
1030.0 0.000971 940.41382 1033.15308
1013.0 0.000987 939.45251 1018.54974
1018.0 0.000982 938.48499 1006.76276
1012.0 0.000988 937.51190 997.06317
973.0 0.001028 936.53265 988.93903
958.0 0.001044 935.54749 981.67627
1024.0 0.000977 934.55664 975.73480
994.0 0.001006 933.55975 970.54559
945.0 0.001058 932.55713 965.96289
916.0 0.001092 931.54858 961.70258
899.0 0.001112 930.53381 958.02130
958.0 0.001044 929.51361 954.67456
974.0 0.001027 928.48724 951.60522
944.0 0.001059 927.45526 948.77002
948.0 0.001055 926.41724 946.13214
925.0 0.001081 925.37317 943.66156
996.0 0.001004 924.32361 941.33575
979.0 0.001021 923.26794 939.13263
932.0 0.001073 922.20660 937.03656
965.0 0.001036 921.13934 935.03265
936.0 0.001068 920.06616 933.10864
934.0 0.001071 918.98743 931.25537
1031.0 0.000970 917.90271 929.46295
944.0 0.001059 916.81232 927.72455
867.0 0.001153 915.71606 926.03339
913.0 0.001095 914.61389 924.38342
900.0 0.001111 913.50623 922.77069
912.0 0.001096 912.39276 921.19025
961.0 0.001041 911.27368 919.63879
958.0 0.001044 910.14886 913.08429
865.0 0.001156 909.01807 911.80914
906.0 0.001104 907.88214 910.53931
929.0 0.001076 906.74017 906.73944
889.0 0.001125 905.59290 905.59216
895.0 0.001117 904.43994 904.43921
936.0 0.001068 903.28113 903.28046
890.0 0.001124 902.11713 902.11646
896.0 0.001116 900.94751 900.94678
930.0 0.001075 899.77252 899.77179
889.0 0.001125 898.59192 898.59125
870.0 0.001149 897.40570 897.40497
898.0 0.001114 896.21442 896.21368
896.0 0.001116 895.01752 895.01685
918.0 0.001089 893.81555 893.81482
916.0 0.001092 892.60815 892.60742
846.0 0.001182 891.39508 891.39435
883.0 0.001133 890.17731 890.17664
902.0 0.001109 888.95392 888.95325
867.0 0.001153 887.72565 887.72498
890.0 0.001124 886.49219 886.49146
876.0 0.001142 885.25330 885.25262
890.0 0.001124 884.00970 884.00897
867.0 0.001153 882.76080 882.76013
887.0 0.001127 881.50714 881.50647
934.0 0.001071 880.24847 880.24774
928.0 0.001078 878.98444 878.98376
879.0 0.001138 877.71600 877.71533
816.0 0.001225 876.44250 876.44189
894.0 0.001119 875.16443 875.16376
908.0 0.001101 873.88147 873.88086
864.0 0.001157 872.59351 874.37726
828.0 0.001208 871.30139 873.17609
890.0 0.001124 870.00415 871.97693
867.0 0.001153 868.70270 871.64502
890.0 0.001124 867.39661 870.49695
831.0 0.001203 866.08582 869.35730
881.0 0.001135 864.77087 868.22809
849.0 0.001178 863.45123 867.11041
854.0 0.001171 862.12769 866.00708
856.0 0.001168 860.79962 864.91974
899.0 0.001112 859.46692 863.85095
829.0 0.001206 858.13055 862.80463
850.0 0.001176 856.78973 861.78369
871.0 0.001148 855.44513 860.79297
816.0 0.001225 854.09631 859.83704
865.0 0.001156 852.74316 858.92194
878.0 0.001139 851.38654 858.05530
879.0 0.001138 850.02588 857.24536
837.0 0.001195 848.66156 856.50311
854.0 0.001171 847.29333 855.84094
871.0 0.001148 845.92120 855.27515
890.0 0.001124 844.54578 854.82544
865.0 0.001156 843.16638 856.27673
846.0 0.001182 841.78394 856.23065
862.0 0.001160 840.39777 856.40552
868.0 0.001152 839.00781 857.70581
853.0 0.001172 837.61493 858.54700
893.0 0.001120 836.21857 859.83740
945.0 0.001058 834.81915 861.71100
884.0 0.001131 833.41650 864.35785
907.0 0.001103 832.01031 868.05621
919.0 0.001088 830.60156 873.25311
885.0 0.001130 829.18958 880.85059
933.0 0.001072 827.77490 893.18475
893.0 0.001120 826.35724 916.98065
966.0 0.001035 824.93652 969.72833
1103.0 0.000907 823.51343 1087.54016
1415.0 0.000707 822.08728 1323.16016
1899.0 0.000527 820.65906 1714.17529
2369.0 0.000422 819.22797 2221.82471
2791.0 0.000358 817.79407 2691.96143
2765.0 0.000362 816.35828 2913.07861
2867.0 0.0003488 814.91980 2816.64844
2719.0 0.000368 813.47937 2560.31738
2264.0 0.000442 812.03656 2270.08618
1826.0 0.000548 810.59119 1942.78589
1488.0 0.000672 809.14429 1592.85742
1284.0 0.000779 807.69513 1292.03308
1158.0 0.000864 806.24420 1084.58118
961.0 0.001041 804.79138 967.35468
885.0 0.001130 803.33643 911.29803
898.0 0.001114 801.88013 886.94891
913.0 0.001095 800.42175 876.54755
891.0 0.001122 798.96228 872.68048
892.0 0.001121 797.50092 873.34967
866.0 0.001155 796.03796 879.54266
951.0 0.001052 794.57397 896.45221
943.0 0.001060 793.10840 938.80536
1013.0 0.000987 791.64185 1038.55884
1199.0 0.000834 790.17395 1245.40356
1658.0 0.000603 788.70465 1601.59448
2258.0 0.000443 787.23468 2085.09717
2775.0 0.000360 785.76355 2564.15210
2844.0 0.000352 784.29181 2832.92065
2772.0 0.000361 782.81909 2785.46899
3011.0 0.0003321 781.34521 2549.66772
2550.0 0.000392 779.87128 2272.61670
1814.0 0.000551 778.39618 1965.97266
1573.0 0.000636 776.92108 1624.71826
1431.0 0.000699 775.44507 1311.66162
1156.0 0.000865 773.96857 1081.49194
956.0 0.001046 772.49213 942.62750
891.0 0.001122 771.01514 871.30536
840.0 0.001190 769.53821 837.27936
820.0 0.001220 768.06104 819.72272
775.0 0.001290 766.58344 808.73370
831.0 0.001203 765.10638 800.61902
742.0 0.001348 763.62915 794.09137
772.0 0.001295 762.15228 788.62573
768.0 0.001302 760.67554 783.92969
807.0 0.001239 759.19873 779.81244
783.0 0.001277 757.72290 776.14270
708.0 0.001412 756.24719 772.82092
805.0 0.001242 754.77203 768.13464
790.0 0.001266 753.29749 765.38873
725.0 0.001379 751.82336 762.81970
718.0 0.001393 750.35022 759.55762
766.0 0.001305 748.87781 757.29431
736.0 0.001359 747.40625 755.13000
750.0 0.001333 745.93567 753.04889
739.0 0.001353 744.46582 751.03815
755.0 0.001325 742.99750 749.08868
758.0 0.001319 741.52985 747.19080
742.0 0.001348 740.06390 745.33887
682.0 0.001466 738.59894 743.52612
749.0 0.001335 737.13477 741.74744
663.0 0.001508 735.67285 740.00024
745.0 0.001342 734.21185 738.27966
718.0 0.001393 732.75287 736.58386
776.0 0.001289 731.29523 734.90961
751.0 0.001332 729.83881 733.25427
713.0 0.001403 728.38483 731.61749
727.0 0.001376 726.93213 729.99622
746.0 0.001340 725.48181 728.39032
718.0 0.001393 724.03320 726.79761
749.0 0.001335 722.58630 723.56799
717.0 0.001395 721.14172 722.07446
741.0 0.001350 719.69897 720.58649
705.0 0.001418 718.25897 718.25909
706.0 0.001416 716.82086 716.82104
743.0 0.001346 715.38489 715.38507
657.0 0.001522 713.95154 713.95172
716.0 0.001397 712.52057 712.52075
686.0 0.001458 711.09210 711.09235
732.0 0.001366 709.66620 709.66644
723.0 0.001383 708.24268 708.24286
677.0 0.001477 706.82202 706.82227
688.0 0.001453 705.40417 705.40436
720.0 0.001389 703.98901 703.98926
704.0 0.001420 702.57672 702.57697
708.0 0.001412 701.16718 701.16742
703.0 0.001422 699.76099 699.76123
723.0 0.001383 698.35736 698.35760
704.0 0.001420 696.95728 696.95758
647.0 0.001546 695.55981 695.56012
675.0 0.001481 694.16559 694.16589
695.0 0.001439 692.77509 692.77533
702.0 0.001425 691.38739 691.38763
654.0 0.001529 690.00348 690.00378
657.0 0.001522 688.62274 688.62305
647.0 0.001546 687.24500 687.24530
706.0 0.001416 685.87146 685.87177
659.0 0.001517 684.50098 684.50128
667.0 0.001499 683.13458 683.13489
734.0 0.001362 681.77161 681.77191
727.0 0.001376 680.41187 680.41217
678.0 0.001475 679.05658 679.05695
680.0 0.001471 677.70465 677.70496
687.0 0.001456 676.35699 676.35730
678.0 0.001475 675.01300 675.01337
629.0 0.001590 673.67273 673.67310
677.0 0.001477 672.33667 672.33704
633.0 0.001580 671.00470 671.00507
642.0 0.001558 669.67676 669.67706
636.0 0.001572 668.35291 668.35327
673.0 0.001486 667.03302 667.03339
638.0 0.001567 665.71759 666.03650
652.0 0.001534 664.40637 664.74115
649.0 0.001541 663.09943 663.45135
635.0 0.001575 661.79681 662.16724
615.0 0.001626 660.49841 661.04755
602.0 0.001661 659.20483 659.78345
675.0 0.001481 657.91522 658.52588
638.0 0.001567 656.63031 657.27563
638.0 0.001567 655.34991 656.03308
610.0 0.001639 654.07391 654.79816
624.0 0.001603 652.80292 653.57220
667.0 0.001499 651.53613 652.35468
635.0 0.001575 650.27441 651.14734
603.0 0.001658 649.01721 649.94989
668.0 0.001497 647.76428 648.76324
662.0 0.001511 646.51672 647.58929
615.0 0.001626 645.27356 646.42810
611.0 0.001637 644.03571 645.28204
631.0 0.001585 642.80243 644.15204
673.0 0.001486 641.57367 643.03986
613.0 0.001631 640.35040 641.94904
683.0 0.001464 639.13165 640.88153
630.0 0.001587 637.91833 639.84204
649.0 0.001541 636.70978 638.83453
642.0 0.001558 635.50604 637.86523
665.0 0.001504 634.30756 636.94226
653.0 0.001531 633.11414 636.07562
625.0 0.001600 631.92584 635.27893
617.0 0.001621 630.74268 634.57043
619.0 0.001616 629.56439 633.97552
620.0 0.001613 628.39148 633.53015
686.0 0.001458 627.22382 633.28949
671.0 0.001490 626.06134 633.35144
680.0 0.001471 624.90405 633.94537
702.0 0.001425 623.75183 635.70947
618.0 0.001618 622.60529 640.38043
691.0 0.001447 621.46362 651.96265
650.0 0.001538 620.32745 677.47827
735.0 0.001361 619.19659 725.02777
816.0 0.001225 618.07086 797.11096
831.0 0.001203 616.95087 881.70715
877.0 0.001140 615.83588 950.22589
886.0 0.001129 614.72656 972.30841
897.0 0.001115 613.62250 947.58636
876.0 0.001142 612.52344 904.53986
855.0 0.001170 611.43036 860.30042
719.0 0.001391 610.34235 811.40710
710.0 0.001408 609.26007 755.85791
695.0 0.001439 608.18311 703.36914
610.0 0.001639 607.11121 663.05286
598.0 0.001672 606.04529 637.26611
615.0 0.001626 604.98450 623.00696
631.0 0.001585 603.92957 615.61121
589.0 0.001698 602.87988 611.47736
582.0 0.001718 601.83551 608.70203
561.0 0.001783 600.79681 606.50708
556.0 0.001799 599.76343 604.61145
621.0 0.001610 598.73590 602.90851
643.0 0.001555 597.71368 601.34399
599.0 0.001669 596.69678 599.88452
602.0 0.001661 595.68555 598.50751
615.0 0.001626 594.67981 597.19568
597.0 0.001675 593.67957 595.93683
619.0 0.001616 592.68488 594.72162
538.0 0.001859 591.69550 593.54254
595.0 0.001681 590.71173 592.39465
546.0 0.001832 589.73352 591.27319
601.0 0.001664 588.76074 590.17480
598.0 0.001672 587.79352 589.09686
602.0 0.001661 586.83160 588.03668
528.0 0.001894 585.87549 586.99304
613.0 0.001631 584.92450 585.96368
614.0 0.001629 583.97931 584.94830
557.0 0.001795 583.03943 583.94495
600.0 0.001667 582.10468 582.95282
634.0 0.001577 581.17584 581.97192
591.0 0.001692 580.25220 581.00085
572.0 0.001748 579.33423 580.03967
555.0 0.001802 578.42151 579.08728
568.0 0.001761 577.51392 578.14331
596.0 0.001678 576.61224 577.20819
587.0 0.001704 575.71558 576.28064
575.0 0.001739 574.82465 575.36108
582.0 0.001718 573.93890 574.13177
545.0 0.001835 573.05835 573.24139
545.0 0.001835 572.18329 572.35736
577.0 0.001733 571.31342 571.47894
588.0 0.001701 570.44916 570.44940
575.0 0.001739 569.59009 569.59033
547.0 0.001828 568.73608 568.92224
570.0 0.001754 567.88751 568.08118
563.0 0.001776 567.04425 567.24585
586.0 0.001706 566.20618 566.41614
578.0 0.001730 565.37329 565.68390
543.0 0.001842 564.54553 564.86938
596.0 0.001678 563.72308 564.06097
565.0 0.001770 562.90576 563.25867
601.0 0.001664 562.09363 562.46259
569.0 0.001757 561.28656 561.67273
549.0 0.001821 560.48450 560.88898
602.0 0.001661 559.68781 560.11206
566.0 0.001767 558.89594 559.34131
525.0 0.001905 558.10931 558.57758
547.0 0.001828 557.32751 557.82043
570.0 0.001754 556.55072 557.07025
575.0 0.001739 555.77911 556.32751
540.0 0.001852 555.01221 555.59198
543.0 0.001842 554.25055 554.86444
534.0 0.001873 553.49365 554.14478
545.0 0.001835 552.74139 553.43317
548.0 0.001825 551.99438 552.73090
600.0 0.001667 551.25195 552.03760
563.0 0.001776 550.51459 551.35443
521.0 0.001919 549.78186 550.68182
567.0 0.001764 549.05371 550.02045
583.0 0.001715 548.33063 549.37189
563.0 0.001776 547.61206 548.73682
512.0 0.001953 546.89838 548.11700
580.0 0.001724 546.18927 547.51416
569.0 0.001757 545.48468 546.93042
528.0 0.001894 544.78479 546.36859
546.0 0.001832 544.08954 545.83221
564.0 0.001773 543.39874 545.32556
549.0 0.001821 542.71252 544.85431
555.0 0.001802 542.03076 544.42560
541.0 0.001848 541.35352 544.04913
551.0 0.001815 540.68073 543.73755
585.0 0.001709 540.01233 543.50806
534.0 0.001873 539.34833 543.38477
526.0 0.001901 538.68854 543.40295
558.0 0.001792 538.03339 543.62048
598.0 0.001672 537.38226 544.15747
533.0 0.001876 536.73547 545.32715
544.0 0.001838 536.09296 547.99451
538.0 0.001859 535.45453 554.30048
581.0 0.001721 534.82056 568.50873
644.0 0.001553 534.19043 596.84967
719.0 0.001391 533.56470 644.48657
912.0 0.001096 532.94293 709.51788
1097.0 0.000912 532.32495 777.53259
972.0 0.001029 531.71136 823.60864
917.0 0.001091 531.10156 829.04041
945.0 0.001058 530.49591 802.71063
995.0 0.001005 529.89410 767.83533
866.0 0.001155 529.29596 734.04132
729.0 0.001372 528.70203 697.20667
736.0 0.001359 528.11169 653.69049
661.0 0.001513 527.52539 611.50317
623.0 0.001605 526.94275 578.03809
578.0 0.001730 526.36371 556.20148
553.0 0.001808 525.78857 543.58514
531.0 0.001883 525.21704 537.04602
516.0 0.001938 524.64917 533.59998
557.0 0.001795 524.08490 531.50665
516.0 0.001938 523.52411 529.99017
590.0 0.001695 522.96698 528.75763
527.0 0.001898 522.41339 527.69867
558.0 0.001792 521.86322 526.76392
529.0 0.001890 521.31653 525.92474
556.0 0.001799 520.77319 525.16174
508.0 0.001969 520.23340 524.46167
477.0 0.002096 519.69678 523.81445
537.0 0.001862 519.16357 523.21338
486.0 0.002058 518.63367 522.65320
534.0 0.001873 518.10693 522.13049
518.0 0.001931 517.58362 521.64337
522.0 0.001916 517.06323 521.19019
497.0 0.002012 516.54626 520.77112
502.0 0.001992 516.03235 520.38629
541.0 0.001848 515.52130 520.03699
483.0 0.002070 515.01367 519.72589
543.0 0.001842 514.50879 519.45544
526.0 0.001901 514.00714 519.23022
539.0 0.001855 513.50842 519.05536
527.0 0.001898 513.01239 518.93738
532.0 0.001880 512.51959 518.88531
510.0 0.001961 512.02948 518.90967
493.0 0.002028 511.54233 519.02448
534.0 0.001873 511.05798 519.24738
547.0 0.001828 510.57629 519.60138
535.0 0.001869 510.09747 520.11591
520.0 0.001923 509.62128 520.83093
556.0 0.001799 509.14792 521.79913
530.0 0.001887 508.67715 523.09314
565.0 0.001770 508.20895 524.81580
538.0 0.001859 507.74344 527.12299
512.0 0.001953 507.28046 530.30261
497.0 0.002012 506.82007 535.02710
581.0 0.001721 506.36215 543.13251
549.0 0.001821 505.90665 559.44226
578.0 0.001730 505.45367 594.69769
608.0 0.001645 505.00311 667.61499
758.0 0.001319 504.55496 800.41516
998.0 0.001002 504.10919 1004.50696
1218.0 0.000821 503.66565 1257.38977
1350.0 0.000741 503.22461 1491.24683
1437.0 0.000696 502.78564 1616.66760
1433.0 0.000698 502.34909 1593.89624
1552.0 0.000644 501.91470 1481.98621
1426.0 0.000701 501.48239 1357.57727
1092.0 0.000916 501.05243 1238.67493
884.0 0.001131 500.62448 1102.60291
923.0 0.001083 500.19876 945.93188
825.0 0.001212 499.77509 796.51282
641.0 0.001560 499.35333 679.30792
536.0 0.001866 498.93381 602.25128
517.0 0.001934 498.51617 558.78949
509.0 0.001965 498.10065 536.72943
529.0 0.001890 497.68698 525.64282
519.0 0.001927 497.27521 519.41394
512.0 0.001953 496.86539 515.26605
506.0 0.001976 496.45740 512.12378
477.0 0.002096 496.05142 509.58264
522.0 0.001916 495.64719 507.45895
502.0 0.001992 495.24469 505.64728
507.0 0.001972 494.84406 504.07715
496.0 0.002016 494.44516 502.69626
491.0 0.002037 494.04800 501.46674
487.0 0.002053 493.65256 500.38565
475.0 0.002105 493.25876 499.37894
481.0 0.002079 492.86667 498.45517
530.0 0.001887 492.47623 497.60019
504.0 0.001984 492.08740 496.80344
468.0 0.002137 491.70020 496.06915
485.0 0.002062 491.31451 495.36404
497.0 0.002012 490.93048 494.69553
484.0 0.002066 490.54791 494.05835
462.0 0.002165 490.16696 493.44882
484.0 0.002066 489.78735 492.86322
468.0 0.002137 489.40924 492.29892
466.0 0.002146 489.03268 491.75366
490.0 0.002041 488.65747 491.22510
505.0 0.001980 488.28381 490.71185
495.0 0.002020 487.91144 490.21213
469.0 0.002132 487.54034 489.72458
503.0 0.001988 487.17081 489.24850
517.0 0.001934 486.80246 488.78256
510.0 0.001961 486.43558 488.32623
446.0 0.002242 486.06995 487.87860
508.0 0.001969 485.70547 487.43884
470.0 0.002128 485.34244 487.00699
483.0 0.002070 484.98056 486.58200
454.0 0.002203 484.62003 486.16403
430.0 0.002326 484.26068 485.75241
504.0 0.001984 483.90247 485.34695
472.0 0.002119 483.54550 484.94757
449.0 0.002227 483.18970 484.55417
472.0 0.002119 482.83505 484.16666
506.0 0.001976 482.48157 483.09384
465.0 0.002151 482.12915 482.74414
449.0 0.002227 481.77792 482.39948
473.0 0.002114 481.42780 482.06033
468.0 0.002137 481.07874 481.72733
467.0 0.002141 480.73077 481.06561
483.0 0.002070 480.38379 480.76053
486.0 0.002058 480.03802 480.46487
458.0 0.002183 479.69312 480.18091
464.0 0.002155 479.34933 479.91205
481.0 0.002079 479.00653 479.66330
465.0 0.002151 478.66470 479.44391
459.0 0.002179 478.32401 479.27505
482.0 0.002075 477.98410 479.21313
470.0 0.002128 477.64532 479.40503
510.0 0.001961 477.30746 480.17853
486.0 0.002058 476.97040 482.11575
464.0 0.002155 476.63449 485.95557
493.0 0.002028 476.29935 492.17630
573.0 0.001745 475.96524 500.31592
594.0 0.001684 475.63202 508.49088
567.0 0.001764 475.29956 513.76843
546.0 0.001832 474.96820 514.32330
561.0 0.001783 474.63760 510.79309
572.0 0.001748 474.30795 506.19177
577.0 0.001733 473.97916 501.91699
498.0 0.002008 473.65115 497.50012
488.0 0.002049 473.32407 492.35150
518.0 0.001931 472.99783 486.72314
483.0 0.002070 472.67242 481.71970
499.0 0.002004 472.34784 477.94882
458.0 0.002183 472.02405 475.47348
483.0 0.002070 471.70111 473.98718
470.0 0.002128 471.37903 473.09338
482.0 0.002075 471.05774 472.49496
493.0 0.002028 470.73724 472.02835
452.0 0.002212 470.41751 471.62164
485.0 0.002062 470.09866 471.24725
458.0 0.002183 469.78052 470.89432
486.0 0.002058 469.46320 471.60049
466.0 0.002146 469.14667 471.31934
480.0 0.002083 468.83087 471.05270
491.0 0.002037 468.51596 470.79974
457.0 0.002188 468.20169 470.55972
494.0 0.002024 467.88831 470.85608
462.0 0.002165 467.57565 470.66339
462.0 0.002165 467.26361 470.48584
494.0 0.002024 466.95255 470.32465
499.0 0.002004 466.64212 470.18079
465.0 0.002151 466.33255 470.05612
443.0 0.002257 466.02365 469.95264
453.0 0.002208 465.71542 469.87292
456.0 0.002193 465.40811 469.82010
465.0 0.002151 465.10144 469.79794
464.0 0.002155 464.79562 469.81125
480.0 0.002083 464.49051 469.86572
468.0 0.002137 464.18610 469.96881
461.0 0.002169 463.88245 470.12943
452.0 0.002212 463.57953 470.35977
458.0 0.002183 463.27744 470.67480
511.0 0.001957 462.97604 471.09494
490.0 0.002041 462.67535 471.64771
438.0 0.002283 462.37546 472.37259
526.0 0.001901 462.07629 473.33685
502.0 0.001992 461.77789 474.68134
508.0 0.001969 461.48022 476.76648
498.0 0.002008 461.18329 480.52612
485.0 0.002062 460.88712 488.11084
518.0 0.001931 460.59171 503.59253
526.0 0.001901 460.29706 532.75482
606.0 0.001650 460.00317 580.71185
693.0 0.001443 459.70996 647.08960
823.0 0.001215 459.41763 721.16901
827.0 0.001209 459.12595 781.61877
818.0 0.001222 458.83511 806.32703
791.0 0.001264 458.54501 792.33875
894.0 0.001119 458.25558 759.72961
805.0 0.001242 457.96704 727.39221
740.0 0.001351 457.67920 698.27551
664.0 0.001506 457.39221 665.36755
627.0 0.001595 457.10596 626.62939
652.0 0.001534 456.82037 589.41669
564.0 0.001773 456.53574 562.84271
581.0 0.001721 456.25177 554.82031
562.0 0.001779 455.96869 574.98572
595.0 0.001681 455.68634 639.43823
759.0 0.001318 455.40475 771.41559
861.0 0.001161 455.12399 990.60364
1277.0 0.000783 454.84399 1291.67444
1748.0 0.000572 454.56488 1622.91516
1780.0 0.000562 454.28653 1886.57996
1632.0 0.000613 454.00894 1984.93884
1682.0 0.000595 453.73221 1909.95422
1781.0 0.000561 453.45633 1753.16431
1648.0 0.000607 453.18121 1597.84851
1183.0 0.000845 452.90692 1455.49011
976.0 0.001025 452.63348 1293.03296
969.0 0.001032 452.36084 1099.46570
866.0 0.001155 452.08908 904.21143
742.0 0.001348 451.81812 740.52881
580.0 0.001724 451.54800 624.37836
543.0 0.001842 451.27875 553.46588
478.0 0.002092 451.01035 515.05670
468.0 0.002137 450.74280 495.46631
471.0 0.002123 450.47610 485.08359
465.0 0.002151 450.21021 478.80441
512.0 0.001953 449.94522 474.39630
502.0 0.001992 449.68115 470.98108
453.0 0.002208 449.41791 468.20432
463.0 0.002160 449.15555 465.88998
481.0 0.002079 448.89404 463.93097
477.0 0.002096 448.63348 462.25293
490.0 0.002041 448.37375 460.79971
470.0 0.002128 448.11499 459.53061
473.0 0.002114 447.85703 458.41309
479.0 0.002088 447.59998 457.42316
482.0 0.002075 447.34390 456.54196
470.0 0.002128 447.08865 455.75415
438.0 0.002283 446.83438 455.04883
458.0 0.002183 446.58096 454.41678
455.0 0.002198 446.32846 453.85156
498.0 0.002008 446.07697 453.34879
440.0 0.002273 445.82632 452.90530
477.0 0.002096 445.57666 452.52014
443.0 0.002257 445.32785 452.19360
484.0 0.002066 445.08002 452.32043
434.0 0.002304 444.83316 451.91745
459.0 0.002179 444.58716 451.81622
465.0 0.002151 444.34222 451.79974
467.0 0.002141 444.09811 451.88370
436.0 0.002294 443.85504 452.28568
452.0 0.002212 443.61288 452.54980
490.0 0.002041 443.37170 453.14511
495.0 0.002020 443.13147 454.09320
461.0 0.002169 442.89215 455.73865
480.0 0.002083 442.65387 458.96423
444.0 0.002252 442.41653 465.78040
459.0 0.002179 442.18018 479.97791
505.0 0.001980 441.94479 507.01498
556.0 0.001799 441.71036 552.03461
585.0 0.001709 441.47690 615.59698
601.0 0.001664 441.24448 689.13525
733.0 0.001364 441.01297 753.72577
694.0 0.001441 440.78247 785.72345
594.0 0.001684 440.55295 778.58844
710.0 0.001408 440.32440 746.68616
656.0 0.001524 440.09689 711.07312
598.0 0.001672 439.87033 679.69507
547.0 0.001828 439.64481 646.76166
563.0 0.001776 439.42020 607.09949
507.0 0.001972 439.19659 563.29584
517.0 0.001934 438.97406 523.07227
437.0 0.002288 438.75244 491.88284
469.0 0.002132 438.53189 471.17685
479.0 0.002088 438.31229 459.18509
450.0 0.002222 438.09363 452.91666
446.0 0.002242 437.87607 449.77020
467.0 0.002141 437.65945 448.12521
465.0 0.002151 437.44388 447.18753
443.0 0.002257 437.22928 446.63022
476.0 0.002101 437.01566 446.33569
471.0 0.002123 436.80304 446.26749
436.0 0.002294 436.59146 446.42361
481.0 0.002079 436.38083 446.82422
495.0 0.002020 436.17120 447.51764
430.0 0.002326 435.96255 448.60934
459.0 0.002179 435.75494 450.36032
516.0 0.001938 435.54831 453.45963
482.0 0.002075 435.34265 459.61545
500.0 0.002000 435.13803 472.50714
520.0 0.001923 434.93433 498.55554
496.0 0.002016 434.73169 546.14606
625.0 0.001600 434.52997 621.80750
864.0 0.001157 434.32925 723.49139
1101.0 0.000908 434.12952 834.81073
1142.0 0.000876 433.93076 925.02863
1120.0 0.000893 433.73300 962.49194
1130.0 0.000885 433.53619 941.78229
1089.0 0.000918 433.34039 890.39435
1047.0 0.000955 433.14551 837.43524
872.0 0.001147 432.95157 791.08197
744.0 0.001344 432.75867 741.73254
690.0 0.001449 432.56665 681.13824
663.0 0.001508 432.37570 615.06934
615.0 0.001626 432.18558 554.90894
514.0 0.001946 431.99643 508.43622
499.0 0.002004 431.80829 477.52347
410.0 0.002439 431.62100 459.44888
438.0 0.002283 431.43475 449.79175
448.0 0.002232 431.24936 444.71814
466.0 0.002146 431.06491 441.83087
449.0 0.002227 430.88138 439.93079
451.0 0.002217 430.69873 438.50546
455.0 0.002198 430.51706 437.35123
422.0 0.002370 430.33624 436.37939
462.0 0.002165 430.15637 435.30582
418.0 0.002392 429.97736 434.58456
425.0 0.002353 429.79926 433.94681
452.0 0.002212 429.62204 433.37662
393.0 0.002545 429.44568 432.86142
436.0 0.002294 429.27020 432.27380
444.0 0.002252 429.09558 431.84641
451.0 0.002217 428.92184 431.45059
405.0 0.002469 428.74893 431.08160
439.0 0.002278 428.57690 430.73553
434.0 0.002304 428.40567 430.40909
428.0 0.002336 428.23529 430.09976
434.0 0.002304 428.06570 429.80521
419.0 0.002387 427.89700 429.52380
410.0 0.002439 427.72903 429.25372
411.0 0.002433 427.56189 428.99384
414.0 0.002415 427.39557 428.74298
457.0 0.002188 427.23001 428.50018
418.0 0.002392 427.06528 428.26468
423.0 0.002364 426.90125 428.03568
488.0 0.002049 426.73798 427.81259
439.0 0.002278 426.57553 427.59491
413.0 0.002421 426.41376 427.38205
442.0 0.002262 426.25278 427.17383
441.0 0.002268 426.09247 426.96957
427.0 0.002342 425.93292 426.76920
407.0 0.002457 425.77408 426.57230
399.0 0.002506 425.61591 426.37860
403.0 0.002481 425.45847 426.18799
394.0 0.002538 425.30167 426.00012
407.0 0.002457 425.14557 425.81491
424.0 0.002358 424.99011 425.63214
412.0 0.002427 424.83530 425.45163
395.0 0.002532 424.68118 424.90527
420.0 0.002381 424.52765 424.74258
414.0 0.002415 424.37473 424.58109
394.0 0.002538 424.22241 424.42072
433.0 0.002309 424.07074 424.26138
361.0 0.002770 423.91965 423.91989
441.0 0.002268 423.76913 423.76938
414.0 0.002415 423.61914 423.61938
415.0 0.002410 423.46979 423.47000
413.0 0.002421 423.32089 423.32114
430.0 0.002326 423.17261 423.17285
413.0 0.002421 423.02481 423.04156
389.0 0.002571 422.87750 422.89490
436.0 0.002294 422.73077 422.74887
436.0 0.002294 422.58447 422.60333
415.0 0.002410 422.43869 422.45834
428.0 0.002336 422.29330 422.32193
389.0 0.002571 422.14841 422.17825
403.0 0.002481 422.00400 422.03519
375.0 0.002667 421.85995 421.89255
442.0 0.002262 421.71640 421.75049
413.0 0.002421 421.57318 421.60889
435.0 0.002299 421.43039 421.46783
468.0 0.002137 421.28799 421.32730
419.0 0.002387 421.14594 421.18726
439.0 0.002278 421.00430 421.04776
403.0 0.002481 420.86295 420.90875
425.0 0.002353 420.72195 420.77026
434.0 0.002304 420.58130 420.63235
410.0 0.002439 420.44092 420.49500
400.0 0.002500 420.30084 420.35818
420.0 0.002381 420.16104 420.22195
389.0 0.002571 420.02155 420.08640
408.0 0.002451 419.88229 419.95148
411.0 0.002433 419.74326 419.81720
437.0 0.002288 419.60449 419.68372
437.0 0.002288 419.46594 419.55099
415.0 0.002410 419.32758 419.41919
410.0 0.002439 419.18942 419.28839
393.0 0.002545 419.05142 419.15863
425.0 0.002353 418.91360 419.03015
396.0 0.002525 418.77594 418.90314
385.0 0.002597 418.63843 418.77850
415.0 0.002410 418.50104 418.65518
427.0 0.002342 418.36374 418.53409
420.0 0.002381 418.22662 418.41589
412.0 0.002427 418.08951 418.30112
404.0 0.002475 417.95245 418.19058
422.0 0.002370 417.81555 418.08594
430.0 0.002326 417.67865 417.98785
397.0 0.002519 417.54181 417.89944
407.0 0.002457 417.40494 417.82602
405.0 0.002469 417.26810 417.78000
411.0 0.002433 417.13129 417.79282
429.0 0.002331 416.99442 417.93729
405.0 0.002469 416.85757 418.35941
383.0 0.002611 416.72064 419.29913
421.0 0.002375 416.58368 421.05283
417.0 0.002398 416.44662 423.83621
409.0 0.002445 416.30951 427.57025
416.0 0.002404 416.17230 431.69086
437.0 0.002288 416.03494 435.15149
451.0 0.002217 415.89752 436.79608
394.0 0.002538 415.75995 436.23685
436.0 0.002294 415.62222 434.28583
445.0 0.002247 415.48434 432.07855
432.0 0.002315 415.34628 430.16043
392.0 0.002551 415.20804 428.35175
400.0 0.002500 415.06961 426.21317
422.0 0.002370 414.93094 423.68042
412.0 0.002427 414.79208 421.09976
392.0 0.002551 414.65298 418.84586
402.0 0.002488 414.51361 417.12723
395.0 0.002532 414.37405 415.95792
423.0 0.002364 414.23413 415.22012
428.0 0.002336 414.09399 414.75967
385.0 0.002597 413.95352 414.45026
411.0 0.002433 413.81274 414.21429
408.0 0.002451 413.67169 414.01233
420.0 0.002381 413.53024 413.82690
418.0 0.002392 413.38852 413.65118
390.0 0.002564 413.24637 413.48196
457.0 0.002188 413.10385 413.31769
397.0 0.002519 412.96103 413.15778
413.0 0.002421 412.81775 413.00217
393.0 0.002545 412.67413 412.85248
423.0 0.002364 412.53003 412.71271
431.0 0.002320 412.38556 412.59067
405.0 0.002469 412.24063 412.49805
408.0 0.002451 412.09521 412.44666
457.0 0.002188 411.94943 412.72437
446.0 0.002242 411.80310 412.76407
494.0 0.002024 411.65631 412.80469
456.0 0.002193 411.50906 412.79599
454.0 0.002203 411.36130 412.69650
464.0 0.002155 411.21304 412.51050
452.0 0.002212 411.06424 412.42764
476.0 0.002101 410.91489 412.20959
445.0 0.002247 410.76505 412.00632
439.0 0.002278 410.61462 411.80325
438.0 0.002283 410.46365 411.58389
436.0 0.002294 410.31210 411.35199
440.0 0.002273 410.15997 411.12421
428.0 0.002336 410.00729 410.91574
390.0 0.002564 409.85397 410.73334
409.0 0.002445 409.70010 410.57651
403.0 0.002481 409.54553 410.43976
411.0 0.002433 409.39038 410.31680
420.0 0.002381 409.23462 410.20322
424.0 0.002358 409.07819 410.09637
368.0 0.002717 408.92114 409.99542
421.0 0.002375 408.76340 409.90027
387.0 0.002584 408.60498 409.81143
430.0 0.002326 408.44595 409.72971
405.0 0.002469 408.28619 409.64023
423.0 0.002364 408.12582 409.57635
411.0 0.002433 407.96466 409.52301
406.0 0.002463 407.80283 409.48209
384.0 0.002604 407.64032 409.45557
384.0 0.002604 407.47705 409.44604
411.0 0.002433 407.31311 409.88086
422.0 0.002370 407.14838 409.93314
409.0 0.002445 406.98294 410.01535
400.0 0.002500 406.81677 410.13373
374.0 0.002674 406.64987 410.29614
413.0 0.002421 406.48221 410.51260
429.0 0.002331 406.31378 411.01419
413.0 0.002421 406.14453 411.39197
415.0 0.002410 405.97458 411.88077
425.0 0.002353 405.80386 412.52243
422.0 0.002370 405.63232 413.39941
416.0 0.002404 405.46005 414.70618
396.0 0.002525 405.28693 416.91504
446.0 0.002242 405.11307 421.10001
456.0 0.002193 404.93839 429.39600
413.0 0.002421 404.76294 445.31052
457.0 0.002188 404.58661 473.53610
490.0 0.002041 404.40948 517.34930
603.0 0.001658 404.23163 576.81158
652.0 0.001534 404.05289 645.14099
851.0 0.001175 403.87338 708.01587
829.0 0.001206 403.69299 747.27667
780.0 0.001282 403.51178 751.89020
777.0 0.001287 403.32980 728.45294
817.0 0.001224 403.14694 694.75555
776.0 0.001289 402.96332 663.84021
650.0 0.001538 402.77881 637.61389
589.0 0.001698 402.59344 609.80963
589.0 0.001698 402.40732 575.22632
561.0 0.001783 402.22028 535.98383
510.0 0.001961 402.03247 498.13748
467.0 0.002141 401.84378 466.71906
425.0 0.002353 401.65427 444.01382
447.0 0.002237 401.46390 429.59372
416.0 0.002404 401.27271 421.43362
440.0 0.002273 401.08069 417.24683
426.0 0.002347 400.88779 415.27222
398.0 0.002513 400.69406 414.46085
447.0 0.002237 400.49951 414.30707
406.0 0.002463 400.30414 414.63266
438.0 0.002283 400.10791 415.46353
411.0 0.002433 399.91083 417.05423
393.0 0.002545 399.71289 420.10300
425.0 0.002353 399.51419 426.21252
423.0 0.002364 399.31461 438.54227
468.0 0.002137 399.11420 462.22827
466.0 0.002146 398.91296 503.78812
540.0 0.001852 398.71088 568.55249
635.0 0.001575 398.50806 656.38892
861.0 0.001161 398.30432 757.68353
952.0 0.001050 398.09985 851.98828
936.0 0.001068 397.89447 912.94537
853.0 0.001172 397.68829 923.21460
814.0 0.001229 397.48138 890.88208
883.0 0.001133 397.27359 841.34277
779.0 0.001284 397.06506 794.94135
743.0 0.001346 396.85568 756.36102
642.0 0.001558 396.64551 717.50507
599.0 0.001669 396.43460 670.05707
587.0 0.001704 396.22284 616.42407
630.0 0.001587 396.01038 566.91382
519.0 0.001927 395.79706 532.16290
483.0 0.002070 395.58301 519.29126
531.0 0.001883 395.36819 529.94312
632.0 0.001582 395.15265 559.62677
731.0 0.001368 394.93634 598.22400
824.0 0.001214 394.71921 631.85938
751.0 0.001332 394.50140 647.37238
736.0 0.001359 394.28287 640.53967
725.0 0.001379 394.06360 619.24847
709.0 0.001410 393.84360 594.98193
636.0 0.001572 393.62289 574.09534
572.0 0.001748 393.40143 555.77557
564.0 0.001773 393.17935 535.25122
541.0 0.001848 392.95651 509.76447
509.0 0.001965 392.73300 482.17224
469.0 0.002132 392.50882 456.23480
437.0 0.002288 392.28394 435.03125
425.0 0.002353 392.05844 419.72974
387.0 0.002584 391.83224 409.71152
394.0 0.002538 391.60547 403.84683
370.0 0.002703 391.37796 400.48364
450.0 0.002222 391.14981 398.49020
380.0 0.002632 390.92114 397.17300
421.0 0.002375 390.69180 396.18439
399.0 0.002506 390.46191 395.37012
397.0 0.002519 390.23132 394.66180
416.0 0.002404 390.00018 394.02829
399.0 0.002506 389.76852 393.45209
416.0 0.002404 389.53625 392.92175
383.0 0.002611 389.30347 392.42908
344.0 0.002907 389.07007 391.96741
406.0 0.002463 388.83618 391.53180
385.0 0.002597 388.60178 391.11829
374.0 0.002674 388.36679 390.72345
395.0 0.002532 388.13138 390.34473
449.0 0.002227 387.89539 389.97995
361.0 0.002770 387.65897 389.62726
340.0 0.002941 387.42209 389.28522
385.0 0.002597 387.18469 388.95251
385.0 0.002597 386.94690 388.62817
374.0 0.002674 386.70865 388.31137
385.0 0.002597 386.46991 388.00113
401.0 0.002494 386.23080 387.69717
387.0 0.002584 385.99130 386.99045
379.0 0.002639 385.75137 386.71237
390.0 0.002564 385.51108 386.43835
339.0 0.002950 385.27039 386.16840
366.0 0.002732 385.02942 385.90244
391.0 0.002558 384.78799 385.43195
411.0 0.002433 384.54633 385.18179
342.0 0.002924 384.30426 384.93546
378.0 0.002646 384.06189 384.69360
381.0 0.002625 383.81927 384.45685
372.0 0.002688 383.57632 384.22629
368.0 0.002717 383.33316 384.00366
396.0 0.002525 383.08966 383.79251
352.0 0.002841 382.84592 383.60138
374.0 0.002674 382.60202 383.44998
363.0 0.002755 382.35779 383.18713
407.0 0.002457 382.11346 383.36783
375.0 0.002667 381.86884 383.79907
386.0 0.002591 381.62408 384.74561
362.0 0.002762 381.37918 386.39859
369.0 0.002710 381.13403 388.83087
378.0 0.002646 380.88885 391.76682
364.0 0.002747 380.64346 394.93207
379.0 0.002639 380.39798 397.37903
414.0 0.002415 380.15240 398.38858
396.0 0.002525 379.90674 397.77777
377.0 0.002653 379.66098 396.11551
376.0 0.002660 379.41519 394.19556
428.0 0.002336 379.16928 392.48663
360.0 0.002778 378.92340 390.97519
401.0 0.002494 378.67749 389.34851
391.0 0.002558 378.43158 387.39554
396.0 0.002525 378.18567 385.22070
398.0 0.002513 377.93973 383.09479
360.0 0.002778 377.69391 381.25470
371.0 0.002695 377.44806 379.81888
354.0 0.002825 377.20236 378.78525
359.0 0.002786 376.95663 378.07092
345.0 0.002899 376.71100 377.57059
393.0 0.002545 376.46558 377.19495
367.0 0.002725 376.22015 376.88522
378.0 0.002646 375.97498 376.60925
379.0 0.002639 375.72983 376.35144
373.0 0.002681 375.48486 376.10553
373.0 0.002681 375.24014 375.86893
361.0 0.002770 374.99554 375.64063
371.0 0.002695 374.75122 375.42053
368.0 0.002717 374.50702 375.20889
373.0 0.002681 374.26306 375.00632
400.0 0.002500 374.01941 374.81409
331.0 0.003021 373.77594 374.63348
363.0 0.002755 373.53284 374.46677
378.0 0.002646 373.28992 374.31656
364.0 0.002747 373.04733 374.18692
359.0 0.002786 372.80508 374.08398
379.0 0.002639 372.56314 374.01871
395.0 0.002532 372.32153 374.01465
333.0 0.003003 372.08026 374.12766
369.0 0.002710 371.83939 374.48587
349.0 0.002865 371.59888 375.35834
374.0 0.002674 371.35876 377.23764
367.0 0.002725 371.11908 380.86975
379.0 0.002639 370.87979 387.13803
347.0 0.002882 370.64090 396.69638
401.0 0.002494 370.40256 409.42490
411.0 0.002433 370.16458 423.96194
385.0 0.002597 369.92709 437.56812
403.0 0.002481 369.69012 446.68298
381.0 0.002625 369.45361 448.71246
386.0 0.002591 369.21768 444.36340
418.0 0.002392 368.98221 436.97696
463.0 0.002160 368.74734 429.65884
416.0 0.002404 368.51297 423.64023
367.0 0.002725 368.27914 418.19589
378.0 0.002646 368.04599 411.79224
375.0 0.002667 367.81332 403.86554
383.0 0.002611 367.58136 395.21121
356.0 0.002809 367.34991 387.04187
359.0 0.002786 367.11908 380.26202
344.0 0.002907 366.88898 375.25021
359.0 0.002786 366.65945 371.89697
336.0 0.002976 366.43069 369.81168
374.0 0.002674 366.20248 368.54190
378.0 0.002646 365.97501 367.74066
365.0 0.002740 365.74826 367.18073
375.0 0.002667 365.52219 366.73801
336.0 0.002976 365.29688 366.35519
378.0 0.002646 365.07224 366.00653
386.0 0.002591 364.84836 365.68088
332.0 0.003012 364.62524 365.37225
379.0 0.002639 364.40292 365.07721
367.0 0.002725 364.18134 364.79312
361.0 0.002770 363.96057 364.51831
356.0 0.002809 363.74054 364.25122
394.0 0.002538 363.52142 363.99084
346.0 0.002890 363.30304 363.73608
387.0 0.002584 363.08551 363.48636
353.0 0.002833 362.86884 363.24106
363.0 0.002755 362.65295 362.99960
382.0 0.002618 362.43802 362.76169
378.0 0.002646 362.22388 362.52692
341.0 0.002933 362.01068 362.29510
350.0 0.002857 361.79831 362.06586
401.0 0.002494 361.58682 361.83908
341.0 0.002933 361.37634 361.61465
359.0 0.002786 361.16669 361.39240
378.0 0.002646 360.95801 361.17218
342.0 0.002924 360.75021 360.95389
334.0 0.002994 360.54337 360.73743
350.0 0.002857 360.33749 360.52289
376.0 0.002660 360.13257 360.31006
339.0 0.002950 359.92865 360.09900
363.0 0.002755 359.72562 359.88962
381.0 0.002625 359.52365 359.68201
366.0 0.002732 359.32263 359.47617
324.0 0.003086 359.12259 359.27228
365.0 0.002740 358.92361 359.07086
351.0 0.002849 358.72559 358.87277
350.0 0.002857 358.52863 358.97946
379.0 0.002639 358.33267 358.80896
382.0 0.002618 358.13776 358.58905
350.0 0.002857 357.94388 358.46304
367.0 0.002725 357.75107 358.36905
367.0 0.002725 357.55923 358.30847
366.0 0.002732 357.36850 358.41937
378.0 0.002646 357.17886 358.39264
372.0 0.002688 356.99026 358.30524
375.0 0.002667 356.80273 358.19467
357.0 0.002801 356.61627 358.01974
392.0 0.002551 356.43094 357.80441
367.0 0.002725 356.24664 357.58142
356.0 0.002809 356.06351 357.37152
416.0 0.002404 355.88141 357.17670
397.0 0.002519 355.70041 356.98511
371.0 0.002695 355.52057 356.78494
335.0 0.002985 355.34180 356.57690
350.0 0.002857 355.16418 356.37164
381.0 0.002625 354.98764 356.17999
365.0 0.002740 354.81223 356.00958
353.0 0.002833 354.63797 355.86328
375.0 0.002667 354.46481 355.73975
354.0 0.002825 354.29282 355.63623
331.0 0.003021 354.12195 355.54971
372.0 0.002688 353.95221 355.47852
354.0 0.002825 353.78360 355.42233
397.0 0.002519 353.61612 355.38205
345.0 0.002899 353.44986 355.35953
410.0 0.002439 353.28467 355.35721
343.0 0.002915 353.12067 355.37854
347.0 0.002882 352.95779 355.42755
373.0 0.002681 352.79608 355.50943
365.0 0.002740 352.63553 355.63080
358.0 0.002793 352.47614 355.80011
350.0 0.002857 352.31784 356.02826
383.0 0.002611 352.16077 356.33041
395.0 0.002532 352.00482 356.73016
364.0 0.002747 351.85004 357.26974
374.0 0.002674 351.69641 358.03970
401.0 0.002494 351.54391 359.24612
380.0 0.002632 351.39261 361.34793
388.0 0.002577 351.24243 365.28345
350.0 0.002857 351.09344 372.73117
357.0 0.002801 350.94559 386.24512
387.0 0.002584 350.79886 408.91931
419.0 0.002387 350.65332 443.32346
471.0 0.002123 350.50891 489.82422
606.0 0.001650 350.36566 544.83362
656.0 0.001524 350.22354 600.14520
715.0 0.001399 350.08258 643.80859
639.0 0.001565 349.94278 664.32800
631.0 0.001585 349.80408 658.64337
650.0 0.001538 349.66656 635.27863
681.0 0.001468 349.53015 606.73987
647.0 0.001546 349.39487 581.44995
594.0 0.001684 349.26074 560.90790
521.0 0.001919 349.12772 540.85950
492.0 0.002033 348.99585 516.47919
462.0 0.002165 348.86508 486.46262
451.0 0.002217 348.73544 454.42853
427.0 0.002342 348.60690 424.56314
391.0 0.002558 348.47949 399.89670
365.0 0.002740 348.35318 381.69431
383.0 0.002611 348.22794 369.69186
363.0 0.002755 348.10382 362.27182
352.0 0.002841 347.98080 357.98642
352.0 0.002841 347.85886 355.53796
359.0 0.002786 347.73801 354.06955
376.0 0.002660 347.61823 353.09583
336.0 0.002976 347.49951 352.37592
399.0 0.002506 347.38190 351.79926
380.0 0.002632 347.26529 351.31522
382.0 0.002618 347.14978 350.90149
350.0 0.002857 347.03534 350.53979
387.0 0.002584 346.92188 350.22278
378.0 0.002646 346.80951 349.94376
346.0 0.002890 346.69815 349.69736
347.0 0.002882 346.58786 349.48004
364.0 0.002747 346.47855 349.28958
375.0 0.002667 346.37021 349.12204
377.0 0.002653 346.26297 348.97687
386.0 0.002591 346.15665 348.85315
363.0 0.002755 346.05139 348.75061
377.0 0.002653 345.94705 348.66919
374.0 0.002674 345.84372 348.60965
364.0 0.002747 345.74139 348.57324
367.0 0.002725 345.63998 348.56171
358.0 0.002793 345.53955 348.57755
366.0 0.002732 345.44006 348.62424
334.0 0.002994 345.34149 348.70627
368.0 0.002717 345.24390 348.82953
343.0 0.002915 345.14719 349.00189
371.0 0.002695 345.05142 349.23410
371.0 0.002695 344.95651 349.54230
342.0 0.002924 344.86255 349.95447
366.0 0.002732 344.76947 350.52698
343.0 0.002915 344.67728 351.38623
374.0 0.002674 344.58594 352.81284
363.0 0.002755 344.49545 355.39426
351.0 0.002849 344.40585 360.22571
382.0 0.002618 344.31708 369.07535
354.0 0.002825 344.22913 384.32367
367.0 0.002725 344.14203 408.11218
419.0 0.002387 344.05576 442.39716
451.0 0.002217 343.97025 485.77109
546.0 0.001832 343.88559 533.60437
608.0 0.001645 343.80170 577.75452
582.0 0.001718 343.71860 608.08923
557.0 0.001795 343.63623 617.16461
564.0 0.001773 343.55463 605.96509
582.0 0.001718 343.47379 583.69305
557.0 0.001795 343.39368 559.80005
528.0 0.001894 343.31433 539.60217
520.0 0.001923 343.23566 522.89862
449.0 0.002227 343.15771 505.62714
445.0 0.002247 343.08047 484.07297
445.0 0.002247 343.00391 458.30927
452.0 0.002212 342.92804 431.30914
396.0 0.002525 342.85281 406.39355
408.0 0.002451 342.77823 385.91516
372.0 0.002688 342.70432 370.79562
377.0 0.002653 342.63101 360.66559
309.0 0.003236 342.55838 354.41824
348.0 0.002874 342.48633 350.77783
358.0 0.002793 342.41489 348.69485
384.0 0.002604 342.34402 347.46719
354.0 0.002825 342.27374 346.69977
351.0 0.002849 342.20404 346.20618
375.0 0.002667 342.13489 345.91486
370.0 0.002703 342.06628 345.80414
366.0 0.002732 341.99823 345.85864
351.0 0.002849 341.93066 346.04144
320.0 0.003125 341.86365 346.28134
380.0 0.002632 341.79712 346.47504
355.0 0.002817 341.73108 346.51163
342.0 0.002924 341.66553 346.33093
367.0 0.002725 341.60043 345.97211
368.0 0.002717 341.53580 345.53833
380.0 0.002632 341.47162 345.12067
378.0 0.002646 341.40784 344.75894
334.0 0.002994 341.34454 344.43686
357.0 0.002801 341.28162 344.10553
363.0 0.002755 341.21912 343.79910
350.0 0.002857 341.15695 343.39291
350.0 0.002857 341.09521 342.98621
349.0 0.002865 341.03384 342.61273
334.0 0.002994 340.97281 342.29440
308.0 0.003247 340.91211 342.03833
343.0 0.002915 340.85178 341.87134
355.0 0.002817 340.79175 341.71603
344.0 0.002907 340.73203 341.59055
359.0 0.002786 340.67258 341.48358
398.0 0.002513 340.61346 341.38791
354.0 0.002825 340.55460 341.29913
324.0 0.003086 340.49603 341.21500
363.0 0.002755 340.43768 341.13437
383.0 0.002611 340.37961 341.05664
337.0 0.002967 340.32175 340.98145
345.0 0.002899 340.26410 340.90866
372.0 0.002688 340.20667 340.83807
321.0 0.003115 340.14941 340.51810
367.0 0.002725 340.09238 340.46078
324.0 0.003086 340.03552 340.40488
342.0 0.002924 339.97882 340.35025
338.0 0.002959 339.92227 340.29703
315.0 0.003175 339.86588 340.24518
314.0 0.003185 339.80960 340.06714
327.0 0.003058 339.75348 340.02283
358.0 0.002793 339.69745 339.97974
341.0 0.002933 339.64151 339.93796
335.0 0.002985 339.58569 339.89758
343.0 0.002915 339.52991 339.85870
354.0 0.002825 339.47424 339.82159
327.0 0.003058 339.41861 339.78638
342.0 0.002924 339.36304 339.75320
375.0 0.002667 339.30753 339.72241
324.0 0.003086 339.25201 339.69424
356.0 0.002809 339.19653 339.66907
339.0 0.002950 339.14105 339.64734
354.0 0.002825 339.08557 339.62946
331.0 0.003021 339.03009 339.61618
341.0 0.002933 338.97458 339.60812
364.0 0.002747 338.91907 339.60614
324.0 0.003086 338.86349 339.61142
361.0 0.002770 338.80789 339.62531
366.0 0.002732 338.75223 339.64938
336.0 0.002976 338.69647 339.68585
331.0 0.003021 338.64066 339.73740
329.0 0.003040 338.58475 339.80792
304.0 0.003289 338.52878 339.90302
370.0 0.002703 338.47266 340.03275
335.0 0.002985 338.41644 340.21744
316.0 0.003165 338.36014 340.50143
334.0 0.002994 338.30368 340.98053
338.0 0.002959 338.24707 341.84750
347.0 0.002882 338.19034 343.45154
332.0 0.003012 338.13345 346.34775
389.0 0.002571 338.07639 351.27527
335.0 0.002985 338.01917 359.00986
332.0 0.003012 337.96173 370.05069
375.0 0.002667 337.90414 384.19907
406.0 0.002463 337.84634 400.24496
393.0 0.002545 337.78839 415.86661
422.0 0.002370 337.73016 427.97867
415.0 0.002410 337.67175 433.75110
440.0 0.002273 337.61313 432.43018
440.0 0.002273 337.55426 426.05258
452.0 0.002212 337.49515 417.81500
414.0 0.002415 337.43579 410.15210
402.0 0.002488 337.37616 403.92053
403.0 0.002481 337.31631 398.42630
368.0 0.002717 337.25616 392.23083
403.0 0.002481 337.19577 384.48874
356.0 0.002809 337.13510 375.55511
376.0 0.002660 337.07413 366.45129
363.0 0.002755 337.01288 358.18777
318.0 0.003145 336.95132 351.43375
341.0 0.002933 336.88947 346.42880
351.0 0.002849 336.82730 343.03079
334.0 0.002994 336.76483 340.88586
335.0 0.002985 336.70203 339.59409
333.0 0.003003 336.63892 338.82059
314.0 0.003185 336.57544 338.33542
334.0 0.002994 336.51166 338.00153
325.0 0.003077 336.44754 337.74643
326.0 0.003067 336.38309 337.53485
354.0 0.002825 336.31827 337.35004
313.0 0.003195 336.25308 337.18402
361.0 0.002770 336.18756 337.03214
314.0 0.003185 336.12167 336.89151
356.0 0.002809 336.05542 336.76016
334.0 0.002994 335.98877 336.63638
345.0 0.002899 335.92178 336.51901
334.0 0.002994 335.85440 336.40695
350.0 0.002857 335.78662 336.29938
303.0 0.003300 335.71851 336.19562
329.0 0.003040 335.64996 336.09650
294.0 0.003401 335.58102 336.00336
337.0 0.002967 335.51172 335.90811
320.0 0.003125 335.44199 335.81488
331.0 0.003021 335.37189 335.72336
334.0 0.002994 335.30136 335.63333
295.0 0.003390 335.23047 335.54459
333.0 0.003003 335.15912 335.45764
332.0 0.003012 335.08737 335.37317
320.0 0.003125 335.01523 335.28723
344.0 0.002907 334.94266 335.20209
326.0 0.003067 334.86969 335.11746
340.0 0.002941 334.79630 335.03326
336.0 0.002976 334.72247 334.94955
338.0 0.002959 334.64825 334.86609
319.0 0.003135 334.57361 334.78296
332.0 0.003012 334.49854 334.69992
293.0 0.003413 334.42303 334.61719
334.0 0.002994 334.34711 334.53448
332.0 0.003012 334.27075 334.45184
300.0 0.003333 334.19400 334.36932
355.0 0.002817 334.11679 334.28668
316.0 0.003165 334.03918 334.20416
312.0 0.003205 333.96115 334.12152
327.0 0.003058 333.88269 334.03885
336.0 0.002976 333.80380 333.95615
324.0 0.003086 333.72449 333.87335
333.0 0.003003 333.64474 333.79041
331.0 0.003021 333.56458 333.70746
336.0 0.002976 333.48401 333.62436
313.0 0.003195 333.40298 333.54114
307.0 0.003257 333.32156 333.45789
316.0 0.003165 333.23969 333.31158
310.0 0.003226 333.15741 333.23007
308.0 0.003247 333.07474 333.14838
352.0 0.002841 332.99164 333.06656
336.0 0.002976 332.90814 332.98465
324.0 0.003086 332.82419 332.90271
329.0 0.003040 332.73984 332.82068
327.0 0.003058 332.65509 332.70764
323.0 0.003096 332.56995 332.68155
329.0 0.003040 332.48441 332.60266
350.0 0.002857 332.39841 332.52405
310.0 0.003226 332.31207 332.44589
317.0 0.003155 332.22531 332.36838
342.0 0.002924 332.13815 332.29172
307.0 0.003257 332.05060 332.21606
320.0 0.003125 331.96268 332.16901
342.0 0.002924 331.87433 332.09781
368.0 0.002717 331.78561 332.03000
355.0 0.002817 331.69653 331.96777
346.0 0.002890 331.60709 331.91638
325.0 0.003077 331.51724 331.88617
345.0 0.002899 331.42703 331.95587
346.0 0.002890 331.33649 332.04132
354.0 0.002825 331.24554 332.24792
335.0 0.002985 331.15427 332.63455
311.0 0.003215 331.06262 333.25690
332.0 0.003012 330.97061 334.14261
292.0 0.003425 330.87830 335.26178
302.0 0.003311 330.78558 336.53751
351.0 0.002849 330.69260 337.72620
312.0 0.003205 330.59924 338.62122
338.0 0.002959 330.50555 339.01523
330.0 0.003030 330.41156 338.85312
335.0 0.002985 330.31723 338.28027
357.0 0.002801 330.22263 337.53625
327.0 0.003058 330.12766 336.81735
352.0 0.002841 330.03241 336.20987
308.0 0.003247 329.93686 335.68347
335.0 0.002985 329.84100 335.13528
366.0 0.002732 329.74490 334.47937
341.0 0.002933 329.64847 333.71204
316.0 0.003165 329.55179 332.89801
343.0 0.002915 329.45483 332.11862
345.0 0.002899 329.35760 331.43884
327.0 0.003058 329.26013 330.89438
342.0 0.002924 329.16235 330.48920
318.0 0.003145 329.06436 330.20520
359.0 0.002786 328.96613 330.01343
334.0 0.002994 328.86765 329.88538
305.0 0.003279 328.76895 329.79889
341.0 0.002933 328.67001 329.73978
345.0 0.002899 328.57083 329.70041
375.0 0.002667 328.47150 329.67776
330.0 0.003030 328.37189 329.67191
344.0 0.002907 328.27213 329.68527
326.0 0.003067 328.17215 329.72314
318.0 0.003145 328.07196 329.79636
340.0 0.002941 327.97162 329.92755
319.0 0.003135 327.87109 330.16434
345.0 0.002899 327.77042 330.60168
340.0 0.002941 327.66956 331.41476
318.0 0.003145 327.56851 332.96063
355.0 0.002817 327.46738 335.52048
337.0 0.002967 327.36603 339.66470
311.0 0.003215 327.26462 345.85733
311.0 0.003215 327.16302 354.32056
333.0 0.003003 327.06131 364.79004
346.0 0.002890 326.95950 376.35266
368.0 0.002717 326.85754 387.48608
383.0 0.002611 326.75555 396.14127
341.0 0.002933 326.65341 400.59152
371.0 0.002695 326.55118 400.34769
382.0 0.002618 326.44888 396.69193
353.0 0.002833 326.34653 391.85373
379.0 0.002639 326.24408 387.89023
354.0 0.002825 326.14154 386.09393
333.0 0.003003 326.03897 386.84601
352.0 0.002841 325.93637 389.77271
371.0 0.002695 325.83371 394.22333
352.0 0.002841 325.73102 399.66531
395.0 0.002532 325.62833 405.51474
449.0 0.002227 325.52557 410.72702
411.0 0.002433 325.42282 413.77017
435.0 0.002299 325.32004 413.21133
400.0 0.002500 325.21729 408.77124
409.0 0.002445 325.11453 401.71939
445.0 0.002247 325.01178 394.01913
401.0 0.002494 324.90909 387.09735
394.0 0.002538 324.80640 381.56415
414.0 0.002415 324.70374 377.03009
383.0 0.002611 324.60110 372.48267
353.0 0.002833 324.49854 367.03210
375.0 0.002667 324.39603 360.53226
383.0 0.002611 324.29358 353.49457
348.0 0.002874 324.19122 346.66147
324.0 0.003086 324.08890 340.60626
329.0 0.003040 323.98666 335.72571
318.0 0.003145 323.88455 332.10681
343.0 0.002915 323.78250 329.61591
327.0 0.003058 323.68057 328.00354
359.0 0.002786 323.57874 326.99921
339.0 0.002950 323.47702 326.37772
362.0 0.002762 323.37543 325.98059
333.0 0.003003 323.27396 325.71429
333.0 0.003003 323.17264 325.52383
344.0 0.002907 323.07144 325.38312
347.0 0.002882 322.97040 325.28128
317.0 0.003155 322.86954 325.21573
359.0 0.002786 322.76880 325.19067
327.0 0.003058 322.66824 325.21890
316.0 0.003165 322.56787 325.33081
321.0 0.003115 322.46765 325.59073
331.0 0.003021 322.36761 326.12454
338.0 0.002959 322.26779 327.15717
321.0 0.003115 322.16815 329.04599
315.0 0.003175 322.06873 332.28870
305.0 0.003279 321.96951 337.46143
335.0 0.002985 321.87051 345.06476
327.0 0.003058 321.77173 355.29257
375.0 0.002667 321.67319 367.76404
398.0 0.002513 321.57483 381.37753
511.0 0.001957 321.47675 394.30664
475.0 0.002105 321.37891 404.27902
463.0 0.002160 321.28128 409.28946
457.0 0.002188 321.18396 408.71881
500.0 0.002000 321.08685 403.85522
478.0 0.002092 320.99002 396.98837
419.0 0.002387 320.89349 390.13693
426.0 0.002347 320.79721 384.35352
420.0 0.002381 320.70120 379.58633
389.0 0.002571 320.60550 374.94626
364.0 0.002747 320.51007 369.43005
366.0 0.002732 320.41492 362.68857
376.0 0.002660 320.32007 355.14331
391.0 0.002558 320.22556 347.51715
344.0 0.002907 320.13132 340.64847
347.0 0.002882 320.03741 335.00937
350.0 0.002857 319.94382 330.85574
352.0 0.002841 319.85052 328.22226
353.0 0.002833 319.75760 327.04517
353.0 0.002833 319.66495 327.27921
285.0 0.00351 319.57266 328.93973
329.0 0.003040 319.48071 332.17905
313.0 0.003195 319.38910 337.02365
303.0 0.003300 319.29782 343.31894
421.0 0.002375 319.20691 350.57993
399.0 0.002506 319.11630 357.93375
424.0 0.002358 319.02612 364.14282
467.0 0.002141 318.93625 368.09283
425.0 0.002353 318.84677 368.98853
410.0 0.002439 318.75763 367.09714
409.0 0.002445 318.66882 363.51804
441.0 0.002268 318.58044 359.49069
405.0 0.002469 318.49243 355.85968
421.0 0.002375 318.40479 352.85449
354.0 0.002825 318.31750 350.23230
346.0 0.002890 318.23059 347.38571
337.0 0.002967 318.14410 343.90036
368.0 0.002717 318.05798 339.80035
378.0 0.002646 317.97226 335.43729
336.0 0.002976 317.88690 331.23526
306.0 0.003268 317.80194 327.54321
350.0 0.002857 317.71741 324.56305
326.0 0.003067 317.63321 322.33548
299.0 0.003344 317.54947 320.77917
305.0 0.003279 317.46606 319.74500
351.0 0.002849 317.38312 319.07501
330.0 0.003030 317.30057 318.63596
324.0 0.003086 317.21838 318.33237
329.0 0.003040 317.13666 318.10455
316.0 0.003165 317.05530 317.91833
325.0 0.003077 316.97433 317.75589
323.0 0.003096 316.89380 317.60831
346.0 0.002890 316.81369 317.47101
295.0 0.003390 316.73395 317.34155
313.0 0.003195 316.65466 317.21854
310.0 0.003226 316.57571 317.10126
302.0 0.003311 316.49725 316.98819
296.0 0.003378 316.41916 316.87906
336.0 0.002976 316.34149 316.77344
312.0 0.003205 316.26425 316.67090
297.0 0.003367 316.18738 316.57108
331.0 0.003021 316.11096 316.47369
291.0 0.003436 316.03491 316.37851
322.0 0.003106 315.95932 316.28558
300.0 0.003333 315.88406 316.19418
333.0 0.003003 315.80927 316.10455
317.0 0.003155 315.73489 315.95245
295.0 0.003390 315.66089 315.86761
306.0 0.003268 315.58731 315.78406
351.0 0.002849 315.51413 315.70163
317.0 0.003155 315.44135 315.62216
289.0 0.003460 315.36899 315.54190
358.0 0.002793 315.29700 315.46252
346.0 0.002890 315.22543 315.35233
343.0 0.002915 315.15427 315.27530
315.0 0.003175 315.08350 315.19946
302.0 0.003311 315.01312 315.12442
312.0 0.003205 314.94312 315.05005
282.0 0.00355 314.87354 314.97733
305.0 0.003279 314.80432 314.90433
300.0 0.003333 314.73550 314.83197
293.0 0.003413 314.66705 314.76193
292.0 0.003425 314.59900 314.69089
306.0 0.003268 314.53131 314.62042
301.0 0.003322 314.46402 314.55045
312.0 0.003205 314.39709 314.48111
306.0 0.003268 314.33057 314.41232
301.0 0.003322 314.26437 314.34402
287.0 0.003484 314.19855 314.27631
307.0 0.003257 314.13312 314.20999
330.0 0.003030 314.06799 314.14331
317.0 0.003155 314.00330 314.04013
297.0 0.003367 313.93887 313.97562
325.0 0.003077 313.87488 313.91153
309.0 0.003236 313.81119 313.84790
291.0 0.003436 313.74783 313.78467
310.0 0.003226 313.68484 313.72198
313.0 0.003195 313.62216 313.65973
296.0 0.003378 313.55984 313.59793
314.0 0.003185 313.49783 313.51852
303.0 0.003300 313.43616 313.45825
277.0 0.00361 313.37482 313.39859
315.0 0.003175 313.31378 313.33942
295.0 0.003390 313.25305 313.28088
323.0 0.003096 313.19263 313.22330
301.0 0.003322 313.13251 313.16699
281.0 0.00356 313.07269 313.11273
306.0 0.003268 313.01318 313.06201
307.0 0.003257 312.95395 313.01672
300.0 0.003333 312.89502 312.98010
326.0 0.003067 312.83636 312.95529
318.0 0.003145 312.77798 312.94565
327.0 0.003058 312.71985 312.95313
328.0 0.003049 312.66202 312.97644
297.0 0.003367 312.60443 313.01074
304.0 0.003289 312.54709 313.04651
313.0 0.003195 312.49005 313.07111
310.0 0.003226 312.43320 313.07150
332.0 0.003012 312.37662 313.03897
310.0 0.003226 312.32028 312.97620
304.0 0.003289 312.26416 312.89621
300.0 0.003333 312.20828 312.81680
304.0 0.003289 312.15262 312.75500
307.0 0.003257 312.09717 312.72488
303.0 0.003300 312.04190 312.73706
304.0 0.003289 311.98685 312.79880
293.0 0.003413 311.93201 312.91440
341.0 0.002933 311.87738 313.08447
339.0 0.002950 311.82291 313.30115
324.0 0.003086 311.76862 313.54355
310.0 0.003226 311.71454 313.77588
301.0 0.003322 311.66061 313.95282
290.0 0.003448 311.60681 314.03369
287.0 0.003484 311.55322 314.00528
329.0 0.003040 311.49976 313.89703
284.0 0.00352 311.44644 313.76678
316.0 0.003165 311.39328 313.67316
276.0 0.00362 311.34021 313.65448
285.0 0.00351 311.28732 313.71805
336.0 0.002976 311.23453 313.83820
361.0 0.002770 311.18185 313.96466
338.0 0.002959 311.12930 314.04080
321.0 0.003115 311.07684 314.02112
319.0 0.003135 311.02451 313.88168
345.0 0.002899 310.97223 313.64990
347.0 0.002882 310.92004 313.32901
313.0 0.003195 310.86795 312.99213
335.0 0.002985 310.81592 312.68359
283.0 0.00353 310.76395 312.42575
319.0 0.003135 310.71207 312.21683
293.0 0.003413 310.66019 312.03632
299.0 0.003344 310.60840 311.85724
310.0 0.003226 310.55664 311.67078
323.0 0.003096 310.50494 311.45691
319.0 0.003135 310.45322 311.23532
341.0 0.002933 310.40155 311.02014
302.0 0.003311 310.34991 310.82370
300.0 0.003333 310.29825 310.68448
297.0 0.003367 310.24661 310.54755
298.0 0.003356 310.19498 310.43369
297.0 0.003367 310.14331 310.34137
293.0 0.003413 310.09164 310.26483
310.0 0.003226 310.03995 310.19891
258.0 0.00388 309.98822 310.13968
320.0 0.003125 309.93649 310.08447
327.0 0.003058 309.88467 310.04694
295.0 0.003390 309.83286 309.99774
304.0 0.003289 309.78094 309.94797
305.0 0.003279 309.72900 309.89899
299.0 0.003344 309.67697 309.85068
321.0 0.003115 309.62488 309.80301
306.0 0.003268 309.57272 309.75604
312.0 0.003205 309.52048 309.70972
300.0 0.003333 309.46814 309.66403
326.0 0.003067 309.41568 309.61902
301.0 0.003322 309.36316 309.57480
323.0 0.003096 309.31049 309.53128
306.0 0.003268 309.25772 309.48880
290.0 0.003448 309.20483 309.44708
327.0 0.003058 309.15182 309.40665
291.0 0.003436 309.09866 309.36737
343.0 0.002915 309.04541 309.32889
327.0 0.003058 308.99194 309.29254
308.0 0.003247 308.93839 309.25793
332.0 0.003012 308.88464 309.22531
286.0 0.003497 308.83075 309.19522
308.0 0.003247 308.77667 309.16788
285.0 0.00351 308.72244 309.14386
311.0 0.003215 308.66803 309.12390
320.0 0.003125 308.61340 309.10892
303.0 0.003300 308.55862 309.10135
290.0 0.003448 308.50363 309.10440
287.0 0.003484 308.44846 309.12506
303.0 0.003300 308.39304 309.17667
304.0 0.003289 308.33743 309.28391
320.0 0.003125 308.28159 309.48871
295.0 0.003390 308.22556 309.85486
309.0 0.003236 308.16925 310.47775
281.0 0.00356 308.11273 311.46692
302.0 0.003311 308.05597 312.93445
272.0 0.00368 307.99899 314.95731
285.0 0.00351 307.94174 317.53351
307.0 0.003257 307.88422 320.54596
316.0 0.003165 307.82648 323.74017
388.0 0.002577 307.76843 326.74362
348.0 0.002874 307.71014 329.12195
329.0 0.003040 307.65158 330.50739
374.0 0.002674 307.59271 330.80087
311.0 0.003215 307.53360 330.28317
373.0 0.002681 307.47415 329.50473
321.0 0.003115 307.41443 329.06570
331.0 0.003021 307.35443 329.45300
325.0 0.003077 307.29413 330.94574
307.0 0.003257 307.23352 333.56265
306.0 0.003268 307.17258 337.06741
354.0 0.002825 307.11130 341.03885
337.0 0.002967 307.04977 344.96313
369.0 0.002710 306.98788 348.25885
343.0 0.002915 306.92566 350.31018
369.0 0.002710 306.86313 350.63788
315.0 0.003175 306.80023 349.17105
374.0 0.002674 306.73703 346.34839
361.0 0.002770 306.67346 342.88882
350.0 0.002857 306.60956 339.47052
333.0 0.003003 306.54529 336.51321
349.0 0.002865 306.48068 334.10577
356.0 0.002809 306.41574 332.03491
308.0 0.003247 306.35040 329.92838
306.0 0.003268 306.28473 327.48367
327.0 0.003058 306.21866 324.62726
332.0 0.003012 306.15222 321.50256
321.0 0.003115 306.08542 318.35370
334.0 0.002994 306.01822 315.42163
303.0 0.003300 305.95068 312.88861
313.0 0.003195 305.88272 310.84586
334.0 0.002994 305.81439 309.29956
323.0 0.003096 305.74570 308.19077
288.0 0.003472 305.67657 307.42700
320.0 0.003125 305.60709 306.91147
304.0 0.003289 305.53717 306.56033
313.0 0.003195 305.46686 306.31134
309.0 0.003236 305.39618 306.12259
323.0 0.003096 305.32507 305.96820
307.0 0.003257 305.25357 305.83374
284.0 0.00352 305.18164 305.74130
287.0 0.003484 305.10934 305.66269
315.0 0.003175 305.03659 305.55594
266.0 0.00376 304.96341 305.45355
287.0 0.003484 304.88986 305.35477
305.0 0.003279 304.81586 305.25909
337.0 0.002967 304.74146 305.16611
312.0 0.003205 304.66663 305.07541
286.0 0.003497 304.59137 305.00168
293.0 0.003413 304.51569 304.91565
315.0 0.003175 304.43958 304.84961
294.0 0.003401 304.36304 304.76917
306.0 0.003268 304.28607 304.74747
338.0 0.002959 304.20868 304.67816
299.0 0.003344 304.13083 304.61807
278.0 0.00360 304.05258 304.57288
296.0 0.003378 303.97388 304.55002
339.0 0.002950 303.89474 304.55917
293.0 0.003413 303.81516 304.60995
286.0 0.003497 303.73517 304.70950
292.0 0.003425 303.65469 304.88623
279.0 0.00358 303.57379 305.07849
323.0 0.003096 303.49249 305.29315
338.0 0.002959 303.41071 305.49957
275.0 0.00364 303.32849 305.66010
311.0 0.003215 303.24582 305.73816
280.0 0.00357 303.16272 305.69434
292.0 0.003425 303.07919 305.57245
317.0 0.003155 302.99521 305.38528
330.0 0.003030 302.91080 305.17224
352.0 0.002841 302.82593 304.96515
297.0 0.003367 302.74060 304.78055
327.0 0.003058 302.65485 304.61838
286.0 0.003497 302.56863 304.46487
318.0 0.003145 302.48203 304.29340
295.0 0.003390 302.39493 304.11136
314.0 0.003185 302.30737 303.91129
303.0 0.003300 302.21942 303.70422
306.0 0.003268 302.13098 303.50385
321.0 0.003115 302.04214 303.29388
293.0 0.003413 301.95282 303.13803
303.0 0.003300 301.86307 303.01807
280.0 0.00357 301.77289 302.93079
297.0 0.003367 301.68225 302.87436
322.0 0.003106 301.59122 302.84628
325.0 0.003077 301.49969 302.84528
311.0 0.003215 301.40775 302.87402
314.0 0.003185 301.31537 302.92752
314.0 0.003185 301.22253 303.05466
320.0 0.003125 301.12927 303.28558
282.0 0.00355 301.03558 303.69363
307.0 0.003257 300.94144 304.40018
271.0 0.00369 300.84689 305.58862
298.0 0.003356 300.75189 307.50818
295.0 0.003390 300.65646 310.45465
284.0 0.00352 300.56061 314.72708
317.0 0.003155 300.46429 320.54190
269.0 0.00372 300.36761 327.93124
312.0 0.003205 300.27045 336.65326
327.0 0.003058 300.17288 346.12399
365.0 0.002740 300.07489 355.44983
308.0 0.003247 299.97644 363.53616
375.0 0.002667 299.87762 369.36597
342.0 0.002924 299.77835 372.39569
358.0 0.002793 299.67871 372.85986
346.0 0.002890 299.57858 371.76544
376.0 0.002660 299.47809 370.50946
361.0 0.002770 299.37717 370.35568
349.0 0.002865 299.27585 372.03171
347.0 0.002882 299.17407 375.53036
349.0 0.002865 299.07190 380.12305
452.0 0.002212 298.96936 384.57495
479.0 0.002088 298.86636 387.50705
430.0 0.002326 298.76300 387.82532
444.0 0.002252 298.65921 384.86731
420.0 0.002381 298.55505 378.95465
455.0 0.002198 298.45044 371.13147
395.0 0.002532 298.34549 362.75110
412.0 0.002427 298.24008 354.96429
338.0 0.002959 298.13431 348.44815
343.0 0.002915 298.02817 343.31937
364.0 0.002747 297.92160 339.21750
326.0 0.003067 297.81467 335.53659
351.0 0.002849 297.70734 331.64474
326.0 0.003067 297.59964 327.30939
347.0 0.002882 297.49155 322.64050
328.0 0.003049 297.38306 317.88217
305.0 0.003279 297.27420 313.37799
314.0 0.003185 297.16495 309.39194
311.0 0.003215 297.05539 306.08704
313.0 0.003195 296.94537 303.50601
296.0 0.003378 296.83502 301.59741
335.0 0.002985 296.72433 300.24493
304.0 0.003289 296.61322 299.31155
328.0 0.003049 296.50180 298.68073
269.0 0.00372 296.38998 298.22910
310.0 0.003226 296.27780 297.89441
337.0 0.002967 296.16528 297.62921
319.0 0.003135 296.05237 297.40518
303.0 0.003300 295.93915 297.20779
313.0 0.003195 295.82556 297.02826
297.0 0.003367 295.71158 296.86292
316.0 0.003165 295.59732 296.71048
313.0 0.003195 295.48267 296.57089
288.0 0.003472 295.36771 296.44476
321.0 0.003115 295.25238 296.33255
317.0 0.003155 295.13669 296.23422
293.0 0.003413 295.02069 296.14835
291.0 0.003436 294.90436 296.07187
287.0 0.003484 294.78772 296.00012
296.0 0.003378 294.67068 295.92746
302.0 0.003311 294.55334 295.84787
298.0 0.003356 294.43570 295.75723
283.0 0.00353 294.31769 295.65540
275.0 0.00364 294.19940 295.54688
290.0 0.003448 294.08075 295.43854
289.0 0.003460 293.96179 295.33774
299.0 0.003344 293.84253 295.25031
304.0 0.003289 293.72293 295.18121
291.0 0.003436 293.60306 295.13696
309.0 0.003236 293.48282 295.12823
274.0 0.00365 293.36227 295.17834
314.0 0.003185 293.24149 295.39813
279.0 0.00358 293.12033 295.73410
291.0 0.003436 292.99890 296.36978
290.0 0.003448 292.87717 297.47171
283.0 0.00353 292.75513 299.21878
305.0 0.003279 292.63275 301.85464
290.0 0.003448 292.51010 305.60568
338.0 0.002959 292.38721 310.51706
307.0 0.003257 292.26395 316.49448
301.0 0.003322 292.14047 323.24359
384.0 0.002604 292.01663 330.13007
412.0 0.002427 291.89258 336.42508
432.0 0.002315 291.76816 341.26801
372.0 0.002688 291.64352 343.99887
388.0 0.002577 291.51855 344.37009
370.0 0.002703 291.39331 342.84308
400.0 0.002500 291.26782 340.22525
386.0 0.002591 291.14203 337.56860
319.0 0.003135 291.01599 335.54727
382.0 0.002618 290.88962 334.51907
349.0 0.002865 290.76303 334.42313
341.0 0.002933 290.63614 334.83652
379.0 0.002639 290.50900 335.15125
364.0 0.002747 290.38156 334.81683
422.0 0.002370 290.25388 333.46802
323.0 0.003096 290.12595 331.03976
385.0 0.002597 289.99771 327.60086
379.0 0.002639 289.86926 323.47678
349.0 0.002865 289.74051 319.14429
336.0 0.002976 289.61151 315.07324
335.0 0.002985 289.48227 311.58893
306.0 0.003268 289.35275 308.81738
302.0 0.003311 289.22302 306.69806
312.0 0.003205 289.09299 305.02588
341.0 0.002933 288.96271 303.53528
319.0 0.003135 288.83224 302.00372
328.0 0.003049 288.70145 300.33063
304.0 0.003289 288.57047 298.54410
339.0 0.002950 288.43921 296.72906
308.0 0.003247 288.30768 294.99844
303.0 0.003300 288.17596 293.44553
288.0 0.003472 288.04398 292.12939
273.0 0.00366 287.91177 291.07098
288.0 0.003472 287.77930 290.25641
278.0 0.00360 287.64658 289.64966
261.0 0.00383 287.51367 289.20493
261.0 0.00383 287.38049 288.87894
265.0 0.00377 287.24713 288.63123
305.0 0.003279 287.11346 288.43597
284.0 0.00352 286.97958 288.27475
275.0 0.00364 286.84552 288.13657
270.0 0.00370 286.71118 288.01520
266.0 0.00376 286.57666 287.90765
278.0 0.00360 286.44186 287.81314
266.0 0.00376 286.30685 287.73151
308.0 0.003247 286.17166 287.66501
281.0 0.00356 286.03619 287.61600
253.0 0.00395 285.90054 287.58997
266.0 0.00376 285.76465 287.59683
260.0 0.00385 285.62854 287.65585
290.0 0.003448 285.49222 287.80273
284.0 0.00352 285.35568 288.10162
267.0 0.00375 285.21896 288.66080
291.0 0.003436 285.08197 289.65152
265.0 0.00377 284.94479 291.32120
269.0 0.00372 284.80743 293.99393
320.0 0.003125 284.66983 298.04706
285.0 0.00351 284.53204 303.84393
273.0 0.00366 284.39401 311.64078
315.0 0.003175 284.25586 321.45724
265.0 0.00377 284.11743 332.96518
361.0 0.002770 283.97882 345.43588
331.0 0.003021 283.84000 357.73428
354.0 0.002825 283.70096 368.44858
359.0 0.002786 283.56177 376.11401
381.0 0.002625 283.42233 379.66446
369.0 0.002710 283.28278 378.93713
405.0 0.002469 283.14294 374.74762
388.0 0.002577 283.00299 368.64081
334.0 0.002994 282.86279 362.00766
344.0 0.002907 282.72247 355.87518
354.0 0.002825 282.58188 350.68073
292.0 0.003425 282.44113 346.27557
322.0 0.003106 282.30023 342.07043
305.0 0.003279 282.15912 337.38049
297.0 0.003367 282.01785 331.74994
321.0 0.003115 281.87637 325.19339
334.0 0.002994 281.73477 318.13361
323.0 0.003096 281.59293 311.04831
300.0 0.003333 281.45093 304.39709
288.0 0.003472 281.30878 298.58389
276.0 0.00362 281.16641 293.78708
287.0 0.003484 281.02396 290.04880
277.0 0.00361 280.88129 287.28558
268.0 0.00373 280.73843 285.31824
266.0 0.00376 280.59549 283.96225
254.0 0.00394 280.45230 283.03870
275.0 0.00364 280.30902 282.40472
278.0 0.00360 280.16556 281.94778
275.0 0.00364 280.02191 281.62402
273.0 0.00366 279.87817 281.38910
291.0 0.003436 279.73425 281.23099
276.0 0.00362 279.59021 281.15265
285.0 0.00351 279.44601 281.16492
278.0 0.00360 279.30164 281.28015
268.0 0.00373 279.15720 281.50504
272.0 0.00368 279.01257 281.83426
284.0 0.00352 278.86783 282.24463
281.0 0.00356 278.72293 282.69385
251.0 0.00398 278.57791 283.12128
302.0 0.003311 278.43283 283.45499
280.0 0.00357 278.28757 283.62579
271.0 0.00369 278.14221 283.58951
288.0 0.003472 277.99670 283.34909
317.0 0.003155 277.85110 282.95459
272.0 0.00368 277.70541 282.47855
261.0 0.00383 277.55960 281.98849
301.0 0.003322 277.41370 281.53012
276.0 0.00362 277.26767 281.12054
283.0 0.00353 277.12155 280.76758
274.0 0.00365 276.97537 280.40436
263.0 0.00380 276.82907 280.01660
276.0 0.00362 276.68271 279.58191
271.0 0.00369 276.53622 279.10431
263.0 0.00380 276.38968 278.60266
272.0 0.00368 276.24310 278.10178
278.0 0.00360 276.09641 277.62466
275.0 0.00364 275.94971 277.18903
275.0 0.00364 275.80289 276.81384
308.0 0.003247 275.65604 276.48340
272.0 0.00368 275.50909 276.20319
289.0 0.003460 275.36212 275.96356
289.0 0.003460 275.21515 275.75623
271.0 0.00369 275.06808 275.57224
254.0 0.00394 274.92102 275.40457
258.0 0.00388 274.77390 275.24777
261.0 0.00383 274.62677 275.09872
284.0 0.00352 274.47961 274.95511
264.0 0.00379 274.33246 274.81628
301.0 0.003322 274.18527 274.68201
278.0 0.00360 274.03802 274.55283
257.0 0.00389 273.89087 274.43060
304.0 0.003289 273.74368 274.31888
276.0 0.00362 273.59653 274.22415
253.0 0.00395 273.44937 274.15799
263.0 0.00380 273.30225 274.13983
244.0 0.00410 273.15512 274.19989
246.0 0.00407 273.00806 274.38181
272.0 0.00368 272.86102 274.74319
318.0 0.003145 272.71399 275.35205
234.0 0.00427 272.56708 276.27643
286.0 0.003497 272.42020 277.50638
275.0 0.00364 272.27338 279.18811
277.0 0.00361 272.12662 281.21808
268.0 0.00373 271.97992 283.48721
289.0 0.003460 271.83334 285.81357
313.0 0.003195 271.68683 287.95642
302.0 0.003311 271.54044 289.64429
290.0 0.003448 271.39410 290.63803
296.0 0.003378 271.24789 290.81616
302.0 0.003311 271.10184 290.20932
290.0 0.003448 270.95587 289.09943
301.0 0.003322 270.81006 287.73022
254.0 0.00394 270.66434 286.34186
294.0 0.003401 270.51877 285.08817
278.0 0.00360 270.37341 284.01614
297.0 0.003367 270.22818 283.07260
272.0 0.00368 270.08313 282.13992
293.0 0.003413 269.93823 281.09415
277.0 0.00361 269.79349 279.87042
305.0 0.003279 269.64899 278.48441
284.0 0.00352 269.50467 277.00766
272.0 0.00368 269.36057 275.53375
256.0 0.00391 269.21667 274.14944
257.0 0.00389 269.07297 272.92206
281.0 0.00356 268.92953 271.89117
292.0 0.003425 268.78632 271.06796
240.0 0.00417 268.64340 270.44257
256.0 0.00391 268.50070 269.99344
262.0 0.00382 268.35822 269.69971
253.0 0.00395 268.21609 269.55096
287.0 0.003484 268.07422 269.55542
293.0 0.003413 267.93265 269.74551
239.0 0.00418 267.79135 270.17883
262.0 0.00382 267.65036 270.93350
271.0 0.00369 267.50974 272.09717
280.0 0.00357 267.36938 273.74777
268.0 0.00373 267.22943 275.92593
283.0 0.00353 267.08978 278.60645
293.0 0.003413 266.95047 281.68613
283.0 0.00353 266.81158 284.95477
329.0 0.003040 266.67300 288.12003
349.0 0.002865 266.53488 290.82776
327.0 0.003058 266.39709 292.72913
353.0 0.002833 266.25977 293.57773
339.0 0.002950 266.12280 293.33896
305.0 0.003279 265.98633 292.21042
348.0 0.002874 265.85019 290.53052
314.0 0.003185 265.71454 288.65521
284.0 0.00352 265.57938 286.85544
312.0 0.003205 265.44464 285.27460
296.0 0.003378 265.31039 283.91556
305.0 0.003279 265.17661 282.66663
272.0 0.00368 265.04333 281.35986
304.0 0.003289 264.91055 279.85724
279.0 0.00358 264.77832 278.11365
322.0 0.003106 264.64658 276.17908
284.0 0.00352 264.51535 274.16193
320.0 0.003125 264.38470 272.18423
251.0 0.00398 264.25461 270.35522
255.0 0.00392 264.12509 268.75327
284.0 0.00352 263.99612 267.41754
279.0 0.00358 263.86780 266.35196
238.0 0.00420 263.73999 265.53119
262.0 0.00382 263.61279 264.91391
289.0 0.003460 263.48630 264.45355
265.0 0.00377 263.36035 264.10590
267.0 0.00375 263.23511 263.83511
251.0 0.00398 263.11047 263.61401
265.0 0.00377 262.98648 263.42401
255.0 0.00392 262.86322 263.25330
283.0 0.00353 262.74060 263.09454
276.0 0.00362 262.61868 262.94363
265.0 0.00377 262.49747 262.79816
261.0 0.00383 262.37692 262.65671
295.0 0.003390 262.25717 262.51892
250.0 0.00400 262.13812 262.38412
277.0 0.00361 262.01984 262.25241
287.0 0.003484 261.90228 262.12396
244.0 0.00410 261.78549 261.99893
253.0 0.00395 261.66953 261.87820
244.0 0.00410 261.55429 261.76239
281.0 0.00356 261.43988 261.65280
244.0 0.00410 261.32626 261.55032
289.0 0.003460 261.21347 261.45566
261.0 0.00383 261.10153 261.35562
262.0 0.00382 260.99039 261.27646
283.0 0.00353 260.88013 261.20264
254.0 0.00394 260.77069 261.13092
248.0 0.00403 260.66214 261.05750
248.0 0.00403 260.55450 260.97791
272.0 0.00368 260.44769 260.88794
286.0 0.003497 260.34183 260.78549
279.0 0.00358 260.23685 260.67111
272.0 0.00368 260.13275 260.54126
246.0 0.00407 260.02966 260.41400
279.0 0.00358 259.92746 260.28653
255.0 0.00392 259.82620 260.16196
255.0 0.00392 259.72589 260.04150
253.0 0.00395 259.62656 259.93082
275.0 0.00364 259.52823 259.81680
259.0 0.00386 259.43085 259.70251
242.0 0.00413 259.33447 259.58658
252.0 0.00397 259.23907 259.46866
258.0 0.00388 259.14471 259.34964
258.0 0.00388 259.05136 259.23077
265.0 0.00377 258.95901 259.11371
257.0 0.00389 258.86777 258.99976
248.0 0.00403 258.77750 258.88983
263.0 0.00380 258.68829 258.78729
275.0 0.00364 258.60016 258.68661
259.0 0.00386 258.51309 258.58984
231.0 0.00433 258.42709 258.49680
230.0 0.00435 258.34219 258.40683
253.0 0.00395 258.25836 258.31949
239.0 0.00418 258.17560 258.23428
268.0 0.00373 258.09399 258.15079
282.0 0.00355 258.01349 258.06897
252.0 0.00397 257.93411 257.98849
241.0 0.00415 257.85583 257.90936
249.0 0.00402 257.77869 257.81375
245.0 0.00408 257.70267 257.73764
249.0 0.00402 257.62781 257.66122
251.0 0.00398 257.55411 257.58768
213.0 0.00469 257.48154 257.51526
240.0 0.00417 257.41016 257.44409
250.0 0.00400 257.33990 257.37421
277.0 0.00361 257.27084 257.30557
248.0 0.00403 257.20294 257.23816
256.0 0.00391 257.13623 257.17203
268.0 0.00373 257.07074 257.09842
215.0 0.00465 257.00638 257.03430
252.0 0.00397 256.94327 256.97220
269.0 0.00372 256.88132 256.91144
268.0 0.00373 256.82056 256.85193
279.0 0.00358 256.76105 256.79379
244.0 0.00410 256.70270 256.73688
260.0 0.00385 256.64560 256.68137
273.0 0.00366 256.58969 256.62714
234.0 0.00427 256.53500 256.57440
264.0 0.00379 256.48154 256.52295
301.0 0.003322 256.42929 256.47290
247.0 0.00405 256.37827 256.42429
261.0 0.00383 256.32846 256.37717
264.0 0.00379 256.27988 256.33145
239.0 0.00418 256.23254 256.28729
237.0 0.00422 256.18643 256.24469
266.0 0.00376 256.14154 256.20367
224.0 0.00446 256.09787 256.16428
231.0 0.00433 256.05545 256.12665
272.0 0.00368 256.01425 256.09076
256.0 0.00391 255.97427 256.05676
243.0 0.00412 255.93555 256.02481
266.0 0.00376 255.89801 255.99509
255.0 0.00392 255.86171 255.96793
262.0 0.00382 255.82666 255.94391
262.0 0.00382 255.79282 255.92406
236.0 0.00424 255.76019 255.91022
283.0 0.00353 255.72879 255.90553
254.0 0.00394 255.69859 255.91519
261.0 0.00383 255.66962 255.94746
262.0 0.00382 255.64186 256.01431
229.0 0.00437 255.61531 256.13239
264.0 0.00379 255.58995 256.32257
243.0 0.00412 255.56578 256.60846
296.0 0.003378 255.54283 257.01324
257.0 0.00389 255.52106 257.55466
261.0 0.00383 255.50047 258.23825
281.0 0.00356 255.48108 259.05194
272.0 0.00368 255.46286 259.96146
251.0 0.00398 255.44579 260.90836
271.0 0.00369 255.42989 261.81458
267.0 0.00375 255.41516 262.58871
284.0 0.00352 255.40157 263.14236
297.0 0.003367 255.38913 263.41299
292.0 0.003425 255.37782 263.38998
295.0 0.003390 255.36765 263.12094
264.0 0.00379 255.35860 262.69180
297.0 0.003367 255.35065 262.19528
261.0 0.00383 255.34383 261.70773
233.0 0.00429 255.33809 261.27505
281.0 0.00356 255.33344 260.90891
266.0 0.00376 255.32986 260.58990
289.0 0.003460 255.32736 260.27771
263.0 0.00380 255.32593 259.92957
248.0 0.00403 255.32553 259.51947
252.0 0.00397 255.32619 259.04678
261.0 0.00383 255.32787 258.53201
267.0 0.00375 255.33055 258.00525
262.0 0.00382 255.33426 257.49796
260.0 0.00385 255.33896 257.03650
260.0 0.00385 255.34464 256.63916
264.0 0.00379 255.35129 256.31485
249.0 0.00402 255.35890 256.06360
257.0 0.00389 255.36746 255.87869
247.0 0.00405 255.37695 255.74945
239.0 0.00418 255.38737 255.66376
274.0 0.00365 255.39870 255.61023
238.0 0.00420 255.41090 255.57921
269.0 0.00372 255.42401 255.56343
262.0 0.00382 255.43797 255.55763
256.0 0.00391 255.45279 255.55833
279.0 0.00358 255.46843 255.56337
256.0 0.00391 255.48491 255.57141
305.0 0.003279 255.50218 255.58203
224.0 0.00446 255.52025 255.59410
244.0 0.00410 255.53911 255.60818
251.0 0.00398 255.55870 255.62315
254.0 0.00394 255.57906 255.63931
295.0 0.003390 255.60013 255.65665
245.0 0.00408 255.62190 255.67505
240.0 0.00417 255.64439 255.69446
250.0 0.00400 255.66754 255.71478
278.0 0.00360 255.69136 255.73604
234.0 0.00427 255.71582 255.75836
244.0 0.00410 255.74088 255.78125
270.0 0.00370 255.76657 255.80519
219.0 0.00457 255.79283 255.83165
257.0 0.00389 255.81967 255.85689
260.0 0.00385 255.84708 255.88281
214.0 0.00467 255.87498 255.90936
272.0 0.00368 255.90341 255.93655
236.0 0.00424 255.93233 255.96431
254.0 0.00394 255.96175 255.99265
254.0 0.00394 255.99161 256.02151
258.0 0.00388 256.02188 256.05087
254.0 0.00394 256.05258 256.08078
270.0 0.00370 256.08368 256.11224
246.0 0.00407 256.11514 256.14297
252.0 0.00397 256.14697 256.17419
273.0 0.00366 256.17914 256.20578
260.0 0.00385 256.21161 256.23776
265.0 0.00377 256.24438 256.27011
251.0 0.00398 256.27744 256.30273
272.0 0.00368 256.31070 256.33566
257.0 0.00389 256.34424 256.36890
238.0 0.00420 256.37796 256.40237
276.0 0.00362 256.41187 256.43613
236.0 0.00424 256.44595 256.47006
251.0 0.00398 256.48016 256.50418
260.0 0.00385 256.51453 256.53851
265.0 0.00377 256.54898 256.57291
234.0 0.00427 256.58353 256.60748
249.0 0.00402 256.61810 256.64209
253.0 0.00395 256.65271 256.67685
278.0 0.00360 256.68735 256.71167
279.0 0.00358 256.72198 256.74649
257.0 0.00389 256.75659 256.78140
249.0 0.00402 256.79114 256.81628
235.0 0.00426 256.82562 256.85123
260.0 0.00385 256.86002 256.88028
261.0 0.00383 256.89429 256.91483
253.0 0.00395 256.92841 256.94974
280.0 0.00357 256.96237 256.98465
243.0 0.00412 256.99615 257.01935
266.0 0.00376 257.02972 257.05396
271.0 0.00369 257.06311 257.08859
253.0 0.00395 257.09619 257.12305
272.0 0.00368 257.12906 257.15741
234.0 0.00427 257.16159 257.19171
270.0 0.00370 257.19382 257.22321
253.0 0.00395 257.22571 257.25757
257.0 0.00389 257.25726 257.30533
263.0 0.00380 257.28842 257.34134
251.0 0.00398 257.31921 257.37875
259.0 0.00386 257.34955 257.41840
262.0 0.00382 257.37946 257.46170
289.0 0.003460 257.40887 257.51019
243.0 0.00412 257.43784 257.56610
254.0 0.00394 257.46631 257.63159
263.0 0.00380 257.49423 257.70901
254.0 0.00394 257.52164 257.80017
245.0 0.00408 257.54843 257.90591
265.0 0.00377 257.57468 258.03223
249.0 0.00402 257.60034 258.16409
285.0 0.00351 257.62534 258.30356
255.0 0.00392 257.64972 258.44531
261.0 0.00383 257.67340 258.58304
241.0 0.00415 257.69641 258.71155
255.0 0.00392 257.71875 258.82791
224.0 0.00446 257.74033 258.93356
265.0 0.00377 257.76120 259.03476
261.0 0.00383 257.78131 259.14197
258.0 0.00388 257.80063 259.26724
257.0 0.00389 257.81918 259.42111
258.0 0.00388 257.83691 259.61505
242.0 0.00413 257.85382 259.83389
221.0 0.00452 257.86987 260.08093
225.0 0.00444 257.88504 260.32040
296.0 0.003378 257.89938 260.53589
247.0 0.00405 257.91281 260.70120
262.0 0.00382 257.92532 260.79453
235.0 0.00426 257.93692 260.80524
268.0 0.00373 257.94757 260.73846
281.0 0.00356 257.95728 260.61304
248.0 0.00403 257.96603 260.45813
249.0 0.00402 257.97379 260.29236
251.0 0.00398 257.98053 260.13766
257.0 0.00389 257.98630 260.00879
243.0 0.00412 257.99100 259.89780
272.0 0.00368 257.99469 259.80194
223.0 0.00448 257.99734 259.70923
292.0 0.003425 257.99893 259.60748
287.0 0.003484 257.99945 259.48917
285.0 0.00351 257.99887 259.35339
259.0 0.00386 257.99722 259.20551
273.0 0.00366 257.99445 259.05304
240.0 0.00417 257.99057 258.90451
248.0 0.00403 257.98557 258.76724
270.0 0.00370 257.97943 258.64609
271.0 0.00369 257.97217 258.54376
234.0 0.00427 257.96375 258.46060
240.0 0.00417 257.95416 258.39511
300.0 0.003333 257.94342 258.34488
231.0 0.00433 257.93152 258.30707
267.0 0.00375 257.91843 258.27942
258.0 0.00388 257.90414 258.26038
251.0 0.00398 257.88867 258.24936
253.0 0.00395 257.87204 258.24716
240.0 0.00417 257.85419 258.25635
263.0 0.00380 257.83511 258.28220
257.0 0.00389 257.81485 258.33353
249.0 0.00402 257.79337 258.42365
261.0 0.00383 257.77069 258.57214
257.0 0.00389 257.74680 258.80457
248.0 0.00403 257.72168 259.15286
252.0 0.00397 257.69531 259.65292
255.0 0.00392 257.66779 260.33936
248.0 0.00403 257.63898 261.24033
268.0 0.00373 257.60898 262.36749
255.0 0.00392 257.57779 263.70850
278.0 0.00360 257.54535 265.22153
268.0 0.00373 257.51169 266.82974
270.0 0.00370 257.47681 268.42664
286.0 0.003497 257.44073 269.88165
350.0 0.002857 257.40347 271.05591
279.0 0.00358 257.36496 271.82898
300.0 0.003333 257.32529 272.13138
278.0 0.00360 257.28439 271.97482
283.0 0.00353 257.24231 271.44901
279.0 0.00358 257.19904 270.68924
282.0 0.00355 257.15460 269.83563
277.0 0.00361 257.10898 269.00394
278.0 0.00360 257.06219 268.26913
258.0 0.00388 257.01425 267.66125
277.0 0.00361 256.96515 267.16919
253.0 0.00395 256.91492 266.75430
280.0 0.00357 256.86356 266.37408
265.0 0.00377 256.81107 266.00760
261.0 0.00383 256.75745 265.67358
236.0 0.00424 256.70276 265.42596
250.0 0.00400 256.64694 265.33673
267.0 0.00375 256.59009 265.47488
260.0 0.00385 256.53214 265.88867
284.0 0.00352 256.47314 266.59189
290.0 0.003448 256.41306 267.55432
292.0 0.003425 256.35196 268.70160
291.0 0.003436 256.28989 269.91586
292.0 0.003425 256.22678 271.05597
284.0 0.00352 256.16272 271.97513
275.0 0.00364 256.09763 272.55295
290.0 0.003448 256.03162 272.72256
288.0 0.003472 255.96465 272.48309
308.0 0.003247 255.89677 271.89981
286.0 0.003497 255.82797 271.08337
279.0 0.00358 255.75827 270.15796
303.0 0.003300 255.68773 269.22922
312.0 0.003205 255.61627 268.37073
256.0 0.00391 255.54404 267.59097
272.0 0.00368 255.47095 266.88010
291.0 0.003436 255.39708 266.18863
257.0 0.00389 255.32242 265.45993
262.0 0.00382 255.24701 264.64865
255.0 0.00392 255.17082 263.73395
250.0 0.00400 255.09392 262.72626
259.0 0.00386 255.01636 261.66083
261.0 0.00383 254.93808 260.58490
254.0 0.00394 254.85916 259.56366
257.0 0.00389 254.77959 258.62076
268.0 0.00373 254.69940 257.77014
273.0 0.00366 254.61864 257.04141
251.0 0.00398 254.53729 256.43567
247.0 0.00405 254.45543 255.94373
248.0 0.00403 254.37300 255.54935
211.0 0.00474 254.29007 255.23375
224.0 0.00446 254.20670 254.97867
262.0 0.00382 254.12283 254.76799
255.0 0.00392 254.03857 254.58923
253.0 0.00395 253.95387 254.44080
269.0 0.00372 253.86879 254.30721
250.0 0.00400 253.78337 254.17834
258.0 0.00388 253.69760 254.05800
241.0 0.00415 253.61156 253.94429
262.0 0.00382 253.52519 253.83586
268.0 0.00373 253.43855 253.73169
232.0 0.00431 253.35172 253.63098
232.0 0.00431 253.26465 253.53297
253.0 0.00395 253.17743 253.43729
259.0 0.00386 253.09001 253.34329
235.0 0.00426 253.00246 253.25076
241.0 0.00415 252.91483 253.15958
256.0 0.00391 252.82707 253.06941
285.0 0.00351 252.73930 252.98045
248.0 0.00403 252.65146 252.89272
255.0 0.00392 252.56361 252.80634
279.0 0.00358 252.47581 252.72157
256.0 0.00391 252.38802 252.63876
235.0 0.00426 252.30032 252.55821
273.0 0.00366 252.21269 252.48027
250.0 0.00400 252.12518 252.40521
226.0 0.00442 252.03783 252.33307
247.0 0.00405 251.95061 252.26381
266.0 0.00376 251.86362 252.19717
252.0 0.00397 251.77681 252.12003
264.0 0.00379 251.69025 252.05646
290.0 0.003448 251.60397 251.99275
260.0 0.00385 251.51796 251.92784
263.0 0.00380 251.43227 251.86079
252.0 0.00397 251.34689 251.79108
246.0 0.00407 251.26189 251.71910
233.0 0.00429 251.17725 251.64580
254.0 0.00394 251.09303 251.57297
249.0 0.00402 251.00922 251.50246
270.0 0.00370 250.92583 251.43672
251.0 0.00398 250.84294 251.37193
260.0 0.00385 250.76053 251.32362
269.0 0.00372 250.67863 251.28979
266.0 0.00376 250.59724 251.27629
285.0 0.00351 250.51643 251.29115
252.0 0.00397 250.43616 251.34505
258.0 0.00388 250.35649 251.45163
232.0 0.00431 250.27742 251.62686
251.0 0.00398 250.19897 251.88770
247.0 0.00405 250.12119 252.25108
256.0 0.00391 250.04402 252.73132
248.0 0.00403 249.96758 253.33936
276.0 0.00362 249.89180 254.07626
275.0 0.00364 249.81676 254.95778
260.0 0.00385 249.74242 255.97331
272.0 0.00368 249.66881 257.14404
248.0 0.00403 249.59596 258.47128
250.0 0.00400 249.52388 259.97302
254.0 0.00394 249.45261 261.67639
260.0 0.00385 249.38210 263.61990
262.0 0.00382 249.31239 265.84042
273.0 0.00366 249.24353 268.35287
261.0 0.00383 249.17546 271.12384
246.0 0.00407 249.10826 274.06354
275.0 0.00364 249.04189 277.00806
265.0 0.00377 248.97636 279.73251
255.0 0.00392 248.91174 281.99319
280.0 0.00357 248.84795 283.54666
274.0 0.00365 248.78506 284.22333
276.0 0.00362 248.72305 283.97937
308.0 0.003247 248.66193 282.91537
278.0 0.00360 248.60172 281.23694
292.0 0.003425 248.54237 279.20596
280.0 0.00357 248.48396 277.07782
266.0 0.00376 248.42644 275.02618
264.0 0.00379 248.36983 273.16708
261.0 0.00383 248.31415 271.52252
269.0 0.00372 248.25934 270.03778
253.0 0.00395 248.20547 268.61136
262.0 0.00382 248.15248 267.13226
246.0 0.00407 248.10040 265.52209
261.0 0.00383 248.04924 263.75702
281.0 0.00356 247.99896 261.86530
274.0 0.00365 247.94960 259.91260
235.0 0.00426 247.90109 257.97806
248.0 0.00403 247.85349 256.14035
243.0 0.00412 247.80676 254.46472
271.0 0.00369 247.76089 252.99556
255.0 0.00392 247.71590 251.75589
221.0 0.00452 247.67174 250.74619
231.0 0.00433 247.62843 249.95045
243.0 0.00412 247.58597 249.34120
233.0 0.00429 247.54431 248.88498
254.0 0.00394 247.50348 248.54855
268.0 0.00373 247.46342 248.30145
219.0 0.00457 247.42415 248.11841
263.0 0.00380 247.38565 247.97989
230.0 0.00435 247.34789 247.87163
246.0 0.00407 247.31090 247.78368
244.0 0.00410 247.27458 247.70952
244.0 0.00410 247.23900 247.64542
280.0 0.00357 247.20407 247.58888
240.0 0.00417 247.16982 247.53886
260.0 0.00385 247.13623 247.49490
255.0 0.00392 247.10324 247.45668
231.0 0.00433 247.07086 247.42404
253.0 0.00395 247.03903 247.40518
257.0 0.00389 247.00778 247.38313
221.0 0.00452 246.97710 247.36520
240.0 0.00417 246.94688 247.35008
240.0 0.00417 246.91718 247.33609
255.0 0.00392 246.88789 247.32156
240.0 0.00417 246.85905 247.30449
229.0 0.00437 246.83067 247.28310
253.0 0.00395 246.80261 247.25626
240.0 0.00417 246.77492 247.22389
238.0 0.00420 246.74754 247.18686
221.0 0.00452 246.72046 247.15088
250.0 0.00400 246.69368 247.10974
249.0 0.00402 246.66708 247.06905
259.0 0.00386 246.64070 247.03003
259.0 0.00386 246.61450 246.99335
240.0 0.00417 246.58842 246.95917
254.0 0.00394 246.56248 246.92706
245.0 0.00408 246.53659 246.89622
254.0 0.00394 246.51076 246.86621
238.0 0.00420 246.48491 246.83675
258.0 0.00388 246.45906 246.80856
258.0 0.00388 246.43315 246.78307
250.0 0.00400 246.40712 246.76302
251.0 0.00398 246.38098 246.75342
223.0 0.00448 246.35468 246.75784
272.0 0.00368 246.32817 246.78490
278.0 0.00360 246.30144 246.84431
258.0 0.00388 246.27441 246.94855
236.0 0.00424 246.24710 247.10585
230.0 0.00435 246.21942 247.34268
234.0 0.00427 246.19138 247.66713
275.0 0.00364 246.16293 248.08934
256.0 0.00391 246.13402 248.61436
237.0 0.00422 246.10463 249.23572
221.0 0.00452 246.07466 249.93787
246.0 0.00407 246.04417 250.68889
265.0 0.00377 246.01309 251.44670
251.0 0.00398 245.98137 252.14580
272.0 0.00368 245.94897 252.74506
259.0 0.00386 245.91583 253.19885
279.0 0.00358 245.88199 253.45732
278.0 0.00360 245.84737 253.50259
282.0 0.00355 245.81190 253.35132
308.0 0.003247 245.77562 253.04732
280.0 0.00357 245.73839 252.64713
265.0 0.00377 245.70029 252.20740
251.0 0.00398 245.66122 251.77405
272.0 0.00368 245.62115 251.37546
266.0 0.00376 245.58008 251.01585
266.0 0.00376 245.53793 250.69652
248.0 0.00403 245.49467 250.40276
250.0 0.00400 245.45036 250.10078
265.0 0.00377 245.40480 249.76540
247.0 0.00405 245.35812 249.38368
249.0 0.00402 245.31020 248.95540
267.0 0.00375 245.26102 248.49271
273.0 0.00366 245.21063 248.01389
254.0 0.00394 245.15884 247.53755
239.0 0.00418 245.10580 247.08313
224.0 0.00446 245.05135 246.66464
220.0 0.00455 244.99551 246.29271
250.0 0.00400 244.93834 245.97227
234.0 0.00427 244.87965 245.70291
244.0 0.00410 244.81953 245.48158
223.0 0.00448 244.75792 245.30223
234.0 0.00427 244.69481 245.15823
259.0 0.00386 244.63023 245.04335
229.0 0.00437 244.56403 244.95245
235.0 0.00426 244.49631 244.88300
280.0 0.00357 244.42697 244.83525
258.0 0.00388 244.35606 244.81285
230.0 0.00435 244.28362 244.82317
229.0 0.00437 244.20946 244.87779
267.0 0.00375 244.13368 244.99214
242.0 0.00413 244.05623 245.18539
249.0 0.00402 243.97716 245.47827
240.0 0.00417 243.89647 245.89066
269.0 0.00372 243.81403 246.44008
262.0 0.00382 243.72995 247.13382
235.0 0.00426 243.64412 247.96936
263.0 0.00380 243.55664 248.92618
265.0 0.00377 243.46754 249.96648
247.0 0.00405 243.37666 251.03781
254.0 0.00394 243.28413 252.06807
250.0 0.00400 243.18985 252.98004
269.0 0.00372 243.09393 253.69205
244.0 0.00410 242.99641 254.13693
250.0 0.00400 242.89711 254.27817
238.0 0.00420 242.79620 254.12059
258.0 0.00388 242.69357 253.71190
277.0 0.00361 242.58934 253.12764
271.0 0.00369 242.48358 252.45081
262.0 0.00382 242.37607 251.75330
241.0 0.00415 242.26703 251.09081
207.0 0.00483 242.15633 250.49205
228.0 0.00439 242.04416 249.96245
239.0 0.00418 241.93048 249.48453
247.0 0.00405 241.81519 249.02492
253.0 0.00395 241.69852 248.54875
236.0 0.00424 241.58020 248.02838
245.0 0.00408 241.46059 247.45572
232.0 0.00431 241.33963 246.84016
240.0 0.00417 241.21715 246.20842
227.0 0.00441 241.09344 245.57498
231.0 0.00433 240.96832 244.97009
254.0 0.00394 240.84196 244.41425
250.0 0.00400 240.71446 243.91934
211.0 0.00474 240.58562 243.48729
245.0 0.00408 240.45576 243.11380
281.0 0.00356 240.32468 242.78627
255.0 0.00392 240.19257 242.49010
254.0 0.00394 240.05951 242.21109
237.0 0.00422 239.92534 241.93857
222.0 0.00450 239.79041 241.66872
239.0 0.00418 239.65445 241.40453
202.0 0.00495 239.51772 241.14305
225.0 0.00444 239.38034 240.89142
233.0 0.00429 239.24200 240.65192
232.0 0.00431 239.10323 240.42632
258.0 0.00388 238.96368 240.21281
246.0 0.00407 238.82365 240.00819
229.0 0.00437 238.68327 239.80733
262.0 0.00382 238.54228 239.60428
239.0 0.00418 238.40103 239.39505
248.0 0.00403 238.25937 239.17723
255.0 0.00392 238.11752 238.95146
265.0 0.00377 237.97566 238.72029
239.0 0.00418 237.83351 238.48671
232.0 0.00431 237.69141 238.25491
265.0 0.00377 237.54924 238.02789
240.0 0.00417 237.40723 237.80876
221.0 0.00452 237.26552 237.59953
241.0 0.00415 237.12389 237.40065
256.0 0.00391 236.98265 237.21260
251.0 0.00398 236.84169 237.03447
233.0 0.00429 236.70125 236.86545
204.0 0.00490 236.56148 236.70419
248.0 0.00403 236.42213 236.54898
219.0 0.00457 236.28355 236.39890
237.0 0.00422 236.14561 236.25267
243.0 0.00412 236.00858 236.10960
225.0 0.00444 235.87257 235.96928
253.0 0.00395 235.73735 235.82430
256.0 0.00391 235.60327 235.68794
248.0 0.00403 235.47025 235.55318
243.0 0.00412 235.33842 235.42015
237.0 0.00422 235.20805 235.28883
259.0 0.00386 235.07881 235.15898
234.0 0.00427 234.95110 235.03094
275.0 0.00364 234.82480 234.90448
257.0 0.00389 234.70009 234.77995
232.0 0.00431 234.57715 234.65744
223.0 0.00448 234.45573 234.53662
249.0 0.00402 234.33620 234.41791
216.0 0.00463 234.21843 234.30125
266.0 0.00376 234.10258 234.18680
220.0 0.00455 233.98886 234.07474
240.0 0.00417 233.87701 233.96489
214.0 0.00467 233.76740 233.85759
247.0 0.00405 233.65981 233.75262
256.0 0.00391 233.55455 233.65031
190.0 0.00526 233.45163 233.55083
234.0 0.00427 233.35095 233.45398
236.0 0.00424 233.25279 233.36018
245.0 0.00408 233.15695 233.26941
239.0 0.00418 233.06372 233.18196
213.0 0.00469 232.97308 233.09805
256.0 0.00391 232.88498 233.01804
226.0 0.00442 232.79962 232.94263
224.0 0.00446 232.71686 232.87260
220.0 0.00455 232.63689 232.80957
226.0 0.00442 232.55975 232.75577
224.0 0.00446 232.48535 232.71449
228.0 0.00439 232.41388 232.69070
239.0 0.00418 232.34520 232.69102
251.0 0.00398 232.27950 232.72447
212.0 0.00472 232.21675 232.80206
217.0 0.00461 232.15688 232.92929
212.0 0.00472 232.10007 233.13588
254.0 0.00394 232.04617 233.42831
254.0 0.00394 231.99532 233.81816
243.0 0.00412 231.94751 234.31213
224.0 0.00446 231.90266 234.91125
222.0 0.00450 231.86087 235.60442
255.0 0.00392 231.82207 236.37183
231.0 0.00433 231.78630 237.17996
253.0 0.00395 231.75359 237.98550
242.0 0.00413 231.72380 238.73923
231.0 0.00433 231.69702 239.38522
247.0 0.00405 231.67319 239.86989
245.0 0.00408 231.65230 240.16266
238.0 0.00420 231.63434 240.25046
255.0 0.00392 231.61923 240.13829
248.0 0.00403 231.60698 239.87000
215.0 0.00465 231.59753 239.49788
237.0 0.00422 231.59084 239.07654
241.0 0.00415 231.58687 238.65251
232.0 0.00431 231.58557 238.25769
215.0 0.00465 231.58687 237.90974
236.0 0.00424 231.59074 237.60812
229.0 0.00437 231.59709 237.33926
250.0 0.00400 231.60587 237.07858
200.0 0.00500 231.61700 236.80360
222.0 0.00450 231.63042 236.49205
222.0 0.00450 231.64606 236.13170
226.0 0.00442 231.66382 235.72873
255.0 0.00392 231.68358 235.29614
254.0 0.00394 231.70534 234.85060
224.0 0.00446 231.72893 234.41199
216.0 0.00463 231.75432 233.99701
233.0 0.00429 231.78136 233.62044
269.0 0.00372 231.80994 233.29221
230.0 0.00435 231.84003 233.01669
258.0 0.00388 231.87143 232.79474
254.0 0.00394 231.90410 232.62503
243.0 0.00412 231.93791 232.49989
241.0 0.00415 231.97269 232.41344
246.0 0.00407 232.00841 232.35843
240.0 0.00417 232.04489 232.32803
200.0 0.00500 232.08205 232.31633
229.0 0.00437 232.11971 232.31839
243.0 0.00412 232.15776 232.33041
229.0 0.00437 232.19614 232.34943
254.0 0.00394 232.23460 232.37334
243.0 0.00412 232.27316 232.40070
229.0 0.00437 232.31155 232.43042
228.0 0.00439 232.34970 232.46176
245.0 0.00408 232.38751 232.49416
230.0 0.00435 232.42477 232.52724
239.0 0.00418 232.46144 232.56082
240.0 0.00417 232.49733 232.59462
211.0 0.00474 232.53229 232.62860
214.0 0.00467 232.56627 232.66272
234.0 0.00427 232.59904 232.69688
258.0 0.00388 232.63058 232.73117
239.0 0.00418 232.66069 232.76549
233.0 0.00429 232.68927 232.80322
252.0 0.00397 232.71623 232.83743
257.0 0.00389 232.74141 232.87112
222.0 0.00450 232.76474 232.90405
231.0 0.00433 232.78606 232.93561
235.0 0.00426 232.80530 232.96519
223.0 0.00448 232.82237 232.99217
229.0 0.00437 232.83714 233.01572
249.0 0.00402 232.84956 233.03528
225.0 0.00444 232.85953 233.05025
215.0 0.00465 232.86694 233.06044
229.0 0.00437 232.87178 233.06596
237.0 0.00422 232.87393 233.06721
255.0 0.00392 232.87338 233.06648
238.0 0.00420 232.87006 233.06102
234.0 0.00427 232.86391 233.05295
246.0 0.00407 232.85493 233.04288
268.0 0.00373 232.84306 233.03099
247.0 0.00405 232.82834 233.01755
224.0 0.00446 232.81073 233.00269
246.0 0.00407 232.79024 232.98659
237.0 0.00422 232.76689 232.96948
244.0 0.00410 232.74071 232.95230
203.0 0.00493 232.71172 232.94069
243.0 0.00412 232.67999 232.92831
218.0 0.00459 232.64563 232.92290
225.0 0.00444 232.60863 232.92885
243.0 0.00412 232.56914 232.95216
211.0 0.00474 232.52721 233.00014
234.0 0.00427 232.48299 233.08119
230.0 0.00435 232.43666 233.20433
224.0 0.00446 232.38826 233.37891
199.0 0.00503 232.33803 233.61246
253.0 0.00395 232.28606 233.91068
244.0 0.00410 232.23260 234.27451
224.0 0.00446 232.17790 234.70178
226.0 0.00442 232.12204 235.17924
227.0 0.00441 232.06537 235.69135
201.0 0.00498 232.00803 236.21652
248.0 0.00403 231.95038 236.72699
233.0 0.00429 231.89270 237.19301
246.0 0.00407 231.83517 237.58669
215.0 0.00465 231.77820 237.88365
227.0 0.00441 231.72200 238.07205
242.0 0.00413 231.66702 238.15437
252.0 0.00397 231.61362 238.14198
276.0 0.00362 231.56200 238.07468
221.0 0.00452 231.51270 237.97563
250.0 0.00400 231.46596 237.86975
243.0 0.00412 231.42229 237.77374
247.0 0.00405 231.38208 237.69334
221.0 0.00452 231.34566 237.62331
240.0 0.00417 231.31355 237.54904
251.0 0.00398 231.28612 237.44997
236.0 0.00424 231.26385 237.30519
244.0 0.00410 231.24718 237.09940
235.0 0.00426 231.23650 236.82745
247.0 0.00405 231.23233 236.49350
250.0 0.00400 231.23509 236.11937
226.0 0.00442 231.24522 235.72336
239.0 0.00418 231.26317 235.32745
228.0 0.00439 231.28940 234.94984
216.0 0.00463 231.32430 234.60622
232.0 0.00431 231.36836 234.30507
247.0 0.00405 231.42192 234.05034
239.0 0.00418 231.48534 233.84058
254.0 0.00394 231.55914 233.67114
241.0 0.00415 231.64351 233.53722
234.0 0.00427 231.73891 233.43459
224.0 0.00446 231.84555 233.36177
256.0 0.00391 231.96356 233.31929
233.0 0.00429 232.09357 233.30977
238.0 0.00420 232.23531 233.33749
232.0 0.00431 232.38924 233.40810
234.0 0.00427 232.55528 233.52782
233.0 0.00429 232.73329 233.70303
235.0 0.00426 232.92371 233.94031
226.0 0.00442 233.12599 234.24403
224.0 0.00446 233.34027 234.61754
246.0 0.00407 233.56604 235.06039
223.0 0.00448 233.80280 235.56848
234.0 0.00427 234.05064 236.13510
215.0 0.00465 234.30853 236.74657
254.0 0.00394 234.57614 237.38696
217.0 0.00461 234.85240 238.03488
251.0 0.00398 235.13620 238.66675
257.0 0.00389 235.42717 239.25975
251.0 0.00398 235.72348 239.79022
248.0 0.00403 236.02417 240.24200
248.0 0.00403 236.32738 240.60672
269.0 0.00372 236.63120 240.88799
236.0 0.00424 236.93437 241.10062
257.0 0.00389 237.23418 241.26520
215.0 0.00465 237.52867 241.40530
236.0 0.00424 237.81493 241.54297
244.0 0.00410 238.08994 241.69647
210.0 0.00476 238.35121 241.87921
235.0 0.00426 238.59482 242.09798
226.0 0.00442 238.81740 242.35376
290.0 0.003448 239.01468 242.64117
223.0 0.00448 239.18224 242.95021
241.0 0.00415 239.31573 243.26877
253.0 0.00395 239.40979 243.58183
257.0 0.00389 239.45906 243.87520
237.0 0.00422 239.45752 244.13341
265.0 0.00377 239.39897 244.33673
241.0 0.00415 239.27644 244.46475
238.0 0.00420 239.08281 244.49232
251.0 0.00398 238.80998 244.39218
244.0 0.00410 238.45000 244.13705
229.0 0.00437 237.99391 243.70329
239.0 0.00418 237.43150 243.07428
247.0 0.00405 236.75377 242.24603
239.0 0.00418 235.94817 241.22148
248.0 0.00403 235.00507 240.01369
256.0 0.00391 233.91185 238.63527
227.0 0.00441 232.65387 237.09166
231.0 0.00433 231.21991 235.39040
228.0 0.00439 229.59233 233.52296
238.0 0.00420 227.75763 231.47963
212.0 . . .
loop_
_refln_index_h
_refln_index_k
_refln_index_l
_pd_refln_wavelength_id
_refln_observed_status
_refln_F_squared_meas
_refln_F_squared_calc
_refln_phase_calc
_refln_d_spacing
_gsas_i100_meas
0 0 1 1 o 394.110 403.155 0.00 7.38479 29.91
0 0 1 2 o 389.099 403.155 0.00 7.38479 14.70
1 0 1 1 o 160.646 153.929 180.00 4.76854 28.34
1 0 1 2 o 160.150 153.929 180.00 4.76854 14.05
1 1 0 1 o 107.652 84.324 180.00 4.41592 7.63
1 1 0 2 o 101.632 84.324 180.00 4.41592 3.57
1 1 1 1 o 980.818 959.302 0.00 3.79000 100.00
1 1 1 2 o 989.944 959.302 0.00 3.79000 50.18
0 0 2 1 o 646.251 589.522 0.00 3.69239 11.41
0 0 2 2 o 557.419 589.522 0.00 3.69239 4.93
1 0 2 1 o 75.767 62.486 180.00 3.17840 4.56
1 0 2 2 o 79.363 62.486 180.00 3.17840 2.37
2 0 0 1 o 2282.997 2321.169 180.00 3.12253 54.56
2 0 0 2 o 2204.306 2321.169 180.00 3.12253 26.23
2 0 1 1 o 277.231 261.627 180.00 2.87600 18.84
2 0 1 2 o 262.602 261.627 180.00 2.87600 8.91
1 1 2 1 o 414.230 388.020 0.00 2.83264 18.85
1 1 2 2 o 415.767 388.020 0.00 2.83264 9.40
2 1 1 1 o 27.694 35.029 0.00 2.61230 2.58
2 1 1 2 o 22.338 35.029 0.00 2.61230 1.04
0 0 3 1 o 707.059 390.386 0.00 2.46160 5.04
0 0 3 2 o 658.555 390.386 0.00 2.46160 2.34
2 0 2 1 o 230.587 261.550 180.00 2.38427 9.70
2 0 2 2 o 216.440 261.550 180.00 2.38427 4.55
1 0 3 1 o 29.781 14.206 180.00 2.29011 0.82
1 0 3 2 o 28.412 14.206 180.00 2.29011 0.39
2 1 2 1 o 68.697 57.027 0.00 2.22745 4.13
2 1 2 2 o 66.894 57.027 0.00 2.22745 2.00
2 2 0 1 o 844.244 907.016 0.00 2.20796 14.74
2 2 0 2 o 785.538 907.016 0.00 2.20796 6.84
1 1 3 1 o 114.128 142.958 0.00 2.15010 2.97
1 1 3 2 o 103.894 142.958 0.00 2.15010 1.36
2 2 1 1 o 242.839 173.324 0.00 2.11543 7.77
2 2 1 2 o 208.905 173.324 0.00 2.11543 3.35
3 0 1 1 o -0.165 9.678 0.00 2.00360 0.00
3 0 1 2 o -0.165 9.678 0.00 2.00360 0.00
3 1 0 1 o 21.646 0.041 0.00 1.97486 0.38
3 1 0 2 o 15.993 0.041 0.00 1.97486 0.14
2 0 3 1 o 231.833 187.493 180.00 1.93314 4.96
2 0 3 2 o 217.389 187.493 180.00 1.93314 2.32
3 1 1 1 o 143.264 143.039 180.00 1.90782 6.18
3 1 1 2 o 133.135 143.039 180.00 1.90782 2.87
2 2 2 1 o 181.185 129.815 0.00 1.89500 3.95
2 2 2 2 o 158.784 129.815 0.00 1.89500 1.73
2 1 3 1 o -0.100 4.602 0.00 1.84668 0.00
0 0 4 1 o -3.220 14.423 0.00 1.84620 0.00
2 1 3 2 o 0.526 4.602 0.00 1.84668 0.01
0 0 4 2 o -3.220 14.423 0.00 1.84620 0.00
3 0 2 1 o 9.030 42.477 0.00 1.81336 0.22
3 0 2 2 o 5.736 42.477 0.00 1.81336 0.07
1 0 4 1 o 8.200 0.681 180.00 1.77045 0.12
1 0 4 2 o 8.891 0.681 180.00 1.77045 0.06
3 1 2 1 o 126.563 100.627 180.00 1.74143 5.03
3 1 2 2 o 119.103 100.627 180.00 1.74143 2.36
1 1 4 1 o 266.061 254.768 0.00 1.70333 3.76
1 1 4 2 o 269.899 254.768 0.00 1.70333 1.90
3 2 1 1 o 5.030 1.193 180.00 1.68631 0.17
3 2 1 2 o 5.669 1.193 180.00 1.68631 0.09
2 2 3 1 o 68.498 98.016 0.00 1.64364 0.95
2 2 3 2 o 46.153 98.016 0.00 1.64364 0.33
3 0 3 1 o -0.051 1.887 0.00 1.58951 0.00
2 0 4 1 o -1.704 5.780 180.00 1.58920 0.00
3 0 3 2 o 2.617 1.887 0.00 1.58951 0.02
2 0 4 2 o 9.765 5.780 180.00 1.58920 0.07
3 2 2 1 o 22.197 37.437 180.00 1.56811 0.63
3 2 2 2 o 27.864 37.437 180.00 1.56811 0.39
4 0 0 1 o 262.940 234.107 0.00 1.56126 1.27
4 0 0 2 o 316.096 234.107 0.00 1.56126 0.75
3 1 3 1 o 75.439 45.704 180.00 1.54040 2.04
2 1 4 1 o 1.374 0.838 0.00 1.54012 0.03
3 1 3 2 o 76.895 45.704 180.00 1.54040 1.03
2 1 4 2 o 1.401 0.838 0.00 1.54012 0.02
4 0 1 1 o 117.946 61.365 0.00 1.52750 1.37
4 0 1 2 o 96.064 61.365 0.00 1.52750 0.56
4 1 1 1 o -0.016 0.455 180.00 1.48376 0.00
4 1 1 2 o -0.016 0.455 180.00 1.48376 0.00
0 0 5 1 o -2.286 15.334 0.00 1.47696 0.00
0 0 5 2 o 17.548 15.334 0.00 1.47696 0.02
3 3 0 1 o 13.878 3.834 0.00 1.47197 0.09
3 3 0 2 o -1.220 3.834 0.00 1.47197 0.00
3 3 1 1 o 17.530 26.482 0.00 1.44358 0.25
3 3 1 2 o 20.198 26.482 0.00 1.44358 0.14
4 0 2 1 o 38.293 41.926 0.00 1.43800 0.52
1 0 5 1 o 7.684 7.844 180.00 1.43731 0.06
4 0 2 2 o 48.346 41.926 0.00 1.43800 0.32
1 0 5 2 o 9.783 7.844 180.00 1.43731 0.04
3 2 3 1 o 0.269 0.452 180.00 1.41654 0.01
2 2 4 1 o 2.097 2.097 0.00 1.41632 0.02
3 2 3 2 o 1.632 0.452 180.00 1.41654 0.02
2 2 4 2 o 9.115 2.097 0.00 1.41632 0.04
4 1 2 1 o 14.584 24.216 180.00 1.40133 0.33
1 1 5 1 o 52.732 73.241 0.00 1.40069 0.47
4 1 2 2 o 30.100 24.216 180.00 1.40133 0.33
1 1 5 2 o 102.411 73.241 0.00 1.40069 0.44
4 2 0 1 o 167.866 110.286 180.00 1.39644 1.48
4 2 0 2 o 173.008 110.286 180.00 1.39644 0.76
3 0 4 1 o -0.015 0.648 0.00 1.38124 0.00
3 0 4 2 o 0.148 0.648 0.00 1.38124 0.00
4 2 1 1 o 79.864 46.450 180.00 1.37212 1.48
4 2 1 2 o 82.119 46.450 180.00 1.37212 0.76
3 3 2 1 o 62.728 33.724 0.00 1.36733 0.68
3 3 2 2 o 62.565 33.724 0.00 1.36733 0.34
3 1 4 1 o 57.063 95.376 180.00 1.34865 1.05
3 1 4 2 o 50.086 95.376 180.00 1.34865 0.47
2 0 5 1 o 2.613 9.999 180.00 1.33514 0.03
2 0 5 2 o -1.491 9.999 180.00 1.33514 0.00
4 0 3 1 o 27.721 31.412 0.00 1.31844 0.31
4 0 3 2 o 29.043 31.412 0.00 1.31844 0.16
4 2 2 1 o 51.955 24.024 180.00 1.30615 0.96
2 1 5 1 o 5.742 2.733 0.00 1.30563 0.08
4 2 2 2 o 48.332 24.024 180.00 1.30615 0.44
2 1 5 2 o 5.423 2.733 0.00 1.30563 0.04
4 1 3 1 o 3.282 0.340 180.00 1.29001 0.06
4 1 3 2 o -0.015 0.340 180.00 1.29001 0.00
3 3 3 1 o 40.476 16.967 0.00 1.26333 0.33
3 2 4 1 o 1.587 0.698 180.00 1.26318 0.02
3 3 3 2 o 26.027 16.967 0.00 1.26333 0.11
3 2 4 2 o 1.028 0.698 180.00 1.26318 0.01
4 3 1 1 o -0.002 0.489 180.00 1.23152 0.00
5 0 1 1 o -0.003 0.047 180.00 1.23152 0.00
0 0 6 1 o -1.079 7.559 0.00 1.23080 0.00
5 0 1 2 o -0.003 0.047 180.00 1.23152 0.00
4 3 1 2 o -0.002 0.489 180.00 1.23152 0.00
0 0 6 2 o -1.079 7.559 0.00 1.23080 0.00
2 2 5 1 o -0.984 6.684 0.00 1.22762 0.00
5 1 0 1 o 0.929 0.233 0.00 1.22476 0.01
2 2 5 2 o 18.449 6.684 0.00 1.22762 0.06
5 1 0 2 o -0.265 0.233 0.00 1.22476 0.00
4 2 3 1 o 30.885 18.234 180.00 1.21461 0.49
4 2 3 2 o 17.739 18.234 180.00 1.21461 0.15
5 1 1 1 o 22.187 11.195 0.00 1.20825 0.28
1 0 6 1 o 69.587 35.066 0.00 1.20757 0.39
5 1 1 2 o 14.832 11.195 0.00 1.20825 0.09
1 0 6 2 o 26.852 35.066 0.00 1.20757 0.08
3 0 5 1 o 0.820 1.114 0.00 1.20457 0.01
3 0 5 2 o -0.015 1.114 0.00 1.20457 0.00
4 0 4 1 o 4.529 0.176 0.00 1.19214 0.04
4 0 4 2 o 3.437 0.176 0.00 1.19214 0.01
1 1 6 1 o 32.506 22.474 0.00 1.18561 0.19
4 3 2 1 o 16.346 18.407 0.00 1.18315 0.25
5 0 2 1 o 10.099 11.373 180.00 1.18315 0.08
3 1 5 1 o 21.403 24.093 180.00 1.18277 0.28
1 1 6 2 o 19.993 22.474 0.00 1.18561 0.06
5 0 2 2 o 7.607 11.373 180.00 1.18315 0.03
4 3 2 2 o 12.317 18.407 0.00 1.18315 0.10
3 1 5 2 o 12.672 24.093 180.00 1.18277 0.09
4 1 4 1 o -0.010 0.354 180.00 1.17099 0.00
4 1 4 2 o 2.653 0.354 180.00 1.17099 0.02
5 1 2 2 o 19.337 10.937 0.00 1.16248 0.14
5 1 2 1 o 34.376 10.937 0.00 1.16248 0.50
3 3 4 1 o 57.980 41.061 0.00 1.15093 0.36
3 3 4 2 o 9.412 41.061 0.00 1.15093 0.04
5 2 1 1 o 0.085 0.149 180.00 1.14564 0.00
2 0 6 1 o 1.248 5.459 180.00 1.14506 0.01
5 2 1 2 o 0.690 0.149 180.00 1.14564 0.00
2 0 6 2 o 43.477 5.459 180.00 1.14506 0.12
2 1 6 1 o 23.631 18.242 180.00 1.12628 0.26
3 2 5 1 o 0.259 0.204 180.00 1.12385 0.00
2 1 6 2 o 31.938 18.242 180.00 1.12628 0.17
3 2 5 2 o 2.046 0.204 180.00 1.12385 0.01
5 0 3 1 o 3.654 0.194 180.00 1.11383 0.03
4 3 3 1 o 0.013 0.000 0.00 1.11383 0.00
4 2 4 1 o 1.416 0.002 180.00 1.11373 0.02
5 0 3 2 o 3.109 0.194 180.00 1.11383 0.01
4 3 3 2 o 0.011 0.000 0.00 1.11383 0.00
4 2 4 2 o 1.035 0.002 180.00 1.11373 0.01
5 2 2 1 o 5.564 11.075 0.00 1.10639 0.07
4 4 0 1 o 25.373 15.291 0.00 1.10398 0.09
5 2 2 2 o 18.240 11.075 0.00 1.10639 0.12
4 4 0 2 o 40.642 15.291 0.00 1.10398 0.07
5 1 3 1 o 7.829 6.386 0.00 1.09653 0.12
5 1 3 2 o 6.633 6.386 0.00 1.09653 0.05
4 4 1 1 o 19.495 16.822 0.00 1.09185 0.14
