#------------------------------------------------------------------------------
#$Date: 2016-02-14 16:26:36 +0200 (Sun, 14 Feb 2016) $
#$Revision: 176435 $
#$URL: svn://www.crystallography.net/cod/cif/1/51/61/1516199.cif $
#------------------------------------------------------------------------------
#
# This file is available in the Crystallography Open Database (COD),
# http://www.crystallography.net/
#
# All data on this site have been placed in the public domain by the
# contributors.
#
data_1516199
loop_
_publ_author_name
'Migliorati, Valentina'
'Ballirano, Paolo'
'Gontrani, Lorenzo'
'Russina, Olga'
'Caminiti, Ruggero'
_publ_section_title
;
 Crystal polymorphism of propylammonium chloride and structural properties
 of its mixture with water.
;
_journal_issue                   41
_journal_name_full               'The journal of physical chemistry. B'
_journal_page_first              11805
_journal_page_last               11815
_journal_paper_doi               10.1021/jp206831d
_journal_volume                  115
_journal_year                    2011
_chemical_formula_sum            'C3 Cl N'
_chemical_formula_weight         85.49
_chemical_name_systematic        ' ?'
_space_group_IT_number           129
_symmetry_cell_setting           tetragonal
_symmetry_space_group_name_Hall  '-P 4a 2a'
_symmetry_space_group_name_H-M   'P 4/n m m :2'
_audit_creation_date             2011-07-21T08:57
_audit_creation_method           'from EXP file using GSAS2CIF'
_audit_update_record
' 2011-07-21T08:57  Initial CIF as created by GSAS2CIF'
_cell_angle_alpha                90.0
_cell_angle_beta                 90.0
_cell_angle_gamma                90.0
_cell_formula_units_Z            2
_cell_length_a                   6.27205(7)
_cell_length_b                   6.27205
_cell_length_c                   7.41472(18)
_cell_volume                     291.685(8)
_computing_structure_refinement  GSAS
_diffrn_radiation_probe          x-ray
_exptl_absorpt_correction_T_max  0.81792
_exptl_absorpt_correction_T_min  0.81483
_exptl_absorpt_process_details
;   GSAS Absorption/surface roughness correction: function number 0
 Debye-Scherrer absorption correction
Term (= MU.r/wave) =     0.78580E-01
Correction is not refined.
;
_pd_block_id                     2011-07-21T08:57|90|paolo|Bruker_AXS_D8_Advance
_pd_calc_method                  'Rietveld Refinement'
_pd_instr_location               ' ?'
_pd_meas_2theta_range_inc        0.022
_pd_meas_2theta_range_max        89.988
_pd_meas_2theta_range_min        3.0
_pd_meas_number_of_points        3955
_pd_phase_name                   'Propylammonium chloride'
_pd_proc_2theta_range_inc        0.022
_pd_proc_2theta_range_max        89.988
_pd_proc_2theta_range_min        3.0
_pd_proc_info_datetime           2011-07-21T08:57:23
_pd_proc_info_excluded_regions   ' ?'
_pd_proc_ls_background_function
;   GSAS Background function number 1 with 30 terms.
 Shifted Chebyshev function of 1st kind
      1:    521.734     2:   -335.109     3:    30.4548     4:    80.1578    
      5:   -76.0026     6:  -0.642775     7:    70.4356     8:   -77.9552    
      9:    34.9745    10:    10.7293    11:   -30.7599    12:    25.6939    
     13:   -6.72704    14:   -8.85755    15:    3.46097    16:    1.27359    
     17:   -2.81968    18:   3.021010E-0219:   6.043280E-0220:    1.31226    
     21:   -5.71866    22:    1.96563    23:   -1.09700    24:   -1.95496    
     25:    2.39172    26:   -1.77194    27:   -1.64261    28:    2.64759    
     29:   -2.60365    30:    1.46470    
;
_pd_proc_ls_peak_cutoff          0.00100
_pd_proc_ls_profile_function
;
 CW Profile function number 3 with  19 terms
 Pseudovoigt profile coefficients as parameterized in
 P. Thompson, D.E. Cox & J.B. Hastings (1987). J. Appl. Cryst.,20,79-83.
 Asymmetry correction of L.W. Finger, D.E. Cox & A. P. Jephcoat (1994).
 J. Appl. Cryst.,27,892-900.
 Peak tails are ignored  where the intensity is below 0.0010 times the peak
   Aniso. broadening axis   0.0   1.0   0.0
;
_pd_proc_ls_prof_R_factor        0.0433
_pd_proc_ls_prof_wR_expected     0.0406
_pd_proc_ls_prof_wR_factor       0.0562
_pd_proc_number_of_points        3955
_pd_spec_mounting                ' ?'
_refine_ls_goodness_of_fit_all   1.40
_refine_ls_matrix_type           full
_refine_ls_number_parameters     47
_refine_ls_number_restraints     8
_refine_ls_R_Fsqd_factor         0.14748
_refine_ls_shift/su_max          0.08
_refine_ls_shift/su_mean         0.01
_reflns_d_resolution_high        1.097
_reflns_d_resolution_low         7.415
_reflns_limit_h_max              5
_reflns_limit_h_min              0
_reflns_limit_k_max              4
_reflns_limit_k_min              0
_reflns_limit_l_max              6
_reflns_limit_l_min              0
_reflns_number_total             174
_cod_data_source_file            363K.cif
_cod_data_source_block           90_publ
_cod_depositor_comments
;
The following automatic conversions were performed:

'_geom_bond_publ_flag' value 'N' changed to 'n' according to
/usr/data/users/saulius/automatic-downloads/retrospective/ACS/lib/dictionaries/cif_core.dic
dictionary named 'cif_core.dic' version 2.4.2 from 2011-04-26 (24
times).

'_geom_angle_publ_flag' value 'N' changed to 'n' according
to
/usr/data/users/saulius/automatic-downloads/retrospective/ACS/lib/dictionaries/cif_core.dic
dictionary named 'cif_core.dic' version 2.4.2 from 2011-04-26 (68
times).

Automatic conversion script
Id: cif_fix_values 2281 2013-09-26 08:29:07Z andrius 
;
_cod_original_cell_volume        291.685(10)
_cod_original_sg_symbol_H-M      'p 4/n m m'
_cod_original_formula_sum        'C3.00 Cl N'
_cod_database_code               1516199
#BEGIN Tags that were not found in dictionaries:
_gsas_exptl_extinct_corr_t_min   1.00000
_gsas_exptl_extinct_corr_t_max   1.00000
#END Tags that were not found in dictionaries
loop_
_symmetry_equiv_pos_site_id
_symmetry_equiv_pos_as_xyz
1 +x,+y,+z
2 -y+1/2,+x,+z
3 -x+1/2,-y+1/2,+z
4 +y,-x+1/2,+z
5 -x+1/2,+y,+z
6 -y+1/2,-x+1/2,+z
7 +x,-y+1/2,+z
8 +y,+x,+z
-1 -x,-y,-z
-2 +y+1/2,-x,-z
-3 +x+1/2,+y+1/2,-z
-4 -y,+x+1/2,-z
-5 +x+1/2,-y,-z
-6 +y+1/2,+x+1/2,-z
-7 -x,+y+1/2,-z
-8 -y,-x,-z
loop_
_atom_site_type_symbol
_atom_site_label
_atom_site_fract_x
_atom_site_fract_y
_atom_site_fract_z
_atom_site_occupancy
_atom_site_thermal_displace_type
_atom_site_U_iso_or_equiv
_atom_site_symmetry_multiplicity
Cl CL1 0.25 -0.25 0.0 1.0 Uiso 0.1204(9) 2
C C(1) 0.25 0.3326(6) 0.29253(32) 0.25 Uiso 0.0707(16) 8
N N 0.25 0.25 0.10734(28) 1.0 Uiso 0.0707(16) 2
C C(2) 0.25 0.1491(5) 0.43087(27) 0.25 Uiso 0.0707(16) 8
C C(3) 0.25 0.25 0.6225(4) 1.0 Uiso 0.0707(16) 2
loop_
_atom_type_symbol
_atom_type_number_in_cell
_atom_type_scat_dispersion_real
_atom_type_scat_dispersion_imag
_atom_type_scat_Cromer_Mann_a1
_atom_type_scat_Cromer_Mann_a2
_atom_type_scat_Cromer_Mann_a3
_atom_type_scat_Cromer_Mann_a4
_atom_type_scat_Cromer_Mann_b1
_atom_type_scat_Cromer_Mann_b2
_atom_type_scat_Cromer_Mann_b3
_atom_type_scat_Cromer_Mann_b4
_atom_type_scat_Cromer_Mann_c
_atom_type_scat_source
Cl 2.0 0.000 0.000 11.4604 0.01040 7.19640 1.16620 6.25560 18.5194 1.64550
47.7784 -9.5574 International_Tables_Vol_C
C 6.0 0.000 0.000 2.31000 20.8439 1.02000 10.2075 1.58860 0.56870 0.86500
51.6512 0.21560 International_Tables_Vol_C
N 2.0 0.000 0.000 12.2126 0.00570 3.13220 9.89330 2.01250 28.9975 1.16630
0.58260 -11.529 International_Tables_Vol_C
loop_
_diffrn_radiation_wavelength
_diffrn_radiation_wavelength_wt
_diffrn_radiation_type
_diffrn_radiation_wavelength_id
1.540598 1.000 K\a~1~ 1
1.544390 0.500 K\a~2~ 2
loop_
_geom_angle_atom_site_label_1
_geom_angle_atom_site_label_2
_geom_angle_atom_site_label_3
_geom_angle
_geom_angle_site_symmetry_1
_geom_angle_site_symmetry_3
_geom_angle_publ_flag
C(1) C(1) C(1) 45.0 2_555 3_555 n
C(1) C(1) C(1) 90.0 2_555 4_555 n
C(1) C(1) N 75.55(9) 2_555 1_555 n
C(1) C(1) C(2) 58.14(8) 2_555 1_555 n
C(1) C(1) C(2) 93.54(15) 2_555 2_555 n
C(1) C(1) C(2) 94.51(19) 2_555 3_555 n
C(1) C(1) C(2) 51.66(14) 2_555 4_555 n
C(1) C(1) C(1) 45.0 3_555 4_555 n
C(1) C(1) N 69.33(14) 3_555 1_555 n
C(1) C(1) C(2) 41.71(15) 3_555 1_555 n
C(1) C(1) C(2) 66.74(15) 3_555 2_555 n
C(1) C(1) C(2) 96.38(27) 3_555 3_555 n
C(1) C(1) C(2) 66.74(15) 3_555 4_555 n
C(1) C(1) N 75.55(9) 4_555 1_555 n
C(1) C(1) C(2) 58.14(8) 4_555 1_555 n
C(1) C(1) C(2) 51.66(14) 4_555 2_555 n
C(1) C(1) C(2) 94.51(19) 4_555 3_555 n
C(1) C(1) C(2) 93.54(15) 4_555 4_555 n
N C(1) C(2) 111.05(24) 1_555 1_555 n
N C(1) C(2) 126.32(23) 1_555 2_555 n
N C(1) C(2) 165.7(4) 1_555 3_555 n
N C(1) C(2) 126.32(23) 1_555 4_555 n
C(2) C(1) C(2) 35.40(16) 1_555 2_555 n
C(2) C(1) C(2) 54.66(30) 1_555 3_555 n
C(2) C(1) C(2) 35.40(16) 1_555 4_555 n
C(2) C(1) C(2) 42.84(23) 2_555 3_555 n
C(2) C(1) C(2) 57.67(28) 2_555 4_555 n
C(2) C(1) C(2) 42.84(23) 3_555 4_555 n
C(1) N C(1) 28.90(19) 1_555 2_555 n
C(1) N C(1) 41.34(27) 1_555 3_555 n
C(1) N C(1) 28.90(19) 1_555 4_555 n
C(1) N C(1) 28.90(19) 2_555 3_555 n
C(1) N C(1) 41.34(27) 2_555 4_555 n
C(1) N C(1) 28.90(19) 3_555 4_555 n
C(1) C(2) C(1) 28.32(17) 1_555 2_555 n
C(1) C(2) C(1) 41.91(31) 1_555 3_555 n
C(1) C(2) C(1) 28.32(17) 1_555 4_555 n
C(1) C(2) C(2) 58.14(8) 1_555 2_555 n
C(1) C(2) C(2) 41.71(15) 1_555 3_555 n
C(1) C(2) C(2) 58.14(8) 1_555 4_555 n
C(1) C(2) C(3) 107.71(22) 1_555 1_555 n
C(1) C(2) C(1) 33.83(24) 2_555 3_555 n
C(1) C(2) C(1) 46.52(30) 2_555 4_555 n
C(1) C(2) C(2) 86.46(15) 2_555 2_555 n
C(1) C(2) C(2) 61.16(14) 2_555 3_555 n
C(1) C(2) C(2) 51.66(14) 2_555 4_555 n
C(1) C(2) C(3) 121.20(22) 2_555 1_555 n
C(1) C(2) C(1) 33.83(24) 3_555 4_555 n
C(1) C(2) C(2) 85.49(19) 3_555 2_555 n
C(1) C(2) C(2) 83.62(27) 3_555 3_555 n
C(1) C(2) C(2) 85.49(19) 3_555 4_555 n
C(1) C(2) C(3) 149.6(4) 3_555 1_555 n
C(1) C(2) C(2) 51.66(14) 4_555 2_555 n
C(1) C(2) C(2) 61.16(14) 4_555 3_555 n
C(1) C(2) C(2) 86.46(15) 4_555 4_555 n
C(1) C(2) C(3) 121.20(22) 4_555 1_555 n
C(2) C(2) C(2) 45.0 2_555 3_555 n
C(2) C(2) C(2) 90.0 2_555 4_555 n
C(2) C(2) C(3) 73.28(8) 2_555 1_555 n
C(2) C(2) C(2) 45.0 3_555 4_555 n
C(2) C(2) C(3) 65.99(12) 3_555 1_555 n
C(2) C(2) C(3) 73.28(8) 4_555 1_555 n
C(2) C(3) C(2) 33.44(16) 1_555 2_555 n
C(2) C(3) C(2) 48.01(24) 1_555 3_555 n
C(2) C(3) C(2) 33.44(16) 1_555 4_555 n
C(2) C(3) C(2) 33.44(16) 2_555 3_555 n
C(2) C(3) C(2) 48.01(24) 2_555 4_555 n
C(2) C(3) C(2) 33.44(16) 3_555 4_555 n
loop_
_geom_bond_atom_site_label_1
_geom_bond_atom_site_label_2
_geom_bond_distance
_geom_bond_site_symmetry_2
_geom_bond_publ_flag
C(1) C(1) 0.733(5) 2_555 n
C(1) C(1) 1.036(7) 3_555 n
C(1) C(1) 0.733(5) 4_555 n
C(1) N 1.4676(32) 1_555 n
C(1) C(2) 1.541(4) 1_555 n
C(1) C(2) 1.3118(32) 2_555 n
C(1) C(2) 1.0321(31) 3_555 n
C(1) C(2) 1.3118(32) 4_555 n
N C(1) 1.4676(32) 1_555 n
N C(1) 1.4676(32) 2_555 n
N C(1) 1.4676(32) 3_555 n
N C(1) 1.4676(32) 4_555 n
C(2) C(1) 1.541(4) 1_555 n
C(2) C(1) 1.3118(32) 2_555 n
C(2) C(1) 1.0321(31) 3_555 n
C(2) C(1) 1.3118(32) 4_555 n
C(2) C(2) 0.895(5) 2_555 n
C(2) C(2) 1.265(6) 3_555 n
C(2) C(2) 0.895(5) 4_555 n
C(2) C(3) 1.5551(33) 1_555 n
C(3) C(2) 1.5551(33) 1_555 n
C(3) C(2) 1.5551(33) 2_555 n
C(3) C(2) 1.5551(33) 3_555 n
C(3) C(2) 1.5551(33) 4_555 n
loop_
_pd_meas_counts_total
_pd_proc_ls_weight
_pd_proc_intensity_bkg_calc
_pd_calc_intensity_total
21640.0 0.0 -41452860.00000 .
20626.0 0.0 -40421260.00000 .
20202.0 0.0 -39413680.00000 .
19302.0 0.0 -38429548.00000 .
18976.0 0.0 -37468388.00000 .
18181.0 0.0 -36529680.00000 .
17384.0 0.0 -35612968.00000 .
16822.0 0.0 -34717744.00000 .
16402.0 0.0 -33843540.00000 .
15759.0 0.0 -32989910.00000 .
15153.0 0.0 -32156392.00000 .
14688.0 0.0 -31342528.00000 .
14296.0 0.0 -30547912.00000 .
13519.0 0.0 -29772124.00000 .
13608.0 0.0 -29014708.00000 .
13140.0 0.0 -28275294.00000 .
12543.0 0.0 -27553458.00000 .
12355.0 0.0 -26848862.00000 .
11846.0 0.0 -26161064.00000 .
11390.0 0.0 -25489714.00000 .
11346.0 0.0 -24834438.00000 .
10859.0 0.0 -24194882.00000 .
10631.0 0.0 -23570704.00000 .
10332.0 0.0 -22961538.00000 .
9830.0 0.0 -22367066.00000 .
9642.0 0.0 -21786958.00000 .
9356.0 0.0 -21220866.00000 .
9249.0 0.0 -20668504.00000 .
9039.0 0.0 -20129556.00000 .
8790.0 0.0 -19603710.00000 .
8717.0 0.0 -19090674.00000 .
8412.0 0.0 -18590144.00000 .
8063.0 0.0 -18101864.00000 .
8030.0 0.0 -17625536.00000 .
7887.0 0.0 -17160888.00000 .
7576.0 0.0 -16707661.00000 .
7437.0 0.0 -16265582.00000 .
7430.0 0.0 -15834405.00000 .
7092.0 0.0 -15413880.00000 .
7065.0 0.0 -15003758.00000 .
6999.0 0.0 -14603794.00000 .
6761.0 0.0 -14213767.00000 .
6512.0 0.0 -13833441.00000 .
6474.0 0.0 -13462590.00000 .
6247.0 0.0 -13101005.00000 .
6206.0 0.0 -12748453.00000 .
6016.0 0.0 -12404740.00000 .
5878.0 0.0 -12069651.00000 .
5734.0 0.0 -11742982.00000 .
5787.0 0.0 -11424546.00000 .
5620.0 0.0 -11114150.00000 .
5542.0 0.0 -10811590.00000 .
5324.0 0.0 -10516698.00000 .
5293.0 0.0 -10229298.00000 .
5384.0 0.0 -9949197.00000 .
5070.0 0.0 -9676224.00000 .
5080.0 0.0 -9410217.00000 .
4909.0 0.0 -9151022.00000 .
5049.0 0.0 -8898450.00000 .
4772.0 0.0 -8652366.00000 .
4816.0 0.0 -8412605.00000 .
4767.0 0.0 -8179025.00000 .
4640.0 0.0 -7951467.00000 .
4748.0 0.0 -7729793.50000 .
4441.0 0.0 -7513862.00000 .
4502.0 0.0 -7303538.50000 .
4377.0 0.0 -7098678.50000 .
4392.0 0.0 -6899158.00000 .
4417.0 0.0 -6704843.50000 .
4344.0 0.0 -6515618.00000 .
4207.0 0.0 -6331340.50000 .
4141.0 0.0 -6151905.00000 .
4237.0 0.0 -5977192.00000 .
4061.0 0.0 -5807088.50000 .
4008.0 0.0 -5641475.00000 .
3920.0 0.0 -5480241.50000 .
3821.0 0.0 -5323285.00000 .
3914.0 0.0 -5170499.50000 .
3848.0 0.0 -5021778.00000 .
3841.0 0.0 -4877027.00000 .
3666.0 0.0 -4736145.00000 .
3578.0 0.0 -4599035.00000 .
3636.0 0.0 -4465608.00000 .
3559.0 0.0 -4335765.50000 .
3547.0 0.0 -4209424.50000 .
3599.0 0.0 -4086495.75000 .
3472.0 0.0 -3966890.00000 .
3335.0 0.0 -3850532.75000 .
3278.0 0.0 -3737335.50000 .
3348.0 0.0 -3627219.50000 .
3361.0 0.0 -3520106.75000 .
3257.0 0.0 -3415922.25000 .
3358.0 0.0 -3314596.75000 .
3185.0 0.0 -3216053.75000 .
3247.0 0.0 -3120219.75000 .
3143.0 0.0 -3027027.75000 .
3267.0 0.0 -2936414.75000 .
3135.0 0.0 -2848307.00000 .
3185.0 0.0 -2762647.50000 .
3086.0 0.0 -2679372.75000 .
3154.0 0.0 -2598416.00000 .
3075.0 0.0 -2519722.50000 .
3023.0 0.0 -2443228.50000 .
3068.0 0.0 -2368886.00000 .
3011.0 0.0 -2296636.75000 .
3024.0 0.0 -2226416.25000 .
2915.0 0.0 -2158184.50000 .
2940.0 0.0 -2091880.25000 .
2830.0 0.0 -2027459.62500 .
2856.0 0.0 -1964872.87500 .
2778.0 0.0 -1904067.25000 .
2753.0 0.0 -1845001.62500 .
2804.0 0.0 -1787623.37500 .
2752.0 0.0 -1731893.87500 .
2780.0 0.0 -1677770.50000 .
2733.0 0.0 -1625202.62500 .
2646.0 0.0 -1574157.25000 .
2646.0 0.0 -1524587.75000 .
2612.0 0.0 -1476459.62500 .
2514.0 0.0 -1429734.12500 .
2618.0 0.0 -1384367.00000 .
2575.0 0.0 -1340329.62500 .
2589.0 0.0 -1297581.75000 .
2635.0 0.0 -1256090.12500 .
2480.0 0.0 -1215822.12500 .
2471.0 0.0 -1176740.12500 .
2400.0 0.0 -1138817.50000 .
2565.0 0.0 -1102017.37500 .
2502.0 0.0 -1066312.25000 .
2431.0 0.0 -1031674.25000 .
2471.0 0.0 -998068.31250 .
2288.0 0.0 -965471.50000 .
2381.0 0.0 -933851.31250 .
2315.0 0.0 -903184.43750 .
2308.0 0.0 -873445.12500 .
2319.0 0.0 -844603.37500 .
2337.0 0.0 -816638.00000 .
2315.0 0.0 -789522.00000 .
2265.0 0.0 -763233.62500 .
2296.0 0.0 -737750.56250 .
2217.0 0.0 -713046.56250 .
2229.0 0.0 -689103.00000 .
2268.0 0.0 -665895.18750 .
2190.0 0.0 -643405.50000 .
2208.0 0.0 -621614.12500 .
2135.0 0.0 -600497.31250 .
2064.0 0.0 -580039.93750 .
2123.0 0.0 -560219.75000 .
2170.0 0.0 -541020.31250 .
2106.0 0.0 -522425.09375 .
2077.0 0.0 -504413.34375 .
2112.0 0.0 -486971.56250 .
2052.0 0.0 -470080.46875 .
2078.0 0.0 -453726.56250 .
2035.0 0.0 -437893.65625 .
1904.0 0.0 -422564.59375 .
1956.0 0.0 -407726.81250 .
1931.0 0.0 -393364.68750 .
2001.0 0.0 -379465.59375 .
1989.0 0.0 -366015.34375 .
1929.0 0.0 -352999.71875 .
1886.0 0.0 -340407.18750 .
1838.0 0.0 -328224.09375 .
1904.0 0.0 -316438.81250 .
1898.0 0.0 -305040.50000 .
1858.0 0.0 -294015.28125 .
1895.0 0.0 -283354.09375 .
1832.0 0.0 -273044.40625 .
1871.0 0.0 -263076.46875 .
1780.0 0.0 -253440.59375 .
1794.0 0.0 -244125.35938 .
1845.0 0.0 -235121.82813 .
1755.0 0.0 -226419.90625 .
1802.0 0.0 -218011.06250 .
1685.0 0.0 -209886.39063 .
1724.0 0.0 -202036.14063 .
1711.0 0.0 -194452.68750 .
1687.0 0.0 -187127.57813 .
1757.0 0.0 -180052.65625 .
1709.0 0.0 -173220.89063 .
1740.0 0.0 -166623.31250 .
1680.0 0.0 -160253.95313 .
1674.0 0.0 -154104.57813 .
1640.0 0.0 -148168.96875 .
1631.0 0.0 -142440.51563 .
1651.0 0.0 -136911.78125 .
1600.0 0.0 -131577.39063 .
1567.0 0.0 -126430.28125 .
1637.0 0.0 -121465.25000 .
1571.0 0.0 -116676.21875 .
1543.0 0.0 -112057.11719 .
1628.0 0.0 -107602.93750 .
1548.0 0.0 -103308.03906 .
1568.0 0.0 -99167.61719 .
1558.0 0.0 -95176.60938 .
1525.0 0.0 -91329.59375 .
1575.0 0.0 -87622.42188 .
1486.0 0.0 -84050.08594 .
1501.0 0.0 -80608.50000 .
1473.0 0.0 -77293.44531 .
1462.0 0.0 -74100.12500 .
1484.0 0.0 -71025.03125 .
1481.0 0.0 -68063.86719 .
1471.0 0.0 -65212.95703 .
1434.0 0.0 -62468.82422 .
1448.0 0.0 -59827.44141 .
1465.0 0.0 -57285.67969 .
1451.0 0.0 -54839.87109 .
1437.0 0.0 -52486.95703 .
1450.0 0.0 -50223.78906 .
1459.0 0.0 -48046.96484 .
1358.0 0.0 -45953.85938 .
1360.0 0.0 -43941.39063 .
1409.0 0.0 -42006.81250 .
1390.0 0.0 -40147.49609 .
1358.0 0.0 -38360.62500 .
1414.0 0.0 -36643.85156 .
1334.0 0.0 -34994.50000 .
1330.0 0.0 -33410.35938 .
1392.0 0.0 -31889.16602 .
1328.0 0.0 -30428.44336 .
1327.0 0.0 -29026.24609 .
1368.0 0.0 -27680.33203 .
1320.0 0.0 -26388.75586 .
1299.0 0.0 -25149.56055 .
1311.0 0.0 -23960.77734 .
1293.0 0.0 -22820.63281 .
1218.0 0.0 -21727.25391 .
1270.0 0.0 -20679.03320 .
1266.0 0.0 -19674.35547 .
1198.0 0.0 -18711.38086 .
1196.0 0.0 -17788.78125 .
1181.0 0.0 -16904.91406 .
1195.0 0.0 -16058.37793 .
1223.0 0.0 -15247.83398 .
1168.0 0.0 -14471.76074 .
1155.0 0.0 -13729.00000 .
1134.0 0.0 -13018.16602 .
1193.0 0.0 -12338.14746 .
1117.0 0.0 -11687.70020 .
1110.0 0.0 -11065.67090 .
1199.0 0.0 -10471.00098 .
1120.0 0.0 -9902.53516 .
1117.0 0.0 -9359.34668 .
1078.0 0.0 -8840.43750 .
1109.0 0.0 -8344.75000 .
1077.0 0.0 -7871.46533 .
1106.0 0.0 -7419.63281 .
1082.0 0.0 -6988.41162 .
1003.0 0.0 -6576.98145 .
1011.0 0.0 -6184.52051 .
1117.0 0.0 -5810.28320 .
981.0 0.0 -5453.47949 .
1019.0 0.0 -5113.44385 .
1022.0 0.0 -4789.47314 .
1014.0 0.0 -4480.87256 .
1088.0 0.0 -4187.02490 .
1032.0 0.0 -3907.30103 .
1061.0 0.0 -3641.11719 .
1012.0 0.0 -3387.91528 .
1004.0 0.0 -3147.08960 .
1064.0 0.0 -2918.16284 .
1045.0 0.0 -2700.59473 .
983.0 0.0 -2493.89771 .
1016.0 0.0 -2297.61450 .
990.0 0.0 -2111.27026 .
1015.0 0.0 -1934.43884 .
973.0 0.0 -1766.68420 .
951.0 0.0 -1607.62268 .
972.0 0.0 -1456.85852 .
999.0 0.0 -1314.00610 .
945.0 0.0 -1178.71436 .
977.0 0.0 -1050.63928 .
1007.0 0.0 -929.45032 .
982.0 0.0 -814.83722 .
963.0 0.0 -706.47211 .
914.0 0.0 -604.08459 .
924.0 0.0 -507.38040 .
865.0 0.0 -416.09488 .
927.0 0.0 -329.97012 .
958.0 0.0 -248.75652 .
978.0 0.0 -172.21803 .
943.0 0.0 -100.12080 .
951.0 0.0 -32.25442 .
965.0 0.0 31.58755 .
905.0 0.0 91.61765 .
967.0 0.0 148.01512 .
905.0 0.0 200.97142 .
858.0 0.0 250.65808 .
920.0 0.0 297.23938 .
917.0 0.0 340.88589 .
958.0 0.0 381.74091 .
878.0 0.0 419.95703 .
959.0 0.0 455.67197 .
914.0 0.0 489.01834 .
888.0 0.0 520.12579 .
854.0 0.0 549.11426 .
918.0 0.0 576.10315 .
934.0 0.0 601.19971 .
924.0 0.0 624.50922 .
884.0 0.0 646.13666 .
849.0 0.0 666.17377 .
886.0 0.0 684.71429 .
902.0 0.0 701.84424 .
906.0 0.0 717.64618 .
940.0 0.0 732.19965 .
918.0 0.0 745.57849 .
907.0 0.0 757.85529 .
871.0 0.0 769.09589 .
903.0 0.0 779.36511 .
867.0 0.0 788.72430 .
867.0 0.0 797.23077 .
864.0 0.0 804.93988 .
863.0 0.0 811.90265 .
856.0 0.0 818.16803 .
892.0 0.0 823.78406 .
859.0 0.0 828.79327 .
824.0 0.0 833.23798 .
869.0 0.001151 837.15735 837.15680
871.0 0.001148 840.58844 840.58801
845.0 0.001183 843.56659 843.56616
810.0 0.001235 846.12457 846.12415
876.0 0.001142 848.29382 848.29346
825.0 0.001212 850.10339 850.10309
849.0 0.001178 851.58112 851.58081
868.0 0.001152 852.75287 852.75262
898.0 0.001114 853.64319 853.64294
866.0 0.001155 854.27484 854.27466
847.0 0.001181 854.66943 854.66925
789.0 0.001267 854.84705 854.84686
880.0 0.001136 854.82660 854.82642
888.0 0.001126 854.62573 854.62555
903.0 0.001107 854.26086 854.26074
805.0 0.001242 853.74750 853.74738
786.0 0.001272 853.09991 853.09979
821.0 0.001218 852.33154 852.33142
846.0 0.001182 851.45471 851.45453
852.0 0.001174 850.48102 850.48090
812.0 0.001232 849.42120 849.42102
815.0 0.001227 848.28516 848.28497
866.0 0.001155 847.08203 847.08185
841.0 0.001189 845.82013 845.81995
854.0 0.001171 844.50757 844.50739
891.0 0.001122 843.15118 843.15100
839.0 0.001192 841.75787 841.75763
839.0 0.001192 840.33344 840.33319
788.0 0.001269 838.88330 838.88306
825.0 0.001212 837.41266 837.41241
839.0 0.001192 835.92590 835.92566
818.0 0.001222 834.42731 834.42700
833.0 0.001200 832.92041 832.92017
799.0 0.001252 831.40857 831.40826
869.0 0.001151 829.89478 829.89453
839.0 0.001192 828.38177 828.38147
853.0 0.001172 826.87177 826.87146
884.0 0.001131 825.36682 825.36652
850.0 0.001176 823.86871 823.86835
802.0 0.001247 822.37909 822.37878
794.0 0.001259 820.89905 820.89868
835.0 0.001198 819.43005 819.42969
817.0 0.001224 817.97266 817.97229
788.0 0.001269 816.52777 816.52740
818.0 0.001222 815.09589 815.09552
808.0 0.001238 813.67749 813.67706
856.0 0.001168 812.27289 812.27246
850.0 0.001176 810.88226 810.88184
817.0 0.001224 809.50543 812.65332
801.0 0.001248 808.14264 812.99335
795.0 0.001258 806.79364 811.89825
799.0 0.001252 805.45825 810.83728
780.0 0.001282 804.13611 809.81238
807.0 0.001239 802.82690 808.82574
836.0 0.001196 801.53033 807.88013
799.0 0.001252 800.24573 806.97833
838.0 0.001193 798.97284 806.12408
782.0 0.001279 797.71106 805.32129
785.0 0.001274 796.45984 804.57483
799.0 0.001252 795.21857 803.89056
802.0 0.001247 793.98669 803.27527
802.0 0.001247 792.76367 802.73743
780.0 0.001282 791.54889 802.28680
811.0 0.001233 790.34161 801.93555
820.0 0.001220 789.14148 801.69867
827.0 0.001209 787.94775 801.59430
797.0 0.001255 786.75983 801.64490
845.0 0.001183 785.57727 801.87903
771.0 0.001297 784.39935 802.33234
838.0 0.001193 783.22565 803.05011
859.0 0.001164 782.05548 804.09149
861.0 0.001161 780.88855 805.53357
871.0 0.001148 779.72430 807.47913
906.0 0.001104 778.56219 810.06781
838.0 0.001193 777.40192 813.49341
841.0 0.001189 776.24298 818.03302
884.0 0.001131 775.08502 824.09729
891.0 0.001122 773.92773 832.36151
925.0 0.001081 772.77063 844.22229
915.0 0.001093 771.61365 863.29791
947.0 0.001056 770.45636 898.62714
991.0 0.001009 769.29846 967.79266
1151.0 0.000869 768.14001 1094.35852
1317.0 0.000759 766.98059 1299.63440
1473.0 0.000679 765.82013 1600.16467
1885.0 0.000531 764.65839 2022.74780
2450.0 0.000408 763.49548 2627.48779
3358.0 0.0002978 762.33118 3504.32764
4556.0 0.0002195 761.16547 4634.73340
5779.0 0.0001730 759.99835 5607.96240
5635.0 0.0001775 758.82983 5623.16992
4342.0 0.0002303 757.66003 4468.35352
2786.0 0.000359 756.48883 2935.53955
1707.0 0.000586 755.31641 1803.57837
1110.0 0.000901 754.14294 1235.58203
910.0 0.001099 752.96838 1009.82709
831.0 0.001203 751.79309 920.93567
875.0 0.001143 750.61713 876.23004
794.0 0.001259 749.44067 847.63873
799.0 0.001252 748.26398 827.28534
767.0 0.001304 747.08722 812.06940
780.0 0.001282 745.91071 800.30042
782.0 0.001279 744.73462 790.93390
758.0 0.001319 743.55927 783.29352
716.0 0.001397 742.38501 776.92664
700.0 0.001429 741.21210 771.51917
768.0 0.001302 740.04089 766.84937
752.0 0.001330 738.87158 762.75580
755.0 0.001325 737.70459 759.11920
746.0 0.001340 736.54034 755.85065
827.0 0.001209 735.37897 752.88129
771.0 0.001297 734.22119 750.15851
753.0 0.001328 733.06708 747.64081
772.0 0.001295 731.91705 745.29529
745.0 0.001342 730.77155 743.09595
701.0 0.001427 729.63092 741.02142
749.0 0.001335 728.49561 739.05475
747.0 0.001339 727.36597 737.18158
729.0 0.001372 726.24231 735.39044
713.0 0.001403 725.12512 733.67175
723.0 0.001383 724.01477 732.01727
755.0 0.001325 722.91162 730.42059
698.0 0.001433 721.81616 728.87585
692.0 0.001445 720.72858 727.37823
704.0 0.001420 719.64948 725.92383
735.0 0.001361 718.57898 724.50897
714.0 0.001401 717.51776 723.13098
726.0 0.001377 716.46600 721.78723
745.0 0.001342 715.42407 720.47552
728.0 0.001374 714.39233 719.19403
703.0 0.001422 713.37122 717.94122
692.0 0.001445 712.36102 713.87085
724.0 0.001381 711.36212 711.36194
727.0 0.001376 710.37469 710.37451
681.0 0.001468 709.39923 709.39905
734.0 0.001362 708.43597 708.43579
749.0 0.001335 707.48523 707.48511
717.0 0.001395 706.54742 706.54724
780.0 0.001282 705.62262 705.62244
732.0 0.001366 704.71124 704.71106
700.0 0.001429 703.81342 703.81323
700.0 0.001429 702.92963 702.92944
678.0 0.001475 702.05994 702.05975
711.0 0.001406 701.20453 701.20435
706.0 0.001416 700.36383 700.36365
686.0 0.001458 699.53790 699.53772
712.0 0.001404 698.72699 698.72687
690.0 0.001449 697.93140 697.93121
727.0 0.001376 697.15100 697.15082
684.0 0.001462 696.38623 696.38605
692.0 0.001445 695.63715 695.63696
682.0 0.001466 694.90393 694.90375
667.0 0.001499 694.18671 694.18652
729.0 0.001372 693.48553 693.48535
696.0 0.001437 692.80054 692.80035
692.0 0.001445 692.13184 692.13165
653.0 0.001531 691.47955 691.47937
724.0 0.001381 690.84375 690.84357
697.0 0.001435 690.22437 690.22418
704.0 0.001420 689.62158 689.62140
739.0 0.001353 689.03540 689.03522
741.0 0.001350 688.46588 688.46570
673.0 0.001486 687.91296 687.91278
651.0 0.001536 687.37665 687.37646
710.0 0.001408 686.85706 686.85687
651.0 0.001536 686.35406 686.35388
740.0 0.001351 685.86761 685.86743
710.0 0.001408 685.39783 685.39764
723.0 0.001383 684.94452 684.94434
678.0 0.001475 684.50763 684.50745
687.0 0.001456 684.08716 684.08698
713.0 0.001403 683.68304 683.68286
709.0 0.001410 683.29517 683.29498
703.0 0.001422 682.92340 682.92316
723.0 0.001383 682.56769 682.56750
700.0 0.001429 682.22791 682.22772
706.0 0.001416 681.90393 681.90375
698.0 0.001433 681.59564 681.59546
678.0 0.001475 681.30298 681.30273
713.0 0.001403 681.02570 681.02545
690.0 0.001449 680.76361 680.76343
677.0 0.001477 680.51672 680.51654
659.0 0.001517 680.28479 680.28461
697.0 0.001435 680.06763 680.06744
694.0 0.001441 679.86511 679.86493
724.0 0.001381 679.67706 679.67682
671.0 0.001490 679.50317 679.50299
694.0 0.001441 679.34344 679.34320
732.0 0.001366 679.19757 679.19733
693.0 0.001443 679.06537 679.06512
668.0 0.001497 678.94666 678.94641
693.0 0.001443 678.84119 678.84100
620.0 0.001613 678.74884 678.74860
663.0 0.001508 678.66931 678.66907
703.0 0.001422 678.60242 678.60217
699.0 0.001431 678.54797 678.54773
696.0 0.001437 678.50568 678.50549
655.0 0.001527 678.47540 678.47522
680.0 0.001471 678.45691 678.45667
681.0 0.001468 678.44995 678.44971
732.0 0.001366 678.45422 678.45398
703.0 0.001422 678.46967 678.46942
641.0 0.001560 678.49585 678.49567
659.0 0.001517 678.53278 678.53253
719.0 0.001391 678.58002 678.57983
618.0 0.001618 678.63745 678.63721
664.0 0.001506 678.70477 678.70459
665.0 0.001504 678.78186 678.78168
689.0 0.001451 678.86841 678.86816
649.0 0.001541 678.96423 678.96399
673.0 0.001486 679.06903 679.06879
684.0 0.001462 679.18268 679.18243
659.0 0.001517 679.30487 679.30463
685.0 0.001460 679.43542 679.43518
664.0 0.001506 679.57416 679.57391
596.0 0.001678 679.72076 679.72052
664.0 0.001506 679.87506 679.87482
705.0 0.001418 680.03693 680.03668
730.0 0.001370 680.20605 680.20581
635.0 0.001575 680.38226 680.38202
726.0 0.001377 680.56537 680.56512
722.0 0.001385 680.75513 680.75488
697.0 0.001435 680.95142 680.95117
630.0 0.001587 681.15393 681.15369
680.0 0.001471 681.36261 681.36237
718.0 0.001393 681.57727 681.57703
668.0 0.001497 681.79761 681.79736
679.0 0.001473 682.02350 682.02325
653.0 0.001531 682.25482 682.25458
709.0 0.001410 682.49139 682.49115
693.0 0.001443 682.73297 682.73273
738.0 0.001355 682.97949 682.97931
694.0 0.001441 683.23077 683.23053
672.0 0.001488 683.48669 683.48645
695.0 0.001439 683.74707 683.74683
626.0 0.001597 684.01178 684.01154
663.0 0.001508 684.28070 684.28046
642.0 0.001558 684.55365 684.55341
637.0 0.001570 684.83057 684.83032
660.0 0.001515 685.11133 685.11108
705.0 0.001418 685.39581 685.39557
735.0 0.001361 685.68384 685.68359
667.0 0.001499 685.97546 685.97522
693.0 0.001443 686.27051 686.27026
651.0 0.001536 686.56879 686.56854
675.0 0.001481 686.87036 686.87012
717.0 0.001395 687.17511 687.17487
669.0 0.001495 687.48291 687.48267
701.0 0.001427 687.79376 687.79352
729.0 0.001372 688.10754 688.10730
678.0 0.001475 688.42426 688.42401
709.0 0.001410 688.74377 688.74353
686.0 0.001458 689.06610 689.06586
682.0 0.001466 689.39117 689.39093
693.0 0.001443 689.71906 689.71881
638.0 0.001567 690.04956 690.04932
674.0 0.001484 690.38275 690.38251
739.0 0.001353 690.71857 690.71832
691.0 0.001447 691.05707 691.05682
693.0 0.001443 691.39819 691.39795
644.0 0.001553 691.74188 691.74164
683.0 0.001464 692.08826 692.08801
677.0 0.001477 692.43726 692.43701
690.0 0.001449 692.78894 692.78870
684.0 0.001462 693.14325 693.14301
672.0 0.001488 693.50031 693.50006
696.0 0.001437 693.85999 693.85974
694.0 0.001441 694.22241 694.22217
659.0 0.001517 694.58771 694.58746
665.0 0.001504 694.95575 694.95551
725.0 0.001379 695.32666 695.32648
713.0 0.001403 695.70050 695.70026
672.0 0.001488 696.07733 696.07709
686.0 0.001458 696.45721 696.45697
725.0 0.001379 696.84015 696.83990
693.0 0.001443 697.22626 697.22601
690.0 0.001449 697.61554 697.61536
627.0 0.001595 698.00818 698.00793
664.0 0.001506 698.40424 698.40399
682.0 0.001466 698.80365 698.80341
696.0 0.001437 699.20667 699.20642
686.0 0.001458 699.61334 699.61310
653.0 0.001531 700.02368 700.02344
697.0 0.001435 700.43787 700.43762
694.0 0.001441 700.85596 700.85571
698.0 0.001433 701.27808 701.27789
712.0 0.001404 701.70428 701.70410
682.0 0.001466 702.13477 702.13452
739.0 0.001353 702.56964 702.56940
645.0 0.001550 703.00885 703.00861
678.0 0.001475 703.45270 703.45245
751.0 0.001332 703.90118 703.90094
740.0 0.001351 704.35443 704.35419
684.0 0.001462 704.81268 704.81244
737.0 0.001357 705.27588 705.27563
768.0 0.001302 705.74426 705.74408
715.0 0.001399 706.21796 706.21777
653.0 0.001531 706.69702 706.69684
698.0 0.001433 707.18164 707.18146
659.0 0.001517 707.67194 707.67169
669.0 0.001495 708.16803 708.16779
733.0 0.001364 708.67004 708.66980
685.0 0.001460 709.17810 709.17786
708.0 0.001412 709.69238 709.69214
748.0 0.001337 710.21289 710.21265
723.0 0.001383 710.73999 710.73975
716.0 0.001397 711.27356 711.27332
700.0 0.001429 711.81390 711.81366
734.0 0.001362 712.36115 712.36090
724.0 0.001381 712.91528 712.91510
751.0 0.001332 713.47662 713.47638
719.0 0.001391 714.04517 714.04498
732.0 0.001366 714.62109 714.62085
692.0 0.001445 715.20459 715.20435
713.0 0.001403 715.79572 715.79547
739.0 0.001353 716.39465 716.39441
776.0 0.001289 717.00146 717.00122
739.0 0.001353 717.61633 717.61609
715.0 0.001399 718.23938 718.23920
743.0 0.001346 718.87073 718.87048
664.0 0.001506 719.51056 719.51031
687.0 0.001456 720.15887 720.15863
730.0 0.001370 720.81586 720.81561
770.0 0.001299 721.48169 721.48145
747.0 0.001339 722.15637 722.15613
785.0 0.001274 722.84021 722.83997
706.0 0.001416 723.53302 723.53284
744.0 0.001344 724.23517 724.23499
740.0 0.001351 724.94672 724.94647
719.0 0.001391 725.66779 725.66754
720.0 0.001389 726.39838 726.39813
724.0 0.001381 727.13861 727.13843
743.0 0.001346 727.88873 727.88849
727.0 0.001376 728.64880 728.64856
753.0 0.001328 729.41876 729.41852
740.0 0.001351 730.19891 730.19867
722.0 0.001385 730.98920 730.98895
704.0 0.001420 731.78973 731.78949
782.0 0.001279 732.60071 732.60052
728.0 0.001374 733.42206 733.42181
782.0 0.001279 734.25403 734.25378
745.0 0.001342 735.09650 735.09631
697.0 0.001435 735.94971 735.94946
715.0 0.001399 736.81360 736.81342
723.0 0.001383 737.68848 737.68823
752.0 0.001330 738.57410 738.57385
785.0 0.001274 739.47070 739.47046
731.0 0.001368 740.37823 743.33813
757.0 0.001321 741.29700 744.40515
741.0 0.001350 742.22675 746.96155
677.0 0.001477 743.16779 748.14838
772.0 0.001295 744.11987 749.36591
782.0 0.001279 745.08331 750.61658
719.0 0.001391 746.05804 751.90283
739.0 0.001353 747.04401 753.22748
801.0 0.001248 748.04144 754.59381
777.0 0.001287 749.05011 756.00543
802.0 0.001247 750.07025 757.46698
762.0 0.001312 751.10187 758.98340
777.0 0.001287 752.14484 760.56049
756.0 0.001323 753.19916 762.20526
722.0 0.001385 754.26501 763.92596
776.0 0.001289 755.34229 765.73224
794.0 0.001259 756.43109 767.63599
799.0 0.001252 757.53131 769.65106
806.0 0.001241 758.64301 771.79468
790.0 0.001266 759.76605 774.08740
853.0 0.001172 760.90045 776.55518
833.0 0.001200 762.04645 779.23029
809.0 0.001236 763.20361 782.15259
832.0 0.001202 764.37225 785.37396
821.0 0.001218 765.55206 788.95996
784.0 0.001276 766.74316 792.99744
838.0 0.001193 767.94562 797.60138
791.0 0.001264 769.15912 802.92615
850.0 0.001176 770.38385 809.18573
863.0 0.001159 771.61957 816.68030
835.0 0.001198 772.86646 825.84656
848.0 0.001179 774.12421 837.35138
887.0 0.001127 775.39288 852.34460
951.0 0.001052 776.67249 873.31470
947.0 0.001056 777.96277 906.62292
1005.0 0.000995 779.26373 968.10443
1173.0 0.000853 780.57550 1091.58142
1385.0 0.000722 781.89764 1336.93750
1833.0 0.000546 783.23041 1789.28955
2559.0 0.000391 784.57336 2533.54395
3437.0 0.0002910 785.92657 3557.39307
4228.0 0.0002365 787.29016 4603.99072
4814.0 0.0002077 788.66370 5146.52246
4860.0 0.0002058 790.04718 4817.45605
4139.0 0.0002416 791.44055 3906.42114
3027.0 0.0003304 792.84387 2826.42529
2152.0 0.000465 794.25665 1925.88281
1392.0 0.000718 795.67896 1370.19287
1136.0 0.000880 797.11084 1096.18042
961.0 0.001041 798.55188 978.76849
874.0 0.001144 800.00214 927.15289
903.0 0.001107 801.46155 899.53357
837.0 0.001195 802.92969 881.73230
822.0 0.001217 804.40680 869.23352
844.0 0.001185 805.89240 860.17175
827.0 0.001209 807.38647 853.50146
889.0 0.001125 808.88904 848.55420
845.0 0.001183 810.39972 844.88141
796.0 0.001256 811.91840 842.17120
782.0 0.001279 813.44519 840.20306
753.0 0.001328 814.97955 838.81561
797.0 0.001255 816.52155 837.89001
818.0 0.001222 818.07098 837.33661
794.0 0.001259 819.62781 837.08667
847.0 0.001181 821.19159 837.08667
755.0 0.001325 822.76239 837.29498
819.0 0.001221 824.34003 837.67816
844.0 0.001185 825.92426 838.20959
819.0 0.001221 827.51495 839.51251
822.0 0.001217 829.11182 840.31140
825.0 0.001212 830.71472 841.52386
812.0 0.001232 832.32373 842.51996
882.0 0.001134 833.93835 843.59192
843.0 0.001186 835.55847 844.73163
796.0 0.001256 837.18408 845.93250
878.0 0.001139 838.81476 847.18884
800.0 0.001250 840.45038 848.49585
849.0 0.001178 842.09088 849.84998
810.0 0.001235 843.73608 851.24811
850.0 0.001176 845.38556 852.68756
872.0 0.001147 847.03931 854.16687
886.0 0.001129 848.69720 855.68494
829.0 0.001206 850.35876 857.24084
833.0 0.001200 852.02417 855.90582
864.0 0.001157 853.69281 857.67419
873.0 0.001145 855.36475 858.00897
816.0 0.001225 857.03992 859.91040
771.0 0.001297 858.71771 861.84485
862.0 0.001160 860.39832 863.81805
843.0 0.001186 862.08124 865.83685
831.0 0.001203 863.76642 867.90997
877.0 0.001140 865.45367 870.04871
920.0 0.001087 867.14270 872.26740
824.0 0.001214 868.83356 874.58533
849.0 0.001178 870.52570 877.02747
836.0 0.001196 872.21906 879.62830
873.0 0.001145 873.91357 882.43518
881.0 0.001135 875.60876 885.51471
861.0 0.001161 877.30475 888.96442
903.0 0.001107 879.00098 892.93304
844.0 0.001185 880.69745 897.68134
875.0 0.001143 882.39404 903.78119
939.0 0.001065 884.09033 912.70581
920.0 0.001087 885.78638 928.16248
994.0 0.001006 887.48163 958.23346
979.0 0.001021 889.17609 1017.54559
1182.0 0.000846 890.86951 1126.11023
1397.0 0.000716 892.56195 1299.27441
1727.0 0.000579 894.25275 1522.28271
2045.0 0.000489 895.94196 1725.27222
2208.0 0.000453 897.62939 1799.51538
2139.0 0.000468 899.31494 1705.80603
1877.0 0.000533 900.99811 1519.11243
1547.0 0.000646 902.67908 1308.15723
1272.0 0.000786 904.35724 1133.82043
1055.0 0.000948 906.03259 1025.00000
989.0 0.001011 907.70514 970.49054
934.0 0.001071 909.37439 947.25018
936.0 0.001068 911.04034 937.69354
893.0 0.001120 912.70264 933.26868
947.0 0.001056 914.36115 930.92413
881.0 0.001135 916.01575 929.67493
937.0 0.001067 917.66632 929.12775
916.0 0.001092 919.31238 929.06763
888.0 0.001126 920.95404 929.35797
886.0 0.001129 922.59094 929.90649
950.0 0.001053 924.22321 930.64905
865.0 0.001156 925.85022 931.53955
860.0 0.001163 927.47217 932.54486
885.0 0.001130 929.08856 933.63983
955.0 0.001047 930.69940 934.80579
856.0 0.001168 932.30450 936.02820
938.0 0.001066 933.90411 937.29626
911.0 0.001098 935.49707 938.60016
934.0 0.001071 937.08405 939.93353
901.0 0.001110 938.66431 941.29010
932.0 0.001073 940.23816 942.66559
875.0 0.001143 941.80573 944.05640
898.0 0.001114 943.36566 945.45831
930.0 0.001075 944.91907 946.86969
854.0 0.001171 946.46478 948.28741
904.0 0.001106 948.00348 949.71045
907.0 0.001103 949.53485 951.13666
907.0 0.001103 951.05817 952.56427
898.0 0.001114 952.57391 953.99261
878.0 0.001139 954.08148 955.42029
896.0 0.001116 955.58105 956.84650
955.0 0.001047 957.07281 958.27069
894.0 0.001119 958.55566 959.69135
913.0 0.001095 960.03027 961.10846
904.0 0.001106 961.49603 962.52100
914.0 0.001094 962.95319 963.30176
940.0 0.001064 964.40179 964.73334
976.0 0.001025 965.84070 965.84052
920.0 0.001087 967.27106 967.27081
973.0 0.001028 968.69177 968.69159
986.0 0.001014 970.10321 970.10303
970.0 0.001031 971.50549 971.50525
939.0 0.001065 972.89777 972.89752
1014.0 0.000986 974.28058 974.28033
1014.0 0.000986 975.65332 975.65314
1017.0 0.000983 977.01630 977.01611
985.0 0.001015 978.36963 978.36938
1003.0 0.000997 979.71240 979.71216
1059.0 0.000944 981.04510 981.04492
1013.0 0.000987 982.36737 982.36713
943.0 0.001060 983.67932 983.67908
1009.0 0.000991 984.98114 984.98090
1029.0 0.000972 986.27179 986.27161
1016.0 0.000984 987.55225 987.55206
1055.0 0.000948 988.82172 988.82147
983.0 0.001017 990.08044 990.08020
959.0 0.001043 991.32849 991.32831
962.0 0.001040 992.56531 992.56506
965.0 0.001036 993.79126 993.79108
1023.0 0.000978 995.00592 995.00574
969.0 0.001032 996.20959 996.20935
980.0 0.001020 997.40228 997.40210
925.0 0.001081 998.58337 998.58313
990.0 0.001010 999.75330 999.75305
972.0 0.001029 1000.91162 1000.91138
988.0 0.001012 1002.05859 1002.05835
987.0 0.001013 1003.19440 1003.19421
1033.0 0.000968 1004.31824 1004.31799
1026.0 0.000975 1005.43079 1005.43060
988.0 0.001012 1006.53156 1006.53131
985.0 0.001015 1007.62067 1007.62048
990.0 0.001010 1008.69836 1008.69812
1020.0 0.000980 1009.76404 1009.76379
964.0 0.001037 1010.81812 1010.81787
1023.0 0.000978 1011.86023 1011.86005
999.0 0.001001 1012.89069 1012.89044
982.0 0.001018 1013.90955 1013.90936
1072.0 0.000933 1014.91626 1014.91602
927.0 0.001079 1015.91125 1015.91101
978.0 0.001022 1016.89417 1016.89392
1007.0 0.000993 1017.86530 1017.86505
970.0 0.001031 1018.82477 1018.82458
1001.0 0.000999 1019.77197 1019.77173
990.0 0.001010 1020.70752 1020.70728
1025.0 0.000976 1021.63098 1021.63074
1001.0 0.000999 1022.54254 1022.54230
973.0 0.001028 1023.44232 1023.44214
1006.0 0.000994 1024.32996 1024.32983
984.0 0.001016 1025.20605 1025.20581
1026.0 0.000975 1026.06982 1026.06958
1024.0 0.000977 1026.92175 1026.92163
1002.0 0.000998 1027.76221 1027.76196
1020.0 0.000980 1028.59045 1028.59021
997.0 0.001003 1029.40698 1029.40674
1060.0 0.000943 1030.21143 1036.79553
1044.0 0.000958 1031.00427 1037.85132
1073.0 0.000932 1031.78552 1038.91162
1054.0 0.000949 1032.55469 1043.29956
1052.0 0.000951 1033.31226 1044.50623
1054.0 0.000949 1034.05811 1045.72961
1070.0 0.000935 1034.79224 1046.97278
1054.0 0.000949 1035.51477 1048.23853
1086.0 0.000921 1036.22571 1049.52954
1052.0 0.000951 1036.92505 1050.84973
1099.0 0.000910 1037.61279 1052.20264
1082.0 0.000924 1038.28906 1053.59314
1085.0 0.000922 1038.95410 1055.02625
1117.0 0.000895 1039.60742 1056.50671
1095.0 0.000913 1040.24951 1058.04187
1076.0 0.000929 1040.88013 1059.63794
1173.0 0.000853 1041.49963 1061.30371
1123.0 0.000890 1042.10803 1063.04871
1117.0 0.000895 1042.70508 1064.88293
1070.0 0.000935 1043.29102 1066.81921
1080.0 0.000926 1043.86584 1068.87122
1089.0 0.000918 1044.42969 1071.05640
1042.0 0.000960 1044.98267 1073.39380
1142.0 0.000876 1045.52466 1075.90552
1176.0 0.000850 1046.05591 1078.61926
1131.0 0.000884 1046.57629 1081.56555
1177.0 0.000850 1047.08594 1084.78320
1148.0 0.000871 1047.58508 1088.31824
1208.0 0.000828 1048.07349 1092.22388
1218.0 0.000821 1048.55151 1097.33826
1174.0 0.000852 1049.01892 1102.23450
1213.0 0.000824 1049.47595 1108.12903
1178.0 0.000849 1049.92285 1114.42114
1172.0 0.000853 1050.35938 1121.62805
1190.0 0.000840 1050.78577 1129.96143
1253.0 0.000798 1051.20190 1139.68750
1283.0 0.000779 1051.60815 1151.16455
1255.0 0.000797 1052.00439 1164.86975
1242.0 0.000805 1052.39075 1181.44250
1260.0 0.000794 1052.76733 1201.79150
1262.0 0.000792 1053.13416 1227.19153
1362.0 0.000734 1053.49133 1259.55957
1380.0 0.000725 1053.83899 1302.03638
1422.0 0.000703 1054.17700 1360.86011
1478.0 0.000677 1054.50562 1451.63513
1699.0 0.000589 1054.82495 1615.67273
2122.0 0.000471 1055.13501 1953.08044
2780.0 0.000360 1055.43591 2664.99121
4016.0 0.0002490 1055.72766 4052.57837
5938.0 0.0001684 1056.01038 6361.99023
8717.0 0.0001147 1056.28406 9443.99512
11828.0 0.0000845 1056.54895 12440.58691
13823.0 0.0000723 1056.80518 13965.79297
13541.0 0.0000738 1057.05261 13293.90332
11885.0 0.0000841 1057.29138 11221.79688
8547.0 0.0001170 1057.52161 8579.49512
6025.0 0.0001660 1057.74353 5918.27881
4026.0 0.0002484 1057.95703 3847.02319
2425.0 0.000412 1058.16223 2559.16138
1682.0 0.000595 1058.35925 1890.75879
1478.0 0.000677 1058.54810 1582.59119
1322.0 0.000756 1058.72888 1437.93225
1229.0 0.000814 1058.90186 1357.87927
1189.0 0.000841 1059.06689 1305.04675
1226.0 0.000816 1059.22412 1266.71179
1199.0 0.000834 1059.37366 1237.84717
1156.0 0.000865 1059.51563 1215.76794
1172.0 0.000853 1059.65002 1198.80627
1126.0 0.000888 1059.77698 1185.88904
1130.0 0.000885 1059.89661 1176.32874
1199.0 0.000834 1060.00891 1169.76941
1158.0 0.000864 1060.11401 1166.18750
1222.0 0.000818 1060.21204 1166.16638
1192.0 0.000839 1060.30298 1171.82874
1191.0 0.000840 1060.38696 1189.22998
1305.0 0.000766 1060.46411 1232.67871
1408.0 0.000710 1060.53455 1329.02856
1594.0 0.000627 1060.59814 1513.45093
1981.0 0.000505 1060.65515 1803.63599
2593.0 0.000386 1060.70557 2159.56226
2802.0 0.000357 1060.74963 2459.75952
2757.0 0.000363 1060.78723 2554.51709
2493.0 0.000401 1060.81848 2420.18408
2218.0 0.000451 1060.84351 2166.72095
1841.0 0.000543 1060.86243 1865.58386
1514.0 0.000661 1060.87512 1577.88525
1339.0 0.000747 1060.88196 1363.40735
1248.0 0.000801 1060.88281 1233.39917
1134.0 0.000882 1060.87781 1166.64856
1173.0 0.000853 1060.86694 1135.25110
1104.0 0.000906 1060.85046 1119.58618
1111.0 0.000900 1060.82825 1110.18835
1116.0 0.000896 1060.80054 1103.54321
1125.0 0.000889 1060.76721 1098.43799
1056.0 0.000947 1060.72864 1094.35815
1056.0 0.000947 1060.68457 1091.01904
1060.0 0.000943 1060.63513 1088.23218
1104.0 0.000906 1060.58057 1085.86780
1069.0 0.000935 1060.52087 1083.83423
1079.0 0.000927 1060.45605 1082.06201
1032.0 0.000969 1060.38623 1080.50098
1071.0 0.000934 1060.31140 1079.11194
1080.0 0.000926 1060.23169 1077.86511
1073.0 0.000932 1060.14709 1070.14648
1007.0 0.000993 1060.05774 1069.36694
1076.0 0.000929 1059.96362 1068.65869
1040.0 0.000962 1059.86487 1064.77319
1054.0 0.000949 1059.76160 1064.29663
1050.0 0.000952 1059.65369 1063.85657
984.0 0.001016 1059.54126 1063.44727
1000.0 0.001000 1059.42444 1063.06384
1032.0 0.000969 1059.30322 1062.70251
1046.0 0.000956 1059.17773 1062.35974
1101.0 0.000908 1059.04785 1062.03308
1036.0 0.000965 1058.91382 1061.71973
1057.0 0.000946 1058.77563 1061.41809
1056.0 0.000947 1058.63318 1061.12610
1007.0 0.000993 1058.48682 1060.84216
1059.0 0.000944 1058.33630 1060.56567
1012.0 0.000988 1058.18176 1060.29468
1058.0 0.000945 1058.02344 1060.02893
1001.0 0.000999 1057.86108 1059.76709
1015.0 0.000985 1057.69482 1059.50854
986.0 0.001014 1057.52490 1059.25281
1056.0 0.000947 1057.35107 1058.99939
1044.0 0.000958 1057.17358 1058.74756
1089.0 0.000918 1056.99231 1058.49670
1023.0 0.000978 1056.80737 1058.24695
1047.0 0.000955 1056.61877 1057.99744
1056.0 0.000947 1056.42664 1057.74829
1024.0 0.000977 1056.23096 1057.49902
1014.0 0.000986 1056.03174 1057.24927
982.0 0.001018 1055.82886 1056.24609
1088.0 0.000919 1055.62268 1056.02344
989.0 0.001011 1055.41296 1055.79822
1117.0 0.000895 1055.19995 1055.19958
1026.0 0.000975 1054.98340 1054.98303
1034.0 0.000967 1054.76343 1054.76318
1090.0 0.000917 1054.54028 1054.53992
1008.0 0.000992 1054.31372 1054.31335
1067.0 0.000937 1054.08386 1054.08362
1058.0 0.000945 1053.85071 1053.85046
1060.0 0.000943 1053.61426 1053.61389
988.0 0.001012 1053.37463 1053.37439
982.0 0.001018 1053.13171 1053.13147
988.0 0.001012 1052.88562 1052.88538
1054.0 0.000949 1052.63635 1052.63611
1032.0 0.000969 1052.38379 1052.38354
1054.0 0.000949 1052.12817 1052.12793
1031.0 0.000970 1051.86938 1051.86914
1106.0 0.000904 1051.60742 1051.60718
1041.0 0.000961 1051.34229 1051.34204
1141.0 0.000876 1051.07397 1051.07373
1038.0 0.000963 1050.80261 1050.80237
1059.0 0.000944 1050.52808 1050.52783
1116.0 0.000896 1050.25049 1050.25024
1080.0 0.000926 1049.96985 1049.96948
1088.0 0.000919 1049.68591 1049.68567
1109.0 0.000902 1049.39893 1049.39868
1073.0 0.000932 1049.10889 1049.10864
1100.0 0.000909 1048.81580 1048.81555
1063.0 0.000941 1048.51941 1048.51917
1063.0 0.000941 1048.22009 1048.21973
1102.0 0.000907 1047.91760 1047.91736
1049.0 0.000953 1047.61194 1047.61157
1064.0 0.000940 1047.30322 1047.30298
1085.0 0.000922 1046.99133 1046.99109
1068.0 0.000936 1046.67615 1046.67590
1102.0 0.000907 1046.35803 1046.35779
1080.0 0.000926 1046.03674 1046.03650
1067.0 0.000937 1045.71228 1045.71204
1069.0 0.000935 1045.38464 1045.38440
1002.0 0.000998 1045.05371 1045.05347
1031.0 0.000970 1044.71960 1044.71936
1025.0 0.000976 1044.38232 1044.38208
999.0 0.001001 1044.04187 1044.04163
975.0 0.001026 1043.69824 1043.69800
1020.0 0.000980 1043.35107 1043.35083
1050.0 0.000952 1043.00098 1043.00073
984.0 0.001016 1042.64734 1042.64709
1055.0 0.000948 1042.29053 1042.29028
992.0 0.001008 1041.93030 1041.93005
1026.0 0.000975 1041.56677 1041.56653
1019.0 0.000981 1041.19983 1041.19958
1019.0 0.000981 1040.82959 1040.82935
1035.0 0.000966 1040.45593 1040.45569
1027.0 0.000974 1040.07886 1040.07861
1012.0 0.000988 1039.69812 1039.69788
1019.0 0.000981 1039.31409 1039.31384
1025.0 0.000976 1038.92651 1038.92627
971.0 0.001030 1038.53552 1038.53528
1025.0 0.000976 1038.14087 1038.14063
992.0 0.001008 1037.74255 1037.74231
983.0 0.001017 1037.34082 1037.34058
982.0 0.001018 1036.93530 1036.93506
1009.0 0.000991 1036.52625 1036.52600
1031.0 0.000970 1036.11353 1036.11328
1031.0 0.000970 1035.69690 1035.69666
971.0 0.001030 1035.27673 1035.27649
1018.0 0.000982 1034.85278 1034.85254
996.0 0.001004 1034.42493 1034.42468
962.0 0.001040 1033.99341 1033.99316
1019.0 0.000981 1033.55774 1033.55750
995.0 0.001005 1033.11841 1033.11816
1003.0 0.000997 1032.67505 1032.67480
983.0 0.001017 1032.22778 1032.22754
1043.0 0.000959 1031.77661 1031.77637
983.0 0.001017 1031.32117 1031.32092
1045.0 0.000957 1030.86194 1031.13281
989.0 0.001011 1030.39844 1030.68005
1010.0 0.000990 1029.93103 1030.22400
992.0 0.001008 1029.45935 1029.89832
1034.0 0.000967 1028.98340 1029.44080
993.0 0.001007 1028.50342 1028.97998
1024.0 0.000977 1028.01904 1028.51624
1006.0 0.000994 1027.53052 1028.04956
1055.0 0.000948 1027.03760 1027.58020
1007.0 0.000993 1026.54016 1027.10779
961.0 0.001041 1026.03857 1026.63293
996.0 0.001004 1025.53247 1026.15564
1002.0 0.000998 1025.02197 1025.67603
1005.0 0.000995 1024.50696 1025.19434
1031.0 0.000970 1023.98724 1024.71045
985.0 0.001015 1023.46326 1024.22522
1031.0 0.000970 1022.93439 1023.73840
1004.0 0.000996 1022.40112 1023.25061
1024.0 0.000977 1021.86310 1022.76215
1032.0 0.000969 1021.32037 1022.27338
1033.0 0.000968 1020.77301 1021.78491
1055.0 0.000948 1020.22070 1021.29730
1037.0 0.000964 1019.66376 1020.81140
1059.0 0.000944 1019.10193 1024.35095
1021.0 0.000979 1018.53510 1024.03052
1060.0 0.000943 1017.96350 1023.72461
952.0 0.001050 1017.38690 1025.41858
1035.0 0.000966 1016.80542 1025.22656
1151.0 0.000869 1016.21893 1025.06165
1076.0 0.000929 1015.62726 1024.92737
989.0 0.001011 1015.03070 1024.82874
1067.0 0.000937 1014.42883 1024.77136
1010.0 0.000990 1013.82208 1024.76184
1047.0 0.000955 1013.21002 1024.80872
1049.0 0.000953 1012.59265 1024.92212
1101.0 0.000908 1011.97021 1025.11450
1069.0 0.000935 1011.34241 1025.40210
1031.0 0.000970 1010.70947 1025.80566
1010.0 0.000990 1010.07111 1026.35242
1059.0 0.000944 1009.42725 1027.07861
1045.0 0.000957 1008.77814 1028.03369
1044.0 0.000958 1008.12360 1029.29004
1106.0 0.000904 1007.46368 1030.95996
1087.0 0.000920 1006.79828 1033.26355
1055.0 0.000948 1006.12714 1036.73413
1059.0 0.000944 1005.45068 1042.78088
1078.0 0.000928 1004.76862 1054.83887
1096.0 0.000912 1004.08105 1079.73706
1141.0 0.000876 1003.38788 1127.50232
1244.0 0.000804 1002.68890 1206.28662
1403.0 0.000713 1001.98444 1311.51904
1506.0 0.000664 1001.27411 1417.70435
1567.0 0.000638 1000.55829 1483.10132
1449.0 0.000690 999.83661 1481.29443
1473.0 0.000679 999.10901 1431.76965
1443.0 0.000693 998.37585 1362.79810
1313.0 0.000762 997.63678 1283.49854
1240.0 0.000806 996.89203 1205.88965
1261.0 0.000793 996.14130 1145.63306
1162.0 0.000861 995.38458 1108.43665
1140.0 0.000877 994.62219 1091.27515
1164.0 0.000859 993.85376 1087.72021
1118.0 0.000894 993.07953 1092.31592
1167.0 0.000857 992.29932 1102.26086
1116.0 0.000896 991.51300 1117.02173
1178.0 0.000849 990.72089 1137.65076
1288.0 0.000776 989.92255 1167.25378
1270.0 0.000787 989.11853 1214.04028
1372.0 0.000729 988.30835 1300.13574
1591.0 0.000629 987.49188 1478.74951
2031.0 0.000492 986.66962 1853.05518
2662.0 0.000376 985.84125 2568.78784
3901.0 0.0002563 985.00684 3732.93457
5729.0 0.0001746 984.16632 5258.55273
7196.0 0.0001390 983.31946 6754.51660
7129.0 0.0001403 982.46680 7618.22070
7116.0 0.0001405 981.60791 7512.72363
7174.0 0.0001394 980.74298 6751.52393
6027.0 0.0001659 979.87183 5723.87061
4231.0 0.0002364 978.99445 4543.03467
3374.0 0.0002964 978.11108 3372.24487
2516.0 0.000397 977.22137 2431.90405
1823.0 0.000549 976.32581 1805.40344
1418.0 0.000705 975.42383 1450.02283
1232.0 0.000812 974.51569 1271.26050
1140.0 0.000877 973.60156 1183.71594
1088.0 0.000919 972.68109 1136.07813
1086.0 0.000921 971.75464 1105.36365
1037.0 0.000964 970.82190 1082.89893
973.0 0.001028 969.88281 1065.40723
1015.0 0.000985 968.93781 1051.36438
1037.0 0.000964 967.98657 1039.84839
1031.0 0.000970 967.02930 1030.24634
945.0 0.001058 966.06580 1022.11609
982.0 0.001018 965.09589 1015.13745
1019.0 0.000981 964.12024 1009.07648
993.0 0.001007 963.13818 1003.74957
1027.0 0.000974 962.15027 999.02142
1004.0 0.000996 961.15601 994.78308
967.0 0.001034 960.15552 990.95001
981.0 0.001019 959.14923 987.45709
990.0 0.001010 958.13666 984.24835
955.0 0.001047 957.11823 981.28119
935.0 0.001070 956.09357 978.51904
979.0 0.001021 955.06262 975.66492
997.0 0.001003 954.02600 973.23981
992.0 0.001008 952.98322 970.94427
947.0 0.001056 951.93457 968.62811
958.0 0.001044 950.87982 966.54895
989.0 0.001011 949.81885 964.55493
987.0 0.001013 948.75238 962.63666
930.0 0.001075 947.67963 960.78369
876.0 0.001142 946.60120 958.98926
942.0 0.001062 945.51685 957.24597
879.0 0.001138 944.42639 955.54767
956.0 0.001046 943.33038 953.89008
968.0 0.001033 942.22839 952.26788
916.0 0.001092 941.12073 950.67773
906.0 0.001104 940.00714 949.11560
873.0 0.001145 938.88763 947.57825
935.0 0.001070 937.76276 946.06378
942.0 0.001062 936.63196 944.56903
929.0 0.001076 935.49573 943.09216
944.0 0.001059 934.35370 941.63110
922.0 0.001085 933.20581 940.18372
931.0 0.001074 932.05280 938.74951
970.0 0.001031 930.89386 937.32593
886.0 0.001129 929.72974 931.96399
950.0 0.001053 928.56000 930.70593
908.0 0.001101 927.38458 929.44733
957.0 0.001045 926.20404 926.20380
879.0 0.001138 925.01801 925.01776
875.0 0.001143 923.82678 923.82654
937.0 0.001067 922.63007 922.62982
952.0 0.001050 921.42786 921.42761
958.0 0.001044 920.22083 920.22058
946.0 0.001057 919.00836 919.00812
930.0 0.001075 917.79095 919.14478
909.0 0.001100 916.56836 917.97638
897.0 0.001115 915.34027 916.80585
930.0 0.001075 914.10779 916.29437
916.0 0.001092 912.86987 915.14758
879.0 0.001138 911.62726 914.00201
898.0 0.001114 910.37970 912.85779
967.0 0.001034 909.12701 911.71539
892.0 0.001121 907.86987 910.57593
945.0 0.001058 906.60773 909.43982
863.0 0.001159 905.34106 908.30817
935.0 0.001070 904.06964 907.18158
892.0 0.001121 902.79321 906.06097
966.0 0.001035 901.51263 904.94806
886.0 0.001129 900.22736 903.84387
876.0 0.001142 898.93774 902.74994
944.0 0.001059 897.64362 901.66791
871.0 0.001148 896.34479 900.59937
850.0 0.001176 895.04218 899.54730
900.0 0.001111 893.73480 898.51343
884.0 0.001131 892.42358 897.50116
871.0 0.001148 891.10797 896.51373
934.0 0.001071 889.78809 896.78156
937.0 0.001067 888.46442 895.90503
912.0 0.001096 887.13647 895.07019
904.0 0.001106 885.80493 894.28394
891.0 0.001122 884.46930 894.17383
847.0 0.001181 883.12946 893.53418
865.0 0.001156 881.78625 892.97345
913.0 0.001095 880.43909 892.50519
946.0 0.001057 879.08850 892.14661
883.0 0.001133 877.73413 891.91876
929.0 0.001076 876.37579 891.84772
889.0 0.001125 875.01453 891.96661
902.0 0.001109 873.64948 892.31757
909.0 0.001100 872.28131 892.95447
904.0 0.001106 870.90967 893.94855
896.0 0.001116 869.53455 895.39429
881.0 0.001135 868.15649 897.41858
927.0 0.001079 866.77496 900.19867
932.0 0.001073 865.39087 903.98767
897.0 0.001115 864.00342 909.18591
971.0 0.001030 862.61273 916.55115
970.0 0.001031 861.21954 927.86957
942.0 0.001062 859.82330 947.85791
1086.0 0.000921 858.42444 988.14575
1115.0 0.000897 857.02283 1072.80884
1253.0 0.000798 855.61816 1239.82080
1587.0 0.000630 854.21136 1527.32800
2033.0 0.000492 852.80182 1939.16528
2411.0 0.000415 851.39001 2404.14526
2865.0 0.0003490 849.97571 2772.69263
2957.0 0.0003382 848.55878 2893.04248
2893.0 0.0003457 847.14001 2765.48682
2630.0 0.000380 845.71863 2518.71362
2122.0 0.000471 844.29559 2223.59180
1826.0 0.000548 842.87018 1889.83557
1505.0 0.000664 841.44244 1561.19458
1232.0 0.000812 840.01324 1295.17139
1058.0 0.000945 838.58185 1114.05591
1037.0 0.000964 837.14893 1008.76062
940.0 0.001064 835.71411 955.23499
875.0 0.001143 834.27728 930.35608
915.0 0.001093 832.83929 919.46082
886.0 0.001129 831.39948 915.86810
918.0 0.001089 829.95844 917.99750
960.0 0.001042 828.51587 928.18976
982.0 0.001018 827.07166 954.66510
1066.0 0.000938 825.62653 1015.84863
1119.0 0.000894 824.17981 1142.96118
1515.0 0.000660 822.73242 1371.49731
1743.0 0.000574 821.28357 1714.72522
2214.0 0.000452 819.83356 2127.03101
2572.0 0.000389 818.38300 2489.24561
2646.0 0.000378 816.93127 2656.31982
2673.0 0.000374 815.47894 2587.20166
2621.0 0.000382 814.02576 2384.32593
2093.0 0.000478 812.57153 2132.52319
1796.0 0.000557 811.11707 1843.92371
1592.0 0.000628 809.66187 1542.34937
1347.0 0.000742 808.20642 1281.07776
1055.0 0.000948 806.75043 1091.19421
1045.0 0.000957 805.29370 972.82532
923.0 0.001083 803.83728 907.81165
845.0 0.001183 802.38007 874.20459
914.0 0.001094 800.92328 855.96173
845.0 0.001183 799.46594 844.48309
766.0 0.001305 798.00848 836.09131
820.0 0.001220 796.55139 829.37567
789.0 0.001267 795.09418 823.74744
802.0 0.001247 793.63739 818.90637
803.0 0.001245 792.18060 814.65900
839.0 0.001192 790.72382 810.87054
772.0 0.001295 789.26782 807.44562
793.0 0.001261 787.81207 804.30933
808.0 0.001238 786.35699 801.40802
778.0 0.001285 784.90234 798.69812
813.0 0.001230 783.44788 796.14642
798.0 0.001253 781.99475 793.72833
828.0 0.001208 780.54199 791.42145
777.0 0.001287 779.09009 789.20984
786.0 0.001272 777.63910 787.07959
775.0 0.001290 776.18878 785.01898
772.0 0.001295 774.73969 781.68347
779.0 0.001284 773.29156 779.78735
772.0 0.001295 771.84460 777.93512
802.0 0.001247 770.39880 776.12146
768.0 0.001302 768.95392 773.68787
784.0 0.001276 767.51086 771.96326
714.0 0.001401 766.06860 770.26385
775.0 0.001290 764.62830 768.58813
757.0 0.001321 763.18921 766.93280
769.0 0.001300 761.75110 765.29572
686.0 0.001458 760.31537 763.67651
761.0 0.001314 758.88074 762.07220
735.0 0.001361 757.44824 760.48273
752.0 0.001330 756.01733 758.90601
738.0 0.001355 754.58771 757.34088
781.0 0.001280 753.16064 755.78772
739.0 0.001353 751.73505 754.24445
790.0 0.001266 750.31195 752.71136
796.0 0.001256 748.89056 751.18713
731.0 0.001368 747.47107 749.67114
715.0 0.001399 746.05389 748.16357
753.0 0.001328 744.63873 746.66339
759.0 0.001318 743.22626 743.93652
763.0 0.001311 741.81586 742.49731
732.0 0.001366 740.40759 741.06201
718.0 0.001393 739.00189 739.63092
703.0 0.001422 737.59869 737.59839
770.0 0.001299 736.19800 736.19769
725.0 0.001379 734.79987 734.79956
710.0 0.001408 733.40411 733.40375
746.0 0.001340 732.01123 732.01086
729.0 0.001372 730.62103 730.62073
717.0 0.001395 729.23364 729.23328
714.0 0.001401 727.84900 727.84863
741.0 0.001350 726.46698 726.46667
734.0 0.001362 725.08832 725.08801
718.0 0.001393 723.71216 723.71185
726.0 0.001377 722.33948 722.33911
735.0 0.001361 720.96930 720.96893
719.0 0.001391 719.60223 719.60193
718.0 0.001393 718.23877 718.23840
695.0 0.001439 716.87799 716.87762
695.0 0.001439 715.52087 715.52051
677.0 0.001477 714.16675 714.44244
685.0 0.001460 712.81555 713.10223
690.0 0.001449 711.46832 711.76666
712.0 0.001404 710.12396 710.43481
736.0 0.001359 708.78357 709.24530
702.0 0.001425 707.44641 707.92773
690.0 0.001449 706.11218 706.61450
763.0 0.001311 704.78229 705.30682
643.0 0.001555 703.45544 704.00385
731.0 0.001368 702.13269 702.70654
670.0 0.001493 700.81342 701.41443
693.0 0.001443 699.49750 700.12787
693.0 0.001443 698.18561 698.84741
727.0 0.001376 696.87750 697.57306
678.0 0.001475 695.57312 696.30524
707.0 0.001414 694.27258 695.04425
679.0 0.001473 692.97571 693.79004
719.0 0.001391 691.68292 692.54370
655.0 0.001527 690.39410 691.30530
688.0 0.001453 689.10925 690.07556
713.0 0.001403 687.82831 688.85486
691.0 0.001447 686.55127 687.64380
693.0 0.001443 685.27869 686.44379
668.0 0.001497 684.00970 685.25500
634.0 0.001577 682.74512 684.07898
711.0 0.001406 681.48462 682.91699
728.0 0.001374 680.22809 681.77026
639.0 0.001565 678.97626 680.64124
712.0 0.001404 677.72815 679.53131
734.0 0.001362 676.48474 678.44397
652.0 0.001534 675.24542 677.38208
717.0 0.001395 674.00989 676.34912
657.0 0.001522 672.77936 675.35138
649.0 0.001541 671.55280 674.39417
692.0 0.001445 670.33099 673.48633
678.0 0.001475 669.11340 672.63757
654.0 0.001529 667.89978 671.86163
640.0 0.001563 666.69128 671.17731
688.0 0.001453 665.48676 670.60834
699.0 0.001431 664.28717 670.18915
712.0 0.001404 663.09186 669.96942
656.0 0.001524 661.90088 670.03345
642.0 0.001558 660.71460 670.55469
735.0 0.001361 659.53296 671.96576
641.0 0.001560 658.35583 675.36310
721.0 0.001387 657.18335 683.24091
668.0 0.001497 656.01520 700.23859
748.0 0.001337 654.85193 732.79773
772.0 0.001295 653.69330 786.35516
857.0 0.001167 652.53931 859.72644
852.0 0.001174 651.39001 939.65570
965.0 0.001036 650.24518 1001.32599
1034.0 0.000967 649.10547 1021.35376
958.0 0.001044 647.97003 1000.10242
980.0 0.001020 646.83954 959.16510
843.0 0.001186 645.71375 911.92188
767.0 0.001304 644.59253 858.46497
737.0 0.001357 643.47644 800.78589
751.0 0.001332 642.36475 747.95862
685.0 0.001460 641.25824 706.93915
646.0 0.001548 640.15625 679.29907
612.0 0.001634 639.05872 662.76202
670.0 0.001493 637.96655 653.51617
614.0 0.001629 636.87885 648.20618
629.0 0.001590 635.79633 644.75317
630.0 0.001587 634.71838 642.14142
664.0 0.001506 633.64490 639.95038
620.0 0.001613 632.57684 638.01312
623.0 0.001605 631.51324 636.25116
612.0 0.001634 630.45490 634.62177
557.0 0.001795 629.40112 633.09460
631.0 0.001585 628.35205 631.64856
590.0 0.001695 627.30804 630.26855
600.0 0.001667 626.26868 628.94220
637.0 0.001570 625.23450 627.66101
583.0 0.001715 624.20502 626.41718
619.0 0.001616 623.18024 625.20532
598.0 0.001672 622.16052 624.02130
603.0 0.001658 621.14557 622.86139
623.0 0.001605 620.13556 621.72266
620.0 0.001613 619.13037 620.60278
657.0 0.001522 618.12988 619.49957
564.0 0.001773 617.13440 618.41187
575.0 0.001739 616.14380 617.33789
672.0 0.001488 615.15802 616.27686
629.0 0.001590 614.17706 615.22748
653.0 0.001531 613.20087 614.18884
612.0 0.001634 612.22974 613.16089
605.0 0.001653 611.26318 612.14209
600.0 0.001667 610.30176 611.13281
616.0 0.001623 609.34497 610.13196
637.0 0.001570 608.39276 609.13898
618.0 0.001618 607.44580 608.15448
572.0 0.001748 606.50330 607.17719
595.0 0.001681 605.56598 606.20752
614.0 0.001629 604.63324 605.24475
579.0 0.001727 603.70502 604.28851
593.0 0.001686 602.78204 603.33942
630.0 0.001587 601.86346 602.62122
582.0 0.001718 600.95001 601.69379
583.0 0.001715 600.04114 600.77289
599.0 0.001669 599.13684 599.85858
567.0 0.001764 598.23749 598.95093
637.0 0.001570 597.34265 597.89178
574.0 0.001742 596.45282 597.01215
605.0 0.001653 595.56763 596.13861
628.0 0.001592 594.68689 595.27106
567.0 0.001764 593.81104 594.27435
562.0 0.001779 592.93982 593.42487
607.0 0.001647 592.07330 592.58148
601.0 0.001664 591.21136 591.74445
537.0 0.001862 590.35400 590.91382
638.0 0.001567 589.50134 590.09003
568.0 0.001761 588.65332 589.27301
574.0 0.001742 587.80988 588.46332
575.0 0.001739 586.97101 587.66089
639.0 0.001565 586.13660 586.86603
545.0 0.001835 585.30701 586.07965
634.0 0.001577 584.48169 585.30127
615.0 0.001626 583.66113 584.53229
578.0 0.001730 582.84485 583.77246
591.0 0.001692 582.03308 583.02283
596.0 0.001678 581.22601 582.28436
588.0 0.001701 580.42316 581.55750
609.0 0.001642 579.62500 580.84393
547.0 0.001828 578.83118 580.14441
597.0 0.001675 578.04150 579.46045
589.0 0.001698 577.25665 578.79462
561.0 0.001783 576.47589 578.14844
583.0 0.001715 575.69971 577.52545
606.0 0.001650 574.92780 576.92871
631.0 0.001585 574.15997 576.36249
579.0 0.001727 573.39685 575.83307
614.0 0.001629 572.63776 575.34686
575.0 0.001739 571.88318 574.91376
593.0 0.001686 571.13275 574.54535
528.0 0.001894 570.38647 574.25824
605.0 0.001653 569.64447 574.07428
608.0 0.001645 568.90674 574.02557
571.0 0.001751 568.17316 574.16199
587.0 0.001704 567.44379 574.58063
580.0 0.001724 566.71838 575.50775
569.0 0.001757 565.99731 577.50842
611.0 0.001637 565.28033 581.90747
630.0 0.001587 564.56744 591.33264
663.0 0.001508 563.85858 609.91980
703.0 0.001422 563.15369 642.23969
808.0 0.001238 562.45313 690.32233
928.0 0.001078 561.75629 749.75842
1010.0 0.000990 561.06354 807.13318
1053.0 0.000950 560.37482 843.40717
976.0 0.001025 559.68988 846.61218
1007.0 0.000993 559.00916 824.56982
938.0 0.001066 558.33209 793.18921
856.0 0.001168 557.65918 759.78876
716.0 0.001397 556.98999 720.96472
737.0 0.001357 556.32446 678.89465
657.0 0.001522 555.66315 639.94177
678.0 0.001475 555.00537 609.50397
563.0 0.001776 554.35162 588.17114
619.0 0.001616 553.70148 575.07990
602.0 0.001661 553.05493 567.66718
598.0 0.001672 552.41248 563.49866
596.0 0.001678 551.77344 560.93707
618.0 0.001618 551.13837 559.12665
567.0 0.001764 550.50677 557.68774
582.0 0.001718 549.87878 556.46558
561.0 0.001783 549.25458 555.39301
571.0 0.001751 548.63391 554.43384
617.0 0.001621 548.01685 553.56561
549.0 0.001821 547.40332 552.77271
569.0 0.001757 546.79327 552.04376
579.0 0.001727 546.18683 551.37109
566.0 0.001767 545.58392 550.74884
566.0 0.001767 544.98444 550.17334
594.0 0.001684 544.38843 549.64221
575.0 0.001739 543.79578 549.15454
527.0 0.001898 543.20673 548.71033
550.0 0.001818 542.62091 548.31073
509.0 0.001965 542.03857 547.95789
499.0 0.002004 541.45953 547.65540
569.0 0.001757 540.88379 547.40753
579.0 0.001727 540.31152 547.22058
563.0 0.001776 539.74237 547.10187
570.0 0.001754 539.17670 547.06171
552.0 0.001812 538.61414 547.11212
530.0 0.001887 538.05463 547.26898
527.0 0.001898 537.49866 547.55255
576.0 0.001736 536.94562 547.98834
553.0 0.001808 536.39600 548.60999
540.0 0.001852 535.84943 549.46161
548.0 0.001825 535.30579 550.60150
547.0 0.001828 534.76550 552.10889
531.0 0.001883 534.22815 554.09766
587.0 0.001704 533.69403 556.74622
524.0 0.001908 533.16290 560.39520
562.0 0.001779 532.63470 565.82758
548.0 0.001825 532.10956 574.97058
590.0 0.001695 531.58734 592.31494
593.0 0.001686 531.06830 626.80267
676.0 0.001479 530.55206 692.77118
789.0 0.001267 530.03870 806.86938
978.0 0.001022 529.52832 978.31635
1153.0 0.000867 529.02081 1196.53064
1371.0 0.000729 528.51624 1419.20776
1548.0 0.000646 528.01447 1579.31689
1565.0 0.000639 527.51544 1622.45728
1470.0 0.000680 527.01929 1560.48193
1460.0 0.000685 526.52594 1452.02283
1184.0 0.000845 526.03540 1332.69885
1006.0 0.000994 525.54761 1200.63000
1003.0 0.000997 525.06244 1051.11230
819.0 0.001221 524.58014 901.62262
711.0 0.001406 524.10040 774.17267
641.0 0.001560 523.62347 679.94946
587.0 0.001704 523.14917 618.74933
534.0 0.001873 522.67737 583.11597
516.0 0.001938 522.20837 563.70648
532.0 0.001880 521.74182 553.01575
561.0 0.001783 521.27808 546.53326
495.0 0.002020 520.81677 542.04785
562.0 0.001779 520.35791 538.58881
544.0 0.001838 519.90173 535.76593
501.0 0.001996 519.44800 533.38800
505.0 0.001980 518.99689 531.34662
474.0 0.002110 518.54816 529.56696
545.0 0.001835 518.10187 527.99518
466.0 0.002146 517.65808 526.59180
499.0 0.002004 517.21661 525.32501
476.0 0.002101 516.77777 524.17139
516.0 0.001938 516.34125 523.11188
517.0 0.001934 515.90698 522.13104
506.0 0.001976 515.47522 521.21747
528.0 0.001894 515.04572 520.36090
519.0 0.001927 514.61859 519.55383
514.0 0.001946 514.19379 518.78925
532.0 0.001880 513.77124 518.06195
520.0 0.001923 513.35101 517.36719
460.0 0.002174 512.93304 516.70135
506.0 0.001976 512.51733 516.06091
526.0 0.001901 512.10388 515.44342
521.0 0.001919 511.69257 514.84619
467.0 0.002141 511.28360 514.26776
507.0 0.001972 510.87671 513.70569
519.0 0.001927 510.47211 513.15900
522.0 0.001916 510.06952 512.62610
517.0 0.001934 509.66910 512.10602
495.0 0.002020 509.27090 511.59787
461.0 0.002169 508.87473 511.10059
455.0 0.002198 508.48080 510.61371
506.0 0.001976 508.08887 510.13632
500.0 0.002000 507.69888 509.66794
494.0 0.002024 507.31116 509.20840
500.0 0.002000 506.92535 508.75705
526.0 0.001901 506.54172 508.31375
488.0 0.002049 506.16003 507.87817
511.0 0.001957 505.78021 507.45010
517.0 0.001934 505.40259 506.13205
486.0 0.002058 505.02679 505.75299
507.0 0.001972 504.65311 505.38000
489.0 0.002045 504.28131 505.01340
528.0 0.001894 503.91141 504.20062
474.0 0.002110 503.54346 503.86594
488.0 0.002049 503.17746 503.53931
503.0 0.001988 502.81335 503.22223
505.0 0.001980 502.45111 502.91681
542.0 0.001845 502.09070 502.62601
486.0 0.002058 501.73224 502.54272
522.0 0.001916 501.37558 502.30658
484.0 0.002066 501.02078 502.12128
525.0 0.001905 500.66782 502.03912
491.0 0.002037 500.31662 502.17847
516.0 0.001938 499.96735 502.86407
508.0 0.001969 499.61972 504.27359
509.0 0.001965 499.27396 506.91846
523.0 0.001912 498.92996 511.05438
537.0 0.001862 498.58765 516.44958
569.0 0.001757 498.24722 522.12341
568.0 0.001761 497.90839 526.42322
544.0 0.001838 497.57144 527.81879
563.0 0.001776 497.23611 526.28925
568.0 0.001761 496.90237 523.26862
588.0 0.001701 496.57053 519.91998
562.0 0.001779 496.24023 516.37354
522.0 0.001916 495.91171 513.22131
577.0 0.001733 495.58481 508.97006
482.0 0.002075 495.25946 505.03836
475.0 0.002105 494.93591 501.85510
477.0 0.002096 494.61389 499.55157
539.0 0.001855 494.29358 498.45905
480.0 0.002083 493.97482 497.50287
512.0 0.001953 493.65762 496.88147
498.0 0.002008 493.34207 496.43781
500.0 0.002000 493.02811 496.08365
497.0 0.002012 492.71573 495.77768
524.0 0.001908 492.40488 495.50229
502.0 0.001992 492.09555 495.25031
531.0 0.001883 491.78781 495.01843
485.0 0.002062 491.48160 494.80505
523.0 0.001912 491.17694 494.60947
501.0 0.001996 490.87378 494.43134
494.0 0.002024 490.57208 494.27094
466.0 0.002146 490.27197 494.12885
499.0 0.002004 489.97327 494.00616
530.0 0.001887 489.67609 493.90421
493.0 0.002028 489.38037 493.82483
518.0 0.001931 489.08606 493.77014
514.0 0.001946 488.79333 493.74301
480.0 0.002083 488.50195 493.74661
496.0 0.002016 488.21207 493.78503
460.0 0.002174 487.92361 493.86334
511.0 0.001957 487.63644 493.98767
489.0 0.002045 487.35086 494.16544
564.0 0.001773 487.06659 494.40631
484.0 0.002066 486.78378 494.72205
508.0 0.001969 486.50232 495.12814
486.0 0.002058 486.22214 495.64453
556.0 0.001799 485.94348 496.29776
516.0 0.001938 485.66608 497.12619
531.0 0.001883 485.39017 498.19147
529.0 0.001890 485.11551 499.61575
533.0 0.001876 484.84216 501.67810
535.0 0.001869 484.57019 505.02972
559.0 0.001789 484.29950 511.08127
533.0 0.001876 484.03021 522.42963
531.0 0.001883 483.76221 542.93652
566.0 0.001767 483.49542 576.74707
660.0 0.001515 483.23001 625.86090
781.0 0.001280 482.96585 687.08795
765.0 0.001307 482.70300 749.74408
784.0 0.001276 482.44141 796.89740
795.0 0.001258 482.18103 813.92706
784.0 0.001276 481.92197 801.98383
777.0 0.001287 481.66412 776.00946
752.0 0.001330 481.40753 747.73401
689.0 0.001451 481.15219 718.60742
660.0 0.001515 480.89801 685.77075
730.0 0.001370 480.64514 651.48438
629.0 0.001590 480.39337 622.72815
622.0 0.001608 480.14291 608.19476
595.0 0.001681 479.89362 617.59247
603.0 0.001658 479.64542 663.94415
673.0 0.001486 479.39850 763.19714
890.0 0.001124 479.15271 929.70819
1145.0 0.000873 478.90814 1164.18835
1422.0 0.000703 478.66470 1441.11182
1631.0 0.000613 478.42233 1701.98816
1609.0 0.000622 478.18121 1868.42139
1705.0 0.000587 477.94116 1891.99487
1793.0 0.000558 477.70233 1802.44702
1607.0 0.000622 477.46457 1668.85901
1337.0 0.000748 477.22787 1529.40173
1129.0 0.000886 476.99234 1379.64990
1025.0 0.000976 476.75787 1207.36462
990.0 0.001010 476.52457 1025.47156
742.0 0.001348 476.29230 859.71582
649.0 0.001541 476.06110 727.81226
584.0 0.001712 475.83096 635.10114
533.0 0.001876 475.60193 576.81549
520.0 0.001923 475.37393 543.25330
545.0 0.001835 475.14700 524.66333
515.0 0.001942 474.92108 514.03015
514.0 0.001946 474.69617 507.30673
520.0 0.001923 474.47238 502.52701
542.0 0.001845 474.24951 498.82062
494.0 0.002024 474.02771 495.80563
485.0 0.002062 473.80692 493.29083
504.0 0.001984 473.58710 491.16028
464.0 0.002155 473.36829 489.33600
514.0 0.001946 473.15042 488.06961
530.0 0.001887 472.93353 486.70612
497.0 0.002012 472.71762 485.51279
476.0 0.002101 472.50272 484.46295
503.0 0.001988 472.28870 483.53616
490.0 0.002041 472.07568 482.87094
477.0 0.002096 471.86353 482.15027
505.0 0.001980 471.65237 481.51480
494.0 0.002024 471.44211 480.95712
493.0 0.002028 471.23279 480.47250
473.0 0.002114 471.02432 480.05768
472.0 0.002119 470.81677 479.71185
487.0 0.002053 470.61014 479.43604
504.0 0.001984 470.40436 479.23334
527.0 0.001898 470.19949 479.10962
481.0 0.002079 469.99545 479.07388
506.0 0.001976 469.79224 479.13962
544.0 0.001838 469.58997 479.32635
481.0 0.002079 469.38849 479.66455
477.0 0.002096 469.18787 480.20789
515.0 0.001942 468.98804 481.06955
499.0 0.002004 468.78903 482.51294
478.0 0.002092 468.59091 485.14789
507.0 0.001972 468.39349 490.25745
497.0 0.002012 468.19696 500.13773
501.0 0.001996 468.00116 517.93152
529.0 0.001890 467.80615 547.50958
546.0 0.001832 467.61194 590.34833
597.0 0.001675 467.41846 643.81390
656.0 0.001524 467.22574 698.99976
670.0 0.001493 467.03375 741.84985
659.0 0.001517 466.84253 758.94049
691.0 0.001447 466.65204 749.34863
640.0 0.001563 466.46225 725.13824
621.0 0.001610 466.27319 697.72760
612.0 0.001634 466.08484 669.89026
589.0 0.001698 465.89716 638.67902
573.0 0.001745 465.71024 603.32391
584.0 0.001712 465.52390 567.88989
517.0 0.001934 465.33829 537.07153
490.0 0.002041 465.15335 513.45258
488.0 0.002049 464.96899 496.50784
507.0 0.001972 464.78540 486.71091
520.0 0.001923 464.60233 481.21985
466.0 0.002146 464.41998 478.29184
504.0 0.001984 464.23819 476.74188
463.0 0.002160 464.05698 475.49103
458.0 0.002183 463.87650 475.11111
493.0 0.002028 463.69647 475.04166
521.0 0.001919 463.51712 475.25186
469.0 0.002132 463.33832 475.75711
492.0 0.002033 463.16003 476.61813
519.0 0.001927 462.98239 477.98315
481.0 0.002079 462.80524 480.21356
512.0 0.001953 462.62869 484.15692
487.0 0.002053 462.45261 491.62906
497.0 0.002012 462.27707 505.97052
543.0 0.001842 462.10205 532.21094
541.0 0.001848 461.92755 576.07324
716.0 0.001397 461.75354 641.16968
841.0 0.001189 461.57999 725.19537
1043.0 0.000959 461.40692 816.59491
1155.0 0.000866 461.23434 894.30597
1176.0 0.000850 461.06223 934.97388
1166.0 0.000858 460.89053 930.25525
1089.0 0.000918 460.71930 895.35815
1018.0 0.000982 460.54846 851.18188
960.0 0.001042 460.37811 806.78046
821.0 0.001218 460.20813 759.02167
732.0 0.001366 460.03857 703.87769
707.0 0.001414 459.86938 645.32062
636.0 0.001572 459.70056 591.28821
550.0 0.001818 459.53220 547.46979
509.0 0.001965 459.36414 515.85992
504.0 0.001984 459.19647 495.38452
478.0 0.002092 459.02911 483.21011
484.0 0.002066 458.86209 476.29221
504.0 0.001984 458.69547 472.28778
461.0 0.002169 458.52908 469.76111
460.0 0.002174 458.36310 467.97308
460.0 0.002174 458.19730 466.58188
467.0 0.002141 458.03186 465.43607
486.0 0.002058 457.86673 464.46249
446.0 0.002242 457.70181 463.61926
494.0 0.002024 457.53723 462.87912
432.0 0.002315 457.37283 462.22168
475.0 0.002105 457.20871 461.63174
487.0 0.002053 457.04483 461.09756
500.0 0.002000 456.88113 460.60959
456.0 0.002193 456.71774 460.16058
441.0 0.002268 456.55447 459.74423
487.0 0.002053 456.39145 459.35593
489.0 0.002045 456.22861 458.99170
456.0 0.002193 456.06595 458.64804
406.0 0.002463 455.90344 458.14175
442.0 0.002262 455.74112 457.83725
457.0 0.002188 455.57892 457.54617
443.0 0.002257 455.41687 457.26694
445.0 0.002247 455.25497 456.99817
459.0 0.002179 455.09320 456.64899
439.0 0.002278 454.93155 456.40039
422.0 0.002370 454.76996 456.15897
418.0 0.002392 454.60852 455.92410
445.0 0.002247 454.44714 455.69485
474.0 0.002110 454.28586 455.47089
442.0 0.002262 454.12460 455.25162
452.0 0.002212 453.96341 455.03650
435.0 0.002299 453.80234 454.82529
447.0 0.002237 453.64127 454.61755
444.0 0.002252 453.48022 454.41296
411.0 0.002433 453.31918 454.21121
445.0 0.002247 453.15817 454.01208
455.0 0.002198 452.99719 453.81543
434.0 0.002304 452.83618 453.63577
449.0 0.002227 452.67520 453.44382
441.0 0.002268 452.51416 453.25360
467.0 0.002141 452.35309 453.06512
433.0 0.002309 452.19199 452.87830
433.0 0.002309 452.03082 452.70020
451.0 0.002217 451.86966 452.51636
457.0 0.002188 451.70837 452.33371
421.0 0.002375 451.54706 452.15231
461.0 0.002169 451.38562 451.97189
447.0 0.002237 451.22412 451.79245
437.0 0.002288 451.06253 451.61395
473.0 0.002114 450.90079 451.43628
432.0 0.002315 450.73895 450.95193
452.0 0.002212 450.57700 450.78531
465.0 0.002151 450.41492 450.61887
458.0 0.002183 450.25269 450.45273
449.0 0.002227 450.09033 450.28674
430.0 0.002326 449.92776 449.96796
441.0 0.002268 449.76511 449.80704
429.0 0.002331 449.60220 449.64606
453.0 0.002208 449.43918 449.48511
408.0 0.002451 449.27594 449.32407
478.0 0.002092 449.11249 449.16293
423.0 0.002364 448.94888 449.00189
421.0 0.002375 448.78500 448.84073
399.0 0.002506 448.62097 448.67963
470.0 0.002128 448.45663 448.51846
456.0 0.002193 448.29211 448.35736
424.0 0.002358 448.12738 448.19635
453.0 0.002208 447.96231 448.03534
445.0 0.002247 447.79709 447.87521
452.0 0.002212 447.63153 447.71451
427.0 0.002342 447.46570 447.55402
440.0 0.002273 447.29962 447.39377
455.0 0.002198 447.13324 447.23386
475.0 0.002105 446.96661 447.07434
416.0 0.002404 446.79962 446.91559
463.0 0.002160 446.63235 446.75717
452.0 0.002212 446.46478 446.59943
417.0 0.002398 446.29688 446.44260
434.0 0.002304 446.12866 446.28690
436.0 0.002294 445.96008 446.13251
453.0 0.002208 445.79123 445.97986
434.0 0.002304 445.62198 445.82916
444.0 0.002252 445.45239 445.68097
438.0 0.002283 445.28247 445.53601
416.0 0.002404 445.11215 445.39496
444.0 0.002252 444.94147 445.25888
403.0 0.002481 444.77045 445.12930
434.0 0.002304 444.59900 445.00827
442.0 0.002262 444.42722 444.89932
465.0 0.002151 444.25500 444.80975
410.0 0.002439 444.08240 444.75604
410.0 0.002439 443.90942 444.77496
399.0 0.002506 443.73599 444.94281
451.0 0.002217 443.56223 445.39694
448.0 0.002232 443.38794 446.34247
446.0 0.002242 443.21326 448.01392
447.0 0.002237 443.03824 450.57245
446.0 0.002242 442.86267 453.96191
460.0 0.002174 442.68677 457.77896
454.0 0.002203 442.51035 461.23611
472.0 0.002119 442.33350 463.31821
429.0 0.002331 442.15622 463.42923
463.0 0.002160 441.97849 461.99930
454.0 0.002203 441.80032 459.96542
454.0 0.002203 441.62161 457.93167
487.0 0.002053 441.44250 455.92697
426.0 0.002347 441.26291 453.66721
423.0 0.002364 441.08286 451.08151
440.0 0.002273 440.90231 448.43802
463.0 0.002160 440.72125 446.04846
391.0 0.002558 440.53976 444.10782
463.0 0.002160 440.35776 442.67084
446.0 0.002242 440.17529 441.67831
442.0 0.002262 439.99231 441.01318
448.0 0.002232 439.80884 440.55487
454.0 0.002203 439.62485 440.21237
426.0 0.002347 439.44040 440.16129
470.0 0.002128 439.25540 439.91660
480.0 0.002083 439.06992 439.68884
440.0 0.002273 438.88391 439.47189
446.0 0.002242 438.69739 439.26282
461.0 0.002169 438.51041 439.06052
424.0 0.002358 438.32285 438.98196
425.0 0.002353 438.13483 438.79916
422.0 0.002370 437.94623 438.62973
435.0 0.002299 437.75711 438.48138
414.0 0.002415 437.56754 438.36377
459.0 0.002179 437.37735 438.28549
432.0 0.002315 437.18674 438.24792
460.0 0.002174 436.99551 438.23956
518.0 0.001931 436.80377 438.23230
510.0 0.001961 436.61157 438.18411
462.0 0.002165 436.41876 438.05688
524.0 0.001908 436.22549 437.85040
518.0 0.001931 436.03165 437.60107
546.0 0.001832 435.83728 437.34491
492.0 0.002033 435.64240 437.09467
432.0 0.002315 435.44693 436.84177
453.0 0.002208 435.25101 436.57599
446.0 0.002242 435.05450 436.30228
432.0 0.002315 434.85748 436.03497
461.0 0.002169 434.65991 435.78607
438.0 0.002283 434.46185 435.56143
405.0 0.002469 434.26324 435.36151
392.0 0.002551 434.06409 435.18283
424.0 0.002358 433.86438 435.02039
435.0 0.002299 433.66418 435.20828
438.0 0.002283 433.46347 435.07779
426.0 0.002347 433.26224 434.95578
412.0 0.002427 433.06046 434.84201
429.0 0.002331 432.85809 434.73688
470.0 0.002128 432.65533 434.64136
428.0 0.002336 432.45193 434.72699
450.0 0.002222 432.24814 434.66010
426.0 0.002347 432.04370 434.60736
441.0 0.002268 431.83878 434.57095
439.0 0.002278 431.63339 434.55362
417.0 0.002398 431.42746 434.55838
424.0 0.002358 431.22107 434.58896
430.0 0.002326 431.01410 434.65021
434.0 0.002304 430.80661 434.74777
457.0 0.002188 430.59869 434.88898
457.0 0.002188 430.39023 435.25906
430.0 0.002326 430.18134 435.50833
453.0 0.002208 429.97186 435.85303
426.0 0.002347 429.76193 436.29883
436.0 0.002294 429.55151 436.87643
447.0 0.002237 429.34061 437.72537
439.0 0.002278 429.12924 438.78400
448.0 0.002232 428.91736 440.36636
432.0 0.002315 428.70505 443.00809
444.0 0.002252 428.49225 447.75128
433.0 0.002309 428.27899 456.45538
463.0 0.002160 428.06525 471.86713
502.0 0.001992 427.85107 497.18466
532.0 0.001880 427.63638 534.78253
613.0 0.001631 427.42130 584.36084
635.0 0.001575 427.20578 641.30231
737.0 0.001357 426.98981 695.84723
805.0 0.001242 426.77338 734.47174
758.0 0.001319 426.55649 746.48181
806.0 0.001241 426.33926 733.77301
776.0 0.001289 426.12152 708.45844
698.0 0.001433 425.90344 681.29077
740.0 0.001351 425.68488 655.68964
653.0 0.001531 425.46591 628.69043
639.0 0.001565 425.24661 596.91156
559.0 0.001789 425.02686 561.78003
530.0 0.001887 424.80676 527.67975
533.0 0.001876 424.58621 498.34094
480.0 0.002083 424.36526 475.75287
444.0 0.002252 424.14404 460.12207
454.0 0.002203 423.92236 450.34415
452.0 0.002212 423.70038 444.78088
496.0 0.002016 423.47800 441.89923
461.0 0.002169 423.25525 440.60730
449.0 0.002227 423.03223 440.28290
442.0 0.002262 422.80878 440.67474
467.0 0.002141 422.58508 441.83911
422.0 0.002370 422.36099 444.19757
452.0 0.002212 422.13660 448.75879
449.0 0.002227 421.91193 457.46820
466.0 0.002146 421.68692 473.49704
476.0 0.002101 421.46161 501.03412
473.0 0.002114 421.23596 544.19452
596.0 0.001678 421.01007 604.82819
659.0 0.001517 420.78394 679.99658
791.0 0.001264 420.55750 760.26129
800.0 0.001250 420.33078 829.47668
840.0 0.001190 420.10382 869.11908
844.0 0.001185 419.87659 870.57098
840.0 0.001190 419.64914 843.77966
854.0 0.001171 419.42142 806.39386
772.0 0.001295 419.19348 769.84515
739.0 0.001353 418.96533 735.26086
634.0 0.001577 418.73694 697.46783
579.0 0.001727 418.50839 654.24957
580.0 0.001724 418.27960 610.64178
524.0 0.001908 418.05066 574.58539
512.0 0.001953 417.82147 552.74341
586.0 0.001706 417.59210 548.86987
541.0 0.001848 417.36267 562.73798
611.0 0.001637 417.13297 589.79126
684.0 0.001462 416.90320 621.53394
690.0 0.001449 416.67319 646.94421
643.0 0.001555 416.44308 656.42096
720.0 0.001389 416.21289 648.51532
672.0 0.001488 415.98251 630.28314
686.0 0.001458 415.75211 609.71930
592.0 0.001689 415.52151 590.45624
628.0 0.001592 415.29086 571.32397
541.0 0.001848 415.06012 549.42725
510.0 0.001961 414.82928 524.47638
460.0 0.002174 414.59842 499.07645
458.0 0.002183 414.36743 476.09647
490.0 0.002041 414.13641 457.39316
430.0 0.002326 413.90536 443.58292
433.0 0.002309 413.67429 434.22507
422.0 0.002370 413.44318 428.28845
438.0 0.002283 413.21204 424.62869
426.0 0.002347 412.98083 422.32129
437.0 0.002288 412.74973 420.75467
433.0 0.002309 412.51855 419.58102
406.0 0.002463 412.28741 418.39508
449.0 0.002227 412.05634 417.57986
447.0 0.002237 411.82523 416.85709
446.0 0.002242 411.59424 416.20462
407.0 0.002457 411.36322 415.60779
423.0 0.002364 411.13232 414.94061
386.0 0.002591 410.90143 414.43161
444.0 0.002252 410.67062 413.95480
421.0 0.002375 410.43997 413.50540
400.0 0.002500 410.20935 413.07925
374.0 0.002674 409.97891 412.67337
406.0 0.002463 409.74847 412.28497
403.0 0.002481 409.51819 411.91199
431.0 0.002320 409.28809 411.55264
428.0 0.002336 409.05807 411.20526
377.0 0.002653 408.82828 410.86871
411.0 0.002433 408.59854 410.54181
407.0 0.002457 408.36902 410.22375
433.0 0.002309 408.13968 409.91373
427.0 0.002342 407.91049 409.61108
376.0 0.002660 407.68155 409.31546
374.0 0.002674 407.45273 409.02625
416.0 0.002404 407.22418 408.74326
424.0 0.002358 406.99585 408.52579
429.0 0.002331 406.76773 408.25674
370.0 0.002703 406.53986 407.99380
424.0 0.002358 406.31226 407.73718
407.0 0.002457 406.08481 407.48712
405.0 0.002469 405.85770 407.24445
417.0 0.002398 405.63089 406.70132
400.0 0.002500 405.40433 406.48965
371.0 0.002695 405.17804 406.29373
382.0 0.002618 404.95206 406.12509
421.0 0.002375 404.72641 406.00778
381.0 0.002625 404.50104 405.98682
424.0 0.002358 404.27606 405.97012
409.0 0.002445 404.05130 406.39926
409.0 0.002445 403.82693 407.21451
358.0 0.002793 403.60297 408.49173
434.0 0.002304 403.37930 410.21078
448.0 0.002232 403.15607 412.19940
416.0 0.002404 402.93311 414.11334
451.0 0.002217 402.71057 415.47986
439.0 0.002278 402.48849 415.90677
395.0 0.002532 402.26672 415.38162
403.0 0.002481 402.04544 414.09851
411.0 0.002433 401.82452 412.82327
424.0 0.002358 401.60403 411.59198
405.0 0.002469 401.38403 410.37299
410.0 0.002439 401.16437 409.02670
395.0 0.002532 400.94528 407.42548
400.0 0.002500 400.72656 405.85364
402.0 0.002488 400.50833 404.37341
391.0 0.002558 400.29059 403.09879
429.0 0.002331 400.07333 402.08105
358.0 0.002793 399.85657 401.31406
407.0 0.002457 399.64029 400.75262
405.0 0.002469 399.42447 400.33771
391.0 0.002558 399.20923 400.01627
388.0 0.002577 398.99448 399.74976
373.0 0.002681 398.78027 399.51474
347.0 0.002882 398.56662 399.29883
416.0 0.002404 398.35345 399.09616
399.0 0.002506 398.14090 398.90427
414.0 0.002415 397.92886 398.72244
383.0 0.002611 397.71744 398.55081
421.0 0.002375 397.50653 398.38998
372.0 0.002688 397.29620 398.24115
393.0 0.002545 397.08652 398.10596
415.0 0.002410 396.87738 397.98666
406.0 0.002463 396.66888 397.88638
354.0 0.002825 396.46097 397.80942
379.0 0.002639 396.25363 397.76276
436.0 0.002294 396.04700 397.75873
402.0 0.002488 395.84091 397.82239
408.0 0.002451 395.63556 398.00754
445.0 0.002247 395.43076 398.42636
401.0 0.002494 395.22662 399.29416
395.0 0.002532 395.02319 400.97577
385.0 0.002597 394.82034 404.00079
407.0 0.002457 394.61829 408.98407
412.0 0.002427 394.41678 416.42459
444.0 0.002252 394.21600 426.38925
430.0 0.002326 394.01593 438.19144
438.0 0.002283 393.81653 450.24908
418.0 0.002392 393.61783 460.13165
430.0 0.002326 393.41980 465.31018
403.0 0.002481 393.22253 464.85971
456.0 0.002193 393.02597 460.35645
439.0 0.002278 392.83011 454.31674
437.0 0.002288 392.63501 448.41040
390.0 0.002564 392.44061 442.90414
421.0 0.002375 392.24695 437.03793
426.0 0.002347 392.05408 430.15015
393.0 0.002545 391.86188 422.51273
406.0 0.002463 391.67047 414.96353
374.0 0.002674 391.47983 408.25705
392.0 0.002551 391.28992 402.84537
402.0 0.002488 391.10083 398.84625
386.0 0.002591 390.91245 396.10434
409.0 0.002445 390.72491 394.32162
369.0 0.002710 390.53812 393.17981
368.0 0.002717 390.35208 392.42313
380.0 0.002632 390.16690 391.88065
378.0 0.002646 389.98248 391.45288
414.0 0.002415 389.79892 391.08148
356.0 0.002809 389.61606 390.75214
380.0 0.002632 389.43405 390.45212
401.0 0.002494 389.25290 390.17151
358.0 0.002793 389.07251 389.90625
378.0 0.002646 388.89297 389.65363
384.0 0.002604 388.71423 389.40781
391.0 0.002558 388.53632 389.17300
368.0 0.002717 388.35925 388.94757
387.0 0.002584 388.18304 388.72873
377.0 0.002653 388.00766 388.51566
389.0 0.002571 387.83307 388.30768
388.0 0.002577 387.65936 388.10425
372.0 0.002688 387.48651 387.90491
387.0 0.002584 387.31448 387.70932
408.0 0.002451 387.14334 387.51712
371.0 0.002695 386.97305 387.32809
399.0 0.002506 386.80356 387.14194
350.0 0.002857 386.63501 386.95871
371.0 0.002695 386.46729 386.99142
379.0 0.002639 386.30042 386.82025
379.0 0.002639 386.13446 386.65195
346.0 0.002890 385.96930 386.48651
420.0 0.002381 385.80511 386.32407
377.0 0.002653 385.64172 386.16455
386.0 0.002591 385.47928 386.11353
400.0 0.002500 385.31763 385.96402
395.0 0.002532 385.15689 385.81885
383.0 0.002611 384.99707 385.67886
407.0 0.002457 384.83810 385.54654
391.0 0.002558 384.68005 385.42664
380.0 0.002632 384.52286 385.32852
354.0 0.002825 384.36655 385.26859
402.0 0.002488 384.21118 385.27158
368.0 0.002717 384.05664 385.36893
428.0 0.002336 383.90305 385.59079
399.0 0.002506 383.75031 385.95212
421.0 0.002375 383.59851 386.43585
409.0 0.002445 383.44757 386.98135
402.0 0.002488 383.29752 387.48135
441.0 0.002268 383.14841 387.79840
393.0 0.002545 383.00015 387.82813
411.0 0.002433 382.85281 387.58405
389.0 0.002571 382.70636 387.18460
409.0 0.002445 382.56082 386.69263
395.0 0.002532 382.41620 386.28918
350.0 0.002857 382.27246 385.90408
436.0 0.002294 382.12958 385.49100
363.0 0.002755 381.98764 385.02652
402.0 0.002488 381.84659 384.53598
370.0 0.002703 381.70645 384.03552
416.0 0.002404 381.56720 383.62231
397.0 0.002519 381.42883 383.28738
403.0 0.002481 381.29141 383.03549
409.0 0.002445 381.15485 382.85812
369.0 0.002710 381.01923 382.74069
387.0 0.002584 380.88443 382.66824
366.0 0.002732 380.75055 382.62933
407.0 0.002457 380.61761 382.61737
384.0 0.002604 380.48550 382.62970
417.0 0.002398 380.35434 382.66653
374.0 0.002674 380.22403 382.73035
394.0 0.002538 380.09460 382.82480
392.0 0.002551 379.96613 382.95529
348.0 0.002874 379.83847 383.27435
397.0 0.002519 379.71176 383.50333
393.0 0.002545 379.58591 383.79663
406.0 0.002463 379.46094 384.17200
412.0 0.002427 379.33685 384.65955
391.0 0.002558 379.21362 385.31674
388.0 0.002577 379.09131 386.26169
394.0 0.002538 378.96985 387.81317
400.0 0.002500 378.84927 390.30466
401.0 0.002494 378.72955 394.65506
426.0 0.002347 378.61072 402.18707
363.0 0.002755 378.49277 414.63660
419.0 0.002387 378.37567 433.81448
409.0 0.002445 378.25940 460.88022
494.0 0.002024 378.14401 495.43076
551.0 0.001815 378.02951 534.75616
630.0 0.001587 377.91586 573.45935
657.0 0.001522 377.80304 603.99060
670.0 0.001493 377.69107 619.10315
694.0 0.001441 377.57999 616.85681
626.0 0.001597 377.46970 602.42090
624.0 0.001603 377.36032 583.38873
591.0 0.001692 377.25171 564.87408
509.0 0.001965 377.14395 547.95837
512.0 0.001953 377.03705 530.49530
536.0 0.001866 376.93097 510.02606
504.0 0.001984 376.82574 486.67346
463.0 0.002160 376.72131 462.68985
463.0 0.002160 376.61768 440.55856
466.0 0.002146 376.51489 422.00201
381.0 0.002625 376.41293 407.76221
400.0 0.002500 376.31177 397.70706
393.0 0.002545 376.21140 391.09476
391.0 0.002558 376.11185 386.96902
397.0 0.002519 376.01312 384.44647
372.0 0.002688 375.91516 382.86984
422.0 0.002370 375.81802 381.82062
398.0 0.002513 375.72162 381.06088
386.0 0.002591 375.62604 380.46805
413.0 0.002421 375.53125 379.98126
381.0 0.002625 375.43723 379.56638
366.0 0.002732 375.34399 379.21332
388.0 0.002577 375.25150 378.90793
401.0 0.002494 375.15976 378.64297
423.0 0.002364 375.06882 378.41315
400.0 0.002500 374.97864 378.21429
358.0 0.002793 374.88919 378.04175
358.0 0.002793 374.80051 377.89682
404.0 0.002475 374.71255 377.77625
357.0 0.002801 374.62537 377.67920
376.0 0.002660 374.53885 377.60532
366.0 0.002732 374.45313 377.55502
383.0 0.002611 374.36813 377.52902
366.0 0.002732 374.28381 377.52890
375.0 0.002667 374.20026 377.55679
390.0 0.002564 374.11740 377.61569
405.0 0.002469 374.03528 377.70956
391.0 0.002558 373.95383 377.84354
354.0 0.002825 373.87305 378.02451
368.0 0.002717 373.79303 378.26172
408.0 0.002451 373.71365 378.56827
384.0 0.002604 373.63501 378.96494
399.0 0.002506 373.55701 379.48904
395.0 0.002532 373.47968 380.21518
414.0 0.002415 373.40305 381.29605
392.0 0.002551 373.32706 383.03799
422.0 0.002370 373.25177 386.00540
401.0 0.002494 373.17709 391.13754
421.0 0.002375 373.10309 399.78961
397.0 0.002519 373.02972 413.59000
401.0 0.002494 372.95700 434.02545
417.0 0.002398 372.88492 461.71631
523.0 0.001912 372.81348 495.67758
545.0 0.001835 372.74265 532.72595
531.0 0.001883 372.67245 567.38684
571.0 0.001751 372.60287 592.67310
564.0 0.001773 372.53387 602.86969
582.0 0.001718 372.46552 597.80023
606.0 0.001650 372.39774 582.99786
550.0 0.001818 372.33060 565.10419
575.0 0.001739 372.26398 548.16675
518.0 0.001931 372.19800 532.49042
458.0 0.002183 372.13257 516.36292
481.0 0.002079 372.06772 497.41660
474.0 0.002110 372.00348 475.83105
454.0 0.002203 371.93976 453.63013
403.0 0.002481 371.87662 433.04065
423.0 0.002364 371.81400 415.51678
402.0 0.002488 371.75192 402.00513
410.0 0.002439 371.69043 392.33463
385.0 0.002597 371.62946 385.88611
373.0 0.002681 371.56903 381.81992
385.0 0.002597 371.50912 379.33606
366.0 0.002732 371.44971 377.82776
406.0 0.002463 371.39084 376.90405
415.0 0.002410 371.33246 376.34695
367.0 0.002725 371.27463 376.10458
368.0 0.002717 371.21725 376.00815
375.0 0.002667 371.16040 376.06528
345.0 0.002899 371.10403 376.21426
386.0 0.002591 371.04813 376.37067
414.0 0.002415 370.99271 376.43353
387.0 0.002584 370.93777 376.34961
403.0 0.002481 370.88330 376.05814
382.0 0.002618 370.82928 375.65570
386.0 0.002591 370.77573 375.22787
379.0 0.002639 370.72263 374.82764
364.0 0.002747 370.66998 374.46152
359.0 0.002786 370.61774 374.10040
372.0 0.002688 370.56595 373.71271
381.0 0.002625 370.51459 373.29657
417.0 0.002398 370.46368 372.87680
376.0 0.002660 370.41315 372.48242
395.0 0.002532 370.36304 372.13480
359.0 0.002786 370.31339 371.84445
372.0 0.002688 370.26407 371.61130
409.0 0.002445 370.21521 371.42746
384.0 0.002604 370.16669 371.28149
389.0 0.002571 370.11856 371.16196
357.0 0.002801 370.07083 371.06012
393.0 0.002545 370.02347 370.96957
361.0 0.002770 369.97650 370.88666
348.0 0.002874 369.92987 370.80908
370.0 0.002703 369.88361 370.73596
350.0 0.002857 369.83771 370.66644
355.0 0.002817 369.79214 370.60016
365.0 0.002740 369.74695 370.53687
348.0 0.002874 369.70206 370.47635
370.0 0.002703 369.65753 370.41852
402.0 0.002488 369.61331 370.36331
351.0 0.002849 369.56943 370.31036
343.0 0.002915 369.52585 370.25998
354.0 0.002825 369.48260 370.21194
376.0 0.002660 369.43967 370.16623
397.0 0.002519 369.39700 370.12286
370.0 0.002703 369.35468 370.08194
373.0 0.002681 369.31259 370.04349
391.0 0.002558 369.27084 370.00754
357.0 0.002801 369.22934 369.97427
372.0 0.002688 369.18814 369.94382
362.0 0.002762 369.14719 369.91632
399.0 0.002506 369.10654 369.89197
371.0 0.002695 369.06610 369.87119
398.0 0.002513 369.02597 369.85410
383.0 0.002611 368.98608 369.84122
378.0 0.002646 368.94641 369.83295
365.0 0.002740 368.90701 369.82986
383.0 0.002611 368.86783 369.83261
406.0 0.002463 368.82889 369.84210
386.0 0.002591 368.79019 369.85925
318.0 0.003145 368.75168 369.88528
358.0 0.002793 368.71341 369.77527
395.0 0.002532 368.67535 369.82782
388.0 0.002577 368.63751 369.89493
431.0 0.002320 368.59985 369.97968
363.0 0.002755 368.56241 370.08646
383.0 0.002611 368.52518 370.22208
393.0 0.002545 368.48810 370.39838
356.0 0.002809 368.45123 370.56650
377.0 0.002653 368.41452 370.91800
388.0 0.002577 368.37799 371.46964
416.0 0.002404 368.34167 372.38712
360.0 0.002778 368.30548 373.94757
358.0 0.002793 368.26944 376.55847
372.0 0.002688 368.23358 380.73236
365.0 0.002740 368.19788 386.98688
365.0 0.002740 368.16232 395.64685
381.0 0.002625 368.12689 406.61923
397.0 0.002519 368.09161 419.17816
435.0 0.002299 368.05649 431.87616
405.0 0.002469 368.02145 442.63397
459.0 0.002179 367.98660 449.21381
440.0 0.002273 367.95181 450.42236
436.0 0.002294 367.91718 447.07129
453.0 0.002208 367.88266 441.29639
411.0 0.002433 367.84824 435.06693
386.0 0.002591 367.81390 429.38257
444.0 0.002252 367.77969 424.14389
397.0 0.002519 367.74557 418.55801
394.0 0.002538 367.71158 411.97406
422.0 0.002370 367.67761 404.51385
357.0 0.002801 367.64380 396.85522
409.0 0.002445 367.61002 389.71310
372.0 0.002688 367.57632 383.60736
370.0 0.002703 367.54269 378.79266
349.0 0.002865 367.50916 375.27182
341.0 0.002933 367.47568 372.86395
367.0 0.002725 367.44226 371.29968
346.0 0.002890 367.40887 370.31165
372.0 0.002688 367.37558 369.68381
354.0 0.002825 367.34232 369.27060
361.0 0.002770 367.30911 368.97217
372.0 0.002688 367.27594 368.74130
350.0 0.002857 367.24280 368.55130
389.0 0.002571 367.20972 368.38837
388.0 0.002577 367.17664 368.24509
372.0 0.002688 367.14362 368.11716
383.0 0.002611 367.11060 368.00201
384.0 0.002604 367.07758 367.89841
369.0 0.002710 367.04462 367.80185
367.0 0.002725 367.01166 367.71246
401.0 0.002494 366.97870 367.62933
355.0 0.002817 366.94574 367.55157
339.0 0.002950 366.91281 367.47842
396.0 0.002525 366.87985 367.40927
363.0 0.002755 366.84689 367.34366
390.0 0.002564 366.81396 367.28104
379.0 0.002639 366.78098 367.22119
388.0 0.002577 366.74802 367.16364
345.0 0.002899 366.71500 367.10818
379.0 0.002639 366.68198 367.05463
370.0 0.002703 366.64896 367.00275
396.0 0.002525 366.61588 366.95230
330.0 0.003030 366.58276 366.90329
337.0 0.002967 366.54965 366.85541
357.0 0.002801 366.51648 366.80869
375.0 0.002667 366.48328 366.76288
380.0 0.002632 366.45001 366.71790
371.0 0.002695 366.41672 366.67389
350.0 0.002857 366.38339 366.63049
386.0 0.002591 366.34998 366.58780
401.0 0.002494 366.31656 366.54575
364.0 0.002747 366.28302 366.50418
393.0 0.002545 366.24948 366.46323
349.0 0.002865 366.21585 366.42270
368.0 0.002717 366.18213 366.38257
377.0 0.002653 366.14838 366.34296
352.0 0.002841 366.11453 366.30365
354.0 0.002825 366.08063 366.26474
362.0 0.002762 366.04663 366.27420
369.0 0.002710 366.01257 366.23721
330.0 0.003030 365.97842 366.20059
382.0 0.002618 365.94421 366.16431
357.0 0.002801 365.90988 366.12851
357.0 0.002801 365.87546 366.09290
362.0 0.002762 365.84097 366.05771
379.0 0.002639 365.80637 366.04669
340.0 0.002941 365.77167 366.01288
362.0 0.002762 365.73688 365.97946
342.0 0.002924 365.70197 365.94656
322.0 0.003106 365.66696 365.91409
394.0 0.002538 365.63187 365.93112
399.0 0.002506 365.59665 365.90109
394.0 0.002538 365.56131 365.87180
370.0 0.002703 365.52585 365.84323
366.0 0.002732 365.49030 365.81558
343.0 0.002915 365.45459 365.78894
373.0 0.002681 365.41879 365.70804
366.0 0.002732 365.38287 365.68546
362.0 0.002762 365.34680 365.68936
368.0 0.002717 365.31061 365.67117
362.0 0.002762 365.27429 365.65579
339.0 0.002950 365.23785 365.64465
334.0 0.002994 365.20126 365.64053
340.0 0.002941 365.16455 365.62119
346.0 0.002890 365.12769 365.65170
339.0 0.002950 365.09070 365.71982
380.0 0.002632 365.05353 365.84930
349.0 0.002865 365.01627 366.07169
402.0 0.002488 364.97882 366.42108
340.0 0.002941 364.94122 366.92566
371.0 0.002695 364.90350 367.59296
376.0 0.002660 364.86563 368.39722
349.0 0.002865 364.82758 369.26910
385.0 0.002597 364.78937 370.09512
373.0 0.002681 364.75101 370.73209
401.0 0.002494 364.71249 371.05194
365.0 0.002740 364.67380 371.01773
340.0 0.002941 364.63495 370.71289
362.0 0.002762 364.59595 370.27939
375.0 0.002667 364.55676 369.83456
352.0 0.002841 364.51746 369.43210
361.0 0.002770 364.47791 369.05914
379.0 0.002639 364.43823 368.66379
358.0 0.002793 364.39838 368.20514
393.0 0.002545 364.35831 367.68884
344.0 0.002907 364.31812 367.15692
372.0 0.002688 364.27771 366.65671
331.0 0.003021 364.23712 366.22485
348.0 0.002874 364.19638 365.88174
376.0 0.002660 364.15543 365.63159
391.0 0.002558 364.11432 365.46597
379.0 0.002639 364.07300 365.42374
414.0 0.002415 364.03149 365.38132
383.0 0.002611 363.98981 365.37750
348.0 0.002874 363.94794 365.40274
368.0 0.002717 363.90585 365.45169
386.0 0.002591 363.86359 365.52286
353.0 0.002833 363.82114 365.61823
347.0 0.002882 363.77850 365.76828
370.0 0.002703 363.73563 365.93738
327.0 0.003058 363.69260 366.16962
363.0 0.002755 363.64932 366.51245
394.0 0.002538 363.60590 367.04971
363.0 0.002755 363.56223 367.92477
354.0 0.002825 363.51837 369.36142
386.0 0.002591 363.47430 371.66571
349.0 0.002865 363.43005 375.19897
329.0 0.003040 363.38559 380.29398
371.0 0.002695 363.34091 387.12686
424.0 0.002358 363.29599 395.57715
408.0 0.002451 363.25092 405.10107
392.0 0.002551 363.20560 414.70151
377.0 0.002653 363.16006 422.97662
427.0 0.002342 363.11435 428.43628
415.0 0.002410 363.06839 430.23325
349.0 0.002865 363.02225 428.84479
399.0 0.002506 362.97586 425.84650
396.0 0.002525 362.92926 422.88324
377.0 0.002653 362.88245 421.22638
405.0 0.002469 362.83542 421.42947
379.0 0.002639 362.78818 423.37643
376.0 0.002660 362.74069 426.55811
428.0 0.002336 362.69299 430.46875
450.0 0.002222 362.64511 434.67960
443.0 0.002257 362.59695 438.48291
419.0 0.002387 362.54861 440.82626
406.0 0.002463 362.50003 440.58777
454.0 0.002203 362.45123 437.36667
484.0 0.002066 362.40219 431.93399
452.0 0.002212 362.35294 425.67529
427.0 0.002342 362.30347 419.75357
426.0 0.002347 362.25375 414.68716
408.0 0.002451 362.20383 410.31308
395.0 0.002532 362.15366 405.99448
412.0 0.002427 362.10327 401.10941
400.0 0.002500 362.05267 395.53214
405.0 0.002469 362.00180 389.61374
396.0 0.002525 361.95074 383.86072
362.0 0.002762 361.89944 378.70245
360.0 0.002778 361.84790 374.40811
399.0 0.002506 361.79614 371.07840
347.0 0.002882 361.74414 368.65924
366.0 0.002732 361.69189 366.99997
335.0 0.002985 361.63943 365.91153
369.0 0.002710 361.58673 365.21555
363.0 0.002755 361.53381 364.77264
342.0 0.002924 361.48065 364.48615
345.0 0.002899 361.42725 364.29721
391.0 0.002558 361.37363 364.17319
352.0 0.002841 361.31976 364.09802
375.0 0.002667 361.26569 364.06598
384.0 0.002604 361.21136 364.07819
408.0 0.002451 361.15680 364.15332
363.0 0.002755 361.10202 364.31601
341.0 0.002933 361.04697 364.62289
420.0 0.002381 360.99173 365.17578
426.0 0.002347 360.93622 366.14404
378.0 0.002646 360.88052 367.78043
369.0 0.002710 360.82455 370.41565
365.0 0.002740 360.76834 374.42371
353.0 0.002833 360.71194 380.11554
415.0 0.002410 360.65527 387.61832
418.0 0.002392 360.59836 396.72443
440.0 0.002273 360.54126 406.78992
447.0 0.002237 360.48389 416.71234
440.0 0.002273 360.42630 424.99921
493.0 0.002028 360.36847 430.13190
489.0 0.002045 360.31042 431.29123
511.0 0.001957 360.25214 428.95700
453.0 0.002208 360.19360 424.55099
499.0 0.002004 360.13486 419.54425
455.0 0.002198 360.07587 414.85825
457.0 0.002188 360.01666 410.70142
425.0 0.002353 359.95721 406.67163
417.0 0.002398 359.89752 402.15057
439.0 0.002278 359.83765 396.84674
398.0 0.002513 359.77753 390.98544
374.0 0.002674 359.71713 385.07349
349.0 0.002865 359.65656 379.61865
361.0 0.002770 359.59573 375.00702
352.0 0.002841 359.53470 371.48434
402.0 0.002488 359.47345 369.16525
385.0 0.002597 359.41193 368.08676
370.0 0.002703 359.35022 368.25940
359.0 0.002786 359.28830 369.69910
359.0 0.002786 359.22614 372.40979
390.0 0.002564 359.16373 376.32785
395.0 0.002532 359.10114 381.24005
409.0 0.002445 359.03830 386.72229
435.0 0.002299 358.97522 392.07254
431.0 0.002320 358.91199 396.53577
426.0 0.002347 358.84848 399.21637
472.0 0.002119 358.78476 399.67267
486.0 0.002058 358.72083 398.19098
468.0 0.002137 358.65671 395.57224
469.0 0.002132 358.59235 392.63516
380.0 0.002632 358.52777 389.86707
423.0 0.002364 358.46298 387.43420
398.0 0.002513 358.39801 385.08957
387.0 0.002584 358.33276 382.47958
388.0 0.002577 358.26736 379.42203
450.0 0.002222 358.20175 376.02527
409.0 0.002445 358.13589 372.51431
410.0 0.002439 358.06985 369.26431
390.0 0.002564 358.00360 366.42746
335.0 0.002985 357.93716 364.11569
367.0 0.002725 357.87051 362.34479
365.0 0.002740 357.80362 361.06027
364.0 0.002747 357.73657 360.16602
344.0 0.002907 357.66931 359.53101
380.0 0.002632 357.60187 359.11160
329.0 0.003040 357.53421 358.81140
352.0 0.002841 357.46634 358.58276
355.0 0.002817 357.39832 358.39642
364.0 0.002747 357.33008 358.23505
375.0 0.002667 357.26166 358.08990
374.0 0.002674 357.19302 357.95572
372.0 0.002688 357.12421 357.82990
365.0 0.002740 357.05524 357.71072
382.0 0.002618 356.98602 357.59695
339.0 0.002950 356.91669 357.48779
336.0 0.002976 356.84711 357.38443
376.0 0.002660 356.77737 357.28250
342.0 0.002924 356.70749 357.18344
348.0 0.002874 356.63739 357.08676
352.0 0.002841 356.56714 356.99237
381.0 0.002625 356.49667 356.89981
366.0 0.002732 356.42606 356.80893
354.0 0.002825 356.35529 356.72040
328.0 0.003049 356.28433 356.63220
342.0 0.002924 356.21320 356.54614
345.0 0.002899 356.14194 356.46011
399.0 0.002506 356.07047 356.37503
347.0 0.002882 355.99884 356.29074
327.0 0.003058 355.92706 356.20709
361.0 0.002770 355.85513 356.12418
370.0 0.002703 355.78305 356.04175
374.0 0.002674 355.71078 355.95996
332.0 0.003012 355.63840 355.87891
337.0 0.002967 355.56583 355.79788
347.0 0.002882 355.49313 355.71732
317.0 0.003155 355.42026 355.63699
353.0 0.002833 355.34726 355.50711
368.0 0.002717 355.27414 355.42529
361.0 0.002770 355.20084 355.34714
354.0 0.002825 355.12741 355.26926
395.0 0.002532 355.05386 355.19138
354.0 0.002825 354.98013 355.11368
358.0 0.002793 354.90631 355.03622
342.0 0.002924 354.83234 354.93372
339.0 0.002950 354.75827 354.85538
320.0 0.003125 354.68402 354.77881
348.0 0.002874 354.60968 354.70239
362.0 0.002762 354.53519 354.62601
331.0 0.003021 354.46060 354.54968
354.0 0.002825 354.38589 354.47351
334.0 0.002994 354.31104 354.39728
335.0 0.002985 354.23608 354.32120
356.0 0.002809 354.16104 354.24527
372.0 0.002688 354.08585 354.16934
330.0 0.003030 354.01059 354.09357
378.0 0.002646 353.93518 354.01785
360.0 0.002778 353.85968 353.94232
387.0 0.002584 353.78409 353.86700
332.0 0.003012 353.70837 353.79187
349.0 0.002865 353.63260 353.71707
332.0 0.003012 353.55670 353.64270
365.0 0.002740 353.48071 353.53824
365.0 0.002740 353.40463 353.46655
346.0 0.002890 353.32846 353.39676
352.0 0.002841 353.25223 353.33029
317.0 0.003155 353.17587 353.26895
365.0 0.002740 353.09943 353.21533
330.0 0.003030 353.02295 353.17249
346.0 0.002890 352.94635 353.12747
340.0 0.002941 352.86972 353.11337
393.0 0.002545 352.79297 353.11365
342.0 0.002924 352.71616 353.12463
313.0 0.003195 352.63928 353.13919
334.0 0.002994 352.56235 353.14688
346.0 0.002890 352.48538 353.13562
336.0 0.002976 352.40829 353.09540
365.0 0.002740 352.33118 353.02490
360.0 0.002778 352.25397 352.93301
374.0 0.002674 352.17673 352.83466
367.0 0.002725 352.09946 352.74484
327.0 0.003058 352.02209 352.67603
326.0 0.003067 351.94470 352.63770
325.0 0.003077 351.86728 352.63660
322.0 0.003106 351.78979 352.67841
386.0 0.002591 351.71225 352.76801
342.0 0.002924 351.63470 352.90762
344.0 0.002907 351.55707 353.09113
310.0 0.003226 351.47943 353.31433
339.0 0.002950 351.40176 353.51740
347.0 0.002882 351.32407 353.67282
362.0 0.002762 351.24634 353.74146
348.0 0.002874 351.16855 353.70712
340.0 0.002941 351.09076 353.59119
343.0 0.002915 351.01297 353.43976
381.0 0.002625 350.93515 353.29831
354.0 0.002825 350.85727 353.20093
357.0 0.002801 350.77939 353.13565
381.0 0.002625 350.70151 353.08755
346.0 0.002890 350.62363 353.01996
354.0 0.002825 350.54572 352.89755
321.0 0.003115 350.46780 352.72867
378.0 0.002646 350.38986 352.46634
380.0 0.002632 350.31195 352.16589
331.0 0.003021 350.23401 351.85263
366.0 0.002732 350.15610 351.55890
339.0 0.002950 350.07816 351.30020
383.0 0.002611 350.00024 351.07892
368.0 0.002717 349.92233 350.88571
333.0 0.003003 349.84439 350.71936
384.0 0.002604 349.76651 350.54254
336.0 0.002976 349.68860 350.36652
346.0 0.002890 349.61072 350.19037
397.0 0.002519 349.53284 350.02072
340.0 0.002941 349.45499 349.86215
347.0 0.002882 349.37717 349.71747
366.0 0.002732 349.29935 349.58780
339.0 0.002950 349.22153 349.47229
318.0 0.003145 349.14377 349.36896
364.0 0.002747 349.06601 349.27496
376.0 0.002660 348.98828 349.18790
339.0 0.002950 348.91061 349.10559
307.0 0.003257 348.83292 349.02640
323.0 0.003096 348.75531 348.94940
382.0 0.002618 348.67767 348.87381
323.0 0.003096 348.60013 348.79950
344.0 0.002907 348.52255 348.72601
334.0 0.002994 348.44504 348.65347
346.0 0.002890 348.36758 348.58182
343.0 0.002915 348.29016 348.51102
391.0 0.002558 348.21277 348.44113
357.0 0.002801 348.13541 348.37201
353.0 0.002833 348.05807 348.30399
353.0 0.002833 347.98083 348.23700
344.0 0.002907 347.90359 348.17111
354.0 0.002825 347.82645 348.10641
335.0 0.002985 347.74930 348.04315
340.0 0.002941 347.67218 347.98126
331.0 0.003021 347.59518 347.92184
369.0 0.002710 347.51816 347.86359
329.0 0.003040 347.44122 347.80725
280.0 0.00357 347.36435 347.75330
341.0 0.002933 347.28751 347.70209
352.0 0.002841 347.21069 347.65384
358.0 0.002793 347.13397 347.60938
399.0 0.002506 347.05728 347.56906
347.0 0.002882 346.98065 347.53415
355.0 0.002817 346.90408 347.50629
330.0 0.003030 346.82755 347.48718
327.0 0.003058 346.75107 347.48206
347.0 0.002882 346.67465 347.49899
329.0 0.003040 346.59830 347.55188
326.0 0.003067 346.52200 347.66605
328.0 0.003049 346.44577 347.87778
328.0 0.003049 346.36954 348.23990
344.0 0.002907 346.29343 348.81866
348.0 0.002874 346.21732 349.68597
343.0 0.002915 346.14133 350.90396
368.0 0.002717 346.06534 352.50137
359.0 0.002786 345.98944 354.45166
371.0 0.002695 345.91357 356.65347
379.0 0.002639 345.83777 358.92535
340.0 0.002941 345.76202 361.01318
373.0 0.002681 345.68631 362.63074
406.0 0.002463 345.61069 363.56143
406.0 0.002463 345.53510 363.79715
374.0 0.002674 345.45959 363.59183
386.0 0.002591 345.38409 363.34882
369.0 0.002710 345.30869 363.47614
386.0 0.002591 345.23331 364.27655
335.0 0.002985 345.15796 365.90112
384.0 0.002604 345.08270 368.32230
385.0 0.002597 345.00748 371.34637
397.0 0.002519 344.93231 374.67166
355.0 0.002817 344.85718 377.95135
375.0 0.002667 344.78210 380.70474
391.0 0.002558 344.70706 382.48105
372.0 0.002688 344.63205 382.86914
395.0 0.002532 344.55713 381.85468
406.0 0.002463 344.48221 379.77927
376.0 0.002660 344.40735 377.16403
377.0 0.002653 344.33252 374.48355
354.0 0.002825 344.25769 372.04233
408.0 0.002451 344.18295 369.88251
366.0 0.002732 344.10825 367.86252
372.0 0.002688 344.03357 365.75378
379.0 0.002639 343.95889 363.40665
347.0 0.002882 343.88425 360.76797
352.0 0.002841 343.80966 357.99768
324.0 0.003086 343.73508 355.26868
363.0 0.002755 343.66055 352.74664
339.0 0.002950 343.58600 350.55099
351.0 0.002849 343.51151 348.74380
377.0 0.002653 343.43701 347.33014
326.0 0.003067 343.36252 346.28680
352.0 0.002841 343.28809 345.51907
314.0 0.003185 343.21362 344.97195
343.0 0.002915 343.13916 344.58096
305.0 0.003279 343.06473 344.29449
322.0 0.003106 342.99030 344.07452
337.0 0.002967 342.91586 343.89636
328.0 0.003049 342.84143 343.74393
326.0 0.003067 342.76697 343.60818
335.0 0.002985 342.69254 343.48383
355.0 0.002817 342.61807 343.36768
308.0 0.003247 342.54361 343.25800
347.0 0.002882 342.46912 343.15366
355.0 0.002817 342.39459 343.05374
321.0 0.003115 342.32010 342.95786
319.0 0.003135 342.24554 342.86554
341.0 0.002933 342.17096 342.77661
352.0 0.002841 342.09634 342.69067
348.0 0.002874 342.02167 342.60800
311.0 0.003215 341.94702 342.52887
343.0 0.002915 341.87228 342.45422
318.0 0.003145 341.79752 342.38535
341.0 0.002933 341.72269 342.32455
342.0 0.002924 341.64783 342.27570
336.0 0.002976 341.57291 342.24307
317.0 0.003155 341.49789 342.23181
402.0 0.002488 341.42288 342.24661
304.0 0.003289 341.34775 342.29028
347.0 0.002882 341.27255 342.36224
336.0 0.002976 341.19730 342.45657
350.0 0.002857 341.12198 342.56259
353.0 0.002833 341.04654 342.66147
377.0 0.002653 340.97104 342.73282
327.0 0.003058 340.89542 342.75604
372.0 0.002688 340.81973 342.72003
371.0 0.002695 340.74393 342.63013
349.0 0.002865 340.66803 342.50485
327.0 0.003058 340.59204 342.36606
335.0 0.002985 340.51590 342.23062
338.0 0.002959 340.43967 342.10712
311.0 0.003215 340.36331 341.99408
379.0 0.002639 340.28683 341.88464
333.0 0.003003 340.21021 341.77005
379.0 0.002639 340.13345 341.64682
344.0 0.002907 340.05658 341.51785
366.0 0.002732 339.97952 341.37564
335.0 0.002985 339.90237 341.25790
359.0 0.002786 339.82501 341.15607
332.0 0.003012 339.74750 341.07501
343.0 0.002915 339.66986 341.01764
311.0 0.003215 339.59201 340.98492
330.0 0.003030 339.51404 340.97766
360.0 0.002778 339.43582 340.99698
339.0 0.002950 339.35745 341.07477
358.0 0.002793 339.27890 341.15652
319.0 0.003135 339.20013 341.30173
333.0 0.003003 339.12122 341.53448
336.0 0.002976 339.04205 341.90799
372.0 0.002688 338.96268 342.47827
367.0 0.002725 338.88312 343.41797
336.0 0.002976 338.80328 344.85626
349.0 0.002865 338.72330 346.98450
322.0 0.003106 338.64301 349.96759
328.0 0.003049 338.56253 353.95633
335.0 0.002985 338.48181 358.99652
333.0 0.003003 338.40082 365.00076
362.0 0.002762 338.31961 371.64606
343.0 0.002915 338.23810 378.48718
364.0 0.002747 338.15634 384.86575
357.0 0.002801 338.07431 390.11246
371.0 0.002695 337.99200 393.77670
393.0 0.002545 337.90945 395.80347
376.0 0.002660 337.82657 396.58987
358.0 0.002793 337.74341 396.86920
364.0 0.002747 337.65997 397.46368
405.0 0.002469 337.57620 398.95346
356.0 0.002809 337.49216 401.49741
400.0 0.002500 337.40781 404.76706
426.0 0.002347 337.32309 408.04745
434.0 0.002304 337.23810 410.42398
430.0 0.002326 337.15274 411.00546
442.0 0.002262 337.06705 409.21671
454.0 0.002203 336.98102 405.10229
437.0 0.002288 336.89465 399.34906
439.0 0.002278 336.80795 392.93912
424.0 0.002358 336.72086 386.74231
407.0 0.002457 336.63342 381.30490
409.0 0.002445 336.54559 376.78043
403.0 0.002481 336.45743 372.97742
366.0 0.002732 336.36884 369.49005
399.0 0.002506 336.27991 365.92825
394.0 0.002538 336.19055 362.12677
388.0 0.002577 336.10077 358.16077
391.0 0.002558 336.01065 354.23050
369.0 0.002710 335.92007 350.54767
337.0 0.002967 335.82913 347.27890
344.0 0.002907 335.73773 344.52802
328.0 0.003049 335.64594 342.32507
333.0 0.003003 335.55365 340.63904
342.0 0.002924 335.46100 339.39578
325.0 0.003077 335.36786 338.50055
366.0 0.002732 335.27429 337.86084
381.0 0.002625 335.18027 337.39703
320.0 0.003125 335.08578 337.04907
341.0 0.002933 334.99088 336.77539
357.0 0.002801 334.89545 336.54941
380.0 0.002632 334.79959 336.35611
350.0 0.002857 334.70322 336.18747
342.0 0.002924 334.60635 336.04083
326.0 0.003067 334.50903 335.91660
331.0 0.003021 334.41119 335.81702
340.0 0.002941 334.31290 335.74551
320.0 0.003125 334.21405 335.70447
335.0 0.002985 334.11469 335.69479
333.0 0.003003 334.01486 335.76721
335.0 0.002985 333.91449 335.80939
345.0 0.002899 333.81360 335.86172
337.0 0.002967 333.71216 335.90799
343.0 0.002915 333.61020 335.92947
325.0 0.003077 333.50772 335.90973
326.0 0.003067 333.40469 335.84201
362.0 0.002762 333.30115 335.73438
373.0 0.002681 333.19699 335.60519
323.0 0.003096 333.09229 335.50119
333.0 0.003003 332.98706 335.38757
352.0 0.002841 332.88126 335.30130
342.0 0.002924 332.77490 335.25055
346.0 0.002890 332.66794 335.24503
328.0 0.003049 332.56039 335.30444
339.0 0.002950 332.45233 335.47003
327.0 0.003058 332.34363 335.81320
318.0 0.003145 332.23438 336.43713
336.0 0.002976 332.12451 337.47473
319.0 0.003135 332.01404 339.07315
359.0 0.002786 331.90298 341.37100
345.0 0.002899 331.79132 344.46289
347.0 0.002882 331.67908 348.35349
371.0 0.002695 331.56619 352.92361
369.0 0.002710 331.45270 357.90085
391.0 0.002558 331.33862 362.85941
420.0 0.002381 331.22388 367.24951
439.0 0.002278 331.10858 370.47711
438.0 0.002283 330.99258 372.10376
409.0 0.002445 330.87598 372.08020
404.0 0.002475 330.75879 370.80988
442.0 0.002262 330.64093 368.93958
369.0 0.002710 330.52246 367.08633
369.0 0.002710 330.40332 365.66705
383.0 0.002611 330.28360 364.83456
379.0 0.002639 330.16318 364.47244
373.0 0.002681 330.04211 364.26102
407.0 0.002457 329.92044 363.82645
425.0 0.002353 329.79810 362.88229
422.0 0.002370 329.67511 361.30246
369.0 0.002710 329.55145 359.07727
359.0 0.002786 329.42722 356.31085
369.0 0.002710 329.30225 353.23538
378.0 0.002646 329.17667 350.15067
385.0 0.002597 329.05038 347.30640
357.0 0.002801 328.92346 344.90497
324.0 0.003086 328.79590 342.96997
373.0 0.002681 328.66766 341.41476
366.0 0.002732 328.53879 340.13382
323.0 0.003096 328.40921 338.94711
332.0 0.003012 328.27902 337.73837
387.0 0.002584 328.14813 336.47214
338.0 0.002959 328.01663 335.17947
340.0 0.002941 327.88443 333.90796
334.0 0.002994 327.75153 332.73300
322.0 0.003106 327.61804 331.68042
335.0 0.002985 327.48383 330.75983
341.0 0.002933 327.34903 330.03378
345.0 0.002899 327.21350 329.45737
355.0 0.002817 327.07730 329.00888
312.0 0.003205 326.94052 328.66183
338.0 0.002959 326.80301 328.39029
306.0 0.003268 326.66492 328.17288
325.0 0.003077 326.52609 327.99301
316.0 0.003165 326.38663 327.82333
324.0 0.003086 326.24655 327.68997
339.0 0.002950 326.10577 327.57227
348.0 0.002874 325.96439 327.46860
338.0 0.002959 325.82233 327.37860
290.0 0.003448 325.67960 327.30331
338.0 0.002959 325.53629 327.24469
284.0 0.00352 325.39227 327.20654
320.0 0.003125 325.24768 327.19574
323.0 0.003096 325.10242 327.22421
328.0 0.003049 324.95648 327.31342
321.0 0.003115 324.81000 327.50064
336.0 0.002976 324.66281 327.84778
313.0 0.003195 324.51505 328.45193
324.0 0.003086 324.36664 329.45541
320.0 0.003125 324.21759 331.04916
330.0 0.003030 324.06799 333.46487
337.0 0.002967 323.91772 336.95084
318.0 0.003145 323.76691 341.71954
301.0 0.003322 323.61542 347.89957
314.0 0.003185 323.46335 355.41199
330.0 0.003030 323.31073 363.98047
372.0 0.002688 323.15747 373.06146
373.0 0.002681 323.00366 381.84659
383.0 0.002611 322.84924 389.33679
340.0 0.002941 322.69424 394.50287
370.0 0.002703 322.53870 396.64508
372.0 0.002688 322.38257 395.76233
412.0 0.002427 322.22592 392.57748
381.0 0.002625 322.06863 388.12970
338.0 0.002959 321.91083 383.38141
367.0 0.002725 321.75253 378.95996
348.0 0.002874 321.59363 375.07938
366.0 0.002732 321.43427 371.57397
332.0 0.003012 321.27429 368.01813
347.0 0.002882 321.11389 363.98001
322.0 0.003106 320.95291 359.27493
343.0 0.002915 320.79147 354.03107
347.0 0.002882 320.62946 348.56732
311.0 0.003215 320.46698 343.22882
320.0 0.003125 320.30405 338.31161
310.0 0.003226 320.14059 334.02100
317.0 0.003155 319.97672 330.45956
332.0 0.003012 319.81232 327.63812
317.0 0.003155 319.64752 325.49039
305.0 0.003279 319.48224 323.90634
308.0 0.003247 319.31653 322.76071
280.0 0.00357 319.15036 321.93500
325.0 0.003077 318.98376 321.33258
313.0 0.003195 318.81680 320.88260
324.0 0.003086 318.64935 320.53970
305.0 0.003279 318.48160 320.27930
289.0 0.003460 318.31335 320.09213
328.0 0.003049 318.14481 319.95197
295.0 0.003390 317.97583 319.93842
332.0 0.003012 317.80649 319.99701
307.0 0.003257 317.63681 320.14755
312.0 0.003205 317.46677 320.37830
329.0 0.003040 317.29645 320.67020
325.0 0.003077 317.12573 320.98779
326.0 0.003067 316.95468 321.28186
330.0 0.003030 316.78339 321.49347
326.0 0.003067 316.61172 321.55197
324.0 0.003086 316.43985 321.45926
344.0 0.002907 316.26764 321.19193
328.0 0.003049 316.09515 320.79239
303.0 0.003300 315.92249 320.34299
298.0 0.003356 315.74945 319.88306
363.0 0.002755 315.57629 319.44647
311.0 0.003215 315.40283 319.04318
343.0 0.002915 315.22916 318.66183
304.0 0.003289 315.05533 318.27808
318.0 0.003145 314.88126 317.86707
293.0 0.003413 314.70703 317.41901
322.0 0.003106 314.53259 316.93616
290.0 0.003448 314.35800 316.44687
316.0 0.003165 314.18329 315.96564
330.0 0.003030 314.00839 315.50928
317.0 0.003155 313.83344 315.08966
308.0 0.003247 313.65829 314.71286
292.0 0.003425 313.48306 314.38004
327.0 0.003058 313.30777 314.08768
296.0 0.003378 313.13235 313.82974
349.0 0.002865 312.95694 313.59930
286.0 0.003497 312.78137 313.38950
352.0 0.002841 312.60580 313.19489
317.0 0.003155 312.43024 313.01120
298.0 0.003356 312.25458 312.83569
325.0 0.003077 312.07901 312.66690
332.0 0.003012 311.90332 312.50397
311.0 0.003215 311.72769 312.34753
290.0 0.003448 311.55215 312.19913
295.0 0.003390 311.37659 312.06207
347.0 0.002882 311.20114 311.94214
297.0 0.003367 311.02570 311.84933
306.0 0.003268 310.85037 311.79926
320.0 0.003125 310.67508 311.81509
284.0 0.00352 310.49991 311.92911
317.0 0.003155 310.32492 312.18152
330.0 0.003030 310.14999 312.61835
296.0 0.003378 309.97525 313.28366
291.0 0.003436 309.80063 314.20953
314.0 0.003185 309.62622 315.40482
293.0 0.003413 309.45193 316.84042
308.0 0.003247 309.27789 318.44440
303.0 0.003300 309.10403 320.09543
350.0 0.002857 308.93036 321.62823
326.0 0.003067 308.75699 322.85052
305.0 0.003279 308.58380 323.58032
348.0 0.002874 308.41092 323.71695
367.0 0.002725 308.23828 323.29446
329.0 0.003040 308.06598 322.46747
330.0 0.003030 307.89389 321.43381
286.0 0.003497 307.72220 320.36581
324.0 0.003086 307.55075 319.37180
340.0 0.002941 307.37967 318.43317
355.0 0.002817 307.20898 317.62430
346.0 0.002890 307.03860 316.80994
310.0 0.003226 306.86865 315.90829
307.0 0.003257 306.69904 314.88034
309.0 0.003236 306.52985 313.74542
289.0 0.003460 306.36108 312.56088
316.0 0.003165 306.19272 311.39209
287.0 0.003484 306.02487 310.29788
305.0 0.003279 305.85739 309.29456
316.0 0.003165 305.69040 308.46243
329.0 0.003040 305.52393 307.78406
317.0 0.003155 305.35791 307.25632
315.0 0.003175 305.19244 306.87070
294.0 0.003401 305.02744 306.61926
299.0 0.003344 304.86298 306.50342
322.0 0.003106 304.69910 306.53821
300.0 0.003333 304.53574 306.75607
297.0 0.003367 304.37299 307.20560
297.0 0.003367 304.21078 307.94675
278.0 0.00360 304.04916 309.03949
335.0 0.002985 303.88818 310.52887
325.0 0.003077 303.72781 312.42682
320.0 0.003125 303.56808 314.69269
316.0 0.003165 303.40900 317.22363
338.0 0.002959 303.25052 319.84552
326.0 0.003067 303.09277 322.31940
362.0 0.002762 302.93567 324.36401
366.0 0.002732 302.77930 325.70908
350.0 0.002857 302.62357 326.19107
343.0 0.002915 302.46854 325.82928
337.0 0.002967 302.31433 324.81482
376.0 0.002660 302.16080 323.41876
323.0 0.003096 302.00803 321.89890
323.0 0.003096 301.85602 320.43753
323.0 0.003096 301.70474 319.11615
342.0 0.002924 301.55429 317.91388
304.0 0.003289 301.40463 316.72876
312.0 0.003205 301.25580 315.44922
311.0 0.003215 301.10773 313.99765
355.0 0.002817 300.96048 312.37689
333.0 0.003003 300.81412 310.65060
316.0 0.003165 300.66855 308.90741
291.0 0.003436 300.52390 307.23672
338.0 0.002959 300.38007 305.70959
273.0 0.00366 300.23715 304.37408
327.0 0.003058 300.09506 303.25006
336.0 0.002976 299.95392 302.33771
332.0 0.003012 299.81363 301.61502
332.0 0.003012 299.67429 301.05099
296.0 0.003378 299.53589 300.61148
315.0 0.003175 299.39838 300.26419
309.0 0.003236 299.26187 299.98196
289.0 0.003460 299.12622 299.74393
299.0 0.003344 298.99164 299.53519
289.0 0.003460 298.85794 299.34558
275.0 0.00364 298.72525 299.16888
284.0 0.00352 298.59354 299.00107
302.0 0.003311 298.46280 298.83975
307.0 0.003257 298.33307 298.68362
299.0 0.003344 298.20435 298.53177
275.0 0.00364 298.07666 298.38382
289.0 0.003460 297.94998 298.23947
298.0 0.003356 297.82434 298.09869
309.0 0.003236 297.69971 297.96155
304.0 0.003289 297.57611 297.82825
289.0 0.003460 297.45358 297.69922
297.0 0.003367 297.33209 297.57477
293.0 0.003413 297.21170 297.45520
279.0 0.00358 297.09235 297.34625
279.0 0.00358 296.97406 297.23648
289.0 0.003460 296.85687 297.13086
299.0 0.003344 296.74075 297.02811
304.0 0.003289 296.62573 296.92661
305.0 0.003279 296.51178 296.82431
290.0 0.003448 296.39893 296.71896
302.0 0.003311 296.28723 296.60895
274.0 0.00365 296.17657 296.49362
280.0 0.00357 296.06708 296.37619
314.0 0.003185 295.95868 296.25488
299.0 0.003344 295.85138 296.13269
292.0 0.003425 295.74524 296.01202
303.0 0.003300 295.64020 295.89374
301.0 0.003322 295.53632 295.76666
309.0 0.003236 295.43353 295.65329
297.0 0.003367 295.33188 295.54108
277.0 0.00361 295.23138 295.42899
273.0 0.00366 295.13202 295.31674
286.0 0.003497 295.03381 295.20471
307.0 0.003257 294.93671 295.09323
303.0 0.003300 294.84079 294.98325
280.0 0.00357 294.74600 294.87531
291.0 0.003436 294.65234 294.76413
281.0 0.00356 294.55988 294.66156
295.0 0.003390 294.46854 294.56189
289.0 0.003460 294.37833 294.46506
297.0 0.003367 294.28931 294.37088
307.0 0.003257 294.20139 294.27902
298.0 0.003356 294.11465 294.18921
287.0 0.003484 294.02905 294.10126
279.0 0.00358 293.94461 294.01495
278.0 0.00360 293.86133 293.93027
318.0 0.003145 293.77917 293.84698
316.0 0.003165 293.69818 293.76498
284.0 0.00352 293.61829 293.68433
298.0 0.003356 293.53958 293.60498
293.0 0.003413 293.46201 293.52682
281.0 0.00356 293.38556 293.44995
312.0 0.003205 293.31027 293.37439
293.0 0.003413 293.23608 293.29996
269.0 0.00372 293.16306 293.22690
282.0 0.00355 293.09113 293.15497
276.0 0.00362 293.02036 293.08441
309.0 0.003236 292.95068 293.01492
312.0 0.003205 292.88214 292.94681
319.0 0.003135 292.81470 292.87985
304.0 0.003289 292.74835 292.81415
297.0 0.003367 292.68314 292.74960
251.0 0.00398 292.61902 292.67004
304.0 0.003289 292.55600 292.60843
293.0 0.003413 292.49405 292.54608
289.0 0.003460 292.43320 292.48700
302.0 0.003311 292.37344 292.42917
295.0 0.003390 292.31473 292.37256
312.0 0.003205 292.25711 292.31735
299.0 0.003344 292.20053 292.26334
291.0 0.003436 292.14502 292.21060
306.0 0.003268 292.09055 292.15109
301.0 0.003322 292.03714 292.10129
299.0 0.003344 291.98474 292.05188
291.0 0.003436 291.93338 292.00491
312.0 0.003205 291.88306 291.95944
300.0 0.003333 291.83371 291.91553
277.0 0.00361 291.78540 291.87314
292.0 0.003425 291.73807 291.83246
284.0 0.00352 291.69174 291.79370
311.0 0.003215 291.64639 291.75674
277.0 0.00361 291.60202 291.72208
309.0 0.003236 291.55862 291.69000
292.0 0.003425 291.51614 291.66110
286.0 0.003497 291.47464 291.63638
312.0 0.003205 291.43408 291.61765
289.0 0.003460 291.39444 291.60776
299.0 0.003344 291.35571 291.61121
291.0 0.003436 291.31790 291.63480
293.0 0.003413 291.28098 291.68823
309.0 0.003236 291.24496 291.78421
321.0 0.003115 291.20981 291.93839
319.0 0.003135 291.17554 292.16782
303.0 0.003300 291.14212 292.48880
314.0 0.003185 291.10953 292.91339
284.0 0.00352 291.07782 293.44470
306.0 0.003268 291.04691 294.07394
292.0 0.003425 291.01682 294.77628
298.0 0.003356 290.98749 295.51068
297.0 0.003367 290.95898 296.21954
306.0 0.003268 290.93127 296.83322
304.0 0.003289 290.90433 297.28058
334.0 0.002994 290.87811 297.50766
281.0 0.00356 290.85266 297.50089
297.0 0.003367 290.82791 297.29489
306.0 0.003268 290.80392 296.95645
284.0 0.00352 290.78064 296.55826
290.0 0.003448 290.75803 296.15936
305.0 0.003279 290.73611 295.79523
290.0 0.003448 290.71484 295.47534
272.0 0.00368 290.69427 295.18582
295.0 0.003390 290.67432 294.89645
304.0 0.003289 290.65500 294.57559
303.0 0.003300 290.63629 294.20529
291.0 0.003436 290.61819 293.78812
302.0 0.003311 290.60068 293.34360
283.0 0.00353 290.58374 292.89346
270.0 0.00370 290.56738 292.46155
265.0 0.00377 290.55157 292.06671
274.0 0.00365 290.53629 291.72156
320.0 0.003125 290.52151 291.43237
284.0 0.00352 290.50729 291.19922
295.0 0.003390 290.49353 291.01770
339.0 0.002950 290.48026 290.88016
330.0 0.003030 290.46747 290.77792
318.0 0.003145 290.45511 290.70316
289.0 0.003460 290.44321 290.64722
284.0 0.00352 290.43170 290.60471
296.0 0.003378 290.42062 290.57141
273.0 0.00366 290.40994 290.54419
285.0 0.00351 290.39966 290.52100
326.0 0.003067 290.38971 290.50067
279.0 0.00358 290.38016 290.48242
270.0 0.00370 290.37088 290.46570
319.0 0.003135 290.36197 290.45023
296.0 0.003378 290.35339 290.43582
308.0 0.003247 290.34506 290.42227
281.0 0.00356 290.33704 290.40958
300.0 0.003333 290.32928 290.39752
270.0 0.00370 290.32178 290.38626
270.0 0.00370 290.31451 290.37546
316.0 0.003165 290.30746 290.36530
268.0 0.00373 290.30063 290.35559
270.0 0.00370 290.29398 290.34625
269.0 0.00372 290.28751 290.33737
306.0 0.003268 290.28122 290.32883
262.0 0.00382 290.27509 290.32071
276.0 0.00362 290.26907 290.31281
300.0 0.003333 290.26321 290.30518
281.0 0.00356 290.25742 290.29779
287.0 0.003484 290.25174 290.29065
283.0 0.00353 290.24615 290.28369
263.0 0.00380 290.24060 290.27695
274.0 0.00365 290.23514 290.27023
312.0 0.003205 290.22968 290.26376
298.0 0.003356 290.22427 290.25742
289.0 0.003460 290.21887 290.25107
276.0 0.00362 290.21347 290.24481
282.0 0.00355 290.20804 290.23868
302.0 0.003311 290.20258 290.23993
295.0 0.003390 290.19708 290.23386
281.0 0.00356 290.19153 290.22781
288.0 0.003472 290.18588 290.22180
318.0 0.003145 290.18018 290.21585
295.0 0.003390 290.17438 290.20975
289.0 0.003460 290.16846 290.20367
279.0 0.00358 290.16238 290.19742
308.0 0.003247 290.15622 290.19125
279.0 0.00358 290.14990 290.18484
303.0 0.003300 290.14340 290.17838
253.0 0.00395 290.13675 290.17551
305.0 0.003279 290.12988 290.16882
268.0 0.00373 290.12283 290.16208
271.0 0.00369 290.11557 290.15515
287.0 0.003484 290.10806 290.14807
256.0 0.00391 290.10034 290.14087
270.0 0.00370 290.09238 290.13336
303.0 0.003300 290.08414 290.12576
274.0 0.00365 290.07565 290.11795
295.0 0.003390 290.06686 290.10995
282.0 0.00355 290.05777 290.10184
298.0 0.003356 290.04840 290.09335
284.0 0.00352 290.03870 290.08832
308.0 0.003247 290.02866 290.07953
303.0 0.003300 290.01831 290.07059
282.0 0.00355 290.00760 290.06644
288.0 0.003472 289.99655 290.05722
281.0 0.00356 289.98511 290.04803
287.0 0.003484 289.97330 290.03885
284.0 0.00352 289.96106 290.03000
268.0 0.00373 289.94849 290.02139
286.0 0.003497 289.93546 290.00912
282.0 0.00355 289.92203 290.00327
306.0 0.003268 289.90820 289.99884
333.0 0.003003 289.89389 289.99722
285.0 0.00351 289.87915 289.99954
283.0 0.00353 289.86398 290.00833
305.0 0.003279 289.84833 290.01990
292.0 0.003425 289.83221 290.03696
259.0 0.00386 289.81561 290.05936
254.0 0.00394 289.79852 290.08612
281.0 0.00356 289.78094 290.11383
294.0 0.003401 289.76288 290.14426
287.0 0.003484 289.74429 290.17416
280.0 0.00357 289.72519 290.20053
300.0 0.003333 289.70557 290.22238
296.0 0.003378 289.68542 290.24091
281.0 0.00356 289.66473 290.25952
247.0 0.00405 289.64349 290.28442
284.0 0.00352 289.62173 290.32260
296.0 0.003378 289.59940 290.38052
305.0 0.003279 289.57648 290.46298
289.0 0.003460 289.55301 290.57196
303.0 0.003300 289.52899 290.70508
291.0 0.003436 289.50436 290.85550
276.0 0.00362 289.47919 291.01193
296.0 0.003378 289.45340 291.15948
276.0 0.00362 289.42703 291.28116
265.0 0.00377 289.40005 291.36026
292.0 0.003425 289.37247 291.38428
297.0 0.003367 289.34430 291.34973
338.0 0.002959 289.31552 291.26437
315.0 0.003175 289.28613 291.14426
298.0 0.003356 289.25610 291.00754
303.0 0.003300 289.22546 290.86951
277.0 0.00361 289.19421 290.74088
319.0 0.003135 289.16235 290.62524
312.0 0.003205 289.12985 290.52100
304.0 0.003289 289.09668 290.42169
280.0 0.00357 289.06293 290.31876
302.0 0.003311 289.02850 290.20554
293.0 0.003413 288.99347 290.07950
318.0 0.003145 288.95779 289.94302
286.0 0.003497 288.92145 289.80124
274.0 0.00365 288.88449 289.66006
308.0 0.003247 288.84689 289.52487
294.0 0.003401 288.80862 289.39981
266.0 0.00376 288.76974 289.28745
272.0 0.00368 288.73019 289.18930
307.0 0.003257 288.69000 289.10522
297.0 0.003367 288.64917 289.03418
287.0 0.003484 288.60770 288.97495
255.0 0.00392 288.56558 288.92575
321.0 0.003115 288.52280 288.88556
286.0 0.003497 288.47937 288.85410
275.0 0.00364 288.43530 288.83163
302.0 0.003311 288.39059 288.82043
285.0 0.00351 288.34525 288.82492
309.0 0.003236 288.29926 288.85175
268.0 0.00373 288.25262 288.91171
280.0 0.00357 288.20535 289.01886
254.0 0.00394 288.15741 289.19189
310.0 0.003226 288.10886 289.45258
300.0 0.003333 288.05966 289.82449
249.0 0.00402 288.00986 290.32913
296.0 0.003378 287.95941 290.98169
308.0 0.003247 287.90829 291.78680
316.0 0.003165 287.85660 292.73215
289.0 0.003460 287.80426 293.78619
263.0 0.00380 287.75128 294.89563
293.0 0.003413 287.69772 295.98587
336.0 0.002976 287.64352 296.96628
330.0 0.003030 287.58871 297.73795
329.0 0.003040 287.53329 298.21564
293.0 0.003413 287.47726 298.35556
270.0 0.00370 287.42065 298.18225
284.0 0.00352 287.36340 297.75909
290.0 0.003448 287.30557 297.19308
302.0 0.003311 287.24716 296.58081
308.0 0.003247 287.18814 295.99680
300.0 0.003333 287.12854 295.48492
309.0 0.003236 287.06836 295.05783
308.0 0.003247 287.00763 294.70123
264.0 0.00379 286.94626 294.39487
315.0 0.003175 286.88437 294.08890
308.0 0.003247 286.82190 293.79208
304.0 0.003289 286.75888 293.51285
295.0 0.003390 286.69531 293.29477
267.0 0.00375 286.63113 293.18909
325.0 0.003077 286.56644 293.23810
283.0 0.00353 286.50122 293.46790
303.0 0.003300 286.43546 293.88278
321.0 0.003115 286.36917 294.46085
307.0 0.003257 286.30234 295.15332
317.0 0.003155 286.23495 295.89276
286.0 0.003497 286.16708 296.58276
328.0 0.003049 286.09869 297.14828
308.0 0.003247 286.02979 297.51620
331.0 0.003021 285.96039 297.65054
324.0 0.003086 285.89044 297.54181
315.0 0.003175 285.82004 297.21451
297.0 0.003367 285.74915 296.72379
302.0 0.003311 285.67776 296.14072
322.0 0.003106 285.60590 295.52988
304.0 0.003289 285.53354 294.93430
284.0 0.00352 285.46072 294.37045
293.0 0.003413 285.38742 293.83124
293.0 0.003413 285.31369 293.29575
292.0 0.003425 285.23950 292.73767
295.0 0.003390 285.16486 292.13367
311.0 0.003215 285.08972 291.47040
300.0 0.003333 285.01419 290.75116
284.0 0.00352 284.93823 289.99673
292.0 0.003425 284.86179 289.23676
302.0 0.003311 284.78497 288.50226
288.0 0.003472 284.70770 287.81857
243.0 0.00412 284.63004 287.20303
280.0 0.00357 284.55191 286.66479
294.0 0.003401 284.47342 286.20493
275.0 0.00364 284.39450 285.81818
300.0 0.003333 284.31519 285.49533
301.0 0.003322 284.23547 285.22525
302.0 0.003311 284.15536 284.99683
299.0 0.003344 284.07489 284.80087
268.0 0.00373 283.99402 284.62936
266.0 0.00376 283.91278 284.47644
309.0 0.003236 283.83115 284.33731
286.0 0.003497 283.74918 284.20905
242.0 0.00413 283.66678 284.08914
289.0 0.003460 283.58405 283.97614
282.0 0.00355 283.50098 283.86948
309.0 0.003236 283.41754 283.76672
291.0 0.003436 283.33377 283.66788
278.0 0.00360 283.24960 283.57053
269.0 0.00372 283.16513 283.47702
307.0 0.003257 283.08032 283.38547
259.0 0.00386 282.99515 283.29541
272.0 0.00368 282.90967 283.20663
269.0 0.00372 282.82382 283.11896
312.0 0.003205 282.73764 283.03204
301.0 0.003322 282.65118 282.94632
277.0 0.00361 282.56436 282.86172
323.0 0.003096 282.47726 282.77805
275.0 0.00364 282.38983 282.69479
287.0 0.003484 282.30203 282.61359
293.0 0.003413 282.21399 282.53372
267.0 0.00375 282.12561 282.45535
284.0 0.00352 282.03693 282.37857
283.0 0.00353 281.94794 282.30325
293.0 0.003413 281.85861 282.22922
283.0 0.00353 281.76904 282.15622
250.0 0.00400 281.67911 282.08392
276.0 0.00362 281.58893 282.01202
257.0 0.00389 281.49844 281.94006
282.0 0.00355 281.40762 281.86792
279.0 0.00358 281.31656 281.79550
279.0 0.00358 281.22516 281.72360
284.0 0.00352 281.13351 281.65308
284.0 0.00352 281.04153 281.58496
274.0 0.00365 280.94928 281.52103
291.0 0.003436 280.85678 281.46310
283.0 0.00353 280.76392 281.41382
274.0 0.00365 280.67081 281.38046
291.0 0.003436 280.57739 281.36160
298.0 0.003356 280.48370 281.36777
302.0 0.003311 280.38974 281.40924
308.0 0.003247 280.29544 281.49890
271.0 0.00369 280.20093 281.65250
290.0 0.003448 280.10608 281.88821
320.0 0.003125 280.01096 282.22446
278.0 0.00360 279.91556 282.67941
278.0 0.00360 279.81985 283.26813
317.0 0.003155 279.72388 284.00134
260.0 0.00385 279.62759 284.88513
269.0 0.00372 279.53104 285.92053
274.0 0.00365 279.43417 287.09747
276.0 0.00362 279.33707 288.40616
285.0 0.00351 279.23962 289.82089
307.0 0.003257 279.14188 291.33835
314.0 0.003185 279.04388 292.93820
276.0 0.00362 278.94559 294.62119
302.0 0.003311 278.84698 296.39758
309.0 0.003236 278.74811 298.26596
256.0 0.00391 278.64893 300.19391
263.0 0.00380 278.54941 302.10004
299.0 0.003344 278.44965 303.85507
294.0 0.003401 278.34958 305.29639
332.0 0.003012 278.24918 306.25818
257.0 0.00389 278.14850 306.61447
333.0 0.003003 278.04749 306.32974
315.0 0.003175 277.94623 305.45309
316.0 0.003165 277.84460 304.11746
323.0 0.003096 277.74271 302.50070
285.0 0.00351 277.64050 300.77707
291.0 0.003436 277.53796 299.08484
331.0 0.003021 277.43512 297.50497
312.0 0.003205 277.33197 296.05618
242.0 0.00413 277.22852 294.70636
279.0 0.00358 277.12473 293.39117
325.0 0.003077 277.02063 292.04443
275.0 0.00364 276.91623 290.61978
260.0 0.00385 276.81146 289.11548
273.0 0.00366 276.70642 287.55371
282.0 0.00355 276.60104 285.97495
272.0 0.00368 276.49533 284.44205
281.0 0.00356 276.38934 282.99933
290.0 0.003448 276.28296 281.68411
307.0 0.003257 276.17630 280.52206
291.0 0.003436 276.06927 279.52383
254.0 0.00394 275.96194 278.69427
258.0 0.00388 275.85431 278.00760
266.0 0.00376 275.74628 277.45428
258.0 0.00388 275.63800 277.01096
257.0 0.00389 275.52933 276.65451
286.0 0.003497 275.42032 276.36279
285.0 0.00351 275.31104 276.12292
284.0 0.00352 275.20139 275.91849
237.0 0.00422 275.09143 275.73932
278.0 0.00360 274.98111 275.57840
279.0 0.00358 274.87045 275.43124
286.0 0.003497 274.75952 275.29849
267.0 0.00375 274.64819 275.17270
253.0 0.00395 274.53659 275.05679
293.0 0.003413 274.42462 274.95120
280.0 0.00357 274.31235 274.85638
285.0 0.00351 274.19974 274.77298
283.0 0.00353 274.08679 274.70035
284.0 0.00352 273.97357 274.63751
307.0 0.003257 273.85999 274.58224
257.0 0.00389 273.74606 274.53091
313.0 0.003195 273.63187 274.47937
252.0 0.00397 273.51733 274.42203
285.0 0.00351 273.40253 274.35312
304.0 0.003289 273.28735 274.26730
248.0 0.00403 273.17194 274.16183
272.0 0.00368 273.05615 274.03635
252.0 0.00397 272.94009 273.89456
271.0 0.00369 272.82382 273.74213
283.0 0.00353 272.70709 273.58453
266.0 0.00376 272.59021 273.42719
302.0 0.003311 272.47293 273.27280
280.0 0.00357 272.35544 273.12338
258.0 0.00388 272.23776 272.97864
281.0 0.00356 272.11966 272.83658
276.0 0.00362 272.00140 272.69501
304.0 0.003289 271.88278 272.55145
260.0 0.00385 271.76395 272.40494
259.0 0.00386 271.64499 272.25659
245.0 0.00408 271.52563 272.10843
271.0 0.00369 271.40613 271.96454
280.0 0.00357 271.28632 271.82913
281.0 0.00356 271.16635 271.70773
288.0 0.003472 271.04626 271.60687
257.0 0.00389 270.92581 271.53320
285.0 0.00351 270.80527 271.49466
272.0 0.00368 270.68445 271.49911
270.0 0.00370 270.56351 271.55368
260.0 0.00385 270.44250 271.66379
296.0 0.003378 270.32117 271.83203
272.0 0.00368 270.19980 272.05612
262.0 0.00382 270.07819 272.32843
269.0 0.00372 269.95651 272.63455
271.0 0.00369 269.83484 272.95331
276.0 0.00362 269.71286 273.25809
290.0 0.003448 269.59091 273.51669
289.0 0.003460 269.46878 273.69644
302.0 0.003311 269.34662 273.76883
284.0 0.00352 269.22452 273.71994
271.0 0.00369 269.10220 273.55463
292.0 0.003425 268.97995 273.29663
291.0 0.003436 268.85757 272.97855
303.0 0.003300 268.73526 272.63394
278.0 0.00360 268.61307 272.29004
290.0 0.003448 268.49069 271.96396
258.0 0.00388 268.36847 271.66351
286.0 0.003497 268.24622 271.38544
265.0 0.00377 268.12408 271.11887
299.0 0.003344 268.00211 270.84854
301.0 0.003322 267.88010 270.55899
285.0 0.00351 267.75830 270.24323
275.0 0.00364 267.63647 269.90131
288.0 0.003472 267.51489 269.54129
269.0 0.00372 267.39352 269.17419
251.0 0.00398 267.27222 268.80475
257.0 0.00389 267.15121 268.45499
276.0 0.00362 267.03024 268.12643
286.0 0.003497 266.90961 267.82492
258.0 0.00388 266.78928 267.55304
286.0 0.003497 266.66910 267.31067
293.0 0.003413 266.54929 267.09677
243.0 0.00412 266.42966 266.90802
264.0 0.00379 266.31036 266.73105
243.0 0.00412 266.19150 266.58383
262.0 0.00382 266.07288 266.44565
240.0 0.00417 265.95474 266.32776
254.0 0.00394 265.83685 266.22861
261.0 0.00383 265.71939 266.14792
240.0 0.00417 265.60251 266.09061
283.0 0.00353 265.48584 266.06381
256.0 0.00391 265.36981 266.07718
267.0 0.00375 265.25415 266.14288
304.0 0.003289 265.13898 266.27408
252.0 0.00397 265.02451 266.47839
283.0 0.00353 264.91031 266.77817
277.0 0.00361 264.79688 267.17056
263.0 0.00380 264.68387 267.66330
246.0 0.00407 264.57150 268.24234
243.0 0.00412 264.45987 268.88702
267.0 0.00375 264.34872 269.56671
258.0 0.00388 264.23828 270.23676
288.0 0.003472 264.12845 270.84601
262.0 0.00382 264.01932 271.33646
265.0 0.00377 263.91104 271.66025
259.0 0.00386 263.80328 271.77200
278.0 0.00360 263.69638 271.67163
283.0 0.00353 263.59018 271.38742
265.0 0.00377 263.48477 270.97192
294.0 0.003401 263.38028 270.48471
263.0 0.00380 263.27643 269.97763
283.0 0.00353 263.17349 269.49091
246.0 0.00407 263.07135 269.04581
248.0 0.00403 262.97009 268.64700
250.0 0.00400 262.86981 268.28290
264.0 0.00379 262.77029 267.92908
264.0 0.00379 262.67175 267.56174
272.0 0.00368 262.57407 267.15375
257.0 0.00389 262.47739 266.70074
268.0 0.00373 262.38171 266.20920
250.0 0.00400 262.28693 265.69412
272.0 0.00368 262.19315 265.17566
249.0 0.00402 262.10031 264.67142
277.0 0.00361 262.00854 264.19739
269.0 0.00372 261.91785 263.76480
254.0 0.00394 261.82809 263.37897
265.0 0.00377 261.73944 263.04248
259.0 0.00386 261.65176 262.75250
288.0 0.003472 261.56522 262.50427
289.0 0.003460 261.47980 262.29080
254.0 0.00394 261.39536 262.10419
289.0 0.003460 261.31207 261.93988
256.0 0.00391 261.22983 261.79211
274.0 0.00365 261.14874 261.65778
277.0 0.00361 261.06879 261.53406
292.0 0.003425 260.98987 261.41913
258.0 0.00388 260.91217 261.31146
253.0 0.00395 260.83545 261.20956
247.0 0.00405 260.75998 261.11243
253.0 0.00395 260.68567 261.01855
254.0 0.00394 260.61237 260.92651
272.0 0.00368 260.54031 260.83551
230.0 0.00435 260.46930 260.74518
264.0 0.00379 260.39948 260.65533
261.0 0.00383 260.33078 260.56628
272.0 0.00368 260.26315 260.47827
239.0 0.00418 260.19675 260.39227
253.0 0.00395 260.13138 260.30853
241.0 0.00415 260.06714 260.22751
246.0 0.00407 260.00406 260.14957
255.0 0.00392 259.94199 260.07462
255.0 0.00392 259.88110 260.00296
258.0 0.00388 259.82123 259.93402
272.0 0.00368 259.76245 259.86801
284.0 0.00352 259.70477 259.80457
270.0 0.00370 259.64804 259.74326
260.0 0.00385 259.59247 259.68414
276.0 0.00362 259.53781 259.62674
256.0 0.00391 259.48419 259.57101
266.0 0.00376 259.43161 259.51678
291.0 0.003436 259.37994 259.46384
272.0 0.00368 259.32925 259.41226
249.0 0.00402 259.27945 259.35828
257.0 0.00389 259.23059 259.30911
225.0 0.00444 259.18265 259.26105
252.0 0.00397 259.13553 259.21402
253.0 0.00395 259.08926 259.16806
259.0 0.00386 259.04379 259.12308
237.0 0.00422 258.99911 259.07913
236.0 0.00424 258.95526 259.03625
285.0 0.00351 258.91208 258.99414
274.0 0.00365 258.86966 258.95313
259.0 0.00386 258.82785 258.91299
277.0 0.00361 258.78671 258.87372
280.0 0.00357 258.74622 258.83371
288.0 0.003472 258.70627 258.79630
266.0 0.00376 258.66687 258.75974
266.0 0.00376 258.62796 258.72397
272.0 0.00368 258.58954 258.68918
276.0 0.00362 258.55157 258.65527
254.0 0.00394 258.51398 258.62219
252.0 0.00397 258.47675 258.59009
264.0 0.00379 258.43982 258.55896
241.0 0.00415 258.40317 258.52884
243.0 0.00412 258.36682 258.49997
288.0 0.003472 258.33057 258.47253
266.0 0.00376 258.29449 258.44815
273.0 0.00366 258.25854 258.42502
276.0 0.00362 258.22263 258.40701
256.0 0.00391 258.18677 258.39258
264.0 0.00379 258.15082 258.38541
266.0 0.00376 258.11484 258.39307
256.0 0.00391 258.07867 258.41180
265.0 0.00377 258.04236 258.45160
262.0 0.00382 258.00586 258.51968
245.0 0.00408 257.96902 258.62491
238.0 0.00420 257.93192 258.77634
286.0 0.003497 257.89438 258.98334
250.0 0.00400 257.85648 259.25403
248.0 0.00403 257.81808 259.59171
248.0 0.00403 257.77911 259.99799
262.0 0.00382 257.73965 260.46603
270.0 0.00370 257.69946 260.98361
268.0 0.00373 257.65866 261.52939
269.0 0.00372 257.61716 262.07486
274.0 0.00365 257.57480 262.58664
262.0 0.00382 257.53165 263.02472
251.0 0.00398 257.48758 263.35156
259.0 0.00386 257.44260 263.53683
274.0 0.00365 257.39664 263.56201
262.0 0.00382 257.34961 263.45044
247.0 0.00405 257.30154 263.22531
277.0 0.00361 257.25229 262.92590
264.0 0.00379 257.20187 262.59192
240.0 0.00417 257.15024 262.25571
285.0 0.00351 257.09729 261.93851
246.0 0.00407 257.04306 261.65076
259.0 0.00386 256.98740 261.39035
281.0 0.00356 256.93033 261.14566
268.0 0.00373 256.87189 260.89865
262.0 0.00382 256.81183 260.62662
250.0 0.00400 256.75031 260.32507
258.0 0.00388 256.68710 259.98282
268.0 0.00373 256.62231 259.60767
246.0 0.00407 256.55597 259.21149
251.0 0.00398 256.48779 258.80737
222.0 0.00450 256.41794 258.40927
257.0 0.00389 256.34628 258.02802
249.0 0.00402 256.27283 257.67252
272.0 0.00368 256.19763 257.34860
228.0 0.00439 256.12048 257.05792
237.0 0.00422 256.04153 256.80096
244.0 0.00410 255.96060 256.57504
273.0 0.00366 255.87778 256.37753
271.0 0.00369 255.79312 256.20276
213.0 0.00469 255.70638 256.04648
253.0 0.00395 255.61774 255.90475
264.0 0.00379 255.52705 255.77368
245.0 0.00408 255.43440 255.65031
271.0 0.00369 255.33989 255.53220
266.0 0.00376 255.24323 255.41722
259.0 0.00386 255.14465 255.30434
269.0 0.00372 255.04402 255.19485
249.0 0.00402 254.94145 255.08328
243.0 0.00412 254.83701 254.97171
259.0 0.00386 254.73045 254.85936
253.0 0.00395 254.62206 254.74651
262.0 0.00382 254.51166 254.63280
243.0 0.00412 254.39941 254.51820
236.0 0.00424 254.28542 254.40289
257.0 0.00389 254.16943 254.28659
247.0 0.00405 254.05171 254.16959
276.0 0.00362 253.93217 254.05177
240.0 0.00417 253.81096 253.93333
239.0 0.00418 253.68820 253.81433
241.0 0.00415 253.56366 253.69563
281.0 0.00356 253.43765 253.57504
281.0 0.00356 253.31004 253.45335
278.0 0.00360 253.18109 253.33054
265.0 0.00377 253.05083 253.20628
242.0 0.00413 252.91914 253.08011
254.0 0.00394 252.78636 252.95210
252.0 0.00397 252.65227 252.82173
263.0 0.00380 252.51727 252.68935
278.0 0.00360 252.38136 252.55511
260.0 0.00385 252.24446 252.41930
279.0 0.00358 252.10692 252.28262
234.0 0.00427 251.96860 252.14536
278.0 0.00360 251.82977 252.00824
250.0 0.00400 251.69060 251.87158
262.0 0.00382 251.55096 251.73560
272.0 0.00368 251.41129 251.60085
272.0 0.00368 251.27139 251.46741
249.0 0.00402 251.13161 251.33577
240.0 0.00417 250.99211 251.20676
262.0 0.00382 250.85283 251.08118
254.0 0.00394 250.71416 250.96094
233.0 0.00429 250.57599 250.84818
244.0 0.00410 250.43861 250.74617
225.0 0.00444 250.30237 250.65923
255.0 0.00392 250.16695 250.59227
221.0 0.00452 250.03299 250.55159
248.0 0.00403 249.90031 250.54381
273.0 0.00366 249.76930 250.57574
262.0 0.00382 249.64018 250.65372
260.0 0.00385 249.51283 250.78275
244.0 0.00410 249.38771 250.96484
245.0 0.00408 249.26483 251.19937
236.0 0.00424 249.14449 251.48053
268.0 0.00373 249.02695 251.79811
240.0 0.00417 248.91212 252.13780
255.0 0.00392 248.80045 252.47942
266.0 0.00376 248.69197 252.80046
251.0 0.00398 248.58699 253.07561
249.0 0.00402 248.48575 253.28171
282.0 0.00355 248.38824 253.40302
262.0 0.00382 248.29485 253.43570
256.0 0.00391 248.20563 253.39053
259.0 0.00386 248.12088 253.28912
260.0 0.00385 248.04086 253.15720
272.0 0.00368 247.96556 253.01767
257.0 0.00389 247.89534 252.88710
260.0 0.00385 247.83029 252.77293
266.0 0.00376 247.77068 252.67357
258.0 0.00388 247.71671 252.57903
295.0 0.003390 247.66844 252.47302
245.0 0.00408 247.62617 252.33784
234.0 0.00427 247.58998 252.15904
253.0 0.00395 247.56012 251.93079
259.0 0.00386 247.53673 251.65749
226.0 0.00442 247.51994 251.35068
236.0 0.00424 247.50992 251.02776
246.0 0.00407 247.50681 250.69981
256.0 0.00391 247.51074 250.39261
218.0 0.00459 247.52182 250.11174
232.0 0.00431 247.54022 249.86322
256.0 0.00391 247.56599 249.64984
234.0 0.00427 247.59926 249.46989
240.0 0.00417 247.64011 249.32033
242.0 0.00413 247.68852 249.19707
251.0 0.00398 247.74471 249.09709
244.0 0.00410 247.80853 249.01945
230.0 0.00435 247.88025 248.96452
253.0 0.00395 247.95961 248.93394
274.0 0.00365 248.04674 248.92757
245.0 0.00408 248.14165 248.95308
236.0 0.00424 248.24416 249.01123
244.0 0.00410 248.35443 249.10550
245.0 0.00408 248.47212 249.23878
224.0 0.00446 248.59715 249.41359
236.0 0.00424 248.72961 249.63176
252.0 0.00397 248.86903 249.89281
267.0 0.00375 249.01555 250.19534
244.0 0.00410 249.16873 250.53464
239.0 0.00418 249.32828 250.90410
251.0 0.00398 249.49417 251.29446
248.0 0.00403 249.66580 251.69345
251.0 0.00398 249.84319 252.08809
282.0 0.00355 250.02570 252.46257
249.0 0.00402 250.21278 252.80199
248.0 0.00403 250.40454 253.09529
251.0 0.00398 250.59991 253.33591
308.0 0.003247 250.79881 253.52655
241.0 0.00415 251.00044 253.67709
250.0 0.00400 251.20403 253.80214
267.0 0.00375 251.40952 253.91881
275.0 0.00364 251.61555 254.04211
264.0 0.00379 251.82190 254.18527
267.0 0.00375 252.02748 254.35765
249.0 0.00402 252.23132 254.56429
263.0 0.00380 252.43304 254.80746
268.0 0.00373 252.63126 255.08437
257.0 0.00389 252.82524 255.39024
285.0 0.00351 253.01373 255.71771
249.0 0.00402 253.19551 256.05905
253.0 0.00395 253.36983 256.40808
264.0 0.00379 253.53508 256.75650
267.0 0.00375 253.69019 257.09586
292.0 0.003425 253.83363 257.41418
243.0 0.00412 253.96390 257.69720
256.0 0.00391 254.07979 257.92929
268.0 0.00373 254.17947 258.09393
254.0 0.00394 254.26146 258.17926
246.0 0.00407 254.32391 258.18039
264.0 0.00379 254.36505 258.10226
241.0 0.00415 254.38307 257.95706
232.0 0.00431 254.37599 257.76111
252.0 0.00397 254.34174 257.52972
232.0 0.00431 254.27823 257.27576
278.0 0.00360 254.18338 257.00723
251.0 0.00398 254.05463 256.72598
281.0 0.00356 253.88986 256.43002
240.0 0.00417 253.68639 256.11139
256.0 0.00391 253.44182 255.75951
248.0 0.00403 253.15381 255.36192
235.0 0.00426 252.81885 254.90608
237.0 0.00422 252.43478 254.38467
264.0 0.00379 251.99815 253.79341
249.0 0.00402 251.50635 253.13301
260.0 0.00385 250.95668 252.40665
262.0 0.00382 250.34457 251.61569
228.0 0.00439 249.66792 250.76463
284.0 0.00352 248.92235 249.85417
226.0 0.00442 248.10535 248.88615
295.0 0.003390 247.21310 247.85973
260.0 0.00385 246.24057 246.77090
271.0 0.00369 245.18596 245.61861
229.0 0.00437 244.04266 244.39502
226.0 0.00442 242.80937 243.09735
240.0 0.00417 241.48123 241.71873
238.0 0.00420 240.05206 240.25052
246.0 0.00407 238.52045 238.68919
271.0 0.00369 236.87871 237.02484
208.0 0.00481 235.12444 235.25348
243.0 . . .
loop_
_refln_index_h
_refln_index_k
_refln_index_l
_pd_refln_wavelength_id
_refln_observed_status
_refln_F_squared_meas
_refln_F_squared_calc
_refln_phase_calc
_refln_d_spacing
_gsas_i100_meas
0 0 1 1 o 411.395 419.591 0.00 7.41472 33.43
0 0 1 2 o 401.858 419.591 0.00 7.41472 16.27
1 0 1 1 o 161.662 162.383 180.00 4.78862 30.61
1 0 1 2 o 166.388 162.383 180.00 4.78862 15.67
1 1 0 1 o 95.161 87.206 180.00 4.43501 7.16
1 1 0 2 o 96.818 87.206 180.00 4.43501 3.63
1 1 1 1 o 912.984 906.615 0.00 3.80611 100.00
1 1 1 2 o 922.293 906.615 0.00 3.80611 50.23
0 0 2 1 o 664.725 598.545 0.00 3.70736 12.57
0 0 2 2 o 559.518 598.545 0.00 3.70736 5.31
1 0 2 1 o 68.263 60.217 180.00 3.19151 4.41
1 0 2 2 o 71.164 60.217 180.00 3.19151 2.29
2 0 0 1 o 2316.194 2236.116 180.00 3.13602 59.34
2 0 0 2 o 2234.022 2236.116 180.00 3.13602 28.49
2 0 1 1 o 265.136 251.073 180.00 2.88831 19.34
2 0 1 2 o 248.029 251.073 180.00 2.88831 9.04
1 1 2 1 o 356.127 340.463 0.00 2.84444 17.44
1 1 2 2 o 350.060 340.463 0.00 2.84444 8.53
2 1 1 1 o 29.000 36.141 0.00 2.62350 2.90
2 1 1 2 o 24.438 36.141 0.00 2.62350 1.22
0 0 3 1 o 704.594 373.991 0.00 2.47157 5.38
0 0 3 2 o 634.979 373.991 0.00 2.47157 2.42
2 0 2 1 o 226.145 254.694 180.00 2.39431 10.19
2 0 2 2 o 196.829 254.694 180.00 2.39431 4.45
1 0 3 1 o 25.240 10.686 180.00 2.29948 0.75
1 0 3 2 o 25.261 10.686 180.00 2.29948 0.37
2 1 2 1 o 60.004 53.462 0.00 2.23686 3.88
2 1 2 2 o 56.582 53.462 0.00 2.23686 1.82
2 2 0 1 o 776.837 838.157 0.00 2.21750 14.57
2 2 0 2 o 723.690 838.157 0.00 2.21750 6.77
1 1 3 1 o 95.697 118.978 0.00 2.15896 2.68
1 1 3 2 o 98.785 118.978 0.00 2.15896 1.37
2 2 1 1 o 221.431 155.704 0.00 2.12453 7.61
2 2 1 2 o 198.602 155.704 0.00 2.12453 3.41
3 0 1 1 o -0.162 9.772 0.00 2.01222 0.00
3 0 1 2 o -0.162 9.772 0.00 2.01222 0.00
3 1 0 1 o 19.552 0.427 0.00 1.98339 0.36
3 1 0 2 o 13.988 0.427 0.00 1.98339 0.13
2 0 3 1 o 202.631 169.431 180.00 1.94117 4.66
2 0 3 2 o 206.250 169.431 180.00 1.94117 2.35
3 1 1 1 o 116.273 121.507 180.00 1.91603 5.41
3 1 1 2 o 109.743 121.507 180.00 1.91603 2.55
2 2 2 1 o 137.353 121.099 0.00 1.90306 3.25
2 2 2 2 o 130.193 121.099 0.00 1.90306 1.53
2 1 3 1 o 3.545 3.086 0.00 1.85439 0.13
0 0 4 1 o 12.666 11.590 0.00 1.85368 0.06
2 1 3 2 o 0.462 3.086 0.00 1.85439 0.01
0 0 4 2 o -2.666 11.590 0.00 1.85368 0.00
3 0 2 1 o 17.316 38.541 0.00 1.82108 0.44
3 0 2 2 o 4.309 38.541 0.00 1.82108 0.06
1 0 4 1 o 19.780 3.480 180.00 1.77767 0.31
1 0 4 2 o 12.635 3.480 180.00 1.77767 0.10
3 1 2 1 o 93.696 76.524 180.00 1.74885 4.02
3 1 2 2 o 93.743 76.524 180.00 1.74885 2.00
1 1 4 1 o 219.375 212.794 0.00 1.71030 3.33
1 1 4 2 o 216.198 212.794 0.00 1.71030 1.63
3 2 1 1 o 3.159 1.234 180.00 1.69357 0.11
3 2 1 2 o 4.087 1.234 180.00 1.69357 0.07
2 2 3 1 o 80.380 83.337 0.00 1.65055 1.17
2 2 3 2 o 65.804 83.337 0.00 1.65055 0.48
3 0 3 1 o -0.035 1.164 0.00 1.59620 0.00
2 0 4 1 o -1.321 4.293 180.00 1.59575 0.00
3 0 3 2 o -0.035 1.164 0.00 1.59620 0.00
2 0 4 2 o -1.321 4.293 180.00 1.59575 0.00
3 2 2 1 o 16.339 32.955 180.00 1.57481 0.50
3 2 2 2 o 21.027 32.955 180.00 1.57481 0.32
4 0 0 1 o 197.030 197.837 0.00 1.56801 1.03
4 0 0 2 o 207.709 197.837 0.00 1.56801 0.54
3 1 3 1 o 60.943 34.189 180.00 1.54690 1.77
2 1 4 1 o 5.281 3.055 0.00 1.54649 0.12
3 1 3 2 o 52.038 34.189 180.00 1.54690 0.76
2 1 4 2 o 4.282 3.055 0.00 1.54649 0.05
4 0 1 1 o 98.414 48.898 0.00 1.53408 1.22
4 0 1 2 o 103.955 48.898 0.00 1.53408 0.64
4 1 1 1 o -0.015 0.462 180.00 1.49016 0.00
4 1 1 2 o -0.015 0.462 180.00 1.49016 0.00
0 0 5 1 o -2.025 15.787 0.00 1.48294 0.00
0 0 5 2 o 34.626 15.787 0.00 1.48294 0.04
3 3 0 1 o 6.780 1.944 0.00 1.47834 0.05
3 3 0 2 o 19.705 1.944 0.00 1.47834 0.07
3 3 1 1 o 24.007 19.675 0.00 1.44980 0.34
3 3 1 2 o 19.572 19.675 0.00 1.44980 0.14
4 0 2 1 o 29.986 35.763 0.00 1.44416 0.44
1 0 5 1 o 7.249 8.748 180.00 1.44316 0.07
4 0 2 2 o 18.036 35.763 0.00 1.44416 0.14
1 0 5 2 o 1.694 8.748 180.00 1.44316 0.01
3 2 3 1 o 0.806 0.197 180.00 1.42254 0.02
2 2 4 1 o 7.524 1.410 0.00 1.42222 0.07
3 2 3 2 o 0.766 0.197 180.00 1.42254 0.01
2 2 4 2 o 7.465 1.410 0.00 1.42222 0.04
4 1 2 1 o 10.940 20.548 180.00 1.40733 0.27
1 1 5 1 o 30.855 49.700 0.00 1.40641 0.30
4 1 2 2 o 22.044 20.548 180.00 1.40733 0.26
1 1 5 2 o 63.990 49.700 0.00 1.40641 0.29
4 2 0 1 o 123.091 88.796 180.00 1.40247 1.17
4 2 0 2 o 161.437 88.796 180.00 1.40247 0.75
3 0 4 1 o 5.521 2.154 0.00 1.38701 0.06
3 0 4 2 o 4.177 2.154 0.00 1.38701 0.02
4 2 1 1 o 67.968 35.196 180.00 1.37804 1.35
4 2 1 2 o 66.958 35.196 180.00 1.37804 0.66
3 3 2 1 o 43.430 22.075 0.00 1.37319 0.50
3 3 2 2 o 46.095 22.075 0.00 1.37319 0.26
3 1 4 1 o 33.128 71.648 180.00 1.35429 0.67
3 1 4 2 o 18.979 71.648 180.00 1.35429 0.21
2 0 5 1 o 11.882 8.775 180.00 1.34061 0.11
2 0 5 2 o 2.083 8.775 180.00 1.34061 0.01
4 0 3 1 o 24.442 23.763 0.00 1.32404 0.29
4 0 3 2 o 29.948 23.763 0.00 1.32404 0.18
4 2 2 1 o 33.603 19.730 180.00 1.31175 0.67
2 1 5 1 o 5.100 3.086 0.00 1.31100 0.08
4 2 2 2 o 39.151 19.730 180.00 1.31175 0.39
2 1 5 2 o 7.500 3.086 0.00 1.31100 0.06
4 1 3 1 o -0.009 0.169 180.00 1.29549 0.00
4 1 3 2 o -0.009 0.169 180.00 1.29549 0.00
3 3 3 1 o 37.239 11.476 0.00 1.26870 0.32
3 2 4 1 o 5.154 1.912 180.00 1.26848 0.08
3 3 3 2 o 14.052 11.476 0.00 1.26870 0.06
3 2 4 2 o 2.811 1.912 180.00 1.26848 0.02
0 0 6 1 o -0.301 0.687 0.00 1.23579 0.00
5 0 1 2 o -0.003 0.048 180.00 1.23683 0.00
4 3 1 2 o -0.002 0.379 180.00 1.23683 0.00
0 0 6 2 o 1.565 0.687 0.00 1.23579 0.00
2 2 5 1 o 10.849 4.987 0.00 1.23270 0.08
4 3 1 1 o -0.002 0.379 180.00 1.23683 0.00
5 0 1 1 o -0.003 0.048 180.00 1.23683 0.00
5 1 0 1 o 0.518 0.011 0.00 1.23005 0.00
2 2 5 2 o 25.972 4.987 0.00 1.23270 0.09
5 1 0 2 o -0.110 0.011 0.00 1.23005 0.00
4 2 3 1 o 14.152 12.912 180.00 1.21978 0.25
4 2 3 2 o 18.715 12.912 180.00 1.21978 0.16
5 1 1 1 o 17.441 7.470 0.00 1.21347 0.23
1 0 6 1 o 52.262 24.357 0.00 1.21248 0.31
5 1 1 2 o 12.741 7.470 0.00 1.21347 0.09
3 0 5 1 o 1.739 1.258 0.00 1.20956 0.01
1 0 6 2 o 33.446 24.357 0.00 1.21248 0.10
3 0 5 2 o 2.618 1.258 0.00 1.20956 0.01
4 0 4 1 o -0.119 0.047 0.00 1.19715 0.00
4 0 4 2 o 0.820 0.047 0.00 1.19715 0.00
1 1 6 1 o 30.519 26.030 0.00 1.19044 0.19
4 3 2 1 o 13.257 14.647 0.00 1.18823 0.22
5 0 2 1 o 8.128 8.982 180.00 1.18823 0.07
3 1 5 1 o 14.606 15.612 180.00 1.18768 0.21
1 1 6 2 o 24.548 26.030 0.00 1.19044 0.08
4 3 2 2 o 9.284 14.647 0.00 1.18823 0.08
5 0 2 2 o 5.690 8.982 180.00 1.18823 0.02
3 1 5 2 o 6.331 15.612 180.00 1.18768 0.05
4 1 4 1 o 5.133 1.064 180.00 1.17592 0.08
4 1 4 2 o 2.509 1.064 180.00 1.17592 0.02
5 1 2 1 o 22.336 6.045 0.00 1.16747 0.34
5 1 2 2 o 24.472 6.045 0.00 1.16747 0.19
3 3 4 1 o 15.179 27.831 0.00 1.15579 0.11
3 3 4 2 o 24.658 27.831 0.00 1.15579 0.08
5 2 1 1 o 0.745 0.110 180.00 1.15058 0.01
2 0 6 1 o 8.101 0.718 180.00 1.14974 0.05
5 2 1 2 o 0.001 0.110 180.00 1.15058 0.00
2 0 6 2 o -0.227 0.718 180.00 1.14974 0.00
2 1 6 1 o 24.799 12.530 180.00 1.13090 0.29
3 2 5 1 o 0.163 0.265 180.00 1.12853 0.00
2 1 6 2 o -0.286 12.530 180.00 1.13090 0.00
3 2 5 2 o -0.004 0.265 180.00 1.12853 0.00
5 0 3 1 o 5.131 0.110 180.00 1.11859 0.04
4 3 3 1 o 0.177 0.005 180.00 1.11859 0.00
4 2 4 1 o 1.649 0.006 0.00 1.11843 0.02
4 3 3 2 o 0.071 0.005 180.00 1.11859 0.00
5 0 3 2 o 2.029 0.110 180.00 1.11859 0.01
4 2 4 2 o 0.517 0.006 0.00 1.11843 0.00
4 4 0 1 o 11.147 10.527 0.00 1.10875 0.04
5 2 2 2 o 4.482 8.488 0.00 1.11115 0.03
5 2 2 1 o 18.892 8.488 0.00 1.11115 0.26
4 4 0 2 o -0.850 10.527 0.00 1.10875 0.00
5 1 3 1 o 10.180 3.817 0.00 1.10121 0.16
5 1 3 2 o 13.352 3.817 0.00 1.10121 0.11
4 4 1 1 o 11.365 11.059 0.00 1.09656 0.09
4 4 1 2 o 21.957 11.059 0.00 1.09656 0.08
