#------------------------------------------------------------------------------
#$Date: 2016-02-14 16:26:36 +0200 (Sun, 14 Feb 2016) $
#$Revision: 176435 $
#$URL: svn://www.crystallography.net/cod/cif/1/51/62/1516216.cif $
#------------------------------------------------------------------------------
#
# This file is available in the Crystallography Open Database (COD),
# http://www.crystallography.net/
#
# All data on this site have been placed in the public domain by the
# contributors.
#
data_1516216
loop_
_publ_author_name
'Migliorati, Valentina'
'Ballirano, Paolo'
'Gontrani, Lorenzo'
'Russina, Olga'
'Caminiti, Ruggero'
_publ_section_title
;
 Crystal polymorphism of propylammonium chloride and structural properties
 of its mixture with water.
;
_journal_issue                   41
_journal_name_full               'The journal of physical chemistry. B'
_journal_page_first              11805
_journal_page_last               11815
_journal_paper_doi               10.1021/jp206831d
_journal_volume                  115
_journal_year                    2011
_chemical_formula_sum            'C3 Cl N'
_chemical_formula_weight         85.49
_chemical_name_systematic        ' ?'
_space_group_IT_number           129
_symmetry_cell_setting           tetragonal
_symmetry_space_group_name_Hall  '-P 4a 2a'
_symmetry_space_group_name_H-M   'P 4/n m m :2'
_audit_creation_date             2011-07-21T08:58
_audit_creation_method           'from EXP file using GSAS2CIF'
_audit_update_record
' 2011-07-21T08:58  Initial CIF as created by GSAS2CIF'
_cell_angle_alpha                90.0
_cell_angle_beta                 90.0
_cell_angle_gamma                90.0
_cell_formula_units_Z            2
_cell_length_a                   6.28240(7)
_cell_length_b                   6.2824
_cell_length_c                   7.42752(18)
_cell_volume                     293.153(8)
_computing_structure_refinement  GSAS
_diffrn_radiation_probe          x-ray
_exptl_absorpt_correction_T_max  0.81791
_exptl_absorpt_correction_T_min  0.81483
_exptl_absorpt_process_details
;   GSAS Absorption/surface roughness correction: function number 0
 Debye-Scherrer absorption correction
Term (= MU.r/wave) =     0.78580E-01
Correction is not refined.
;
_pd_block_id
2011-07-21T08:58|110|paolo|Bruker_AXS_D8_Advance
_pd_calc_method                  'Rietveld Refinement'
_pd_instr_location               ' ?'
_pd_meas_2theta_range_inc        0.022
_pd_meas_2theta_range_max        89.988
_pd_meas_2theta_range_min        3.0
_pd_meas_number_of_points        3955
_pd_phase_name                   'Propylammonium chloride'
_pd_proc_2theta_range_inc        0.022
_pd_proc_2theta_range_max        89.988
_pd_proc_2theta_range_min        3.0
_pd_proc_info_datetime           2011-07-21T08:58:33
_pd_proc_info_excluded_regions   ' ?'
_pd_proc_ls_background_function
;   GSAS Background function number 1 with 30 terms.
 Shifted Chebyshev function of 1st kind
      1:    522.469     2:   -329.629     3:    25.3318     4:    86.3256    
      5:   -77.9538     6:   0.194822     7:    71.1421     8:   -78.1147    
      9:    36.2367    10:    10.1840    11:   -29.8443    12:    25.9447    
     13:   -6.90469    14:   -7.77092    15:    4.37425    16:    2.47825    
     17:   -1.78429    18:  -0.472509    19:    2.18280    20:   8.048290E-02
     21:   -3.81004    22:    2.57775    23:  -0.590255    24:   -1.62560    
     25:    2.89612    26:   -1.59055    27:  -0.672727    28:    1.43648    
     29:   -1.05119    30:   0.441921    
;
_pd_proc_ls_peak_cutoff          0.00100
_pd_proc_ls_profile_function
;
 CW Profile function number 3 with  19 terms
 Pseudovoigt profile coefficients as parameterized in
 P. Thompson, D.E. Cox & J.B. Hastings (1987). J. Appl. Cryst.,20,79-83.
 Asymmetry correction of L.W. Finger, D.E. Cox & A. P. Jephcoat (1994).
 J. Appl. Cryst.,27,892-900.
 Peak tails are ignored  where the intensity is below 0.0010 times the peak
   Aniso. broadening axis   0.0   1.0   0.0
;
_pd_proc_ls_prof_R_factor        0.0430
_pd_proc_ls_prof_wR_expected     0.0406
_pd_proc_ls_prof_wR_factor       0.0561
_pd_proc_number_of_points        3955
_pd_spec_mounting                ' ?'
_refine_ls_goodness_of_fit_all   1.40
_refine_ls_matrix_type           full
_refine_ls_number_parameters     47
_refine_ls_number_restraints     8
_refine_ls_R_Fsqd_factor         0.15073
_refine_ls_shift/su_max          0.08
_refine_ls_shift/su_mean         0.01
_reflns_d_resolution_high        1.098
_reflns_d_resolution_low         7.428
_reflns_limit_h_max              5
_reflns_limit_h_min              0
_reflns_limit_k_max              4
_reflns_limit_k_min              0
_reflns_limit_l_max              6
_reflns_limit_l_min              0
_reflns_number_total             174
_cod_data_source_file            383K.cif
_cod_data_source_block           110_publ
_cod_depositor_comments
;
The following automatic conversions were performed:

'_geom_bond_publ_flag' value 'N' changed to 'n' according to
/usr/data/users/saulius/automatic-downloads/retrospective/ACS/lib/dictionaries/cif_core.dic
dictionary named 'cif_core.dic' version 2.4.2 from 2011-04-26 (24
times).

'_geom_angle_publ_flag' value 'N' changed to 'n' according
to
/usr/data/users/saulius/automatic-downloads/retrospective/ACS/lib/dictionaries/cif_core.dic
dictionary named 'cif_core.dic' version 2.4.2 from 2011-04-26 (68
times).

Automatic conversion script
Id: cif_fix_values 2281 2013-09-26 08:29:07Z andrius 
;
_cod_original_cell_volume        293.154(10)
_cod_original_sg_symbol_H-M      'p 4/n m m'
_cod_original_formula_sum        'C3.00 Cl N'
_cod_database_code               1516216
#BEGIN Tags that were not found in dictionaries:
_gsas_exptl_extinct_corr_t_min   1.00000
_gsas_exptl_extinct_corr_t_max   1.00000
#END Tags that were not found in dictionaries
loop_
_symmetry_equiv_pos_site_id
_symmetry_equiv_pos_as_xyz
1 +x,+y,+z
2 -y+1/2,+x,+z
3 -x+1/2,-y+1/2,+z
4 +y,-x+1/2,+z
5 -x+1/2,+y,+z
6 -y+1/2,-x+1/2,+z
7 +x,-y+1/2,+z
8 +y,+x,+z
-1 -x,-y,-z
-2 +y+1/2,-x,-z
-3 +x+1/2,+y+1/2,-z
-4 -y,+x+1/2,-z
-5 +x+1/2,-y,-z
-6 +y+1/2,+x+1/2,-z
-7 -x,+y+1/2,-z
-8 -y,-x,-z
loop_
_atom_site_type_symbol
_atom_site_label
_atom_site_fract_x
_atom_site_fract_y
_atom_site_fract_z
_atom_site_occupancy
_atom_site_thermal_displace_type
_atom_site_U_iso_or_equiv
_atom_site_symmetry_multiplicity
Cl CL1 0.25 -0.25 0.0 1.0 Uiso 0.1223(9) 2
C C(1) 0.25 0.3324(6) 0.28982(32) 0.25 Uiso 0.0806(17) 8
N N 0.25 0.25 0.10512(28) 1.0 Uiso 0.0806(17) 2
C C(2) 0.25 0.1486(5) 0.42748(27) 0.25 Uiso 0.0806(17) 8
C C(3) 0.25 0.25 0.6182(4) 1.0 Uiso 0.0806(17) 2
loop_
_atom_type_symbol
_atom_type_number_in_cell
_atom_type_scat_dispersion_real
_atom_type_scat_dispersion_imag
_atom_type_scat_Cromer_Mann_a1
_atom_type_scat_Cromer_Mann_a2
_atom_type_scat_Cromer_Mann_a3
_atom_type_scat_Cromer_Mann_a4
_atom_type_scat_Cromer_Mann_b1
_atom_type_scat_Cromer_Mann_b2
_atom_type_scat_Cromer_Mann_b3
_atom_type_scat_Cromer_Mann_b4
_atom_type_scat_Cromer_Mann_c
_atom_type_scat_source
Cl 2.0 0.000 0.000 11.4604 0.01040 7.19640 1.16620 6.25560 18.5194 1.64550
47.7784 -9.5574 International_Tables_Vol_C
C 6.0 0.000 0.000 2.31000 20.8439 1.02000 10.2075 1.58860 0.56870 0.86500
51.6512 0.21560 International_Tables_Vol_C
N 2.0 0.000 0.000 12.2126 0.00570 3.13220 9.89330 2.01250 28.9975 1.16630
0.58260 -11.529 International_Tables_Vol_C
loop_
_diffrn_radiation_wavelength
_diffrn_radiation_wavelength_wt
_diffrn_radiation_type
_diffrn_radiation_wavelength_id
1.540598 1.000 K\a~1~ 1
1.544390 0.500 K\a~2~ 2
loop_
_geom_angle_atom_site_label_1
_geom_angle_atom_site_label_2
_geom_angle_atom_site_label_3
_geom_angle
_geom_angle_site_symmetry_1
_geom_angle_site_symmetry_3
_geom_angle_publ_flag
C(1) C(1) C(1) 45.0 2_555 3_555 n
C(1) C(1) C(1) 90.0 2_555 4_555 n
C(1) C(1) N 75.54(9) 2_555 1_555 n
C(1) C(1) C(2) 58.04(8) 2_555 1_555 n
C(1) C(1) C(2) 93.69(15) 2_555 2_555 n
C(1) C(1) C(2) 94.70(19) 2_555 3_555 n
C(1) C(1) C(2) 51.49(14) 2_555 4_555 n
C(1) C(1) C(1) 45.0 3_555 4_555 n
C(1) C(1) N 69.33(14) 3_555 1_555 n
C(1) C(1) C(2) 41.53(15) 3_555 1_555 n
C(1) C(1) C(2) 66.75(15) 3_555 2_555 n
C(1) C(1) C(2) 96.65(27) 3_555 3_555 n
C(1) C(1) C(2) 66.75(15) 3_555 4_555 n
C(1) C(1) N 75.54(9) 4_555 1_555 n
C(1) C(1) C(2) 58.04(8) 4_555 1_555 n
C(1) C(1) C(2) 51.49(14) 4_555 2_555 n
C(1) C(1) C(2) 94.70(19) 4_555 3_555 n
C(1) C(1) C(2) 93.69(15) 4_555 4_555 n
N C(1) C(2) 110.86(24) 1_555 1_555 n
N C(1) C(2) 126.18(23) 1_555 2_555 n
N C(1) C(2) 166.0(4) 1_555 3_555 n
N C(1) C(2) 126.18(23) 1_555 4_555 n
C(2) C(1) C(2) 35.65(16) 1_555 2_555 n
C(2) C(1) C(2) 55.12(30) 1_555 3_555 n
C(2) C(1) C(2) 35.65(16) 1_555 4_555 n
C(2) C(1) C(2) 43.20(23) 2_555 3_555 n
C(2) C(1) C(2) 58.12(28) 2_555 4_555 n
C(2) C(1) C(2) 43.20(23) 3_555 4_555 n
C(1) N C(1) 28.91(19) 1_555 2_555 n
C(1) N C(1) 41.34(27) 1_555 3_555 n
C(1) N C(1) 28.91(19) 1_555 4_555 n
C(1) N C(1) 28.91(19) 2_555 3_555 n
C(1) N C(1) 41.34(27) 2_555 4_555 n
C(1) N C(1) 28.91(19) 3_555 4_555 n
C(1) C(2) C(1) 28.27(17) 1_555 2_555 n
C(1) C(2) C(1) 41.82(31) 1_555 3_555 n
C(1) C(2) C(1) 28.27(17) 1_555 4_555 n
C(1) C(2) C(2) 58.04(8) 1_555 2_555 n
C(1) C(2) C(2) 41.53(15) 1_555 3_555 n
C(1) C(2) C(2) 58.04(8) 1_555 4_555 n
C(1) C(2) C(3) 107.33(22) 1_555 1_555 n
C(1) C(2) C(1) 33.81(25) 2_555 3_555 n
C(1) C(2) C(1) 46.51(30) 2_555 4_555 n
C(1) C(2) C(2) 86.31(15) 2_555 2_555 n
C(1) C(2) C(2) 60.94(14) 2_555 3_555 n
C(1) C(2) C(2) 51.49(14) 2_555 4_555 n
C(1) C(2) C(3) 120.81(22) 2_555 1_555 n
C(1) C(2) C(1) 33.81(25) 3_555 4_555 n
C(1) C(2) C(2) 85.30(19) 3_555 2_555 n
C(1) C(2) C(2) 83.35(27) 3_555 3_555 n
C(1) C(2) C(2) 85.30(19) 3_555 4_555 n
C(1) C(2) C(3) 149.1(4) 3_555 1_555 n
C(1) C(2) C(2) 51.49(14) 4_555 2_555 n
C(1) C(2) C(2) 60.94(14) 4_555 3_555 n
C(1) C(2) C(2) 86.31(15) 4_555 4_555 n
C(1) C(2) C(3) 120.81(22) 4_555 1_555 n
C(2) C(2) C(2) 45.0 2_555 3_555 n
C(2) C(2) C(2) 90.0 2_555 4_555 n
C(2) C(2) C(3) 73.15(8) 2_555 1_555 n
C(2) C(2) C(2) 45.0 3_555 4_555 n
C(2) C(2) C(3) 65.79(12) 3_555 1_555 n
C(2) C(2) C(3) 73.15(8) 4_555 1_555 n
C(2) C(3) C(2) 33.71(16) 1_555 2_555 n
C(2) C(3) C(2) 48.41(24) 1_555 3_555 n
C(2) C(3) C(2) 33.71(16) 1_555 4_555 n
C(2) C(3) C(2) 33.71(16) 2_555 3_555 n
C(2) C(3) C(2) 48.41(24) 2_555 4_555 n
C(2) C(3) C(2) 33.71(16) 3_555 4_555 n
loop_
_geom_bond_atom_site_label_1
_geom_bond_atom_site_label_2
_geom_bond_distance
_geom_bond_site_symmetry_2
_geom_bond_publ_flag
C(1) C(1) 0.732(5) 2_555 n
C(1) C(1) 1.035(7) 3_555 n
C(1) C(1) 0.732(5) 4_555 n
C(1) N 1.4662(32) 1_555 n
C(1) C(2) 1.542(4) 1_555 n
C(1) C(2) 1.3111(32) 2_555 n
C(1) C(2) 1.0294(31) 3_555 n
C(1) C(2) 1.3111(32) 4_555 n
N C(1) 1.4662(32) 1_555 n
N C(1) 1.4662(32) 2_555 n
N C(1) 1.4662(32) 3_555 n
N C(1) 1.4662(32) 4_555 n
C(2) C(1) 1.542(4) 1_555 n
C(2) C(1) 1.3111(32) 2_555 n
C(2) C(1) 1.0294(31) 3_555 n
C(2) C(1) 1.3111(32) 4_555 n
C(2) C(2) 0.901(5) 2_555 n
C(2) C(2) 1.274(6) 3_555 n
C(2) C(2) 0.901(5) 4_555 n
C(2) C(3) 1.5532(33) 1_555 n
C(3) C(2) 1.5532(33) 1_555 n
C(3) C(2) 1.5532(33) 2_555 n
C(3) C(2) 1.5532(33) 3_555 n
C(3) C(2) 1.5532(33) 4_555 n
loop_
_pd_meas_counts_total
_pd_proc_ls_weight
_pd_proc_intensity_bkg_calc
_pd_calc_intensity_total
21762.0 0.0 -14237526.00000 .
20737.0 0.0 -13879035.00000 .
20071.0 0.0 -13528977.00000 .
19565.0 0.0 -13187151.00000 .
18605.0 0.0 -12853385.00000 .
18034.0 0.0 -12527499.00000 .
17469.0 0.0 -12209330.00000 .
16680.0 0.0 -11898696.00000 .
16341.0 0.0 -11595434.00000 .
15768.0 0.0 -11299386.00000 .
15272.0 0.0 -11010387.00000 .
14627.0 0.0 -10728277.00000 .
14241.0 0.0 -10452911.00000 .
13951.0 0.0 -10184141.00000 .
13618.0 0.0 -9921805.00000 .
12821.0 0.0 -9665774.00000 .
12450.0 0.0 -9415896.00000 .
12183.0 0.0 -9172053.00000 .
11876.0 0.0 -8934089.00000 .
11492.0 0.0 -8701878.00000 .
11244.0 0.0 -8475292.00000 .
10797.0 0.0 -8254202.50000 .
10698.0 0.0 -8038489.00000 .
10138.0 0.0 -7828024.00000 .
9987.0 0.0 -7622694.00000 .
9582.0 0.0 -7422384.00000 .
9380.0 0.0 -7226969.50000 .
9096.0 0.0 -7036350.00000 .
9018.0 0.0 -6850414.00000 .
8690.0 0.0 -6669052.50000 .
8594.0 0.0 -6492161.00000 .
8209.0 0.0 -6319634.00000 .
8128.0 0.0 -6151379.50000 .
8013.0 0.0 -5987293.00000 .
7843.0 0.0 -5827280.00000 .
7588.0 0.0 -5671247.50000 .
7241.0 0.0 -5519100.50000 .
7139.0 0.0 -5370752.00000 .
6931.0 0.0 -5226113.50000 .
6877.0 0.0 -5085098.00000 .
6653.0 0.0 -4947619.00000 .
6580.0 0.0 -4813598.50000 .
6522.0 0.0 -4682954.00000 .
6286.0 0.0 -4555605.50000 .
6250.0 0.0 -4431480.00000 .
6230.0 0.0 -4310495.00000 .
6041.0 0.0 -4192582.25000 .
5863.0 0.0 -4077667.00000 .
5854.0 0.0 -3965677.25000 .
5620.0 0.0 -3856546.50000 .
5665.0 0.0 -3750207.50000 .
5460.0 0.0 -3646589.25000 .
5499.0 0.0 -3545631.75000 .
5354.0 0.0 -3447273.75000 .
5238.0 0.0 -3351447.25000 .
5247.0 0.0 -3258092.25000 .
5210.0 0.0 -3167152.50000 .
5157.0 0.0 -3078573.25000 .
4974.0 0.0 -2992288.50000 .
4847.0 0.0 -2908251.00000 .
4922.0 0.0 -2826403.00000 .
4830.0 0.0 -2746694.25000 .
4555.0 0.0 -2669069.50000 .
4563.0 0.0 -2593480.25000 .
4450.0 0.0 -2519877.25000 .
4486.0 0.0 -2448212.75000 .
4408.0 0.0 -2378436.50000 .
4261.0 0.0 -2310505.50000 .
4238.0 0.0 -2244372.50000 .
4302.0 0.0 -2179996.75000 .
4218.0 0.0 -2117329.00000 .
4144.0 0.0 -2056332.12500 .
4075.0 0.0 -1996964.50000 .
3970.0 0.0 -1939186.37500 .
4017.0 0.0 -1882956.25000 .
3936.0 0.0 -1828235.50000 .
3832.0 0.0 -1774988.25000 .
3794.0 0.0 -1723177.62500 .
3651.0 0.0 -1672766.12500 .
3838.0 0.0 -1623721.12500 .
3644.0 0.0 -1576007.25000 .
3656.0 0.0 -1529590.75000 .
3591.0 0.0 -1484440.50000 .
3514.0 0.0 -1440522.37500 .
3568.0 0.0 -1397807.00000 .
3485.0 0.0 -1356263.75000 .
3550.0 0.0 -1315861.25000 .
3428.0 0.0 -1276573.62500 .
3347.0 0.0 -1238370.25000 .
3414.0 0.0 -1201223.62500 .
3361.0 0.0 -1165106.50000 .
3378.0 0.0 -1129992.87500 .
3302.0 0.0 -1095858.62500 .
3266.0 0.0 -1062677.25000 .
3265.0 0.0 -1030423.18750 .
3234.0 0.0 -999073.12500 .
3129.0 0.0 -968605.25000 .
3156.0 0.0 -938993.93750 .
3185.0 0.0 -910219.37500 .
3085.0 0.0 -882259.56250 .
2971.0 0.0 -855091.31250 .
3070.0 0.0 -828695.68750 .
3041.0 0.0 -803050.50000 .
2960.0 0.0 -778139.25000 .
2927.0 0.0 -753941.62500 .
2910.0 0.0 -730435.50000 .
2894.0 0.0 -707606.75000 .
2805.0 0.0 -685434.43750 .
2816.0 0.0 -663903.25000 .
2806.0 0.0 -642995.87500 .
2749.0 0.0 -622694.37500 .
2731.0 0.0 -602984.25000 .
2784.0 0.0 -583847.50000 .
2705.0 0.0 -565270.75000 .
2794.0 0.0 -547239.18750 .
2630.0 0.0 -529735.43750 .
2685.0 0.0 -512748.12500 .
2693.0 0.0 -496261.12500 .
2562.0 0.0 -480262.53125 .
2623.0 0.0 -464739.00000 .
2573.0 0.0 -449675.34375 .
2623.0 0.0 -435061.65625 .
2571.0 0.0 -420884.12500 .
2498.0 0.0 -407131.21875 .
2524.0 0.0 -393791.81250 .
2457.0 0.0 -380852.96875 .
2538.0 0.0 -368305.40625 .
2433.0 0.0 -356136.59375 .
2397.0 0.0 -344337.09375 .
2444.0 0.0 -332897.18750 .
2445.0 0.0 -321805.00000 .
2348.0 0.0 -311052.62500 .
2356.0 0.0 -300628.87500 .
2316.0 0.0 -290525.78125 .
2316.0 0.0 -280734.50000 .
2350.0 0.0 -271244.84375 .
2346.0 0.0 -262049.43750 .
2283.0 0.0 -253139.15625 .
2301.0 0.0 -244506.48438 .
2260.0 0.0 -236143.79688 .
2255.0 0.0 -228042.18750 .
2145.0 0.0 -220195.23438 .
2180.0 0.0 -212594.56250 .
2183.0 0.0 -205234.10938 .
2139.0 0.0 -198107.07813 .
2194.0 0.0 -191205.46875 .
2072.0 0.0 -184524.06250 .
2068.0 0.0 -178055.32813 .
2169.0 0.0 -171793.64063 .
1998.0 0.0 -165733.35938 .
2043.0 0.0 -159867.45313 .
2043.0 0.0 -154191.29688 .
2031.0 0.0 -148698.40625 .
2019.0 0.0 -143384.10938 .
1995.0 0.0 -138242.96875 .
2014.0 0.0 -133269.17188 .
2016.0 0.0 -128458.40625 .
1905.0 0.0 -123805.42969 .
1926.0 0.0 -119305.92188 .
1870.0 0.0 -114955.09375 .
1975.0 0.0 -110748.15625 .
1943.0 0.0 -106681.17188 .
1984.0 0.0 -102749.55469 .
2042.0 0.0 -98949.35938 .
1829.0 0.0 -95276.91406 .
1830.0 0.0 -91727.57031 .
1842.0 0.0 -88298.23438 .
1880.0 0.0 -84984.71094 .
1796.0 0.0 -81783.69531 .
1790.0 0.0 -78691.92188 .
1776.0 0.0 -75705.56250 .
1721.0 0.0 -72821.60938 .
1678.0 0.0 -70036.66406 .
1710.0 0.0 -67347.85156 .
1738.0 0.0 -64752.18359 .
1710.0 0.0 -62246.41016 .
1662.0 0.0 -59827.95313 .
1680.0 0.0 -57493.98438 .
1634.0 0.0 -55241.77344 .
1716.0 0.0 -53068.95313 .
1637.0 0.0 -50972.55469 .
1646.0 0.0 -48950.55078 .
1706.0 0.0 -47000.21094 .
1649.0 0.0 -45119.44922 .
1600.0 0.0 -43306.05469 .
1596.0 0.0 -41557.56250 .
1658.0 0.0 -39872.17188 .
1506.0 0.0 -38247.53906 .
1591.0 0.0 -36681.92188 .
1532.0 0.0 -35173.30078 .
1541.0 0.0 -33719.66797 .
1597.0 0.0 -32319.35547 .
1422.0 0.0 -30970.49219 .
1510.0 0.0 -29671.48047 .
1561.0 0.0 -28420.64063 .
1533.0 0.0 -27216.19336 .
1469.0 0.0 -26056.75000 .
1526.0 0.0 -24940.66602 .
1517.0 0.0 -23866.58398 .
1472.0 0.0 -22833.10938 .
1492.0 0.0 -21838.67383 .
1405.0 0.0 -20882.10547 .
1478.0 0.0 -19962.00000 .
1445.0 0.0 -19077.14453 .
1402.0 0.0 -18226.39063 .
1450.0 0.0 -17408.42188 .
1410.0 0.0 -16622.20898 .
1428.0 0.0 -15866.55176 .
1398.0 0.0 -15140.44336 .
1420.0 0.0 -14442.85352 .
1362.0 0.0 -13772.67480 .
1436.0 0.0 -13129.04199 .
1365.0 0.0 -12510.95410 .
1328.0 0.0 -11917.51270 .
1458.0 0.0 -11347.85840 .
1355.0 0.0 -10801.08008 .
1297.0 0.0 -10276.40918 .
1346.0 0.0 -9772.97754 .
1334.0 0.0 -9290.06738 .
1305.0 0.0 -8826.94141 .
1299.0 0.0 -8382.80078 .
1222.0 0.0 -7957.01270 .
1278.0 0.0 -7548.85449 .
1252.0 0.0 -7157.69482 .
1303.0 0.0 -6782.90234 .
1246.0 0.0 -6423.84424 .
1287.0 0.0 -6079.94629 .
1237.0 0.0 -5750.60840 .
1219.0 0.0 -5435.31152 .
1187.0 0.0 -5133.53564 .
1172.0 0.0 -4844.69482 .
1216.0 0.0 -4568.35986 .
1134.0 0.0 -4304.00684 .
1151.0 0.0 -4051.18652 .
1157.0 0.0 -3809.47046 .
1108.0 0.0 -3578.37598 .
1075.0 0.0 -3357.53125 .
1063.0 0.0 -3146.49756 .
1130.0 0.0 -2944.91895 .
1135.0 0.0 -2752.40210 .
1090.0 0.0 -2568.58081 .
1092.0 0.0 -2393.11914 .
1070.0 0.0 -2225.65405 .
1098.0 0.0 -2065.88965 .
1053.0 0.0 -1913.51147 .
1007.0 0.0 -1768.18860 .
1047.0 0.0 -1629.66040 .
1042.0 0.0 -1497.62988 .
1076.0 0.0 -1371.83228 .
1062.0 0.0 -1252.01025 .
1004.0 0.0 -1137.90723 .
962.0 0.0 -1029.28955 .
961.0 0.0 -925.91144 .
1035.0 0.0 -827.56439 .
1026.0 0.0 -734.02960 .
999.0 0.0 -645.09192 .
1021.0 0.0 -560.55908 .
961.0 0.0 -480.23657 .
982.0 0.0 -403.94345 .
958.0 0.0 -331.50681 .
975.0 0.0 -262.74136 .
1031.0 0.0 -197.49831 .
946.0 0.0 -135.61275 .
928.0 0.0 -76.93459 .
935.0 0.0 -21.32347 .
927.0 0.0 31.36558 .
978.0 0.0 81.26286 .
885.0 0.0 128.50110 .
981.0 0.0 173.19737 .
954.0 0.0 215.47198 .
960.0 0.0 255.44148 .
937.0 0.0 293.21252 .
962.0 0.0 328.88885 .
968.0 0.0 362.57028 .
932.0 0.0 394.35046 .
930.0 0.0 424.32727 .
985.0 0.0 452.58237 .
885.0 0.0 479.20349 .
943.0 0.0 504.26987 .
961.0 0.0 527.85828 .
917.0 0.0 550.04315 .
907.0 0.0 570.89435 .
937.0 0.0 590.48108 .
915.0 0.0 608.86578 .
931.0 0.0 626.10925 .
923.0 0.0 642.27393 .
890.0 0.0 657.41260 .
945.0 0.0 671.58112 .
960.0 0.0 684.82977 .
932.0 0.0 697.20660 .
857.0 0.0 708.76080 .
878.0 0.0 719.53436 .
906.0 0.0 729.57111 .
916.0 0.0 738.91101 .
906.0 0.0 747.59222 .
892.0 0.0 755.65192 .
900.0 0.0 763.12451 .
897.0 0.0 770.04401 .
869.0 0.0 776.44110 .
894.0 0.0 782.34564 .
878.0 0.0 787.78729 .
916.0 0.0 792.79211 .
881.0 0.0 797.38641 .
867.0 0.0 801.59436 .
900.0 0.0 805.43909 .
915.0 0.0 808.94275 .
861.0 0.0 812.12598 .
847.0 0.0 815.00879 .
877.0 0.0 817.60950 .
876.0 0.0 819.94592 .
856.0 0.0 822.03491 .
856.0 0.0 823.89221 .
914.0 0.0 825.53284 .
868.0 0.0 826.97070 .
833.0 0.0 828.21918 .
857.0 0.0 829.29102 .
827.0 0.0 830.19788 .
832.0 0.0 830.95099 .
901.0 0.001110 831.56073 831.56036
796.0 0.001256 832.03717 832.03680
825.0 0.001212 832.38947 832.38916
838.0 0.001193 832.62640 832.62616
829.0 0.001206 832.75616 832.75598
837.0 0.001195 832.78644 832.78625
862.0 0.001160 832.72449 832.72437
831.0 0.001203 832.57697 832.57684
829.0 0.001206 832.35022 832.35016
891.0 0.001122 832.05017 832.05011
774.0 0.001292 831.68231 831.68225
788.0 0.001269 831.25183 831.25183
817.0 0.001224 830.76349 830.76349
849.0 0.001178 830.22186 830.22180
854.0 0.001171 829.63092 829.63092
802.0 0.001247 828.99469 828.99469
847.0 0.001181 828.31671 828.31671
857.0 0.001167 827.60034 827.60034
837.0 0.001195 826.84863 826.84857
822.0 0.001217 826.06445 826.06439
807.0 0.001239 825.25043 825.25031
815.0 0.001227 824.40900 824.40894
789.0 0.001267 823.54242 823.54230
859.0 0.001164 822.65265 822.65253
818.0 0.001222 821.74176 821.74164
793.0 0.001261 820.81134 820.81116
819.0 0.001221 819.86310 819.86292
804.0 0.001244 818.89844 818.89825
830.0 0.001205 817.91864 817.91840
789.0 0.001267 816.92493 816.92474
797.0 0.001255 815.91840 815.91815
789.0 0.001267 814.90009 814.89984
763.0 0.001311 813.87091 813.87067
828.0 0.001208 812.83154 812.83124
805.0 0.001242 811.78290 811.78259
799.0 0.001252 810.72552 810.72516
811.0 0.001233 809.66003 809.65973
807.0 0.001239 808.58691 808.58655
763.0 0.001311 807.50665 807.50629
807.0 0.001239 806.41980 806.41937
787.0 0.001271 805.32642 805.32605
838.0 0.001193 804.22717 804.22675
843.0 0.001186 803.12219 803.12177
797.0 0.001255 802.01172 802.01123
860.0 0.001163 800.89594 800.89545
796.0 0.001256 799.77515 799.77466
795.0 0.001258 798.64948 798.64899
833.0 0.001200 797.51910 800.58087
815.0 0.001227 796.38403 801.10217
788.0 0.001269 795.24457 800.20935
796.0 0.001256 794.10065 799.33197
779.0 0.001284 792.95258 798.47247
830.0 0.001205 791.80017 797.63330
812.0 0.001232 790.64362 796.81750
744.0 0.001344 789.48309 796.02863
791.0 0.001264 788.31848 795.27039
795.0 0.001258 787.15009 794.54736
774.0 0.001292 785.97778 793.86499
801.0 0.001248 784.80164 793.22931
767.0 0.001304 783.62177 792.64758
807.0 0.001239 782.43829 792.12866
799.0 0.001252 781.25128 791.68268
783.0 0.001277 780.06079 791.32202
864.0 0.001157 778.86676 791.06177
824.0 0.001214 777.66949 790.92017
807.0 0.001239 776.46899 790.91980
829.0 0.001206 775.26538 791.08826
812.0 0.001232 774.05884 791.46106
868.0 0.001152 772.84937 792.08264
784.0 0.001276 771.63715 793.01031
817.0 0.001224 770.42218 794.31903
873.0 0.001145 769.20490 796.10828
842.0 0.001188 767.98523 798.51318
828.0 0.001208 766.76337 801.72070
883.0 0.001133 765.53949 805.99695
808.0 0.001238 764.31384 811.73645
928.0 0.001078 763.08655 819.57336
922.0 0.001085 761.85785 830.78223
909.0 0.001100 760.62781 848.67786
880.0 0.001136 759.39679 881.85217
1002.0 0.000998 758.16492 947.72662
1172.0 0.000853 756.93243 1070.35779
1239.0 0.000807 755.69965 1271.49036
1456.0 0.000687 754.46661 1567.17102
1789.0 0.000559 753.23376 1981.92944
2354.0 0.000425 752.00116 2573.48804
3337.0 0.0002997 750.76929 3439.35254
4605.0 0.0002172 749.53821 4591.53760
5698.0 0.0001755 748.30817 5645.53662
5556.0 0.0001800 747.07965 5750.69629
4623.0 0.0002163 745.85272 4597.29834
2881.0 0.0003471 744.62781 3003.04468
1682.0 0.000595 743.40503 1815.65015
1128.0 0.000887 742.18475 1226.04822
934.0 0.001071 740.96735 996.64276
853.0 0.001172 739.75281 907.81177
777.0 0.001287 738.54181 863.17487
864.0 0.001157 737.33441 834.57581
795.0 0.001258 736.13092 814.24280
756.0 0.001323 734.93170 799.07495
776.0 0.001289 733.73688 787.36169
741.0 0.001350 732.54700 778.05298
738.0 0.001355 731.36218 770.46918
750.0 0.001333 730.18268 764.15564
742.0 0.001348 729.00891 758.79980
743.0 0.001346 727.84106 754.17938
744.0 0.001344 726.67957 750.13440
739.0 0.001353 725.52448 746.54596
720.0 0.001389 724.37622 743.32526
735.0 0.001361 723.23511 740.40454
715.0 0.001399 722.10126 737.73102
794.0 0.001259 720.97516 735.26404
743.0 0.001346 719.85693 732.97064
704.0 0.001420 718.74689 730.82483
718.0 0.001393 717.64520 728.80573
707.0 0.001414 716.55219 726.89624
748.0 0.001337 715.46814 725.08228
697.0 0.001435 714.39331 723.35217
750.0 0.001333 713.32776 721.69635
687.0 0.001456 712.27197 720.10681
690.0 0.001449 711.22601 718.57666
742.0 0.001348 710.19012 717.10016
711.0 0.001406 709.16467 715.67261
696.0 0.001437 708.14960 714.28961
702.0 0.001425 707.14539 712.94781
695.0 0.001439 706.15198 711.64392
723.0 0.001383 705.16980 710.37561
704.0 0.001420 704.19885 709.14038
679.0 0.001473 703.23944 707.93628
680.0 0.001471 702.29169 706.76154
681.0 0.001468 701.35571 702.83234
681.0 0.001468 700.43182 700.43158
671.0 0.001490 699.52002 699.51978
706.0 0.001416 698.62042 698.62024
747.0 0.001339 697.73340 697.73315
729.0 0.001372 696.85883 696.85858
700.0 0.001429 695.99695 695.99670
741.0 0.001350 695.14789 695.14764
741.0 0.001350 694.31171 694.31146
731.0 0.001368 693.48859 693.48834
664.0 0.001506 692.67847 692.67822
681.0 0.001468 691.88159 691.88141
694.0 0.001441 691.09802 691.09784
718.0 0.001393 690.32776 690.32751
742.0 0.001348 689.57092 689.57074
667.0 0.001499 688.82758 688.82739
713.0 0.001403 688.09778 688.09760
705.0 0.001418 687.38159 687.38141
655.0 0.001527 686.67896 686.67871
643.0 0.001555 685.98999 685.98981
668.0 0.001497 685.31470 685.31451
692.0 0.001445 684.65314 684.65295
706.0 0.001416 684.00537 684.00519
698.0 0.001433 683.37128 683.37109
668.0 0.001497 682.75092 682.75073
665.0 0.001504 682.14429 682.14404
674.0 0.001484 681.55139 681.55121
721.0 0.001387 680.97223 680.97205
737.0 0.001357 680.40674 680.40649
697.0 0.001435 679.85492 679.85474
733.0 0.001364 679.31677 679.31659
623.0 0.001605 678.79224 678.79199
701.0 0.001427 678.28119 678.28101
712.0 0.001404 677.78375 677.78351
709.0 0.001410 677.29974 677.29956
689.0 0.001451 676.82916 676.82898
651.0 0.001536 676.37189 676.37170
660.0 0.001515 675.92804 675.92786
672.0 0.001488 675.49731 675.49713
657.0 0.001522 675.07983 675.07959
698.0 0.001433 674.67535 674.67517
678.0 0.001475 674.28394 674.28375
695.0 0.001439 673.90546 673.90527
666.0 0.001502 673.53973 673.53955
692.0 0.001445 673.18689 673.18665
689.0 0.001451 672.84662 672.84644
720.0 0.001389 672.51892 672.51874
668.0 0.001497 672.20374 672.20355
673.0 0.001486 671.90094 671.90076
654.0 0.001529 671.61035 671.61017
668.0 0.001497 671.33197 671.33179
686.0 0.001458 671.06567 671.06549
658.0 0.001520 670.81134 670.81110
664.0 0.001506 670.56879 670.56860
662.0 0.001511 670.33801 670.33783
700.0 0.001429 670.11890 670.11871
695.0 0.001439 669.91125 669.91101
718.0 0.001393 669.71497 669.71478
674.0 0.001484 669.53003 669.52985
677.0 0.001477 669.35626 669.35602
680.0 0.001471 669.19348 669.19330
700.0 0.001429 669.04169 669.04150
676.0 0.001479 668.90070 668.90051
689.0 0.001451 668.77039 668.77020
703.0 0.001422 668.65070 668.65045
683.0 0.001464 668.54138 668.54120
651.0 0.001536 668.44244 668.44226
655.0 0.001527 668.35376 668.35358
690.0 0.001449 668.27515 668.27496
648.0 0.001543 668.20654 668.20636
689.0 0.001451 668.14777 668.14758
673.0 0.001486 668.09882 668.09863
665.0 0.001504 668.05945 668.05927
639.0 0.001565 668.02966 668.02942
658.0 0.001520 668.00928 668.00903
686.0 0.001458 667.99817 667.99792
665.0 0.001504 667.99622 667.99603
729.0 0.001372 668.00342 668.00317
707.0 0.001414 668.01953 668.01935
647.0 0.001546 668.04456 668.04437
682.0 0.001466 668.07837 668.07813
690.0 0.001449 668.12079 668.12054
647.0 0.001546 668.17175 668.17157
661.0 0.001513 668.23126 668.23102
697.0 0.001435 668.29907 668.29883
734.0 0.001362 668.37512 668.37494
617.0 0.001621 668.45941 668.45917
655.0 0.001527 668.55176 668.55151
685.0 0.001460 668.65210 668.65192
686.0 0.001458 668.76038 668.76013
679.0 0.001473 668.87646 668.87622
718.0 0.001393 669.00031 669.00006
681.0 0.001468 669.13177 669.13153
644.0 0.001553 669.27081 669.27063
621.0 0.001610 669.41742 669.41724
688.0 0.001453 669.57147 669.57129
660.0 0.001515 669.73291 669.73267
614.0 0.001629 669.90161 669.90137
654.0 0.001529 670.07758 670.07733
683.0 0.001464 670.26068 670.26050
643.0 0.001555 670.45093 670.45074
675.0 0.001481 670.64825 670.64807
649.0 0.001541 670.85260 670.85236
702.0 0.001425 671.06390 671.06372
656.0 0.001524 671.28210 671.28192
658.0 0.001520 671.50720 671.50696
621.0 0.001610 671.73914 671.73889
650.0 0.001538 671.97784 671.97760
628.0 0.001592 672.22327 672.22308
663.0 0.001508 672.47546 672.47522
689.0 0.001451 672.73431 672.73407
679.0 0.001473 672.99982 672.99957
651.0 0.001536 673.27197 673.27173
706.0 0.001416 673.55072 673.55054
687.0 0.001456 673.83606 673.83588
663.0 0.001508 674.12799 674.12775
645.0 0.001550 674.42645 674.42627
704.0 0.001420 674.73145 674.73126
647.0 0.001546 675.04303 675.04279
686.0 0.001458 675.36108 675.36090
708.0 0.001412 675.68573 675.68555
697.0 0.001435 676.01685 676.01660
679.0 0.001473 676.35449 676.35425
683.0 0.001464 676.69867 676.69843
680.0 0.001471 677.04938 677.04919
669.0 0.001495 677.40662 677.40637
667.0 0.001499 677.77039 677.77020
655.0 0.001527 678.14075 678.14050
662.0 0.001511 678.51764 678.51746
700.0 0.001429 678.90118 678.90094
662.0 0.001511 679.29132 679.29108
710.0 0.001408 679.68805 679.68787
732.0 0.001366 680.09149 680.09125
659.0 0.001517 680.50153 680.50134
705.0 0.001418 680.91833 680.91815
648.0 0.001543 681.34192 681.34167
659.0 0.001517 681.77216 681.77197
699.0 0.001431 682.20923 682.20905
584.0 0.001712 682.65320 682.65295
669.0 0.001495 683.10394 683.10376
674.0 0.001484 683.56165 683.56146
630.0 0.001587 684.02625 684.02606
682.0 0.001466 684.49786 684.49768
629.0 0.001590 684.97650 684.97632
701.0 0.001427 685.46222 685.46204
678.0 0.001475 685.95508 685.95490
672.0 0.001488 686.45502 686.45483
667.0 0.001499 686.96222 686.96198
651.0 0.001536 687.47668 687.47650
663.0 0.001508 687.99835 687.99817
669.0 0.001495 688.52747 688.52728
722.0 0.001385 689.06396 689.06378
665.0 0.001504 689.60785 689.60767
681.0 0.001468 690.15930 690.15912
709.0 0.001410 690.71826 690.71808
664.0 0.001506 691.28491 691.28473
676.0 0.001479 691.85913 691.85895
693.0 0.001443 692.44110 692.44092
665.0 0.001504 693.03088 693.03070
664.0 0.001506 693.62842 693.62823
760.0 0.001316 694.23395 694.23376
707.0 0.001414 694.84735 694.84717
657.0 0.001522 695.46869 695.46851
677.0 0.001477 696.09814 696.09796
675.0 0.001481 696.73566 696.73547
663.0 0.001508 697.38135 697.38116
709.0 0.001410 698.03528 698.03510
675.0 0.001481 698.69745 698.69727
706.0 0.001416 699.36792 699.36774
723.0 0.001383 700.04681 700.04663
711.0 0.001406 700.73413 700.73395
677.0 0.001477 701.42993 701.42975
685.0 0.001460 702.13428 702.13409
723.0 0.001383 702.84723 702.84705
697.0 0.001435 703.56879 703.56860
730.0 0.001370 704.29907 704.29889
714.0 0.001401 705.03809 705.03790
727.0 0.001376 705.78589 705.78571
746.0 0.001340 706.54254 706.54236
666.0 0.001502 707.30804 707.30792
721.0 0.001387 708.08258 708.08240
745.0 0.001342 708.86603 708.86584
707.0 0.001414 709.65845 709.65826
749.0 0.001335 710.45996 710.45984
725.0 0.001379 711.27063 711.27045
729.0 0.001372 712.09052 712.09033
730.0 0.001370 712.91949 712.91937
732.0 0.001366 713.75769 713.75757
731.0 0.001368 714.60529 714.60510
741.0 0.001350 715.46204 715.46185
692.0 0.001445 716.32825 716.32806
761.0 0.001314 717.20374 717.20355
687.0 0.001456 718.08862 718.08844
746.0 0.001340 718.98303 718.98285
702.0 0.001425 719.88678 719.88660
662.0 0.001511 720.80011 720.79993
728.0 0.001374 721.72284 721.72272
724.0 0.001381 722.65515 722.65497
690.0 0.001449 723.59692 723.59680
700.0 0.001429 724.54840 724.54828
723.0 0.001383 725.50934 725.50922
748.0 0.001337 726.47992 726.47974
676.0 0.001479 727.46008 727.45990
717.0 0.001395 728.44989 728.44977
711.0 0.001406 729.44934 729.44916
751.0 0.001332 730.45837 730.45825
716.0 0.001397 731.47705 731.47693
733.0 0.001364 732.50537 732.50519
736.0 0.001359 733.54340 733.54321
713.0 0.001403 734.59094 734.59076
734.0 0.001362 735.64819 735.64807
692.0 0.001445 736.71497 736.71484
720.0 0.001389 737.79138 737.79126
770.0 0.001299 738.87738 738.87726
772.0 0.001295 739.97308 739.97296
732.0 0.001366 741.07825 741.07813
740.0 0.001351 742.19299 745.16785
727.0 0.001376 743.31720 746.44281
784.0 0.001276 744.45111 749.21362
780.0 0.001282 745.59430 750.60687
770.0 0.001299 746.74707 752.02991
768.0 0.001302 747.90918 753.48474
748.0 0.001337 749.08069 754.97406
768.0 0.001302 750.26166 756.50079
810.0 0.001235 751.45184 758.06818
761.0 0.001314 752.65143 759.68018
837.0 0.001195 753.86011 761.34106
809.0 0.001236 755.07800 763.05646
755.0 0.001325 756.30518 764.83240
762.0 0.001312 757.54132 766.67603
772.0 0.001295 758.78650 768.59607
810.0 0.001235 760.04071 770.60297
744.0 0.001344 761.30383 772.70886
815.0 0.001227 762.57593 774.92914
831.0 0.001203 763.85681 777.28156
814.0 0.001229 765.14648 779.78906
799.0 0.001252 766.44476 782.47888
812.0 0.001232 767.75165 785.38611
792.0 0.001263 769.06720 788.55481
879.0 0.001138 770.39111 792.04108
873.0 0.001145 771.72363 795.91827
834.0 0.001199 773.06427 800.28192
822.0 0.001217 774.41321 805.26068
840.0 0.001190 775.77039 811.02979
799.0 0.001252 777.13556 817.83191
846.0 0.001182 778.50879 826.01453
862.0 0.001160 779.88983 836.08887
851.0 0.001175 781.27893 848.86816
900.0 0.001111 782.67554 865.88489
987.0 0.001013 784.07983 890.79077
995.0 0.001005 785.49182 933.15002
1102.0 0.000907 786.91107 1015.61188
1186.0 0.000843 788.33765 1183.11230
1601.0 0.000625 789.77167 1508.66443
2201.0 0.000454 791.21265 2085.79004
3021.0 0.0003310 792.66083 2978.93433
3854.0 0.0002595 794.11578 4088.56592
4693.0 0.0002131 795.57751 5015.97852
5132.0 0.0001949 797.04608 5195.69678
4857.0 0.0002059 798.52118 4538.46875
3732.0 0.0002680 800.00269 3483.95313
2653.0 0.000377 801.49060 2419.44580
1783.0 0.000561 802.98486 1651.68213
1187.0 0.000842 804.48505 1228.70605
1009.0 0.000991 805.99133 1037.46643
937.0 0.001067 807.50354 957.65649
888.0 0.001126 809.02142 920.14270
910.0 0.001099 810.54486 898.11914
857.0 0.001167 812.07397 883.23492
869.0 0.001151 813.60834 872.61877
839.0 0.001192 815.14801 864.87994
830.0 0.001205 816.69269 859.17755
840.0 0.001190 818.24231 854.95825
859.0 0.001164 819.79688 851.84534
804.0 0.001244 821.35602 849.57495
810.0 0.001235 822.91974 847.95752
847.0 0.001181 824.48798 846.85443
833.0 0.001200 826.06036 846.16193
857.0 0.001167 827.63690 845.80115
860.0 0.001163 829.21747 845.71191
849.0 0.001178 830.80194 845.84686
791.0 0.001264 832.39001 846.16870
848.0 0.001179 833.98169 846.64764
826.0 0.001211 835.57684 847.82483
797.0 0.001255 837.17523 848.57837
886.0 0.001129 838.77679 849.43176
821.0 0.001218 840.38123 850.66302
836.0 0.001196 841.98840 851.69336
837.0 0.001195 843.59851 852.79163
828.0 0.001208 845.21094 853.95038
855.0 0.001170 846.82574 855.16339
842.0 0.001188 848.44293 856.42572
843.0 0.001186 850.06201 857.73297
843.0 0.001186 851.68298 859.08167
894.0 0.001119 853.30579 860.46930
863.0 0.001159 854.93030 861.89355
805.0 0.001242 856.55615 863.35272
836.0 0.001196 858.18329 864.84607
849.0 0.001178 859.81171 866.37305
817.0 0.001224 861.44098 865.10956
857.0 0.001167 863.07123 866.83478
888.0 0.001126 864.70197 867.17535
871.0 0.001148 866.33331 869.02313
873.0 0.001145 867.96515 870.90118
883.0 0.001133 869.59705 872.81476
895.0 0.001117 871.22913 874.77124
837.0 0.001195 872.86096 876.77924
867.0 0.001153 874.49261 878.85034
867.0 0.001153 876.12384 880.99963
879.0 0.001138 877.75446 883.24683
914.0 0.001094 879.38452 885.61865
829.0 0.001206 881.01361 888.15118
880.0 0.001136 882.64166 890.89520
924.0 0.001082 884.26868 893.92371
860.0 0.001163 885.89423 897.34412
873.0 0.001145 887.51843 901.33167
898.0 0.001114 889.14087 906.22662
957.0 0.001045 890.76154 912.86536
945.0 0.001058 892.38037 923.44556
967.0 0.001034 893.99701 943.17908
1015.0 0.000985 895.61151 982.50391
1137.0 0.000880 897.22351 1058.15930
1303.0 0.000767 898.83301 1188.70947
1606.0 0.000623 900.43982 1378.34705
1869.0 0.000535 902.04388 1588.37585
2074.0 0.000482 903.64490 1727.78503
2216.0 0.000451 905.24274 1711.17273
1997.0 0.000501 906.83734 1568.37708
1634.0 0.000612 908.42871 1375.48987
1260.0 0.000794 910.01636 1190.82471
1107.0 0.000903 911.60046 1060.71082
938.0 0.001066 913.18060 989.29993
945.0 0.001058 914.75671 957.14441
975.0 0.001026 916.32892 944.15680
888.0 0.001126 917.89673 938.62695
857.0 0.001167 919.46027 935.88330
906.0 0.001104 921.01917 934.42572
864.0 0.001157 922.57343 933.73431
915.0 0.001093 924.12286 933.55975
888.0 0.001126 925.66754 933.75171
911.0 0.001098 927.20697 934.21014
963.0 0.001038 928.74133 934.86688
857.0 0.001167 930.27032 935.67371
910.0 0.001099 931.79401 936.59601
829.0 0.001206 933.31201 937.60785
907.0 0.001103 934.82452 938.69019
884.0 0.001131 936.33105 939.82819
871.0 0.001148 937.83160 941.01062
886.0 0.001129 939.32623 942.22858
887.0 0.001127 940.81500 943.47528
886.0 0.001129 942.29700 944.74445
855.0 0.001170 943.77283 946.03198
932.0 0.001073 945.24194 947.33374
913.0 0.001095 946.70459 948.64691
916.0 0.001092 948.16083 949.96924
920.0 0.001087 949.60962 951.29749
925.0 0.001081 951.05200 952.63092
884.0 0.001131 952.48682 953.96704
907.0 0.001103 953.91486 955.30542
925.0 0.001081 955.33575 956.64453
890.0 0.001124 956.74896 957.98297
843.0 0.001186 958.15491 959.32043
917.0 0.001091 959.55316 960.65564
930.0 0.001075 960.94379 961.98828
930.0 0.001075 962.32709 963.31793
902.0 0.001109 963.70203 964.64343
913.0 0.001095 965.06934 965.38965
921.0 0.001086 966.42841 966.73297
941.0 0.001063 967.77948 968.06940
955.0 0.001047 969.12274 969.12262
896.0 0.001116 970.45715 970.45703
944.0 0.001059 971.78363 971.78357
962.0 0.001040 973.10144 973.10132
983.0 0.001017 974.41077 974.41071
978.0 0.001022 975.71185 975.71173
971.0 0.001030 977.00385 977.00378
957.0 0.001045 978.28741 978.28729
975.0 0.001026 979.56195 979.56183
945.0 0.001058 980.82770 980.82764
1001.0 0.000999 982.08490 982.08478
1018.0 0.000982 983.33270 983.33258
1002.0 0.000998 984.57159 984.57147
994.0 0.001006 985.80121 985.80109
973.0 0.001028 987.02173 987.02161
979.0 0.001021 988.23334 988.23328
1041.0 0.000961 989.43512 989.43506
959.0 0.001043 990.62799 990.62793
999.0 0.001001 991.81122 991.81110
1040.0 0.000962 992.98505 992.98492
965.0 0.001036 994.14960 994.14954
979.0 0.001021 995.30432 995.30420
969.0 0.001032 996.44971 996.44958
956.0 0.001046 997.58521 997.58508
1005.0 0.000995 998.71118 998.71106
948.0 0.001055 999.82770 999.82758
947.0 0.001056 1000.93408 1000.93402
907.0 0.001103 1002.03094 1002.03082
982.0 0.001018 1003.11780 1003.11768
995.0 0.001005 1004.19489 1004.19476
1001.0 0.000999 1005.26239 1005.26227
1036.0 0.000965 1006.31952 1006.31940
957.0 0.001045 1007.36707 1007.36700
977.0 0.001024 1008.40442 1008.40436
1012.0 0.000988 1009.43195 1009.43182
996.0 0.001004 1010.44958 1010.44946
1025.0 0.000976 1011.45697 1011.45685
1012.0 0.000988 1012.45447 1012.45441
976.0 0.001025 1013.44177 1013.44171
1017.0 0.000983 1014.41913 1014.41901
1001.0 0.000999 1015.38660 1015.38654
986.0 0.001014 1016.34369 1016.34357
1011.0 0.000989 1017.29083 1017.29077
1026.0 0.000975 1018.22772 1018.22766
1077.0 0.000929 1019.15460 1019.15448
976.0 0.001025 1020.07159 1020.07147
989.0 0.001011 1020.97803 1020.97797
996.0 0.001004 1021.87469 1021.87457
974.0 0.001027 1022.76099 1022.76093
1022.0 0.000978 1023.63727 1023.63715
1054.0 0.000949 1024.50354 1024.50342
1058.0 0.000945 1025.35950 1025.35938
1010.0 0.000990 1026.20557 1026.20557
979.0 0.001021 1027.04126 1027.04126
1028.0 0.000973 1027.86707 1027.86694
946.0 0.001057 1028.68298 1028.68286
1059.0 0.000944 1029.48840 1029.48840
1018.0 0.000982 1030.28406 1030.28394
1019.0 0.000981 1031.06946 1031.06946
1055.0 0.000948 1031.84509 1031.84497
1026.0 0.000975 1032.61072 1032.61060
1113.0 0.000898 1033.36609 1033.36597
1050.0 0.000952 1034.11169 1034.11157
1026.0 0.000975 1034.84717 1034.84717
1061.0 0.000943 1035.57288 1035.57275
1073.0 0.000932 1036.28882 1036.28870
1083.0 0.000923 1036.99463 1046.49341
1051.0 0.000951 1037.69080 1047.66125
1069.0 0.000935 1038.37683 1048.85486
1067.0 0.000937 1039.05322 1054.88794
1035.0 0.000966 1039.72009 1056.38708
1081.0 0.000925 1040.37695 1057.94360
1118.0 0.000894 1041.02417 1059.56555
1180.0 0.000847 1041.66162 1061.26086
1161.0 0.000861 1042.28955 1063.03992
1111.0 0.000900 1042.90808 1064.91455
1079.0 0.000927 1043.51672 1066.89648
1118.0 0.000894 1044.11597 1069.00220
1112.0 0.000899 1044.70557 1071.24841
1094.0 0.000914 1045.28589 1073.65637
1181.0 0.000847 1045.85681 1076.25134
1118.0 0.000894 1046.41821 1079.06091
1190.0 0.000840 1046.97046 1082.12073
1162.0 0.000861 1047.51318 1085.47119
1192.0 0.000839 1048.04688 1089.16370
1209.0 0.000827 1048.57141 1094.01135
1177.0 0.000850 1049.08655 1098.61353
1181.0 0.000847 1049.59277 1104.15271
1241.0 0.000806 1050.08972 1110.02917
1234.0 0.000810 1050.57776 1116.74182
1203.0 0.000831 1051.05701 1124.47961
1157.0 0.000864 1051.52710 1133.48010
1255.0 0.000797 1051.98840 1144.06677
1265.0 0.000791 1052.44067 1156.65942
1318.0 0.000759 1052.88440 1171.83789
1225.0 0.000816 1053.31934 1190.40344
1198.0 0.000835 1053.74561 1213.47729
1260.0 0.000794 1054.16321 1242.73608
1365.0 0.000733 1054.57214 1280.81567
1370.0 0.000730 1054.97278 1332.75867
1530.0 0.000654 1055.36487 1410.67981
1581.0 0.000633 1055.74841 1547.02661
1911.0 0.000523 1056.12378 1823.65198
2484.0 0.000403 1056.49060 2413.89771
3555.0 0.0002813 1056.84937 3601.46875
5413.0 0.0001847 1057.19995 5669.29395
8020.0 0.0001247 1057.54224 8587.70117
10901.0 0.0000917 1057.87646 11664.13867
13295.0 0.0000752 1058.20264 13565.18164
13828.0 0.0000723 1058.52087 13303.72266
12146.0 0.0000823 1058.83130 11443.78027
8978.0 0.0001114 1059.13367 8914.34863
6212.0 0.0001610 1059.42834 6251.28516
4240.0 0.0002358 1059.71509 4079.79688
2607.0 0.000384 1059.99426 2681.92896
1806.0 0.000554 1060.26587 1939.99097
1529.0 0.000654 1060.52979 1597.06946
1372.0 0.000729 1060.78625 1440.23108
1268.0 0.000789 1061.03516 1356.87817
1239.0 0.000807 1061.27673 1303.29895
1262.0 0.000792 1061.51086 1264.89404
1162.0 0.000861 1061.73779 1236.16382
1250.0 0.000800 1061.95740 1214.28540
1204.0 0.000831 1062.16980 1197.54834
1167.0 0.000857 1062.37512 1184.83557
1158.0 0.000864 1062.57336 1175.44800
1110.0 0.000901 1062.76453 1169.00928
1179.0 0.000848 1062.94873 1165.45911
1209.0 0.000827 1063.12610 1165.28894
1184.0 0.000845 1063.29651 1170.36975
1238.0 0.000808 1063.46021 1186.19751
1338.0 0.000747 1063.61719 1226.15259
1329.0 0.000752 1063.76746 1316.33228
1621.0 0.000617 1063.91101 1492.90955
1986.0 0.000504 1064.04810 1778.54004
2600.0 0.000385 1064.17871 2140.16064
2789.0 0.000359 1064.30273 2459.81006
2775.0 0.000360 1064.42041 2579.86108
2590.0 0.000386 1064.53174 2458.59106
2198.0 0.000455 1064.63672 2206.17480
1873.0 0.000534 1064.73547 1901.44104
1537.0 0.000651 1064.82800 1604.77759
1361.0 0.000735 1064.91455 1380.02661
1284.0 0.000779 1064.99487 1242.69519
1118.0 0.000894 1065.06909 1172.13806
1110.0 0.000901 1065.13745 1139.31873
1195.0 0.000837 1065.19971 1123.28467
1142.0 0.000876 1065.25623 1113.85144
1053.0 0.000950 1065.30676 1107.26514
1103.0 0.000907 1065.35168 1092.54846
1134.0 0.000882 1065.39075 1089.01587
1039.0 0.000962 1065.42419 1086.19885
1114.0 0.000898 1065.45190 1079.16333
1108.0 0.000903 1065.47412 1077.49023
1107.0 0.000903 1065.49060 1076.10791
1042.0 0.000960 1065.50171 1074.95093
1073.0 0.000932 1065.50745 1073.97168
1051.0 0.000951 1065.50769 1073.13354
1030.0 0.000971 1065.50244 1072.40894
1071.0 0.000934 1065.49194 1071.77612
1068.0 0.000936 1065.47620 1071.21875
1021.0 0.000979 1065.45532 1070.72327
1136.0 0.000880 1065.42908 1070.27917
1098.0 0.000911 1065.39771 1069.87769
1084.0 0.000923 1065.36121 1069.51184
1026.0 0.000975 1065.31970 1069.17615
1071.0 0.000934 1065.27307 1068.86572
1068.0 0.000936 1065.22156 1068.57629
1074.0 0.000931 1065.16504 1068.30493
977.0 0.001024 1065.10364 1068.04858
1082.0 0.000924 1065.03723 1067.80493
1088.0 0.000919 1064.96606 1067.57202
1026.0 0.000975 1064.89001 1067.34802
1046.0 0.000956 1064.80933 1067.13171
1043.0 0.000959 1064.72375 1066.92139
1084.0 0.000923 1064.63354 1066.71619
1082.0 0.000924 1064.53857 1066.51501
1049.0 0.000953 1064.43896 1066.31714
939.0 0.001065 1064.33484 1064.98328
1065.0 0.000939 1064.22607 1064.84253
1023.0 0.000978 1064.11267 1064.69958
1063.0 0.000941 1063.99487 1063.99475
1012.0 0.000988 1063.87256 1063.87244
1057.0 0.000946 1063.74573 1063.74561
1035.0 0.000966 1063.61450 1063.61438
1086.0 0.000921 1063.47876 1063.47864
1106.0 0.000904 1063.33875 1063.33862
1052.0 0.000951 1063.19421 1063.19409
1079.0 0.000927 1063.04541 1063.04541
1087.0 0.000920 1062.89233 1062.89221
1042.0 0.000960 1062.73486 1062.73474
995.0 0.001005 1062.57324 1062.57312
1060.0 0.000943 1062.40723 1062.40710
1073.0 0.000932 1062.23706 1062.23706
1023.0 0.000978 1062.06274 1062.06262
1003.0 0.000997 1061.88403 1061.88391
1078.0 0.000928 1061.70129 1061.70117
1001.0 0.000999 1061.51428 1061.51416
1091.0 0.000917 1061.32324 1061.32312
1046.0 0.000956 1061.12793 1061.12793
1010.0 0.000990 1060.92859 1060.92847
1045.0 0.000957 1060.72510 1060.72498
967.0 0.001034 1060.51758 1060.51746
1066.0 0.000938 1060.30591 1060.30579
1069.0 0.000935 1060.09021 1060.09009
1061.0 0.000943 1059.87036 1059.87024
1059.0 0.000944 1059.64661 1059.64648
1091.0 0.000917 1059.41870 1059.41858
995.0 0.001005 1059.18689 1059.18677
1021.0 0.000979 1058.95093 1058.95081
1138.0 0.000879 1058.71094 1058.71094
1104.0 0.000906 1058.46704 1058.46692
1175.0 0.000851 1058.21912 1058.21899
1082.0 0.000924 1057.96729 1057.96716
1020.0 0.000980 1057.71130 1057.71118
1097.0 0.000912 1057.45129 1057.45129
1114.0 0.000898 1057.18750 1057.18738
1076.0 0.000929 1056.91956 1056.91956
1069.0 0.000935 1056.64783 1056.64771
1116.0 0.000896 1056.37195 1056.37183
1058.0 0.000945 1056.09204 1056.09204
1033.0 0.000968 1055.80835 1055.80823
1067.0 0.000937 1055.52051 1055.52039
1039.0 0.000962 1055.22876 1055.22876
1043.0 0.000959 1054.93311 1054.93298
1049.0 0.000953 1054.63330 1054.63318
1025.0 0.000976 1054.32959 1054.32947
1058.0 0.000945 1054.02185 1054.02185
995.0 0.001005 1053.71021 1053.71008
1036.0 0.000965 1053.39453 1053.39441
1031.0 0.000970 1053.07471 1053.07458
1047.0 0.000955 1052.75098 1052.75085
999.0 0.001001 1052.42322 1052.42310
998.0 0.001002 1052.09143 1052.09143
1000.0 0.001000 1051.75574 1051.75562
938.0 0.001066 1051.41565 1051.41565
1043.0 0.000959 1051.07190 1051.07178
1048.0 0.000954 1050.72388 1050.72375
1030.0 0.000971 1050.37183 1050.37170
950.0 0.001053 1050.01563 1050.01563
1020.0 0.000980 1049.65540 1049.65527
994.0 0.001006 1049.29102 1049.29102
1008.0 0.000992 1048.92261 1048.92249
1037.0 0.000964 1048.55005 1048.54993
927.0 0.001079 1048.17334 1048.17322
943.0 0.001060 1047.79224 1047.79224
1038.0 0.000963 1047.40723 1047.40710
964.0 0.001037 1047.01794 1047.01782
1028.0 0.000973 1046.62451 1046.62439
975.0 0.001026 1046.22693 1046.22681
1009.0 0.000991 1045.82483 1045.82483
1011.0 0.000989 1045.41882 1045.41870
984.0 0.001016 1045.00830 1045.00818
1062.0 0.000942 1044.59363 1044.59351
965.0 0.001036 1044.17468 1044.17456
1005.0 0.000995 1043.75122 1043.75122
1054.0 0.000949 1043.32373 1043.32361
1011.0 0.000989 1042.89172 1042.89160
1027.0 0.000974 1042.45532 1042.45532
1001.0 0.000999 1042.01465 1042.01453
996.0 0.001004 1041.56946 1041.56934
996.0 0.001004 1041.11987 1041.11975
1002.0 0.000998 1040.66577 1040.66577
990.0 0.001010 1040.20740 1040.20728
1022.0 0.000978 1039.74451 1039.99463
1057.0 0.000946 1039.27686 1039.53711
1040.0 0.000962 1038.80505 1039.07581
1082.0 0.000924 1038.32837 1038.73401
1025.0 0.000976 1037.84729 1038.27002
1011.0 0.000989 1037.36169 1037.80225
1028.0 0.000973 1036.87146 1037.33105
1004.0 0.000996 1036.37659 1036.85657
1020.0 0.000980 1035.87695 1036.37866
1050.0 0.000952 1035.37280 1035.89783
1009.0 0.000991 1034.86389 1035.41394
1024.0 0.000977 1034.35022 1034.92688
1006.0 0.000994 1033.83191 1034.43738
994.0 0.001006 1033.30884 1033.94519
1085.0 0.000922 1032.78101 1033.45081
1052.0 0.000951 1032.24841 1032.95435
1052.0 0.000951 1031.71082 1032.45581
995.0 0.001005 1031.16858 1031.95618
1039.0 0.000962 1030.62134 1031.45496
1015.0 0.000985 1030.06934 1030.95325
1037.0 0.000964 1029.51245 1030.45142
1043.0 0.000959 1028.95044 1029.95007
962.0 0.001040 1028.38367 1029.44958
997.0 0.001003 1027.81189 1032.75989
1087.0 0.000920 1027.23511 1032.41614
1010.0 0.000990 1026.65332 1032.08533
1034.0 0.000967 1026.06641 1033.64819
1042.0 0.000960 1025.47461 1033.42517
1064.0 0.000940 1024.87756 1033.22742
1034.0 0.000967 1024.27551 1033.05884
1052.0 0.000951 1023.66846 1032.92395
1056.0 0.000947 1023.05597 1032.82800
1051.0 0.000951 1022.43866 1032.77759
1110.0 0.000901 1021.81586 1032.78076
1061.0 0.000943 1021.18811 1032.84717
1060.0 0.000943 1020.55505 1032.98938
1006.0 0.000994 1019.91663 1033.22302
1057.0 0.000946 1019.27313 1033.56799
1082.0 0.000924 1018.62421 1034.05090
1144.0 0.000874 1017.97015 1034.70789
1047.0 0.000955 1017.31073 1035.58777
1063.0 0.000941 1016.64575 1036.76257
1107.0 0.000903 1015.97565 1038.34705
1091.0 0.000917 1015.30005 1040.57336
1033.0 0.000968 1014.61920 1044.02124
1120.0 0.000893 1013.93292 1050.24475
1135.0 0.000881 1013.24097 1062.98877
1157.0 0.000864 1012.54382 1089.49768
1217.0 0.000822 1011.84113 1139.84167
1279.0 0.000782 1011.13300 1220.75439
1350.0 0.000741 1010.41943 1324.45764
1440.0 0.000694 1009.70013 1421.95447
1413.0 0.000708 1008.97552 1471.78406
1477.0 0.000677 1008.24524 1456.85583
1580.0 0.000633 1007.50958 1403.39355
1357.0 0.000737 1006.76825 1334.91943
1295.0 0.000772 1006.02112 1258.27600
1269.0 0.000788 1005.26868 1186.83289
1195.0 0.000837 1004.51050 1134.29236
1150.0 0.000870 1003.74677 1103.87927
1107.0 0.000903 1002.97736 1091.31653
1129.0 0.000886 1002.20215 1090.21130
1123.0 0.000890 1001.42151 1095.83362
1154.0 0.000867 1000.63507 1106.10901
1138.0 0.000879 999.84308 1120.91931
1197.0 0.000835 999.04535 1141.54663
1261.0 0.000793 998.24176 1171.34021
1264.0 0.000791 997.43268 1219.22302
1394.0 0.000717 996.61761 1309.44031
1590.0 0.000629 995.79712 1499.85547
2061.0 0.000485 994.97076 1900.91785
2776.0 0.000360 994.13843 2661.72290
4200.0 0.0002381 993.30066 3874.28369
5729.0 0.0001746 992.45703 5409.27051
6838.0 0.0001462 991.60767 6823.31982
6816.0 0.0001467 990.75256 7508.84912
7079.0 0.0001413 989.89142 7240.42920
6815.0 0.0001467 989.02478 6418.29004
5285.0 0.0001892 988.15228 5379.31201
3909.0 0.0002558 987.27405 4209.84814
3136.0 0.0003189 986.39001 3093.33765
2401.0 0.000416 985.50000 2233.57739
1583.0 0.000632 984.60443 1684.65112
1248.0 0.000801 983.70288 1386.20093
1121.0 0.000892 982.79584 1240.54553
1130.0 0.000885 981.88269 1168.99548
1091.0 0.000917 980.96375 1128.63611
1061.0 0.000943 980.03925 1101.61389
1047.0 0.000955 979.10883 1081.43738
1088.0 0.000919 978.17273 1065.59216
1022.0 0.000978 977.23071 1052.80151
1052.0 0.000951 976.28278 1042.27100
1089.0 0.000918 975.32935 1033.46021
1010.0 0.000990 974.37000 1025.97363
980.0 0.001020 973.40509 1019.52881
1008.0 0.000992 972.43420 1013.91077
997.0 0.001003 971.45746 1008.95813
997.0 0.001003 970.47534 1004.54950
980.0 0.001020 969.48712 1000.58563
946.0 0.001057 968.49359 996.99207
964.0 0.001037 967.49396 993.70697
994.0 0.001006 966.48865 990.68115
986.0 0.001014 965.47784 987.87653
969.0 0.001032 964.46118 985.00684
983.0 0.001017 963.43903 982.56000
983.0 0.001017 962.41113 980.25085
970.0 0.001031 961.37732 978.06042
986.0 0.001014 960.33820 975.85254
953.0 0.001049 959.29333 973.86060
945.0 0.001058 958.24298 971.94763
1020.0 0.000980 957.18695 970.10339
962.0 0.001040 956.12512 968.31934
960.0 0.001042 955.05817 966.58923
973.0 0.001028 953.98529 964.90588
992.0 0.001008 952.90717 963.26465
890.0 0.001124 951.82349 961.66016
993.0 0.001007 950.73413 960.08838
951.0 0.001052 949.63953 958.54614
968.0 0.001033 948.53937 957.02960
965.0 0.001036 947.43396 955.53638
983.0 0.001017 946.32300 954.06360
992.0 0.001008 945.20642 952.60895
916.0 0.001092 944.08490 951.17096
941.0 0.001063 942.95782 949.74738
946.0 0.001057 941.82562 948.33685
963.0 0.001038 940.68805 946.93781
940.0 0.001064 939.54492 941.71710
965.0 0.001036 938.39703 940.48199
945.0 0.001058 937.24359 939.24646
951.0 0.001052 936.08527 938.01068
933.0 0.001072 934.92175 934.92163
914.0 0.001094 933.75281 933.75269
900.0 0.001111 932.57910 932.57898
954.0 0.001048 931.40015 931.40009
953.0 0.001049 930.21637 930.21631
912.0 0.001096 929.02747 929.02740
917.0 0.001091 927.83337 929.12225
924.0 0.001082 926.63470 927.97455
897.0 0.001115 925.43091 926.82489
986.0 0.001014 924.22247 925.67389
938.0 0.001066 923.00916 925.17468
956.0 0.001046 921.79065 924.04724
937.0 0.001067 920.56793 922.92139
970.0 0.001031 919.34009 921.79688
886.0 0.001129 918.10785 920.67493
930.0 0.001075 916.87091 919.55585
964.0 0.001037 915.62903 918.44025
937.0 0.001067 914.38293 917.32941
927.0 0.001079 913.13214 916.22388
935.0 0.001070 911.87701 915.12506
979.0 0.001021 910.61731 914.03387
908.0 0.001101 909.35291 912.95142
926.0 0.001080 908.08453 911.87994
909.0 0.001100 906.81158 910.82062
906.0 0.001104 905.53461 909.77557
945.0 0.001058 904.25323 908.74707
925.0 0.001081 902.96735 907.73737
920.0 0.001087 901.67780 906.75012
919.0 0.001088 900.38367 906.90509
884.0 0.001131 899.08588 906.01709
923.0 0.001083 897.78387 905.16614
968.0 0.001033 896.47772 904.35803
862.0 0.001160 895.16785 904.16449
994.0 0.001006 893.85388 903.48676
920.0 0.001087 892.53644 902.87872
922.0 0.001085 891.21497 902.35205
886.0 0.001129 889.88940 901.92145
925.0 0.001081 888.56061 901.60522
896.0 0.001116 887.22791 901.42566
967.0 0.001034 885.89178 901.41052
849.0 0.001178 884.55206 901.59558
976.0 0.001025 883.20844 902.02612
838.0 0.001193 881.86182 902.76080
916.0 0.001092 880.51160 903.87750
894.0 0.001119 879.15826 905.47949
930.0 0.001075 877.80139 907.70905
933.0 0.001072 876.44110 910.76495
890.0 0.001124 875.07800 914.93561
1005.0 0.000995 873.71130 920.69824
875.0 0.001143 872.34204 929.00909
963.0 0.001038 870.96948 942.27185
1028.0 0.000973 869.59357 966.90399
1055.0 0.000948 868.21521 1018.35608
1131.0 0.000884 866.83374 1126.90295
1354.0 0.000739 865.44965 1335.62390
1761.0 0.000568 864.06262 1678.37756
2206.0 0.000453 862.67261 2135.63330
2751.0 0.000364 861.28033 2598.16528
3020.0 0.0003311 859.88525 2890.13623
3061.0 0.0003267 858.48785 2896.56470
2831.0 0.000353 857.08783 2696.93164
2311.0 0.000433 855.68512 2422.24072
2030.0 0.000493 854.28040 2106.06934
1734.0 0.000577 852.87292 1761.23804
1433.0 0.000698 851.46375 1447.75061
1164.0 0.000859 850.05206 1213.44519
1050.0 0.000952 848.63788 1066.17603
941.0 0.001063 847.22211 986.99030
876.0 0.001142 845.80402 949.09418
945.0 0.001058 844.38422 931.97546
906.0 0.001104 842.96234 924.71356
902.0 0.001109 841.53827 923.25397
911.0 0.001098 840.11285 927.61554
948.0 0.001055 838.68549 941.92987
952.0 0.001050 837.25665 977.70465
1092.0 0.000916 835.82605 1058.60046
1143.0 0.000875 834.39362 1220.15198
1589.0 0.000629 832.96008 1493.59595
1981.0 0.000505 831.52472 1871.15295
2460.0 0.000407 830.08844 2271.89429
2510.0 0.000398 828.65051 2551.23633
2629.0 0.000380 827.21118 2593.60498
2516.0 0.000397 825.77094 2442.37622
2317.0 0.000432 824.32941 2215.88135
1849.0 0.000541 822.88690 1955.54822
1659.0 0.000603 821.44336 1664.26257
1430.0 0.000699 819.99847 1385.07300
1219.0 0.000820 818.55310 1165.32068
1020.0 0.000980 817.10663 1019.51093
936.0 0.001068 815.65967 936.15924
857.0 0.001167 814.21185 893.02246
880.0 0.001136 812.76300 870.68732
794.0 0.001259 811.31415 857.61969
822.0 0.001217 809.86426 848.57123
804.0 0.001244 808.41443 841.52844
844.0 0.001185 806.96375 835.70844
840.0 0.001190 805.51257 830.74420
830.0 0.001205 804.06146 826.41895
853.0 0.001172 802.60992 822.58099
794.0 0.001259 801.15839 819.12518
847.0 0.001181 799.70660 815.97107
803.0 0.001245 798.25439 813.05920
820.0 0.001220 796.80267 810.34607
802.0 0.001247 795.35083 807.79517
809.0 0.001236 793.89929 805.37982
830.0 0.001205 792.44781 803.07770
768.0 0.001302 790.99622 800.87091
765.0 0.001307 789.54553 798.74683
773.0 0.001294 788.09485 796.69238
782.0 0.001279 786.64465 794.69873
819.0 0.001221 785.19495 791.47546
780.0 0.001282 783.74561 789.62811
805.0 0.001242 782.29706 787.81903
730.0 0.001370 780.84912 785.39148
728.0 0.001374 779.40192 783.66986
831.0 0.001203 777.95551 781.97321
817.0 0.001224 776.50964 780.29840
784.0 0.001276 775.06519 778.64417
746.0 0.001340 773.62115 777.00720
769.0 0.001300 772.17865 775.38708
800.0 0.001250 770.73694 773.78137
783.0 0.001277 769.29590 772.18848
793.0 0.001261 767.85669 770.60858
727.0 0.001376 766.41833 769.03961
745.0 0.001342 764.98163 767.48132
759.0 0.001318 763.54608 765.93250
695.0 0.001439 762.11145 764.39209
767.0 0.001304 760.67902 762.86078
774.0 0.001292 759.24762 761.33679
685.0 0.001460 757.81824 759.82062
798.0 0.001253 756.39026 758.31116
703.0 0.001422 754.96368 756.80804
734.0 0.001362 753.53912 754.18579
776.0 0.001289 752.11609 752.73682
745.0 0.001342 750.69537 751.29181
710.0 0.001408 749.27631 749.84973
734.0 0.001362 747.85901 747.85895
772.0 0.001295 746.44391 746.44385
740.0 0.001351 745.03082 745.03076
771.0 0.001297 743.61987 743.61987
765.0 0.001307 742.21112 742.21106
704.0 0.001420 740.80426 740.80420
727.0 0.001376 739.39996 739.39990
768.0 0.001302 737.99799 737.99792
734.0 0.001362 736.59833 736.59827
747.0 0.001339 735.20105 735.20105
703.0 0.001422 733.80609 733.80603
757.0 0.001321 732.41406 732.41400
702.0 0.001425 731.02411 731.02411
753.0 0.001328 729.63727 729.63727
722.0 0.001385 728.25262 728.25256
734.0 0.001362 726.87067 726.87067
703.0 0.001422 725.49194 725.74988
672.0 0.001488 724.11554 724.38379
743.0 0.001346 722.74249 723.02155
678.0 0.001475 721.37201 721.66266
689.0 0.001451 720.00409 720.43579
664.0 0.001506 718.63983 719.08966
710.0 0.001408 717.27814 717.74744
664.0 0.001506 715.91998 716.40985
733.0 0.001364 714.56476 715.07666
759.0 0.001318 713.21216 713.74768
646.0 0.001548 711.86353 712.42426
693.0 0.001443 710.51764 711.10547
741.0 0.001350 709.17554 709.79236
696.0 0.001437 707.83655 708.48462
690.0 0.001449 706.50067 707.18250
735.0 0.001361 705.16846 705.88672
733.0 0.001364 703.83972 704.59741
695.0 0.001439 702.51447 703.31482
752.0 0.001330 701.19275 702.03961
727.0 0.001376 699.87439 700.77191
720.0 0.001389 698.55988 699.51276
709.0 0.001410 697.24902 698.26251
675.0 0.001481 695.94183 697.02191
682.0 0.001466 694.63843 695.79193
659.0 0.001517 693.33850 694.57312
669.0 0.001495 692.04291 693.36755
686.0 0.001458 690.75061 692.17548
679.0 0.001473 689.46252 690.99939
703.0 0.001422 688.17822 689.84094
716.0 0.001397 686.89777 688.70245
666.0 0.001502 685.62164 687.58734
724.0 0.001381 684.34912 686.49835
683.0 0.001464 683.08112 685.44067
688.0 0.001453 681.81696 684.41943
668.0 0.001497 680.55646 683.44153
670.0 0.001493 679.30078 682.51691
710.0 0.001408 678.04877 681.65656
640.0 0.001563 676.80145 680.87677
660.0 0.001515 675.55817 680.19806
671.0 0.001490 674.31873 679.64929
699.0 0.001431 673.08417 679.27185
650.0 0.001538 671.85352 679.12860
686.0 0.001458 670.62769 679.33563
676.0 0.001479 669.40594 680.16028
702.0 0.001425 668.18848 682.30231
667.0 0.001499 666.97559 687.50415
715.0 0.001399 665.76715 699.46228
723.0 0.001383 664.56323 724.25439
776.0 0.001289 663.36377 768.72021
790.0 0.001266 662.16870 835.50952
918.0 0.001089 660.97833 916.22498
979.0 0.001021 659.79254 988.47345
963.0 0.001038 658.61139 1024.47449
969.0 0.001032 657.43481 1013.92035
924.0 0.001082 656.26270 976.11053
911.0 0.001098 655.09570 930.81079
822.0 0.001217 653.93292 880.65155
833.0 0.001200 652.77502 824.17780
698.0 0.001433 651.62195 769.02063
737.0 0.001357 650.47333 724.14294
662.0 0.001511 649.32990 692.97559
645.0 0.001550 648.19092 674.04431
666.0 0.001502 647.05701 663.51038
663.0 0.001508 645.92780 657.61292
577.0 0.001733 644.80298 653.90057
644.0 0.001553 643.68365 651.15857
586.0 0.001706 642.56879 648.88287
622.0 0.001608 641.45917 646.87946
622.0 0.001608 640.35419 645.06122
639.0 0.001565 639.25385 643.38043
596.0 0.001678 638.15887 641.80670
646.0 0.001548 637.06854 640.31653
635.0 0.001575 635.98352 638.89417
634.0 0.001577 634.90326 637.52667
613.0 0.001631 633.82776 636.20453
679.0 0.001473 632.75751 634.92102
637.0 0.001570 631.69196 633.66974
640.0 0.001563 630.63184 632.44690
644.0 0.001553 629.57654 631.24817
627.0 0.001595 628.52600 630.07056
626.0 0.001597 627.48077 628.91229
632.0 0.001582 626.44049 627.77094
626.0 0.001597 625.40533 626.64502
579.0 0.001727 624.37518 625.53320
633.0 0.001580 623.34991 624.43402
637.0 0.001570 622.32990 623.34698
600.0 0.001667 621.31494 622.27100
627.0 0.001595 620.30499 621.20551
638.0 0.001567 619.30017 620.14972
631.0 0.001585 618.30029 619.10309
656.0 0.001524 617.30579 618.06561
620.0 0.001613 616.31604 617.03625
614.0 0.001629 615.33173 616.01538
607.0 0.001647 614.35236 615.00220
612.0 0.001634 613.37775 613.99609
616.0 0.001623 612.40869 612.99792
600.0 0.001667 611.44440 612.00647
580.0 0.001724 610.48560 611.02234
634.0 0.001577 609.53168 610.25873
626.0 0.001597 608.58252 609.29590
624.0 0.001603 607.63898 608.34058
623.0 0.001605 606.70013 607.39178
593.0 0.001686 605.76678 606.45026
615.0 0.001626 604.83832 605.36298
576.0 0.001736 603.91479 604.44904
568.0 0.001761 602.99652 603.54169
593.0 0.001686 602.08313 602.64087
638.0 0.001567 601.17517 601.61664
612.0 0.001634 600.27216 600.73419
616.0 0.001623 599.37396 599.85803
600.0 0.001667 598.48108 598.98883
597.0 0.001675 597.59320 598.12640
577.0 0.001733 596.71033 597.27100
573.0 0.001745 595.83258 596.42279
557.0 0.001795 594.95972 595.58191
572.0 0.001748 594.09198 594.74884
650.0 0.001538 593.22931 593.92377
628.0 0.001592 592.37158 593.10699
593.0 0.001686 591.51892 592.29907
592.0 0.001689 590.67108 591.50018
619.0 0.001616 589.82855 590.71130
567.0 0.001764 588.99072 589.93256
610.0 0.001639 588.15808 589.16510
639.0 0.001565 587.33014 588.40942
592.0 0.001689 586.50720 587.66675
550.0 0.001818 585.68945 586.93854
575.0 0.001739 584.87628 586.22571
611.0 0.001637 584.06836 585.53082
626.0 0.001597 583.26526 584.85553
622.0 0.001608 582.46667 584.20233
567.0 0.001764 581.67340 583.57538
580.0 0.001724 580.88477 582.97809
613.0 0.001631 580.10120 582.41620
621.0 0.001610 579.32239 581.89636
573.0 0.001745 578.54810 581.42706
602.0 0.001661 577.77899 581.02039
604.0 0.001656 577.01447 580.69128
565.0 0.001770 576.25494 580.46094
575.0 0.001739 575.50006 580.35858
538.0 0.001859 574.74982 580.42938
599.0 0.001669 574.00446 580.75354
629.0 0.001590 573.26379 581.51245
641.0 0.001560 572.52783 583.16595
569.0 0.001757 571.79651 586.85327
590.0 0.001695 571.06976 595.00891
657.0 0.001522 570.34784 611.76703
684.0 0.001462 569.63049 642.18707
827.0 0.001209 568.91779 689.26459
930.0 0.001075 568.20966 749.44910
1013.0 0.000987 567.50604 809.26660
979.0 0.001021 566.80719 848.13342
999.0 0.001001 566.11261 852.11499
1041.0 0.000961 565.42273 829.17047
940.0 0.001064 564.73730 797.27539
872.0 0.001147 564.05627 764.46014
756.0 0.001323 563.38000 726.37848
705.0 0.001418 562.70789 684.28088
675.0 0.001481 562.04041 644.90955
635.0 0.001575 561.37726 614.24872
600.0 0.001667 560.71826 593.06842
601.0 0.001664 560.06396 580.35962
600.0 0.001667 559.41376 573.31891
566.0 0.001767 558.76819 569.39905
610.0 0.001639 558.12671 566.97003
584.0 0.001712 557.48938 565.22260
601.0 0.001664 556.85657 563.81671
608.0 0.001645 556.22778 562.61566
598.0 0.001672 555.60352 561.55939
547.0 0.001828 554.98328 560.61377
566.0 0.001767 554.36707 559.75714
571.0 0.001751 553.75519 558.97461
529.0 0.001890 553.14740 558.25507
579.0 0.001727 552.54370 557.59076
576.0 0.001736 551.94409 556.97626
566.0 0.001767 551.34845 556.40778
543.0 0.001842 550.75696 555.88330
520.0 0.001923 550.16949 555.40186
541.0 0.001848 549.58600 554.96344
606.0 0.001650 549.00647 554.56940
547.0 0.001828 548.43079 554.22156
535.0 0.001869 547.85919 553.92377
559.0 0.001789 547.29138 553.68018
575.0 0.001739 546.72748 553.49664
592.0 0.001689 546.16742 553.38110
551.0 0.001815 545.61108 553.34314
543.0 0.001842 545.05878 553.39496
598.0 0.001672 544.51001 553.55188
575.0 0.001739 543.96521 553.83405
583.0 0.001715 543.42407 554.26678
607.0 0.001647 542.88641 554.88318
572.0 0.001748 542.35272 555.72638
533.0 0.001876 541.82245 556.85443
519.0 0.001927 541.29608 558.34503
567.0 0.001764 540.77313 560.30865
594.0 0.001684 540.25366 562.91156
571.0 0.001751 539.73798 566.44855
547.0 0.001828 539.22565 571.57422
561.0 0.001783 538.71698 579.92572
604.0 0.001656 538.21173 595.52905
555.0 0.001802 537.70984 627.00861
629.0 0.001590 537.21143 689.23181
749.0 0.001335 536.71637 801.11322
971.0 0.001030 536.22485 975.47736
1132.0 0.000883 535.73663 1204.11450
1375.0 0.000727 535.25165 1442.74927
1456.0 0.000687 534.77002 1616.25879
1524.0 0.000656 534.29163 1661.52112
1571.0 0.000637 533.81659 1591.54517
1456.0 0.000687 533.34473 1475.30884
1285.0 0.000778 532.87598 1353.28442
1038.0 0.000963 532.41046 1220.13733
991.0 0.001009 531.94812 1066.53943
863.0 0.001159 531.48895 911.09027
727.0 0.001376 531.03284 779.01233
631.0 0.001585 530.57971 682.86981
595.0 0.001681 530.12982 622.02893
568.0 0.001761 529.68274 587.67004
543.0 0.001842 529.23883 569.40692
554.0 0.001805 528.79785 559.40771
538.0 0.001859 528.35968 553.25024
523.0 0.001912 527.92462 548.89661
559.0 0.001789 527.49231 545.50574
499.0 0.002004 527.06299 542.72913
575.0 0.001739 526.63654 540.39203
556.0 0.001799 526.21271 538.38879
534.0 0.001873 525.79187 536.64722
570.0 0.001754 525.37372 535.11273
514.0 0.001946 524.95837 533.76569
535.0 0.001869 524.54572 532.53552
547.0 0.001828 524.13574 531.41736
557.0 0.001795 523.72845 530.39313
512.0 0.001953 523.32373 529.45709
524.0 0.001908 522.92181 528.57849
510.0 0.001961 522.52240 527.75671
515.0 0.001942 522.12549 526.98376
484.0 0.002066 521.73126 526.25342
508.0 0.001969 521.33948 525.56006
546.0 0.001832 520.95026 524.89923
591.0 0.001692 520.56348 524.26709
535.0 0.001869 520.17908 523.66022
537.0 0.001862 519.79718 523.07623
483.0 0.002070 519.41766 522.51257
518.0 0.001931 519.04059 521.96735
521.0 0.001919 518.66583 521.43872
492.0 0.002033 518.29333 520.92511
498.0 0.002008 517.92334 520.42560
520.0 0.001923 517.55542 519.93848
504.0 0.001984 517.18994 519.46338
513.0 0.001949 516.82660 518.99902
528.0 0.001894 516.46545 518.54474
502.0 0.001992 516.10657 518.10010
516.0 0.001938 515.74982 517.66431
477.0 0.002096 515.39526 517.23706
497.0 0.002012 515.04279 516.81793
488.0 0.002049 514.69232 516.40631
479.0 0.002088 514.34412 516.00238
505.0 0.001980 513.99786 515.60559
496.0 0.002016 513.65375 514.33160
536.0 0.001866 513.31158 513.98242
478.0 0.002092 512.97125 513.63861
530.0 0.001887 512.63312 513.30066
472.0 0.002119 512.29681 512.52246
512.0 0.001953 511.96252 512.21448
501.0 0.001996 511.63010 511.91321
482.0 0.002075 511.29950 511.61984
480.0 0.002083 510.97079 511.33630
514.0 0.001946 510.64395 511.06494
498.0 0.002008 510.31894 510.80948
532.0 0.001880 509.99570 510.57715
537.0 0.001862 509.67419 510.38419
504.0 0.001984 509.35452 510.27124
514.0 0.001946 509.03656 510.33411
530.0 0.001887 508.72031 510.76712
526.0 0.001901 508.40576 511.88712
540.0 0.001852 508.09283 514.06854
494.0 0.002024 507.78168 517.53137
522.0 0.001916 507.47205 522.03717
565.0 0.001770 507.16409 526.64532
610.0 0.001639 506.85770 529.83813
542.0 0.001845 506.55286 530.64740
529.0 0.001890 506.24969 528.88708
532.0 0.001880 505.94794 526.21600
548.0 0.001825 505.64780 523.49738
536.0 0.001866 505.34912 520.76031
539.0 0.001855 505.05182 518.26538
506.0 0.001976 504.75613 514.81677
534.0 0.001873 504.46179 511.71301
552.0 0.001812 504.16898 509.28543
539.0 0.001855 503.87753 507.59357
482.0 0.002075 503.58734 506.90533
504.0 0.001984 503.29871 506.22687
520.0 0.001923 503.01135 505.77005
502.0 0.001992 502.72537 505.42459
502.0 0.001992 502.44067 505.13477
488.0 0.002049 502.15726 504.87674
498.0 0.002008 501.87515 504.64108
516.0 0.001938 501.59433 504.42371
468.0 0.002137 501.31476 504.22269
522.0 0.001916 501.03641 504.03708
502.0 0.001992 500.75925 503.86646
500.0 0.002000 500.48331 503.71091
513.0 0.001949 500.20856 503.57083
550.0 0.001818 499.93500 503.44684
501.0 0.001996 499.66260 503.34009
545.0 0.001835 499.39127 503.25192
493.0 0.002028 499.12115 503.18408
524.0 0.001908 498.85205 503.13855
514.0 0.001946 498.58411 503.11807
489.0 0.002045 498.31723 503.12573
511.0 0.001957 498.05136 503.16537
499.0 0.002004 497.78662 503.24176
487.0 0.002053 497.52286 503.36053
499.0 0.002004 497.26016 503.52890
508.0 0.001969 496.99844 503.75592
531.0 0.001883 496.73761 504.05289
533.0 0.001876 496.47791 504.43433
516.0 0.001938 496.21906 504.91953
553.0 0.001808 495.96124 505.53354
513.0 0.001949 495.70432 506.31262
523.0 0.001912 495.44824 507.31354
551.0 0.001815 495.19318 508.64450
490.0 0.002041 494.93893 510.55530
549.0 0.001821 494.68567 513.64923
585.0 0.001709 494.43320 519.28699
550.0 0.001818 494.18155 530.08350
624.0 0.001603 493.93079 550.02332
585.0 0.001709 493.68082 583.43951
626.0 0.001597 493.43173 632.27661
770.0 0.001299 493.18341 692.60956
832.0 0.001202 492.93585 752.26685
756.0 0.001323 492.68912 792.90729
769.0 0.001300 492.44315 801.47101
803.0 0.001245 492.19791 783.71429
777.0 0.001287 491.95343 756.78827
754.0 0.001326 491.70966 730.56915
698.0 0.001433 491.46664 703.72015
668.0 0.001497 491.22433 672.66669
677.0 0.001477 490.98273 640.17133
631.0 0.001585 490.74182 614.13232
657.0 0.001522 490.50153 602.48279
567.0 0.001764 490.26199 614.23114
615.0 0.001626 490.02304 662.29047
628.0 0.001592 489.78482 763.72076
875.0 0.001143 489.54718 934.41577
1093.0 0.000915 489.31009 1175.13074
1452.0 0.000689 489.07376 1455.80298
1663.0 0.000601 488.83792 1709.27026
1633.0 0.000612 488.60278 1850.60840
1711.0 0.000584 488.36819 1840.49915
1764.0 0.000567 488.13409 1729.10645
1491.0 0.000671 487.90070 1592.46191
1184.0 0.000845 487.66776 1459.98718
1035.0 0.000966 487.43546 1315.98877
960.0 0.001042 487.20367 1146.47327
926.0 0.001080 486.97235 969.63995
775.0 0.001290 486.74164 813.58270
646.0 0.001548 486.51138 694.66083
591.0 0.001692 486.28171 615.37897
509.0 0.001965 486.05249 568.24695
541.0 0.001848 485.82373 542.29596
556.0 0.001799 485.59546 528.14569
464.0 0.002155 485.36771 519.82410
533.0 0.001876 485.14041 514.27710
503.0 0.001988 484.91357 510.14529
494.0 0.002024 484.68716 506.85785
529.0 0.001890 484.46118 504.15082
482.0 0.002075 484.23572 501.88022
493.0 0.002028 484.01059 499.94965
540.0 0.001852 483.78592 498.58340
518.0 0.001931 483.56168 497.15543
504.0 0.001984 483.33783 495.90939
508.0 0.001969 483.11441 494.81577
491.0 0.002037 482.89136 493.85095
511.0 0.001957 482.66867 493.14249
494.0 0.002024 482.44638 492.38989
537.0 0.001862 482.22449 491.72321
521.0 0.001919 482.00293 491.13437
517.0 0.001934 481.78177 490.61716
526.0 0.001901 481.56091 490.16769
479.0 0.002088 481.34048 489.78412
497.0 0.002012 481.12030 489.46588
484.0 0.002066 480.90054 489.21521
527.0 0.001898 480.68103 488.78525
464.0 0.002155 480.46188 488.69382
491.0 0.002037 480.24310 488.69064
468.0 0.002137 480.02454 488.79092
495.0 0.002020 479.80637 489.01633
527.0 0.001898 479.58844 489.27725
522.0 0.001916 479.37079 489.88348
510.0 0.001961 479.15353 490.83008
484.0 0.002066 478.93646 492.41241
470.0 0.002128 478.71976 495.33414
508.0 0.001969 478.50327 501.11099
526.0 0.001901 478.28705 512.48407
542.0 0.001845 478.07114 533.35260
577.0 0.001733 477.85544 567.54773
635.0 0.001575 477.64008 616.14368
629.0 0.001590 477.42487 674.41345
673.0 0.001486 477.20996 730.02386
663.0 0.001508 476.99530 765.63672
666.0 0.001502 476.78088 770.02179
701.0 0.001427 476.56665 749.86847
695.0 0.001439 476.35266 721.44403
660.0 0.001515 476.13892 693.98804
606.0 0.001650 475.92542 666.09033
595.0 0.001681 475.71210 633.14648
545.0 0.001835 475.49902 596.39960
527.0 0.001898 475.28613 561.54388
553.0 0.001808 475.07339 533.16144
494.0 0.002024 474.86096 512.99658
463.0 0.002160 474.64865 499.53818
484.0 0.002066 474.43658 492.38339
486.0 0.002058 474.22467 488.57465
494.0 0.002024 474.01291 486.55997
515.0 0.001942 473.80142 485.45535
479.0 0.002088 473.59006 484.45145
494.0 0.002024 473.37891 484.18021
490.0 0.002041 473.16788 484.18063
505.0 0.001980 472.95697 484.44815
494.0 0.002024 472.74637 485.01025
502.0 0.001992 472.53580 485.93555
447.0 0.002237 472.32547 487.38126
485.0 0.002062 472.11523 489.73282
527.0 0.001898 471.90515 493.92386
538.0 0.001859 471.69528 502.01422
519.0 0.001927 471.48550 517.89282
567.0 0.001764 471.27591 547.43921
615.0 0.001626 471.06644 597.14514
734.0 0.001362 470.85709 670.41559
905.0 0.001105 470.64786 762.64056
1094.0 0.000914 470.43881 857.63342
1150.0 0.000870 470.22986 928.78906
1127.0 0.000887 470.02100 952.34882
1137.0 0.000880 469.81229 929.47864
1065.0 0.000939 469.60373 884.85040
1009.0 0.000991 469.39523 839.18567
872.0 0.001147 469.18689 795.67737
775.0 0.001290 468.97864 746.42725
773.0 0.001294 468.77048 688.49512
715.0 0.001399 468.56247 629.24799
653.0 0.001531 468.35452 577.52277
553.0 0.001808 468.14670 538.23822
534.0 0.001873 467.93896 511.91150
517.0 0.001934 467.73129 496.05634
492.0 0.002033 467.52380 487.14081
504.0 0.001984 467.31631 482.14270
464.0 0.002155 467.10898 479.12201
453.0 0.002208 466.90167 477.05695
438.0 0.002283 466.69443 475.48257
478.0 0.002092 466.48737 474.19870
477.0 0.002096 466.28030 473.11252
471.0 0.002123 466.07339 472.17429
461.0 0.002169 465.86646 471.35098
489.0 0.002045 465.65961 470.61948
470.0 0.002128 465.45291 469.96234
483.0 0.002070 465.24619 469.36569
488.0 0.002049 465.03961 468.81931
441.0 0.002268 464.83304 468.31458
425.0 0.002353 464.62656 467.84497
441.0 0.002268 464.42014 467.40515
450.0 0.002222 464.21371 466.99063
507.0 0.001972 464.00745 466.59802
459.0 0.002179 463.80115 466.04718
441.0 0.002268 463.59494 465.69510
470.0 0.002128 463.38876 465.35703
510.0 0.001961 463.18265 465.03119
457.0 0.002188 462.97656 464.71616
440.0 0.002273 462.77054 464.32291
469.0 0.002132 462.56454 464.02853
455.0 0.002198 462.35858 463.74158
473.0 0.002114 462.15265 463.46121
425.0 0.002353 461.94678 463.18671
457.0 0.002188 461.74094 462.91754
466.0 0.002146 461.53506 462.65311
453.0 0.002208 461.32932 462.39304
462.0 0.002165 461.12354 462.13678
470.0 0.002128 460.91782 461.88416
473.0 0.002114 460.71207 461.63467
406.0 0.002463 460.50632 461.38812
474.0 0.002110 460.30069 461.14429
475.0 0.002105 460.09500 460.90286
476.0 0.002101 459.88940 460.66373
495.0 0.002020 459.68372 460.44040
443.0 0.002257 459.47809 460.20563
447.0 0.002237 459.27249 459.97266
438.0 0.002283 459.06686 459.74124
451.0 0.002217 458.86133 459.51151
440.0 0.002273 458.65567 459.28979
459.0 0.002179 458.45010 459.06293
443.0 0.002257 458.24451 458.83722
485.0 0.002062 458.03888 458.61264
411.0 0.002433 457.83334 458.38922
410.0 0.002439 457.62772 458.16669
455.0 0.002198 457.42212 457.94519
427.0 0.002342 457.21652 457.72455
483.0 0.002070 457.01089 457.21286
439.0 0.002278 456.80527 457.00281
460.0 0.002174 456.59964 456.79306
465.0 0.002151 456.39395 456.58368
457.0 0.002188 456.18829 456.37457
427.0 0.002342 455.98260 456.02063
453.0 0.002208 455.77689 455.81662
453.0 0.002208 455.57117 455.61273
445.0 0.002247 455.36539 455.40887
486.0 0.002058 455.15964 455.20523
450.0 0.002222 454.95380 455.00159
458.0 0.002183 454.74802 454.79822
430.0 0.002326 454.54211 454.59494
412.0 0.002427 454.33618 454.39182
423.0 0.002364 454.13031 454.18896
490.0 0.002041 453.92432 453.98627
484.0 0.002066 453.71835 453.78387
457.0 0.002188 453.51230 453.58173
419.0 0.002387 453.30618 453.38037
439.0 0.002278 453.10013 453.17899
438.0 0.002283 452.89392 452.97797
458.0 0.002183 452.68777 452.77744
429.0 0.002331 452.48151 452.57739
442.0 0.002262 452.27518 452.37827
435.0 0.002299 452.06888 452.17963
448.0 0.002232 451.86246 451.98184
448.0 0.002232 451.65607 451.78506
391.0 0.002558 451.44955 451.58939
471.0 0.002123 451.24298 451.39520
434.0 0.002304 451.03638 451.20255
450.0 0.002222 450.82974 451.01190
433.0 0.002309 450.62302 450.82370
427.0 0.002342 450.41620 450.63831
440.0 0.002273 450.20938 450.45660
456.0 0.002193 450.00247 450.27924
421.0 0.002375 449.79550 450.10745
449.0 0.002227 449.58850 449.94287
430.0 0.002326 449.38138 449.78775
428.0 0.002336 449.17419 449.64597
442.0 0.002262 448.96698 449.52591
399.0 0.002506 448.75964 449.44641
444.0 0.002252 448.55228 449.45175
443.0 0.002257 448.34482 449.63538
453.0 0.002208 448.13727 450.16519
450.0 0.002222 447.92969 451.28381
450.0 0.002222 447.72195 453.24500
440.0 0.002273 447.51425 456.16476
447.0 0.002237 447.30637 459.84296
473.0 0.002114 447.09839 463.63196
444.0 0.002252 446.89044 466.46292
450.0 0.002222 446.68231 467.31924
475.0 0.002105 446.47415 466.20322
445.0 0.002247 446.26587 464.13287
424.0 0.002358 446.05750 462.04077
485.0 0.002062 445.84906 460.17868
432.0 0.002315 445.64050 458.21384
452.0 0.002212 445.43192 455.83255
480.0 0.002083 445.22318 453.19727
426.0 0.002347 445.01437 450.68909
470.0 0.002128 444.80548 448.59155
465.0 0.002151 444.59647 447.01660
441.0 0.002268 444.38739 445.92773
439.0 0.002278 444.17816 445.20206
498.0 0.002008 443.96887 444.70505
445.0 0.002247 443.75949 444.33356
451.0 0.002217 443.55002 444.02521
455.0 0.002198 443.34042 443.97134
453.0 0.002208 443.13074 443.71854
429.0 0.002331 442.92090 443.47675
421.0 0.002375 442.71106 443.24319
449.0 0.002227 442.50101 443.01611
445.0 0.002247 442.29089 442.90442
439.0 0.002278 442.08069 442.69366
457.0 0.002188 441.87036 442.49210
427.0 0.002342 441.65994 442.30499
462.0 0.002165 441.44940 442.14056
432.0 0.002315 441.23880 442.00900
452.0 0.002212 441.02798 441.91693
489.0 0.002045 440.81711 441.86099
522.0 0.001916 440.60617 441.82220
488.0 0.002049 440.39505 441.76352
489.0 0.002045 440.18390 441.64075
510.0 0.001961 439.97253 441.43558
523.0 0.001912 439.76111 441.17743
488.0 0.002049 439.54959 440.90887
491.0 0.002037 439.33792 440.65143
437.0 0.002288 439.12619 440.40002
489.0 0.002045 438.91428 440.13806
414.0 0.002415 438.70230 439.86319
484.0 0.002066 438.49020 439.58838
447.0 0.002237 438.27795 439.32764
476.0 0.002101 438.06564 439.08911
433.0 0.002309 437.85315 438.87436
386.0 0.002591 437.64059 438.68051
461.0 0.002169 437.42792 438.50250
437.0 0.002288 437.21512 438.65338
422.0 0.002370 437.00220 438.50601
429.0 0.002331 436.78915 438.36664
464.0 0.002155 436.57599 438.23517
426.0 0.002347 436.36273 438.11209
433.0 0.002309 436.14935 437.99826
467.0 0.002141 435.93585 438.05457
426.0 0.002347 435.72223 437.96774
428.0 0.002336 435.50848 437.89453
473.0 0.002114 435.29468 437.83667
453.0 0.002208 435.08069 437.79669
435.0 0.002299 434.86664 437.77737
420.0 0.002381 434.65244 437.78232
427.0 0.002342 434.43808 437.81558
458.0 0.002183 434.22369 437.88266
448.0 0.002232 434.00916 437.99017
434.0 0.002304 433.79456 438.31943
440.0 0.002273 433.57974 438.54065
439.0 0.002278 433.36484 438.82205
437.0 0.002288 433.14990 439.20905
409.0 0.002445 432.93478 439.71341
449.0 0.002227 432.71964 440.45786
439.0 0.002278 432.50427 441.34586
419.0 0.002387 432.28885 442.59921
457.0 0.002188 432.07333 444.56918
456.0 0.002193 431.85767 448.00607
501.0 0.001996 431.64194 454.42706
482.0 0.002075 431.42606 466.42886
487.0 0.002053 431.21011 487.56848
500.0 0.002000 430.99405 521.31726
558.0 0.001792 430.77789 568.99811
644.0 0.001553 430.56165 627.28912
759.0 0.001318 430.34528 686.71301
772.0 0.001295 430.12878 732.01862
796.0 0.001256 429.91223 748.67163
755.0 0.001325 429.69559 736.08405
789.0 0.001267 429.47882 708.42706
770.0 0.001299 429.26196 679.82379
645.0 0.001550 429.04501 655.35199
682.0 0.001466 428.82800 631.14893
584.0 0.001712 428.61084 601.36493
567.0 0.001764 428.39368 566.32654
553.0 0.001808 428.17633 531.15100
513.0 0.001949 427.95892 500.64252
450.0 0.002222 427.74152 477.37915
460.0 0.002174 427.52393 461.63791
458.0 0.002183 427.30634 452.10239
418.0 0.002392 427.08856 446.85355
421.0 0.002375 426.87076 444.20148
476.0 0.002101 426.65292 443.01035
452.0 0.002212 426.43494 442.66977
494.0 0.002024 426.21698 442.93076
449.0 0.002227 425.99887 443.78622
466.0 0.002146 425.78067 445.47577
461.0 0.002169 425.56250 448.66025
465.0 0.002151 425.34418 454.80008
447.0 0.002237 425.12589 466.63034
474.0 0.002110 424.90747 488.41544
525.0 0.001905 424.68900 525.28613
550.0 0.001818 424.47049 581.14850
624.0 0.001603 424.25192 655.50897
765.0 0.001307 424.03333 740.37903
807.0 0.001239 423.81464 819.12756
887.0 0.001127 423.59592 869.25732
873.0 0.001145 423.37717 876.02759
877.0 0.001140 423.15839 847.87506
872.0 0.001147 422.93954 806.91968
729.0 0.001372 422.72067 769.09277
687.0 0.001456 422.50177 736.93036
617.0 0.001621 422.28287 702.89148
588.0 0.001701 422.06387 661.02844
587.0 0.001704 421.84491 615.45380
565.0 0.001770 421.62589 575.51227
520.0 0.001923 421.40683 549.71436
555.0 0.001802 421.18784 543.37714
539.0 0.001855 420.96875 557.40253
558.0 0.001792 420.74973 587.64484
652.0 0.001534 420.53064 625.09265
725.0 0.001379 420.31152 656.89679
700.0 0.001429 420.09250 670.42615
745.0 0.001342 419.87338 662.33167
763.0 0.001311 419.65436 641.32355
696.0 0.001437 419.43524 618.32629
628.0 0.001592 419.21619 598.58551
541.0 0.001848 418.99719 580.50800
521.0 0.001919 418.77814 559.34332
577.0 0.001733 418.55920 533.62903
523.0 0.001912 418.34018 506.40225
483.0 0.002070 418.12125 481.50113
479.0 0.002088 417.90234 461.41293
466.0 0.002146 417.68347 446.91864
427.0 0.002342 417.46466 437.42725
431.0 0.002320 417.24582 431.62143
434.0 0.002304 417.02710 428.14642
424.0 0.002358 416.80841 425.97824
422.0 0.002370 416.58978 424.48984
414.0 0.002415 416.37119 423.35437
457.0 0.002188 416.15268 422.19910
444.0 0.002252 415.93417 421.39487
427.0 0.002342 415.71585 420.68204
434.0 0.002304 415.49750 420.03989
409.0 0.002445 415.27927 419.45471
467.0 0.002141 415.06113 418.80606
370.0 0.002703 414.84302 418.30978
404.0 0.002475 414.62509 417.84625
429.0 0.002331 414.40717 417.41003
407.0 0.002457 414.18942 416.99756
434.0 0.002304 413.97171 416.60516
466.0 0.002146 413.75409 416.23044
410.0 0.002439 413.53665 415.87122
396.0 0.002525 413.31927 415.52533
442.0 0.002262 413.10208 415.19150
403.0 0.002481 412.88492 414.86832
400.0 0.002500 412.66791 414.55466
420.0 0.002381 412.45108 414.24976
387.0 0.002584 412.23434 413.95258
411.0 0.002433 412.01779 413.66278
380.0 0.002632 411.80133 413.37952
409.0 0.002445 411.58505 413.10251
420.0 0.002381 411.36893 412.83154
406.0 0.002463 411.15292 412.61728
390.0 0.002564 410.93713 412.35913
430.0 0.002326 410.72147 412.10663
413.0 0.002421 410.50598 411.85983
425.0 0.002353 410.29071 411.61914
439.0 0.002278 410.07559 411.38489
406.0 0.002463 409.86066 410.86142
399.0 0.002506 409.64594 410.65405
377.0 0.002653 409.43134 410.45816
372.0 0.002688 409.21701 410.28064
399.0 0.002506 409.00287 410.13712
418.0 0.002392 408.78894 410.06033
389.0 0.002571 408.57523 409.95248
403.0 0.002481 408.36169 410.22961
414.0 0.002415 408.14847 410.84650
411.0 0.002433 407.93539 411.90601
356.0 0.002809 407.72263 413.42688
448.0 0.002232 407.51001 415.27496
388.0 0.002577 407.29764 417.11935
415.0 0.002410 407.08560 418.46457
460.0 0.002174 406.87375 418.86606
412.0 0.002427 406.66223 418.29053
422.0 0.002370 406.45087 416.98026
437.0 0.002288 406.23981 415.75525
398.0 0.002513 406.02908 414.66660
413.0 0.002421 405.81857 413.64789
382.0 0.002618 405.60840 412.50125
377.0 0.002653 405.39847 411.14902
404.0 0.002475 405.18884 409.62097
411.0 0.002433 404.97952 408.25958
400.0 0.002500 404.77048 407.10141
398.0 0.002513 404.56180 406.19684
360.0 0.002778 404.35336 405.53036
406.0 0.002463 404.14529 405.04916
424.0 0.002358 403.93753 404.69168
425.0 0.002353 403.73010 404.40784
393.0 0.002545 403.52301 404.16483
395.0 0.002532 403.31625 403.94452
416.0 0.002404 403.10983 403.73819
413.0 0.002421 402.90378 403.54224
408.0 0.002451 402.69806 403.35498
382.0 0.002618 402.49271 403.17627
379.0 0.002639 402.28772 403.00626
403.0 0.002481 402.08310 402.84555
398.0 0.002513 401.87888 402.69519
392.0 0.002551 401.67499 402.55667
397.0 0.002519 401.47156 402.43195
407.0 0.002457 401.26843 402.32364
363.0 0.002755 401.06570 402.23560
401.0 0.002494 400.86346 402.17319
366.0 0.002732 400.66153 402.14490
385.0 0.002597 400.46008 402.16742
371.0 0.002695 400.25900 402.27588
378.0 0.002646 400.05832 402.54941
395.0 0.002532 399.85815 403.15356
416.0 0.002404 399.65833 404.40070
415.0 0.002410 399.45901 406.79230
423.0 0.002364 399.26007 410.98447
396.0 0.002525 399.06158 417.59421
393.0 0.002545 398.86359 426.84982
382.0 0.002618 398.66602 438.17975
422.0 0.002370 398.46896 449.96021
438.0 0.002283 398.27231 459.54633
415.0 0.002410 398.07614 464.09811
462.0 0.002165 397.88043 462.73203
428.0 0.002336 397.68524 457.51389
417.0 0.002398 397.49051 451.36429
424.0 0.002358 397.29623 446.00226
368.0 0.002717 397.10251 441.43091
410.0 0.002439 396.90927 436.47873
415.0 0.002410 396.71655 430.25430
429.0 0.002331 396.52432 423.12268
392.0 0.002551 396.33261 416.07190
409.0 0.002445 396.14139 409.93942
381.0 0.002625 395.95074 405.16629
412.0 0.002427 395.76059 401.79422
424.0 0.002358 395.57095 399.58890
386.0 0.002591 395.38190 398.20401
395.0 0.002532 395.19333 397.32361
389.0 0.002571 395.00540 396.72260
382.0 0.002618 394.81793 396.26724
416.0 0.002404 394.63110 395.88876
411.0 0.002433 394.44476 395.54898
380.0 0.002632 394.25897 395.23886
345.0 0.002899 394.07382 394.95349
362.0 0.002762 393.88919 394.68405
377.0 0.002653 393.70520 394.42770
396.0 0.002525 393.52173 394.18198
394.0 0.002538 393.33884 393.94272
378.0 0.002646 393.15659 393.71176
410.0 0.002439 392.97491 393.48917
393.0 0.002545 392.79388 393.27228
362.0 0.002762 392.61337 393.06021
399.0 0.002506 392.43350 392.85251
418.0 0.002392 392.25427 392.64862
414.0 0.002415 392.07565 392.44830
395.0 0.002532 391.89764 392.25113
411.0 0.002433 391.72025 392.05688
402.0 0.002488 391.54349 391.86536
440.0 0.002273 391.36737 391.67645
396.0 0.002525 391.19189 391.49002
421.0 0.002375 391.01706 391.50076
408.0 0.002451 390.84286 391.32544
385.0 0.002597 390.66928 391.15280
386.0 0.002591 390.49640 390.98300
381.0 0.002625 390.32416 390.81604
383.0 0.002611 390.15256 390.65222
394.0 0.002538 389.98166 390.58786
395.0 0.002532 389.81137 390.43442
377.0 0.002653 389.64185 390.28574
376.0 0.002660 389.47290 390.14310
388.0 0.002577 389.30472 390.00961
379.0 0.002639 389.13715 389.89166
431.0 0.002320 388.97025 389.80280
427.0 0.002342 388.80411 389.76840
404.0 0.002475 388.63861 389.82980
411.0 0.002433 388.47385 390.04257
393.0 0.002545 388.30972 390.46243
382.0 0.002618 388.14633 391.11795
397.0 0.002519 387.98367 391.97675
412.0 0.002427 387.82166 392.92010
422.0 0.002370 387.66043 393.73792
430.0 0.002326 387.49985 394.17493
392.0 0.002551 387.34003 394.08542
394.0 0.002538 387.18091 393.58023
391.0 0.002558 387.02249 392.91623
430.0 0.002326 386.86484 392.24194
412.0 0.002427 386.70786 391.71683
374.0 0.002674 386.55167 391.21640
417.0 0.002398 386.39618 390.63165
412.0 0.002427 386.24142 389.93979
374.0 0.002674 386.08743 389.21112
399.0 0.002506 385.93417 388.50592
377.0 0.002653 385.78162 387.93439
387.0 0.002584 385.62982 387.49454
392.0 0.002551 385.47879 387.17950
366.0 0.002732 385.32852 386.96469
383.0 0.002611 385.17899 386.82120
417.0 0.002398 385.03018 386.72565
392.0 0.002551 384.88220 386.66296
393.0 0.002545 384.73489 386.62564
393.0 0.002545 384.58844 386.61133
410.0 0.002439 384.44266 386.62036
390.0 0.002564 384.29767 386.65546
403.0 0.002481 384.15347 386.72025
342.0 0.002924 384.01001 386.81995
391.0 0.002558 383.86734 386.96127
386.0 0.002591 383.72540 387.15283
381.0 0.002625 383.58426 387.40619
388.0 0.002577 383.44394 387.73755
402.0 0.002488 383.30432 388.17188
396.0 0.002525 383.16553 388.75394
404.0 0.002475 383.02747 389.57596
400.0 0.002500 382.89023 390.83734
399.0 0.002506 382.75375 392.95764
425.0 0.002353 382.61804 396.74625
409.0 0.002445 382.48315 403.56433
382.0 0.002618 382.34900 415.34848
421.0 0.002375 382.21564 434.43588
475.0 0.002105 382.08310 461.96313
494.0 0.002024 381.95132 497.79327
579.0 0.001727 381.82034 538.66180
659.0 0.001517 381.69016 577.94226
705.0 0.001418 381.56070 606.33649
640.0 0.001563 381.43210 615.94055
685.0 0.001460 381.30426 607.04608
632.0 0.001582 381.17722 587.81769
592.0 0.001689 381.05096 567.36987
605.0 0.001653 380.92548 550.32129
542.0 0.001845 380.80084 535.98761
521.0 0.001919 380.67694 520.27490
499.0 0.002004 380.55386 500.19833
493.0 0.002028 380.43155 476.77356
452.0 0.002212 380.31003 453.18509
456.0 0.002193 380.18933 432.27536
435.0 0.002299 380.06940 415.67386
425.0 0.002353 379.95029 403.75659
424.0 0.002358 379.83194 395.91632
388.0 0.002577 379.71436 391.08963
392.0 0.002551 379.59760 388.20853
394.0 0.002538 379.48163 386.45493
394.0 0.002538 379.36646 385.31100
369.0 0.002710 379.25204 384.49026
386.0 0.002591 379.13843 383.85043
387.0 0.002584 379.02563 383.32632
391.0 0.002558 378.91357 382.87448
359.0 0.002786 378.80237 382.48920
393.0 0.002545 378.69189 382.15366
381.0 0.002625 378.58221 381.85989
375.0 0.002667 378.47333 381.60196
397.0 0.002519 378.36520 381.37506
386.0 0.002591 378.25790 381.17728
392.0 0.002551 378.15134 381.00113
376.0 0.002660 378.04556 380.85074
388.0 0.002577 377.94058 380.72263
431.0 0.002320 377.83636 380.61615
408.0 0.002451 377.73291 380.53122
380.0 0.002632 377.63028 380.46835
387.0 0.002584 377.52835 380.42859
392.0 0.002551 377.42725 380.41339
395.0 0.002532 377.32687 380.42511
367.0 0.002725 377.22729 380.46695
406.0 0.002463 377.12848 380.54300
410.0 0.002439 377.03043 380.65863
413.0 0.002421 376.93314 380.82089
351.0 0.002849 376.83658 381.03940
396.0 0.002525 376.74084 381.32684
407.0 0.002457 376.64581 381.70306
378.0 0.002646 376.55151 382.20160
384.0 0.002604 376.45804 382.88882
389.0 0.002571 376.36526 383.90637
362.0 0.002762 376.27325 385.55276
360.0 0.002778 376.18198 388.41632
397.0 0.002519 376.09143 393.52686
438.0 0.002283 376.00165 402.43277
394.0 0.002538 375.91260 417.04388
413.0 0.002421 375.82431 439.04749
470.0 0.002128 375.73669 468.98550
500.0 0.002000 375.64987 505.19571
508.0 0.001969 375.56372 543.14612
584.0 0.001712 375.47833 575.50275
544.0 0.001838 375.39368 593.87927
583.0 0.001715 375.30969 594.09058
529.0 0.001890 375.22644 580.27460
579.0 0.001727 375.14392 561.05420
537.0 0.001862 375.06210 543.16882
471.0 0.002123 374.98099 528.87250
498.0 0.002008 374.90057 515.88940
472.0 0.002119 374.82086 500.68173
466.0 0.002146 374.74188 481.32458
451.0 0.002217 374.66354 459.52335
444.0 0.002252 374.58594 438.20889
409.0 0.002445 374.50900 419.70337
397.0 0.002519 374.43274 405.14758
417.0 0.002398 374.35718 394.88144
401.0 0.002494 374.28226 388.16644
374.0 0.002674 374.20807 384.03738
379.0 0.002639 374.13449 381.56830
397.0 0.002519 374.06158 380.07269
371.0 0.002695 373.98938 379.12631
391.0 0.002558 373.91782 378.50717
392.0 0.002551 373.84692 378.17072
375.0 0.002667 373.77664 377.97833
384.0 0.002604 373.70703 377.95929
403.0 0.002481 373.63806 378.07733
372.0 0.002688 373.56973 378.26569
377.0 0.002653 373.50204 378.42316
397.0 0.002519 373.43500 378.43414
415.0 0.002410 373.36856 378.25671
410.0 0.002439 373.30273 377.87973
375.0 0.002667 373.23755 377.43613
426.0 0.002347 373.17297 377.01776
364.0 0.002747 373.10901 376.65997
369.0 0.002710 373.04565 376.34113
420.0 0.002381 372.98288 376.00848
410.0 0.002439 372.92072 375.62976
393.0 0.002545 372.85916 375.21967
344.0 0.002907 372.79819 374.81467
393.0 0.002545 372.73779 374.44730
387.0 0.002584 372.67798 374.13620
394.0 0.002538 372.61871 373.88571
365.0 0.002740 372.56006 373.68903
416.0 0.002404 372.50195 373.53366
358.0 0.002793 372.44440 373.40677
368.0 0.002717 372.38742 373.29803
390.0 0.002564 372.33096 373.20081
383.0 0.002611 372.27512 373.11111
393.0 0.002545 372.21976 373.02661
367.0 0.002725 372.16492 372.94641
356.0 0.002809 372.11066 372.86990
363.0 0.002755 372.05692 372.79660
347.0 0.002882 372.00369 372.72638
403.0 0.002481 371.95096 372.65897
367.0 0.002725 371.89877 372.59418
378.0 0.002646 371.84708 372.53204
374.0 0.002674 371.79590 372.47235
355.0 0.002817 371.74521 372.41507
366.0 0.002732 371.69501 372.36017
381.0 0.002625 371.64529 372.30762
394.0 0.002538 371.59607 372.25751
365.0 0.002740 371.54730 372.20972
367.0 0.002725 371.49905 372.16437
406.0 0.002463 371.45123 372.12155
372.0 0.002688 371.40390 372.08136
415.0 0.002410 371.35699 371.85577
361.0 0.002770 371.31055 371.82706
347.0 0.002882 371.26456 371.80112
395.0 0.002532 371.21902 371.77820
405.0 0.002469 371.17389 371.75864
361.0 0.002770 371.12918 371.74283
412.0 0.002427 371.08493 371.73105
326.0 0.003067 371.04108 371.63190
399.0 0.002506 370.99765 371.63284
383.0 0.002611 370.95462 371.63956
385.0 0.002597 370.91202 371.65311
352.0 0.002841 370.86978 371.67435
349.0 0.002865 370.82797 371.70477
361.0 0.002770 370.78653 371.74594
384.0 0.002604 370.74545 371.79996
388.0 0.002577 370.70477 371.86942
363.0 0.002755 370.66446 371.95770
350.0 0.002857 370.62451 372.06943
381.0 0.002625 370.58490 372.21146
366.0 0.002732 370.54565 372.39523
403.0 0.002481 370.50677 372.64307
366.0 0.002732 370.46823 373.00125
393.0 0.002545 370.43002 373.56534
352.0 0.002841 370.39215 374.52167
368.0 0.002717 370.35458 376.19601
388.0 0.002577 370.31738 379.08493
349.0 0.002865 370.28046 383.82129
398.0 0.002513 370.24387 391.02661
389.0 0.002571 370.20755 401.02347
411.0 0.002433 370.17154 413.49921
427.0 0.002342 370.13583 427.24411
431.0 0.002320 370.10040 440.08514
429.0 0.002331 370.06528 449.15918
417.0 0.002398 370.03040 452.16037
447.0 0.002237 369.99582 449.19086
417.0 0.002398 369.96149 442.76614
396.0 0.002525 369.92743 435.74734
392.0 0.002551 369.89362 429.83200
425.0 0.002353 369.86005 425.16592
402.0 0.002488 369.82672 420.65335
415.0 0.002410 369.79364 414.98468
416.0 0.002404 369.76077 407.85025
390.0 0.002564 369.72815 399.99869
374.0 0.002674 369.69574 392.42526
329.0 0.003040 369.66354 385.88977
385.0 0.002597 369.63156 380.78036
380.0 0.002632 369.59979 377.12546
386.0 0.002591 369.56824 374.70520
355.0 0.002817 369.53683 373.18948
333.0 0.003003 369.50565 372.26270
353.0 0.002833 369.47461 371.68448
360.0 0.002778 369.44379 371.29990
379.0 0.002639 369.41312 371.02435
377.0 0.002653 369.38263 370.80383
344.0 0.002907 369.35226 370.62027
345.0 0.002899 369.32208 370.46231
383.0 0.002611 369.29205 370.32361
372.0 0.002688 369.26218 370.20032
351.0 0.002849 369.23242 370.08975
386.0 0.002591 369.20279 369.99158
357.0 0.002801 369.17331 369.89996
374.0 0.002674 369.14395 369.81567
376.0 0.002660 369.11472 369.73773
392.0 0.002551 369.08557 369.66519
386.0 0.002591 369.05655 369.59726
358.0 0.002793 369.02762 369.53345
339.0 0.002950 368.99878 369.47308
339.0 0.002950 368.97003 369.41589
352.0 0.002841 368.94141 369.36142
374.0 0.002674 368.91284 369.30936
352.0 0.002841 368.88434 369.25937
347.0 0.002882 368.85593 369.21133
379.0 0.002639 368.82758 369.16504
386.0 0.002591 368.79929 369.12027
404.0 0.002475 368.77103 369.07678
371.0 0.002695 368.74286 369.03473
385.0 0.002597 368.71469 368.99365
386.0 0.002591 368.68661 368.95367
367.0 0.002725 368.65854 368.91461
356.0 0.002809 368.63049 368.87643
357.0 0.002801 368.60251 368.83902
358.0 0.002793 368.57452 368.80237
353.0 0.002833 368.54654 368.76630
368.0 0.002717 368.51859 368.73087
351.0 0.002849 368.49063 368.69604
373.0 0.002681 368.46271 368.66174
386.0 0.002591 368.43475 368.62793
367.0 0.002725 368.40680 368.59460
397.0 0.002519 368.37881 368.56165
390.0 0.002564 368.35083 368.52911
343.0 0.002915 368.32281 368.53668
343.0 0.002915 368.29480 368.50607
354.0 0.002825 368.26675 368.47580
334.0 0.002994 368.23865 368.44592
376.0 0.002660 368.21051 368.41644
393.0 0.002545 368.18231 368.38742
336.0 0.002976 368.15411 368.35873
408.0 0.002451 368.12582 368.35016
376.0 0.002660 368.09747 368.32288
369.0 0.002710 368.06909 368.29602
378.0 0.002646 368.04062 368.26968
366.0 0.002732 368.01212 368.24393
354.0 0.002825 367.98349 368.21866
358.0 0.002793 367.95480 368.23834
372.0 0.002688 367.92606 368.21573
367.0 0.002725 367.89719 368.19391
366.0 0.002732 367.86826 368.17310
393.0 0.002545 367.83923 368.15335
368.0 0.002717 367.81009 368.08307
341.0 0.002933 367.78085 368.06750
392.0 0.002551 367.75153 368.07562
350.0 0.002857 367.72208 368.06454
368.0 0.002717 367.69250 368.05621
379.0 0.002639 367.66284 368.05170
350.0 0.002857 367.63303 368.05267
370.0 0.002703 367.60312 368.03723
345.0 0.002899 367.57306 368.06473
392.0 0.002551 367.54288 368.12311
333.0 0.003003 367.51254 368.23718
371.0 0.002695 367.48209 368.44519
369.0 0.002710 367.45148 368.79764
376.0 0.002660 367.42075 369.34787
397.0 0.002519 367.38986 370.13202
358.0 0.002793 367.35880 371.14438
354.0 0.002825 367.32761 372.31274
405.0 0.002469 367.29623 373.48700
358.0 0.002793 367.26471 374.44916
400.0 0.002500 367.23300 374.97064
363.0 0.002755 367.20114 374.94897
399.0 0.002506 367.16910 374.50137
369.0 0.002710 367.13690 373.87100
385.0 0.002597 367.10452 373.26572
349.0 0.002865 367.07196 372.78101
400.0 0.002500 367.03918 372.39084
363.0 0.002755 367.00626 371.98764
404.0 0.002475 366.97311 371.47269
381.0 0.002625 366.93979 370.83762
423.0 0.002364 366.90631 370.15121
339.0 0.002950 366.87256 369.49573
401.0 0.002494 366.83865 368.93329
376.0 0.002660 366.80453 368.49561
351.0 0.002849 366.77020 368.18591
365.0 0.002740 366.73569 367.98718
340.0 0.002941 366.70093 367.92230
354.0 0.002825 366.66595 367.87344
363.0 0.002755 366.63080 367.86005
370.0 0.002703 366.59540 367.87411
390.0 0.002564 366.55978 367.90930
336.0 0.002976 366.52396 367.96341
384.0 0.002604 366.48788 368.03729
389.0 0.002571 366.45160 368.15817
374.0 0.002674 366.41507 368.28641
371.0 0.002695 366.37833 368.45285
364.0 0.002747 366.34134 368.68283
334.0 0.002994 366.30414 369.02332
358.0 0.002793 366.26669 369.56537
347.0 0.002882 366.22897 370.47174
398.0 0.002513 366.19104 372.00125
363.0 0.002755 366.15286 374.51297
326.0 0.003067 366.11444 378.41431
362.0 0.002762 366.07578 384.03949
366.0 0.002732 366.03683 391.47260
337.0 0.002967 365.99768 400.35312
390.0 0.002564 365.95825 409.76865
398.0 0.002513 365.91858 418.24094
392.0 0.002551 365.87863 423.98941
379.0 0.002639 365.83844 425.76508
408.0 0.002451 365.79800 423.88831
393.0 0.002545 365.75729 420.14581
397.0 0.002519 365.71634 416.49066
390.0 0.002564 365.67511 414.38370
378.0 0.002646 365.63364 414.43332
366.0 0.002732 365.59189 416.46664
370.0 0.002703 365.54987 419.87003
414.0 0.002415 365.50757 424.13605
448.0 0.002232 365.46503 428.97528
452.0 0.002212 365.42221 433.77710
438.0 0.002283 365.37912 437.34937
428.0 0.002336 365.33575 438.15656
443.0 0.002257 365.29211 435.37753
459.0 0.002179 365.24823 429.80258
406.0 0.002463 365.20404 423.23242
464.0 0.002155 365.15961 417.25296
434.0 0.002304 365.11487 412.59824
429.0 0.002331 365.06985 409.06665
369.0 0.002710 365.02460 405.74631
443.0 0.002257 364.97903 401.65671
410.0 0.002439 364.93323 396.50241
416.0 0.002404 364.88708 390.72449
407.0 0.002457 364.84073 385.00558
386.0 0.002591 364.79407 379.91025
406.0 0.002463 364.74710 375.76932
365.0 0.002740 364.69989 372.67722
345.0 0.002899 364.65240 370.53403
344.0 0.002907 364.60461 369.13721
401.0 0.002494 364.55655 368.26334
378.0 0.002646 364.50821 367.72351
364.0 0.002747 364.45959 367.38461
357.0 0.002801 364.41071 367.16418
355.0 0.002817 364.36151 367.01718
355.0 0.002817 364.31207 366.92111
351.0 0.002849 364.26230 366.86639
344.0 0.002907 364.21228 366.84958
385.0 0.002597 364.16199 366.86981
369.0 0.002710 364.11139 366.94299
389.0 0.002571 364.06055 367.08252
363.0 0.002755 364.00940 367.32684
374.0 0.002674 363.95798 367.75317
405.0 0.002469 363.90628 368.50647
402.0 0.002488 363.85428 369.83243
369.0 0.002710 363.80203 372.09775
378.0 0.002646 363.74948 375.78098
428.0 0.002336 363.69669 381.36530
376.0 0.002660 363.64355 389.17859
451.0 0.002217 363.59021 399.15710
461.0 0.002169 363.53656 410.64392
473.0 0.002114 363.48264 422.29407
428.0 0.002336 363.42844 432.11691
472.0 0.002119 363.37396 437.95377
523.0 0.001912 363.31921 438.61469
520.0 0.001923 363.26419 434.88943
504.0 0.001984 363.20889 428.94412
478.0 0.002092 363.15332 422.88571
434.0 0.002304 363.09750 417.90540
427.0 0.002342 363.04138 414.09027
430.0 0.002326 362.98499 410.60995
431.0 0.002320 362.92834 406.35748
449.0 0.002227 362.87143 400.83307
407.0 0.002457 362.81424 394.40448
399.0 0.002506 362.75681 387.84119
413.0 0.002421 362.69910 381.85361
368.0 0.002717 362.64111 376.91888
352.0 0.002841 362.58286 373.26572
372.0 0.002688 362.52438 370.91989
368.0 0.002717 362.46558 369.81512
392.0 0.002551 362.40659 369.89825
389.0 0.002571 362.34729 371.19138
385.0 0.002597 362.28775 373.77487
392.0 0.002551 362.22794 377.69873
413.0 0.002421 362.16788 382.84775
398.0 0.002513 362.10757 388.82166
481.0 0.002079 362.04703 394.83673
448.0 0.002232 361.98621 399.90283
450.0 0.002222 361.92517 402.83289
472.0 0.002119 361.86386 403.00470
491.0 0.002037 361.80228 400.85208
492.0 0.002033 361.74048 397.53348
446.0 0.002242 361.67844 394.16895
424.0 0.002358 361.61615 391.37469
425.0 0.002353 361.55362 389.24780
405.0 0.002469 361.49084 387.33490
392.0 0.002551 361.42783 385.03320
377.0 0.002653 361.36456 382.04132
384.0 0.002604 361.30109 378.52841
416.0 0.002404 361.23737 374.85358
364.0 0.002747 361.17343 371.48392
373.0 0.002681 361.10922 368.62863
356.0 0.002809 361.04483 366.40009
372.0 0.002688 360.98019 364.77954
391.0 0.002558 360.91528 363.66669
357.0 0.002801 360.85022 362.92828
377.0 0.002653 360.78488 362.41708
340.0 0.002941 360.71936 362.08087
354.0 0.002825 360.65359 361.83292
354.0 0.002825 360.58762 361.63501
359.0 0.002786 360.52142 361.46643
368.0 0.002717 360.45502 361.31583
332.0 0.003012 360.38840 361.17792
376.0 0.002660 360.32156 361.04929
375.0 0.002667 360.25452 360.92816
341.0 0.002933 360.18726 360.81317
330.0 0.003030 360.11981 360.70331
324.0 0.003086 360.05215 360.60007
375.0 0.002667 359.98428 360.49820
357.0 0.002801 359.91620 360.39948
369.0 0.002710 359.84796 360.30356
379.0 0.002639 359.77948 360.20981
358.0 0.002793 359.71085 360.11816
340.0 0.002941 359.64197 360.02829
356.0 0.002809 359.57294 359.93994
342.0 0.002924 359.50369 359.85410
324.0 0.003086 359.43427 359.76840
324.0 0.003086 359.36465 359.68488
354.0 0.002825 359.29486 359.60107
322.0 0.003106 359.22488 359.51813
354.0 0.002825 359.15472 359.43597
326.0 0.003067 359.08441 359.35443
367.0 0.002725 359.01389 359.27341
361.0 0.002770 358.94321 359.19299
324.0 0.003086 358.87231 359.11295
345.0 0.002899 358.80130 359.03403
356.0 0.002809 358.73007 358.95483
370.0 0.002703 358.65872 358.87595
404.0 0.002475 358.58719 358.79733
364.0 0.002747 358.51547 358.67078
350.0 0.002857 358.44360 358.58969
390.0 0.002564 358.37155 358.51309
317.0 0.003155 358.29941 358.43671
334.0 0.002994 358.22702 358.36041
357.0 0.002801 358.15454 358.28424
324.0 0.003086 358.08188 358.20819
361.0 0.002770 358.00906 358.10794
374.0 0.002674 357.93613 358.03052
326.0 0.003067 357.86301 357.95538
342.0 0.002924 357.78973 357.88031
380.0 0.002632 357.71637 357.80524
319.0 0.003135 357.64282 357.73019
352.0 0.002841 357.56915 357.65527
370.0 0.002703 357.49533 357.58032
356.0 0.002809 357.42136 357.50549
341.0 0.002933 357.34726 357.43076
352.0 0.002841 357.27304 357.35596
368.0 0.002717 357.19867 357.28137
343.0 0.002915 357.12418 357.20679
352.0 0.002841 357.04956 357.13235
376.0 0.002660 356.97482 357.05811
347.0 0.002882 356.89993 356.98401
327.0 0.003058 356.82495 356.91016
332.0 0.003012 356.74982 356.83664
319.0 0.003135 356.67456 356.73483
320.0 0.003125 356.59924 356.66342
395.0 0.002532 356.52374 356.59335
316.0 0.003165 356.44815 356.52570
353.0 0.002833 356.37244 356.46219
357.0 0.002801 356.29660 356.40540
355.0 0.002817 356.22067 356.35867
369.0 0.002710 356.14462 356.31088
348.0 0.002874 356.06848 356.29404
362.0 0.002762 355.99222 356.29352
364.0 0.002747 355.91583 356.30582
339.0 0.002950 355.83936 356.32285
366.0 0.002732 355.76279 356.33218
363.0 0.002755 355.68613 356.31882
377.0 0.002653 355.60934 356.27112
326.0 0.003067 355.53244 356.18976
345.0 0.002899 355.45547 356.08878
328.0 0.003049 355.37842 355.98721
347.0 0.002882 355.30127 355.90259
358.0 0.002793 355.22400 355.84875
352.0 0.002841 355.14664 355.83667
349.0 0.002865 355.06921 355.87585
330.0 0.003030 354.99167 355.97675
344.0 0.002907 354.91406 356.15048
356.0 0.002809 354.83633 356.40201
347.0 0.002882 354.75858 356.71924
368.0 0.002717 354.68069 357.08041
395.0 0.002532 354.60272 357.39709
375.0 0.002667 354.52469 357.60788
363.0 0.002755 354.44656 357.65311
390.0 0.002564 354.36835 357.53317
382.0 0.002618 354.29007 357.31680
334.0 0.002994 354.21167 357.09613
368.0 0.002717 354.13324 356.94241
400.0 0.002500 354.05472 356.89191
340.0 0.002941 353.97610 356.91254
381.0 0.002625 353.89746 356.95313
393.0 0.002545 353.81870 356.93961
382.0 0.002618 353.73990 356.81491
375.0 0.002667 353.66098 356.58499
322.0 0.003106 353.58200 356.22003
367.0 0.002725 353.50296 355.80487
370.0 0.002703 353.42386 355.39502
345.0 0.002899 353.34470 355.03781
354.0 0.002825 353.26541 354.74991
343.0 0.002915 353.18610 354.52200
342.0 0.002924 353.10672 354.32687
352.0 0.002841 353.02725 354.14655
374.0 0.002674 352.94775 353.93826
350.0 0.002857 352.86813 353.71817
360.0 0.002778 352.78848 353.49472
341.0 0.002933 352.70877 353.28210
359.0 0.002786 352.62897 353.08923
349.0 0.002865 352.54913 352.92050
352.0 0.002841 352.46918 352.77591
373.0 0.002681 352.38919 352.65204
359.0 0.002786 352.30914 352.54404
369.0 0.002710 352.22903 352.44727
354.0 0.002825 352.14886 352.35773
342.0 0.002924 352.06863 352.27277
363.0 0.002755 351.98831 352.19067
343.0 0.002915 351.90793 352.11029
326.0 0.003067 351.82751 352.03134
328.0 0.003049 351.74701 351.95334
367.0 0.002725 351.66644 351.87628
380.0 0.002632 351.58582 351.80008
349.0 0.002865 351.50513 351.72464
347.0 0.002882 351.42438 351.65009
350.0 0.002857 351.34357 351.57635
332.0 0.003012 351.26266 351.50348
370.0 0.002703 351.18170 351.43146
307.0 0.003257 351.10071 351.36047
338.0 0.002959 351.01962 351.29059
350.0 0.002857 350.93851 351.22186
305.0 0.003279 350.85727 351.15439
336.0 0.002976 350.77600 351.08835
297.0 0.003367 350.69467 351.02390
347.0 0.002882 350.61325 350.96127
339.0 0.002950 350.53177 350.90079
322.0 0.003106 350.45023 350.84247
328.0 0.003049 350.36859 350.78702
372.0 0.002688 350.28696 350.73459
333.0 0.003003 350.20517 350.68588
333.0 0.003003 350.12338 350.64157
345.0 0.002899 350.04147 350.60242
368.0 0.002717 349.95950 350.56989
326.0 0.003067 349.87747 350.54581
384.0 0.002604 349.79535 350.53372
378.0 0.002646 349.71320 350.54044
336.0 0.002976 349.63092 350.57947
350.0 0.002857 349.54858 350.67139
365.0 0.002740 349.46616 350.85605
350.0 0.002857 349.38367 351.19354
355.0 0.002817 349.30112 351.76651
338.0 0.002959 349.21848 352.67310
369.0 0.002710 349.13571 354.00519
385.0 0.002597 349.05292 355.81482
370.0 0.002703 348.97000 358.07559
386.0 0.002591 348.88705 360.64835
382.0 0.002618 348.80396 363.26627
345.0 0.002899 348.72083 365.54916
370.0 0.002703 348.63760 367.07834
361.0 0.002770 348.55429 367.59464
405.0 0.002469 348.47086 367.21509
396.0 0.002525 348.38733 366.41125
389.0 0.002571 348.30374 365.76453
384.0 0.002604 348.22003 365.77771
354.0 0.002825 348.13626 366.77136
394.0 0.002538 348.05234 368.84698
378.0 0.002646 347.96838 371.87360
378.0 0.002646 347.88428 375.53973
422.0 0.002370 347.80011 379.44525
384.0 0.002604 347.71579 383.10776
365.0 0.002740 347.63138 385.90350
405.0 0.002469 347.54688 387.16153
371.0 0.002695 347.46225 386.52774
380.0 0.002632 347.37753 384.26602
407.0 0.002457 347.29269 381.10403
377.0 0.002653 347.20776 377.82819
379.0 0.002639 347.12268 374.98999
362.0 0.002762 347.03748 372.78461
358.0 0.002793 346.95218 371.04080
328.0 0.003049 346.86673 369.34006
334.0 0.002994 346.78119 367.28134
341.0 0.002933 346.69553 364.72324
344.0 0.002907 346.60971 361.82474
392.0 0.002551 346.52377 358.81110
365.0 0.002740 346.43771 355.98688
374.0 0.002674 346.35153 353.50900
370.0 0.002703 346.26520 351.49716
343.0 0.002915 346.17871 349.96225
339.0 0.002950 346.09210 348.84857
345.0 0.002899 346.00537 348.06735
340.0 0.002941 345.91849 347.53564
363.0 0.002755 345.83142 347.15308
327.0 0.003058 345.74423 346.88013
386.0 0.002591 345.65692 346.65744
371.0 0.002695 345.56940 346.51028
338.0 0.002959 345.48178 346.34631
370.0 0.002703 345.39398 346.19659
327.0 0.003058 345.30600 346.05710
369.0 0.002710 345.21790 345.92535
321.0 0.003115 345.12961 345.79990
334.0 0.002994 345.04117 345.67963
311.0 0.003215 344.95255 345.56387
336.0 0.002976 344.86374 345.47171
342.0 0.002924 344.77478 345.36401
347.0 0.002882 344.68564 345.25949
362.0 0.002762 344.59634 345.15790
363.0 0.002755 344.50681 345.05939
312.0 0.003205 344.41711 344.96371
331.0 0.003021 344.32727 344.87164
358.0 0.002793 344.23721 344.78430
348.0 0.002874 344.14697 344.70377
348.0 0.002874 344.05652 344.63367
335.0 0.002985 343.96585 344.58008
327.0 0.003058 343.87506 344.55103
339.0 0.002950 343.78400 344.55640
343.0 0.002915 343.69278 344.60538
341.0 0.002933 343.60132 344.70413
343.0 0.002915 343.50967 344.85095
323.0 0.003096 343.41782 345.03342
324.0 0.003086 343.32571 345.22656
328.0 0.003049 343.23343 345.39325
360.0 0.002778 343.14090 345.48929
309.0 0.003236 343.04819 345.47961
371.0 0.002695 342.95523 345.36038
346.0 0.002890 342.86203 345.16364
335.0 0.002985 342.76862 344.93674
337.0 0.002967 342.67499 344.71915
337.0 0.002967 342.58109 344.53226
342.0 0.002924 342.48694 344.37720
373.0 0.002681 342.39258 344.23767
342.0 0.002924 342.29797 344.08978
383.0 0.002611 342.20313 343.91663
329.0 0.003040 342.10803 343.72037
327.0 0.003058 342.01270 343.51184
332.0 0.003012 341.91705 343.29446
362.0 0.002762 341.82123 343.11087
325.0 0.003077 341.72507 342.95566
327.0 0.003058 341.62869 342.83273
341.0 0.002933 341.53207 342.74225
339.0 0.002950 341.43512 342.68167
321.0 0.003115 341.33795 342.64877
350.0 0.002857 341.24048 342.64032
349.0 0.002865 341.14273 342.65082
356.0 0.002809 341.04474 342.70004
344.0 0.002907 340.94644 342.79379
345.0 0.002899 340.84790 342.95801
357.0 0.002801 340.74902 343.24005
311.0 0.003215 340.64984 343.69305
346.0 0.002890 340.55045 344.49124
347.0 0.002882 340.45068 345.77383
333.0 0.003003 340.35068 347.75409
330.0 0.003030 340.25034 350.64270
343.0 0.002915 340.14972 354.60251
359.0 0.002786 340.04880 359.67038
395.0 0.002532 339.94754 365.72189
392.0 0.002551 339.84604 372.25583
372.0 0.002688 339.74417 378.65588
358.0 0.002793 339.64197 384.06180
408.0 0.002451 339.53952 387.73761
380.0 0.002632 339.43671 389.39191
387.0 0.002584 339.33359 389.35385
362.0 0.002762 339.23013 388.50595
379.0 0.002639 339.12634 387.97452
360.0 0.002778 339.02228 388.70844
363.0 0.002755 338.91782 391.08600
357.0 0.002801 338.81308 394.89713
427.0 0.002342 338.70798 399.34714
468.0 0.002137 338.60254 403.30228
419.0 0.002387 338.49680 405.51355
436.0 0.002294 338.39066 405.02740
445.0 0.002247 338.28424 401.59100
445.0 0.002247 338.17743 395.89810
419.0 0.002387 338.07025 389.22833
436.0 0.002294 337.96277 382.81531
426.0 0.002347 337.85492 377.45551
374.0 0.002674 337.74673 373.40875
366.0 0.002732 337.63818 370.43149
419.0 0.002387 337.52924 367.90991
414.0 0.002415 337.41998 365.19803
344.0 0.002907 337.31033 361.94559
419.0 0.002387 337.20035 358.22354
369.0 0.002710 337.08997 354.33484
372.0 0.002688 336.97928 350.61047
317.0 0.003155 336.86813 347.30679
324.0 0.003086 336.75671 344.57007
362.0 0.002762 336.64484 342.43936
334.0 0.002994 336.53262 340.86404
342.0 0.002924 336.42004 339.74304
317.0 0.003155 336.30707 338.95911
334.0 0.002994 336.19373 338.40585
326.0 0.003067 336.07999 338.00058
311.0 0.003215 335.96591 337.68646
328.0 0.003049 335.85141 337.42792
345.0 0.002899 335.73657 337.20456
321.0 0.003115 335.62128 337.00537
338.0 0.002959 335.50562 336.82581
335.0 0.002985 335.38962 336.66492
308.0 0.003247 335.27316 336.52457
355.0 0.002817 335.15637 336.40817
353.0 0.002833 335.03918 336.32489
379.0 0.002639 334.92160 336.27994
324.0 0.003086 334.80359 336.27863
304.0 0.003289 334.68521 336.32150
335.0 0.002985 334.56644 336.44812
353.0 0.002833 334.44724 336.55176
345.0 0.002899 334.32770 336.65225
335.0 0.002985 334.20770 336.71649
321.0 0.003115 334.08734 336.71356
309.0 0.003236 333.96661 336.62643
365.0 0.002740 333.84543 336.46707
350.0 0.002857 333.72388 336.26935
320.0 0.003125 333.60190 336.09268
368.0 0.002717 333.47952 335.91962
353.0 0.002833 333.35678 335.78564
324.0 0.003086 333.23361 335.69086
344.0 0.002907 333.11008 335.62732
339.0 0.002950 332.98608 335.59082
334.0 0.002994 332.86169 335.59747
330.0 0.003030 332.73694 335.69714
332.0 0.003012 332.61176 335.97910
339.0 0.002950 332.48621 336.57227
349.0 0.002865 332.36020 337.64474
357.0 0.002801 332.23383 339.38760
378.0 0.002646 332.10706 341.97986
321.0 0.003115 331.97986 345.53455
346.0 0.002890 331.85233 350.02701
375.0 0.002667 331.72430 355.24219
403.0 0.002481 331.59592 360.73413
369.0 0.002710 331.46716 365.83347
405.0 0.002469 331.33795 369.72656
431.0 0.002320 331.20840 371.68689
401.0 0.002494 331.07843 371.48557
411.0 0.002433 330.94803 369.59827
412.0 0.002427 330.81729 366.91537
375.0 0.002667 330.68613 364.37411
370.0 0.002703 330.55460 362.54874
359.0 0.002786 330.42261 361.71442
351.0 0.002849 330.29025 361.69470
392.0 0.002551 330.15756 362.01984
390.0 0.002564 330.02441 362.11526
405.0 0.002469 329.89096 361.54956
394.0 0.002538 329.75705 360.14450
372.0 0.002688 329.62280 357.92029
394.0 0.002538 329.48813 354.99832
395.0 0.002532 329.35306 351.66718
365.0 0.002740 329.21768 348.31528
366.0 0.002732 329.08188 345.36713
335.0 0.002985 328.94571 342.99002
332.0 0.003012 328.80914 341.22330
316.0 0.003165 328.67227 339.95493
385.0 0.002597 328.53497 338.97833
358.0 0.002793 328.39734 338.05618
328.0 0.003049 328.25928 337.01999
366.0 0.002732 328.12088 335.81161
334.0 0.002994 327.98215 334.53296
366.0 0.002732 327.84305 333.26016
343.0 0.002915 327.70361 332.07907
297.0 0.003367 327.56375 331.04901
354.0 0.002825 327.42361 330.19803
332.0 0.003012 327.28308 329.52460
310.0 0.003226 327.14224 329.00735
316.0 0.003165 327.00101 328.61386
294.0 0.003401 326.85944 328.31149
313.0 0.003195 326.71759 328.07193
345.0 0.002899 326.57535 327.87402
325.0 0.003077 326.43283 327.70389
319.0 0.003135 326.28992 327.55301
325.0 0.003077 326.14670 327.41672
289.0 0.003460 326.00320 327.29303
305.0 0.003279 325.85934 327.18100
316.0 0.003165 325.71521 327.08087
307.0 0.003257 325.57074 326.99362
344.0 0.002907 325.42593 326.92059
324.0 0.003086 325.28088 326.86414
326.0 0.003067 325.13547 326.82779
353.0 0.002833 324.98984 326.81775
308.0 0.003247 324.84384 326.84497
357.0 0.002801 324.69757 326.92996
323.0 0.003096 324.55106 327.11017
323.0 0.003096 324.40421 327.45215
326.0 0.003067 324.25714 328.06613
354.0 0.002825 324.10977 329.12161
303.0 0.003300 323.96210 330.85419
324.0 0.003086 323.81424 333.55194
311.0 0.003215 323.66605 337.52124
357.0 0.002801 323.51767 343.00674
318.0 0.003145 323.36899 350.05927
339.0 0.002950 323.22006 358.48489
348.0 0.002874 323.07095 367.72971
388.0 0.002577 322.92154 376.87396
373.0 0.002681 322.77194 384.66812
366.0 0.002732 322.62210 389.77036
389.0 0.002571 322.47202 391.26151
412.0 0.002427 322.32178 389.24438
381.0 0.002625 322.17126 384.82785
386.0 0.002591 322.02063 379.47012
352.0 0.002841 321.86972 374.39175
352.0 0.002841 321.71860 370.28577
369.0 0.002710 321.56735 367.25558
369.0 0.002710 321.41589 364.87192
344.0 0.002907 321.26428 362.38467
324.0 0.003086 321.11246 359.10916
357.0 0.002801 320.96048 354.81317
337.0 0.002967 320.80838 349.75430
334.0 0.002994 320.65607 344.41409
307.0 0.003257 320.50366 339.26801
325.0 0.003077 320.35104 334.63605
298.0 0.003356 320.19836 330.79901
286.0 0.003497 320.04550 327.78326
308.0 0.003247 319.89255 325.53207
321.0 0.003115 319.73941 323.91852
309.0 0.003236 319.58621 322.78845
334.0 0.002994 319.43292 321.99838
298.0 0.003356 319.27948 321.43304
324.0 0.003086 319.12601 320.99356
314.0 0.003185 318.97238 320.66531
322.0 0.003106 318.81873 320.40399
329.0 0.003040 318.66498 320.20120
357.0 0.002801 318.51117 320.04974
293.0 0.003413 318.35727 319.98962
314.0 0.003185 318.20331 320.04443
303.0 0.003300 318.04935 320.20209
326.0 0.003067 317.89529 320.49228
313.0 0.003195 317.74127 320.90826
366.0 0.002732 317.58716 321.42450
335.0 0.002985 317.43307 321.98572
288.0 0.003472 317.27893 322.50891
315.0 0.003175 317.12479 322.88416
336.0 0.002976 316.97067 323.02451
340.0 0.002941 316.81653 322.88348
339.0 0.002950 316.66245 322.48187
288.0 0.003472 316.50833 321.92978
308.0 0.003247 316.35425 321.33795
283.0 0.00353 316.20026 320.79163
321.0 0.003115 316.04626 320.33151
316.0 0.003165 315.89236 319.95425
353.0 0.002833 315.73846 319.61743
352.0 0.002841 315.58463 319.26038
274.0 0.00365 315.43094 318.83490
303.0 0.003300 315.27725 318.33087
291.0 0.003436 315.12369 317.77380
310.0 0.003226 314.97021 317.20200
294.0 0.003401 314.81683 316.65146
322.0 0.003106 314.66360 316.14874
321.0 0.003115 314.51044 315.70819
287.0 0.003484 314.35742 315.33356
317.0 0.003155 314.20453 315.01965
347.0 0.002882 314.05176 314.75629
285.0 0.00351 313.89920 314.53156
332.0 0.003012 313.74673 314.33447
343.0 0.002915 313.59448 314.15625
305.0 0.003279 313.44235 313.99057
292.0 0.003425 313.29041 313.83374
289.0 0.003460 313.13870 313.68341
362.0 0.002762 312.98715 313.53857
321.0 0.003115 312.83582 313.39893
319.0 0.003135 312.68466 313.26462
354.0 0.002825 312.53372 313.13675
279.0 0.00358 312.38306 313.01712
329.0 0.003040 312.23260 312.90927
304.0 0.003289 312.08243 312.81989
334.0 0.002994 311.93240 312.76047
333.0 0.003003 311.78268 312.75082
280.0 0.00357 311.63327 312.82111
291.0 0.003436 311.48410 313.01462
306.0 0.003268 311.33524 313.38663
300.0 0.003333 311.18661 313.99860
324.0 0.003086 311.03833 314.90585
327.0 0.003058 310.89032 316.13895
316.0 0.003165 310.74261 317.68417
322.0 0.003106 310.59528 319.46417
346.0 0.002890 310.44824 321.33066
307.0 0.003257 310.30157 323.06372
358.0 0.002793 310.15518 324.39383
330.0 0.003030 310.00919 325.07080
342.0 0.002924 309.86353 324.98029
299.0 0.003344 309.71829 324.22720
308.0 0.003247 309.57336 323.07733
354.0 0.002825 309.42880 321.82227
327.0 0.003058 309.28470 320.68152
325.0 0.003077 309.14096 319.76599
309.0 0.003236 308.99765 319.02603
355.0 0.002817 308.85474 318.45007
310.0 0.003226 308.71225 317.83490
355.0 0.002817 308.57016 317.04721
300.0 0.003333 308.42856 316.04825
300.0 0.003333 308.28735 314.89331
320.0 0.003125 308.14661 313.68137
260.0 0.00385 308.00635 312.50952
325.0 0.003077 307.86652 311.45132
296.0 0.003378 307.72720 310.53006
303.0 0.003300 307.58835 309.80746
322.0 0.003106 307.44995 309.25391
293.0 0.003413 307.31210 308.84885
318.0 0.003145 307.17471 308.56808
314.0 0.003185 307.03790 308.39340
298.0 0.003356 306.90152 308.32016
321.0 0.003115 306.76569 308.36304
319.0 0.003135 306.63043 308.56015
312.0 0.003205 306.49567 308.97430
297.0 0.003367 306.36148 309.68982
300.0 0.003333 306.22781 310.80148
302.0 0.003311 306.09470 312.39380
322.0 0.003106 305.96219 314.51172
332.0 0.003012 305.83023 317.13080
316.0 0.003165 305.69888 320.12665
369.0 0.002710 305.56808 323.26440
351.0 0.002849 305.43787 326.19672
390.0 0.002564 305.30829 328.49994
321.0 0.003115 305.17929 329.78064
357.0 0.002801 305.05093 329.85141
356.0 0.002809 304.92319 328.85138
341.0 0.002933 304.79602 327.16748
358.0 0.002793 304.66953 325.24689
333.0 0.003003 304.54367 323.44958
316.0 0.003165 304.41846 321.97910
321.0 0.003115 304.29388 320.85986
318.0 0.003145 304.16995 319.95627
332.0 0.003012 304.04672 319.03116
300.0 0.003333 303.92410 317.87350
330.0 0.003030 303.80222 316.38803
348.0 0.002874 303.68097 314.62827
306.0 0.003268 303.56042 312.73193
331.0 0.003021 303.44055 310.85141
278.0 0.00360 303.32138 309.11325
332.0 0.003012 303.20294 307.60315
282.0 0.00355 303.08517 306.35953
320.0 0.003125 302.96811 305.37924
308.0 0.003247 302.85181 304.63571
311.0 0.003215 302.73615 304.08127
320.0 0.003125 302.62128 303.66812
280.0 0.00357 302.50711 303.35355
297.0 0.003367 302.39371 303.10422
299.0 0.003344 302.28104 302.89655
321.0 0.003115 302.16910 302.71497
309.0 0.003236 302.05789 302.54987
326.0 0.003067 301.94745 302.39569
308.0 0.003247 301.83777 302.24927
326.0 0.003067 301.72885 302.10864
285.0 0.00351 301.62073 301.97275
344.0 0.002907 301.51331 301.84091
313.0 0.003195 301.40674 301.71252
283.0 0.00353 301.30087 301.58734
288.0 0.003472 301.19583 301.46515
298.0 0.003356 301.09155 301.34567
268.0 0.00373 300.98807 301.22903
316.0 0.003165 300.88538 301.11517
298.0 0.003356 300.78348 301.00446
289.0 0.003460 300.68237 300.89709
300.0 0.003333 300.58206 300.79764
313.0 0.003195 300.48260 300.69907
282.0 0.00355 300.38388 300.60272
293.0 0.003413 300.28598 300.50952
310.0 0.003226 300.18893 300.41867
306.0 0.003268 300.09265 300.32867
290.0 0.003448 299.99722 300.23792
301.0 0.003322 299.90259 300.14462
304.0 0.003289 299.80875 300.04761
280.0 0.00357 299.71576 299.94693
272.0 0.00368 299.62360 299.84619
316.0 0.003165 299.53229 299.74365
318.0 0.003145 299.44174 299.64157
295.0 0.003390 299.35205 299.54199
290.0 0.003448 299.26321 299.44501
285.0 0.00351 299.17517 299.34003
276.0 0.00362 299.08798 299.24710
266.0 0.00376 299.00162 299.15439
330.0 0.003030 298.91608 299.06155
309.0 0.003236 298.83139 298.96835
283.0 0.00353 298.74753 298.87503
288.0 0.003472 298.66452 298.78262
305.0 0.003279 298.58231 298.69141
308.0 0.003247 298.50095 298.60193
287.0 0.003484 298.42044 298.50940
309.0 0.003236 298.34076 298.42416
290.0 0.003448 298.26193 298.34088
302.0 0.003311 298.18390 298.25946
302.0 0.003311 298.10672 298.17966
303.0 0.003300 298.03040 298.10126
286.0 0.003497 297.95486 298.02408
298.0 0.003356 297.88022 297.94812
297.0 0.003367 297.80637 297.87323
291.0 0.003436 297.73337 297.79926
330.0 0.003030 297.66119 297.72635
293.0 0.003413 297.58984 297.65427
291.0 0.003436 297.51932 297.58325
283.0 0.00353 297.44962 297.51306
299.0 0.003344 297.38074 297.44391
319.0 0.003135 297.31271 297.37564
280.0 0.00357 297.24545 297.30823
325.0 0.003077 297.17908 297.24182
312.0 0.003205 297.11346 297.17627
306.0 0.003268 297.04868 297.11172
275.0 0.00364 296.98471 297.04800
321.0 0.003115 296.92154 296.98526
277.0 0.00361 296.85919 296.92346
331.0 0.003021 296.79764 296.86252
269.0 0.00372 296.73688 296.80255
320.0 0.003125 296.67694 296.72705
287.0 0.003484 296.61777 296.66937
319.0 0.003135 296.55942 296.61249
301.0 0.003322 296.50183 296.55524
290.0 0.003448 296.44501 296.50027
304.0 0.003289 296.38898 296.44638
288.0 0.003472 296.33377 296.39346
300.0 0.003333 296.27927 296.34152
301.0 0.003322 296.22559 296.29062
291.0 0.003436 296.17264 296.24075
328.0 0.003049 296.12045 296.18387
287.0 0.003484 296.06903 296.13635
276.0 0.00362 296.01834 296.08923
275.0 0.00364 295.96841 296.04407
319.0 0.003135 295.91922 296.00018
309.0 0.003236 295.87076 295.95752
304.0 0.003289 295.82303 295.91629
274.0 0.00365 295.77603 295.87662
301.0 0.003322 295.72974 295.83856
308.0 0.003247 295.68414 295.80219
285.0 0.00351 295.63931 295.76788
298.0 0.003356 295.59512 295.73581
273.0 0.00366 295.55167 295.70657
330.0 0.003030 295.50891 295.68088
299.0 0.003344 295.46680 295.66013
312.0 0.003205 295.42542 295.64673
294.0 0.003401 295.38464 295.64493
323.0 0.003096 295.34460 295.66174
300.0 0.003333 295.30518 295.70795
314.0 0.003185 295.26642 295.79929
308.0 0.003247 295.22830 295.95660
292.0 0.003425 295.19083 296.20483
266.0 0.00376 295.15399 296.56943
316.0 0.003165 295.11777 297.07111
312.0 0.003205 295.08218 297.71793
311.0 0.003215 295.04718 298.49792
338.0 0.002959 295.01282 299.37323
315.0 0.003175 294.97903 300.27643
323.0 0.003096 294.94580 301.11288
333.0 0.003003 294.91318 301.76917
267.0 0.00375 294.88113 302.13959
325.0 0.003077 294.84967 302.17130
307.0 0.003257 294.81876 301.89667
290.0 0.003448 294.78836 301.41873
305.0 0.003279 294.75851 300.86215
283.0 0.00353 294.72922 300.33176
280.0 0.00357 294.70044 299.89175
283.0 0.00353 294.67218 299.56100
298.0 0.003356 294.64444 299.31427
311.0 0.003215 294.61716 299.09418
312.0 0.003205 294.59039 298.83301
305.0 0.003279 294.56412 298.48373
269.0 0.00372 294.53830 298.04025
305.0 0.003279 294.51297 297.53064
288.0 0.003472 294.48807 296.99750
291.0 0.003436 294.46362 296.48083
337.0 0.002967 294.43961 296.01181
318.0 0.003145 294.41602 295.61005
332.0 0.003012 294.39285 295.28299
309.0 0.003236 294.37009 295.02835
294.0 0.003401 294.34772 294.83688
302.0 0.003311 294.32578 294.69623
280.0 0.00357 294.30417 294.59338
285.0 0.00351 294.28296 294.51718
293.0 0.003413 294.26208 294.45880
278.0 0.00360 294.24158 294.41180
301.0 0.003322 294.22141 294.37210
295.0 0.003390 294.20157 294.33713
253.0 0.00395 294.18207 294.30716
287.0 0.003484 294.16287 294.27771
307.0 0.003257 294.14395 294.24994
286.0 0.003497 294.12537 294.22354
317.0 0.003155 294.10703 294.19830
269.0 0.00372 294.08896 294.17413
301.0 0.003322 294.07117 294.15082
324.0 0.003086 294.05362 294.12839
331.0 0.003021 294.03632 294.10666
315.0 0.003175 294.01923 294.08566
287.0 0.003484 294.00238 294.06601
291.0 0.003436 293.98572 294.04605
305.0 0.003279 293.96927 294.02655
275.0 0.00364 293.95300 294.00763
285.0 0.00351 293.93695 293.98901
290.0 0.003448 293.92102 293.97076
300.0 0.003333 293.90524 293.95291
275.0 0.00364 293.88965 293.93530
280.0 0.00357 293.87418 293.91800
261.0 0.00383 293.85883 293.90106
287.0 0.003484 293.84360 293.88434
277.0 0.00361 293.82846 293.86780
295.0 0.003390 293.81342 293.85144
274.0 0.00365 293.79846 293.83533
299.0 0.003344 293.78360 293.81937
296.0 0.003378 293.76877 293.80353
303.0 0.003300 293.75400 293.78778
293.0 0.003413 293.73926 293.77222
303.0 0.003300 293.72458 293.75677
304.0 0.003289 293.70990 293.74142
280.0 0.00357 293.69522 293.72614
284.0 0.00352 293.68054 293.71082
305.0 0.003279 293.66586 293.69565
284.0 0.00352 293.65115 293.68045
271.0 0.00369 293.63644 293.66528
309.0 0.003236 293.62164 293.65015
273.0 0.00366 293.60681 293.63492
271.0 0.00369 293.59189 293.61972
281.0 0.00356 293.57693 293.60458
300.0 0.003333 293.56186 293.58939
289.0 0.003460 293.54669 293.57413
312.0 0.003205 293.53143 293.55875
271.0 0.00369 293.51605 293.54343
273.0 0.00366 293.50052 293.52792
289.0 0.003460 293.48489 293.52127
301.0 0.003322 293.46909 293.50589
294.0 0.003401 293.45313 293.49036
285.0 0.00351 293.43701 293.47476
291.0 0.003436 293.42072 293.45898
296.0 0.003378 293.40421 293.44321
293.0 0.003413 293.38751 293.42725
279.0 0.00358 293.37064 293.41116
280.0 0.00357 293.35352 293.39502
318.0 0.003145 293.33615 293.37878
279.0 0.00358 293.31857 293.36234
289.0 0.003460 293.30075 293.35040
276.0 0.00362 293.28265 293.33383
284.0 0.00352 293.26431 293.31735
332.0 0.003012 293.24570 293.30075
296.0 0.003378 293.22675 293.28415
285.0 0.00351 293.20755 293.26788
277.0 0.00361 293.18802 293.25189
278.0 0.00360 293.16818 293.23093
293.0 0.003413 293.14804 293.21698
273.0 0.00366 293.12756 293.20468
306.0 0.003268 293.10672 293.19519
298.0 0.003356 293.08554 293.19366
295.0 0.003390 293.06400 293.19241
297.0 0.003367 293.04208 293.19669
302.0 0.003311 293.01981 293.20660
297.0 0.003367 292.99713 293.22629
280.0 0.00357 292.97403 293.24362
276.0 0.00362 292.95059 293.26468
292.0 0.003425 292.92670 293.28564
267.0 0.00375 292.90240 293.30258
273.0 0.00366 292.87766 293.31354
248.0 0.00403 292.85248 293.31900
279.0 0.00358 292.82687 293.32568
317.0 0.003155 292.80081 293.33774
291.0 0.003436 292.77429 293.36786
302.0 0.003311 292.74731 293.42963
289.0 0.003460 292.71985 293.52713
297.0 0.003367 292.69189 293.66815
273.0 0.00366 292.66345 293.85199
306.0 0.003268 292.63452 294.07016
300.0 0.003333 292.60510 294.30621
273.0 0.00366 292.57513 294.53625
325.0 0.003077 292.54468 294.73077
291.0 0.003436 292.51367 294.85925
271.0 0.00369 292.48215 294.89789
325.0 0.003077 292.45010 294.84122
287.0 0.003484 292.41748 294.70691
293.0 0.003413 292.38434 294.52725
305.0 0.003279 292.35062 294.33658
301.0 0.003322 292.31635 294.16147
315.0 0.003175 292.28146 294.01672
275.0 0.00364 292.24606 293.90460
316.0 0.003165 292.21005 293.81592
318.0 0.003145 292.17346 293.73297
357.0 0.002801 292.13626 293.63586
284.0 0.00352 292.09848 293.51086
281.0 0.00356 292.06009 293.35559
280.0 0.00357 292.02109 293.17819
314.0 0.003185 291.98148 292.99115
304.0 0.003289 291.94128 292.80695
284.0 0.00352 291.90039 292.63501
308.0 0.003247 291.85892 292.48166
286.0 0.003497 291.81683 292.34952
315.0 0.003175 291.77408 292.23825
327.0 0.003058 291.73071 292.14551
286.0 0.003497 291.68665 292.06787
311.0 0.003215 291.64197 292.00241
344.0 0.002907 291.59665 291.94666
274.0 0.00365 291.55066 291.89850
292.0 0.003425 291.50403 291.85718
301.0 0.003322 291.45670 291.82220
301.0 0.003322 291.40875 291.79465
306.0 0.003268 291.36011 291.77661
327.0 0.003058 291.31079 291.77240
303.0 0.003300 291.26080 291.78922
318.0 0.003145 291.21011 291.83890
291.0 0.003436 291.15878 291.93848
272.0 0.00368 291.10675 292.11099
296.0 0.003378 291.05405 292.38571
294.0 0.003401 291.00064 292.79416
278.0 0.00360 290.94656 293.36658
314.0 0.003185 290.89175 294.12292
318.0 0.003145 290.83630 295.06537
314.0 0.003185 290.78012 296.16986
296.0 0.003378 290.72327 297.37930
299.0 0.003344 290.66571 298.60312
299.0 0.003344 290.60745 299.71848
294.0 0.003401 290.54849 300.58301
311.0 0.003215 290.48883 301.06772
300.0 0.003333 290.42850 301.10715
259.0 0.00386 290.36743 300.73950
312.0 0.003205 290.30566 300.09067
318.0 0.003145 290.24323 299.31839
302.0 0.003311 290.18005 298.56189
261.0 0.00383 290.11618 297.91708
311.0 0.003215 290.05164 297.42740
294.0 0.003401 289.98636 297.08536
285.0 0.00351 289.92041 296.84006
290.0 0.003448 289.85373 296.61722
276.0 0.00362 289.78638 296.35080
322.0 0.003106 289.71829 296.01740
286.0 0.003497 289.64954 295.64847
303.0 0.003300 289.58008 295.31204
289.0 0.003460 289.50992 295.08572
299.0 0.003344 289.43909 295.04254
284.0 0.00352 289.36752 295.20856
301.0 0.003322 289.29529 295.59918
285.0 0.00351 289.22238 296.18423
298.0 0.003356 289.14877 296.89502
290.0 0.003448 289.07449 297.63367
312.0 0.003205 288.99951 298.27505
311.0 0.003215 288.92383 298.72095
309.0 0.003236 288.84753 298.89944
332.0 0.003012 288.77051 298.80655
327.0 0.003058 288.69284 298.44855
296.0 0.003378 288.61447 297.91489
285.0 0.00351 288.53543 297.27582
321.0 0.003115 288.45575 296.63666
292.0 0.003425 288.37540 296.06207
298.0 0.003356 288.29440 295.57669
295.0 0.003390 288.21274 295.16513
294.0 0.003401 288.13040 294.78610
302.0 0.003311 288.04745 294.39017
305.0 0.003279 287.96384 293.93579
294.0 0.003401 287.87964 293.39789
279.0 0.00358 287.79474 292.77289
305.0 0.003279 287.70920 292.08261
295.0 0.003390 287.62308 291.36597
288.0 0.003472 287.53632 290.66479
299.0 0.003344 287.44894 290.01398
297.0 0.003367 287.36093 289.43567
328.0 0.003049 287.27237 288.94067
288.0 0.003472 287.18314 288.52869
265.0 0.00377 287.09329 288.18906
276.0 0.00362 287.00293 287.91232
280.0 0.00357 286.91193 287.68176
300.0 0.003333 286.82034 287.48428
293.0 0.003413 286.72818 287.30972
289.0 0.003460 286.63547 287.15112
303.0 0.003300 286.54214 287.00409
277.0 0.00361 286.44830 286.86581
262.0 0.00382 286.35385 286.73459
313.0 0.003195 286.25888 286.60922
241.0 0.00415 286.16336 286.48898
275.0 0.00364 286.06729 286.37308
293.0 0.003413 285.97070 286.26096
294.0 0.003401 285.87357 286.15182
270.0 0.00370 285.77594 286.04504
286.0 0.003497 285.67776 285.94003
291.0 0.003436 285.57913 285.83627
273.0 0.00366 285.47992 285.73352
295.0 0.003390 285.38025 285.63156
300.0 0.003333 285.28009 285.53027
282.0 0.00355 285.17944 285.42960
262.0 0.00382 285.07834 285.32980
295.0 0.003390 284.97672 285.23114
304.0 0.003289 284.87466 285.13342
276.0 0.00362 284.77216 285.03726
264.0 0.00379 284.66919 284.94342
296.0 0.003378 284.56580 284.85239
276.0 0.00362 284.46194 284.76477
272.0 0.00368 284.35767 284.68085
255.0 0.00392 284.25299 284.60098
277.0 0.00361 284.14789 284.52490
310.0 0.003226 284.04239 284.45172
278.0 0.00360 283.93646 284.37997
291.0 0.003436 283.83014 284.30786
289.0 0.003460 283.72348 284.23297
294.0 0.003401 283.61639 284.15277
267.0 0.00375 283.50900 284.06583
300.0 0.003333 283.40118 283.97220
305.0 0.003279 283.29300 283.87396
289.0 0.003460 283.18454 283.77420
285.0 0.00351 283.07568 283.67618
319.0 0.003135 282.96655 283.58292
283.0 0.00353 282.85706 283.49680
307.0 0.003257 282.74725 283.41995
294.0 0.003401 282.63715 283.35806
286.0 0.003497 282.52670 283.29968
279.0 0.00358 282.41605 283.27197
277.0 0.00361 282.30505 283.27536
291.0 0.003436 282.19376 283.32504
266.0 0.00376 282.08228 283.44101
244.0 0.00410 281.97043 283.64816
279.0 0.00358 281.85843 283.97269
318.0 0.003145 281.74612 284.43909
311.0 0.003215 281.63361 285.06512
288.0 0.003472 281.52087 285.85803
296.0 0.003378 281.40787 286.80756
278.0 0.00360 281.29471 287.89648
279.0 0.00358 281.18130 289.08438
307.0 0.003257 281.06772 290.32211
279.0 0.00358 280.95398 291.55676
276.0 0.00362 280.84003 292.75195
277.0 0.00361 280.72592 293.91205
308.0 0.003247 280.61163 295.09702
292.0 0.003425 280.49722 296.39285
299.0 0.003344 280.38263 297.86249
297.0 0.003367 280.26791 299.50436
291.0 0.003436 280.15305 301.23001
270.0 0.00370 280.03806 302.86368
310.0 0.003226 279.92300 304.18167
298.0 0.003356 279.80780 304.94324
299.0 0.003344 279.69254 304.98032
293.0 0.003413 279.57715 304.26962
313.0 0.003195 279.46170 302.92200
301.0 0.003322 279.34613 301.16263
307.0 0.003257 279.23056 299.25229
255.0 0.00392 279.11490 297.41461
299.0 0.003344 278.99918 295.79642
279.0 0.00358 278.88345 294.44818
275.0 0.00364 278.76764 293.33972
286.0 0.003497 278.65186 292.36758
289.0 0.003460 278.53601 291.40372
263.0 0.00380 278.42023 290.33966
288.0 0.003472 278.30435 289.12848
265.0 0.00377 278.18854 287.77930
314.0 0.003185 278.07272 286.34915
279.0 0.00358 277.95691 284.91306
288.0 0.003472 277.84119 283.54337
281.0 0.00356 277.72543 282.29553
284.0 0.00352 277.60974 281.20508
278.0 0.00360 277.49414 280.28638
269.0 0.00372 277.37854 279.54062
309.0 0.003236 277.26306 278.94101
269.0 0.00372 277.14764 278.46823
255.0 0.00392 277.03229 278.09546
263.0 0.00380 276.91705 277.79773
262.0 0.00382 276.80188 277.55353
269.0 0.00372 276.68689 277.34637
269.0 0.00372 276.57193 277.16425
270.0 0.00370 276.45712 276.99908
278.0 0.00360 276.34247 276.84598
287.0 0.003484 276.22787 276.70178
267.0 0.00375 276.11349 276.56546
289.0 0.003460 275.99924 276.43961
284.0 0.00352 275.88513 276.31985
275.0 0.00364 275.77124 276.21021
268.0 0.00373 275.65747 276.11276
306.0 0.003268 275.54391 276.02930
269.0 0.00372 275.43048 275.96130
290.0 0.003448 275.31726 275.90939
266.0 0.00376 275.20428 275.87234
280.0 0.00357 275.09149 275.84662
264.0 0.00379 274.97894 275.82706
306.0 0.003268 274.86655 275.80545
282.0 0.00355 274.75439 275.77222
298.0 0.003356 274.64252 275.71680
302.0 0.003311 274.53085 275.63123
266.0 0.00376 274.41943 275.51236
276.0 0.00362 274.30826 275.36502
269.0 0.00372 274.19733 275.19910
283.0 0.00353 274.08673 275.02603
263.0 0.00380 273.97635 274.85565
318.0 0.003145 273.86627 274.69482
271.0 0.00369 273.75647 274.54660
279.0 0.00358 273.64697 274.41064
307.0 0.003257 273.53772 274.28305
270.0 0.00370 273.42880 274.15771
248.0 0.00403 273.32028 274.02914
305.0 0.003279 273.21191 273.89243
265.0 0.00377 273.10400 273.74731
285.0 0.00351 272.99631 273.59622
259.0 0.00386 272.88898 273.44391
263.0 0.00380 272.78207 273.29550
303.0 0.003300 272.67542 273.15613
292.0 0.003425 272.56915 273.03159
317.0 0.003155 272.46317 272.92783
270.0 0.00370 272.35757 272.85190
248.0 0.00403 272.25244 272.81189
263.0 0.00380 272.14758 272.81720
254.0 0.00394 272.04312 272.87735
282.0 0.00355 271.93900 273.00128
273.0 0.00366 271.83530 273.19461
293.0 0.003413 271.73209 273.45706
284.0 0.00352 271.62912 273.78134
263.0 0.00380 271.52664 274.14899
279.0 0.00358 271.42447 274.53192
294.0 0.003401 271.32275 274.89063
289.0 0.003460 271.22159 275.17859
290.0 0.003448 271.12067 275.34872
295.0 0.003390 271.02023 275.36624
287.0 0.003484 270.92020 275.22531
275.0 0.00364 270.82059 274.94583
294.0 0.003401 270.72153 274.59225
284.0 0.00352 270.62277 274.20880
302.0 0.003311 270.52454 273.84061
258.0 0.00388 270.42670 273.51630
289.0 0.003460 270.32932 273.24866
278.0 0.00360 270.23251 273.03323
274.0 0.00365 270.13602 272.85077
272.0 0.00368 270.04004 272.67319
285.0 0.00351 269.94452 272.47098
303.0 0.003300 269.84946 272.22482
280.0 0.00357 269.75497 271.93155
280.0 0.00357 269.66083 271.60135
266.0 0.00376 269.56723 271.25256
258.0 0.00388 269.47409 270.90277
278.0 0.00360 269.38144 270.56805
265.0 0.00377 269.28937 270.26004
261.0 0.00383 269.19769 269.98465
237.0 0.00422 269.10657 269.74527
263.0 0.00380 269.01584 269.54010
268.0 0.00373 268.92572 269.36603
280.0 0.00357 268.83609 269.21796
276.0 0.00362 268.74692 269.09048
276.0 0.00362 268.65833 268.97913
278.0 0.00360 268.57013 268.88022
267.0 0.00375 268.48254 268.79123
247.0 0.00405 268.39548 268.71133
290.0 0.003448 268.30887 268.64096
265.0 0.00377 268.22284 268.58258
244.0 0.00410 268.13727 268.54059
269.0 0.00372 268.05225 268.52234
270.0 0.00370 267.96777 268.53778
259.0 0.00386 267.88379 268.60034
265.0 0.00377 267.80038 268.72604
280.0 0.00357 267.71744 268.92813
261.0 0.00383 267.63501 269.22989
251.0 0.00398 267.55325 269.62180
261.0 0.00383 267.47183 270.13962
240.0 0.00417 267.39108 270.75494
283.0 0.00353 267.31079 271.44238
282.0 0.00355 267.23102 272.15762
255.0 0.00392 267.15192 272.84042
245.0 0.00408 267.07318 273.41943
288.0 0.003472 266.99509 273.82056
271.0 0.00369 266.91745 273.97839
286.0 0.003497 266.84036 273.87811
273.0 0.00366 266.76389 273.55463
274.0 0.00365 266.68784 273.08054
293.0 0.003413 266.61240 272.54190
270.0 0.00370 266.53741 272.01196
247.0 0.00405 266.46298 271.54456
255.0 0.00392 266.38916 271.16647
265.0 0.00377 266.31577 270.87741
253.0 0.00395 266.24295 270.65414
271.0 0.00369 266.17062 270.45502
255.0 0.00392 266.09885 270.23392
255.0 0.00392 266.02765 269.94952
295.0 0.003390 265.95688 269.58820
258.0 0.00388 265.88666 269.16040
289.0 0.003460 265.81693 268.69089
244.0 0.00410 265.74774 268.20990
268.0 0.00373 265.67911 267.74448
256.0 0.00391 265.61090 267.31421
249.0 0.00402 265.54327 266.93335
263.0 0.00380 265.47607 266.60712
278.0 0.00360 265.40939 266.33490
251.0 0.00398 265.34329 266.11111
280.0 0.00357 265.27762 265.92633
301.0 0.003322 265.21243 265.77151
281.0 0.00356 265.14771 265.63730
262.0 0.00382 265.08350 265.51855
266.0 0.00376 265.01984 265.41052
286.0 0.003497 264.95654 265.31042
215.0 0.00465 264.89377 265.21744
266.0 0.00376 264.83142 265.13031
260.0 0.00385 264.76956 265.04849
259.0 0.00386 264.70822 264.97098
269.0 0.00372 264.64725 264.89655
229.0 0.00437 264.58676 264.82404
280.0 0.00357 264.52664 264.75217
268.0 0.00373 264.46704 264.67972
264.0 0.00379 264.40787 264.60678
251.0 0.00398 264.34906 264.53305
256.0 0.00391 264.29074 264.45917
263.0 0.00380 264.23276 264.38565
291.0 0.003436 264.17520 264.31339
287.0 0.003484 264.11810 264.24271
269.0 0.00372 264.06134 264.17386
272.0 0.00368 264.00497 264.10730
274.0 0.00365 263.94897 264.04276
283.0 0.00353 263.89334 263.98004
261.0 0.00383 263.83810 263.91925
269.0 0.00372 263.78317 263.85989
297.0 0.003367 263.72864 263.80185
278.0 0.00360 263.67441 263.74481
278.0 0.00360 263.62051 263.68872
288.0 0.003472 263.56696 263.63345
283.0 0.00353 263.51367 263.57867
262.0 0.00382 263.46075 263.52466
249.0 0.00402 263.40808 263.47104
274.0 0.00365 263.35571 263.41785
263.0 0.00380 263.30365 263.36517
282.0 0.00355 263.25177 263.30975
239.0 0.00418 263.20026 263.25800
263.0 0.00380 263.14890 263.20657
247.0 0.00405 263.09781 263.15549
266.0 0.00376 263.04703 263.10483
294.0 0.003401 262.99637 263.05450
266.0 0.00376 262.94595 263.00458
248.0 0.00403 262.89569 262.95490
262.0 0.00382 262.84564 262.90573
288.0 0.003472 262.79584 262.85684
226.0 0.00442 262.74609 262.80823
275.0 0.00364 262.69656 262.75854
272.0 0.00368 262.64713 262.71066
272.0 0.00368 262.59787 262.66330
274.0 0.00365 262.54874 262.61618
259.0 0.00386 262.49969 262.56949
281.0 0.00356 262.45074 262.52313
266.0 0.00376 262.40186 262.47720
282.0 0.00355 262.35306 262.43182
248.0 0.00403 262.30435 262.38693
266.0 0.00376 262.25568 262.34244
246.0 0.00407 262.20703 262.29865
268.0 0.00373 262.15839 262.25555
257.0 0.00389 262.10974 262.21329
272.0 0.00368 262.06119 262.17215
246.0 0.00407 262.01254 262.13239
276.0 0.00362 261.96390 262.09479
245.0 0.00408 261.91519 262.06018
261.0 0.00383 261.86642 262.03336
261.0 0.00383 261.81766 262.01071
261.0 0.00383 261.76874 261.99893
251.0 0.00398 261.71976 262.00302
257.0 0.00389 261.67068 262.02994
260.0 0.00385 261.62146 262.08789
264.0 0.00379 261.57220 262.18637
240.0 0.00417 261.52271 262.33511
252.0 0.00397 261.47308 262.54187
264.0 0.00379 261.42328 262.81149
281.0 0.00356 261.37329 263.14279
270.0 0.00370 261.32318 263.52814
278.0 0.00360 261.27280 263.94974
242.0 0.00413 261.22226 264.37839
275.0 0.00364 261.17142 264.78079
276.0 0.00362 261.12036 265.11475
285.0 0.00351 261.06909 265.33783
272.0 0.00368 261.01749 265.41931
267.0 0.00375 260.96567 265.34583
289.0 0.003460 260.91348 265.14886
269.0 0.00372 260.86105 264.86490
258.0 0.00388 260.80832 264.54205
243.0 0.00412 260.75522 264.22192
240.0 0.00417 260.70184 263.93661
257.0 0.00389 260.64804 263.70071
259.0 0.00386 260.59393 263.51703
262.0 0.00382 260.53946 263.37390
278.0 0.00360 260.48459 263.24841
252.0 0.00397 260.42938 263.11362
241.0 0.00415 260.37369 262.94427
258.0 0.00388 260.31763 262.72491
250.0 0.00400 260.26120 262.46158
273.0 0.00366 260.20425 262.16330
254.0 0.00394 260.14697 261.84760
263.0 0.00380 260.08917 261.53073
261.0 0.00383 260.03094 261.22729
277.0 0.00361 259.97232 260.94766
259.0 0.00386 259.91315 260.69727
250.0 0.00400 259.85355 260.47891
230.0 0.00435 259.79343 260.29108
276.0 0.00362 259.73288 260.13055
281.0 0.00356 259.67188 259.99310
233.0 0.00429 259.61029 259.87387
274.0 0.00365 259.54825 259.76837
256.0 0.00391 259.48569 259.67340
275.0 0.00364 259.42264 259.58817
264.0 0.00379 259.35913 259.50586
268.0 0.00373 259.29504 259.42709
273.0 0.00366 259.23047 259.35101
261.0 0.00383 259.16537 259.27676
246.0 0.00407 259.09976 259.20377
237.0 0.00422 259.03372 259.13174
256.0 0.00391 258.96707 259.06036
264.0 0.00379 258.89996 258.98953
279.0 0.00358 258.83228 258.91888
245.0 0.00408 258.76413 258.84863
253.0 0.00395 258.69556 258.77869
232.0 0.00431 258.62637 258.70914
235.0 0.00426 258.55673 258.64124
249.0 0.00402 258.48657 258.57291
269.0 0.00372 258.41595 258.50540
296.0 0.003378 258.34494 258.43921
264.0 0.00379 258.27335 258.37421
302.0 0.003311 258.20135 258.31073
256.0 0.00391 258.12885 258.24869
286.0 0.003497 258.05594 258.18793
281.0 0.00356 257.98267 258.12790
238.0 0.00420 257.90887 258.07065
266.0 0.00376 257.83472 258.00970
216.0 0.00463 257.76010 257.94696
248.0 0.00403 257.68518 257.88116
284.0 0.00352 257.60992 257.81143
272.0 0.00368 257.53424 257.73746
256.0 0.00391 257.45825 257.65991
276.0 0.00362 257.38193 257.57971
268.0 0.00373 257.30533 257.49829
274.0 0.00365 257.22849 257.41687
252.0 0.00397 257.15131 257.33627
267.0 0.00375 257.07394 257.25729
270.0 0.00370 256.99628 257.18134
265.0 0.00377 256.91849 257.10593
263.0 0.00380 256.84055 257.03165
254.0 0.00394 256.76239 256.95840
269.0 0.00372 256.68417 256.88559
246.0 0.00407 256.60577 256.81302
279.0 0.00358 256.52734 256.74158
232.0 0.00431 256.44891 256.67255
236.0 0.00424 256.37039 256.60782
261.0 0.00383 256.29193 256.55084
267.0 0.00375 256.21347 256.50531
248.0 0.00403 256.13507 256.47638
258.0 0.00388 256.05682 256.47046
274.0 0.00365 255.97865 256.49481
256.0 0.00391 255.90073 256.55695
261.0 0.00383 255.82291 256.66406
260.0 0.00385 255.74533 256.82132
249.0 0.00402 255.66812 257.03043
255.0 0.00392 255.59108 257.28909
267.0 0.00375 255.51447 257.58817
233.0 0.00429 255.43816 257.91296
249.0 0.00402 255.36229 258.24146
255.0 0.00392 255.28693 258.54642
247.0 0.00405 255.21196 258.79788
251.0 0.00398 255.13756 258.96701
269.0 0.00372 255.06367 259.03647
249.0 0.00402 254.99042 259.00772
264.0 0.00379 254.91785 258.90283
264.0 0.00379 254.84589 258.75577
255.0 0.00392 254.77467 258.60190
289.0 0.003460 254.70418 258.46890
270.0 0.00370 254.63451 258.37292
247.0 0.00405 254.56573 258.31619
270.0 0.00370 254.49776 258.28778
268.0 0.00373 254.43074 258.26523
244.0 0.00410 254.36462 258.21890
269.0 0.00372 254.29955 258.12015
237.0 0.00422 254.23557 257.94998
260.0 0.00385 254.17258 257.70499
261.0 0.00383 254.11075 257.39871
263.0 0.00380 254.05002 257.05359
258.0 0.00388 253.99051 256.69571
267.0 0.00375 253.93230 256.34448
252.0 0.00397 253.87527 256.02258
270.0 0.00370 253.81958 255.73680
236.0 0.00424 253.76520 255.48885
267.0 0.00375 253.71220 255.27499
271.0 0.00369 253.66068 255.08685
242.0 0.00413 253.61052 254.91425
240.0 0.00417 253.56186 254.74968
259.0 0.00386 253.51466 254.58922
254.0 0.00394 253.46902 254.43321
272.0 0.00368 253.42499 254.28448
239.0 0.00418 253.38249 254.14679
246.0 0.00407 253.34163 254.02333
229.0 0.00437 253.30235 253.92197
240.0 0.00417 253.26476 253.84619
272.0 0.00368 253.22888 253.80074
208.0 0.00481 253.19464 253.79031
267.0 0.00375 253.16214 253.81937
251.0 0.00398 253.13132 253.89146
244.0 0.00410 253.10225 254.00868
267.0 0.00375 253.07495 254.17075
276.0 0.00362 253.04936 254.37444
285.0 0.00351 253.02554 254.61183
265.0 0.00377 253.00346 254.87135
226.0 0.00442 252.98314 255.13593
253.0 0.00395 252.96457 255.38428
269.0 0.00372 252.94771 255.59305
258.0 0.00388 252.93260 255.73833
267.0 0.00375 252.91920 255.80333
248.0 0.00403 252.90749 255.78358
247.0 0.00405 252.89746 255.69092
245.0 0.00408 252.88908 255.54843
274.0 0.00365 252.88232 255.38425
265.0 0.00377 252.87718 255.22453
225.0 0.00444 252.87358 255.09085
256.0 0.00391 252.87151 254.99828
277.0 0.00361 252.87091 254.95502
271.0 0.00369 252.87177 254.96303
252.0 0.00397 252.87398 255.01878
249.0 0.00402 252.87753 255.11290
253.0 0.00395 252.88235 255.23570
243.0 0.00412 252.88840 255.37883
234.0 0.00427 252.89557 255.53690
258.0 0.00388 252.90381 255.70860
261.0 0.00383 252.91306 255.89185
268.0 0.00373 252.92320 256.08087
256.0 0.00391 252.93420 256.26508
248.0 0.00403 252.94594 256.42609
265.0 0.00377 252.95833 256.54254
282.0 0.00355 252.97128 256.59262
265.0 0.00377 252.98468 256.56284
264.0 0.00379 252.99844 256.45386
269.0 0.00372 253.01244 256.28174
274.0 0.00365 253.02657 256.07199
245.0 0.00408 253.04071 255.85242
275.0 0.00364 253.05472 255.64697
244.0 0.00410 253.06853 255.47194
256.0 0.00391 253.08195 255.33650
244.0 0.00410 253.09491 255.24089
252.0 0.00397 253.10722 255.17802
279.0 0.00358 253.11877 255.13422
263.0 0.00380 253.12941 255.09140
259.0 0.00386 253.13901 255.03233
252.0 0.00397 253.14742 254.94452
246.0 0.00407 253.15448 254.82404
239.0 0.00418 253.16005 254.67509
245.0 0.00408 253.16399 254.50630
257.0 0.00389 253.16612 254.32848
260.0 0.00385 253.16632 254.15120
251.0 0.00398 253.16443 253.98267
257.0 0.00389 253.16031 253.82875
254.0 0.00394 253.15378 253.69244
256.0 0.00391 253.14470 253.57530
245.0 0.00408 253.13295 253.47629
249.0 0.00402 253.11836 253.39355
258.0 0.00388 253.10083 253.32407
285.0 0.00351 253.08017 253.26459
239.0 0.00418 253.05629 253.21214
269.0 0.00372 253.02905 253.16386
225.0 0.00444 252.99835 253.11768
241.0 0.00415 252.96410 253.07176
255.0 0.00392 252.92612 253.02477
254.0 0.00394 252.88443 252.97588
252.0 0.00397 252.83884 252.92435
253.0 0.00395 252.78937 252.86986
229.0 0.00437 252.73598 252.81204
242.0 0.00413 252.67853 252.75073
261.0 0.00383 252.61713 252.68288
267.0 0.00375 252.55165 252.61433
276.0 0.00362 252.48221 252.54207
250.0 . . .
loop_
_refln_index_h
_refln_index_k
_refln_index_l
_pd_refln_wavelength_id
_refln_observed_status
_refln_F_squared_meas
_refln_F_squared_calc
_refln_phase_calc
_refln_d_spacing
_gsas_i100_meas
0 0 1 1 o 419.634 428.295 0.00 7.42752 34.41
0 0 1 2 o 411.073 428.295 0.00 7.42752 16.79
1 0 1 1 o 171.209 166.495 180.00 4.79667 32.73
1 0 1 2 o 174.818 166.495 180.00 4.79667 16.62
1 1 0 1 o 93.278 81.627 180.00 4.44233 7.10
1 1 0 2 o 81.940 81.627 180.00 4.44233 3.07
1 1 1 1 o 903.935 892.518 0.00 3.81247 100.00
1 1 1 2 o 916.011 892.518 0.00 3.81247 50.38
0 0 2 1 o 722.143 611.080 0.00 3.71376 13.75
0 0 2 2 o 602.242 611.080 0.00 3.71376 5.75
1 0 2 1 o 67.644 57.336 180.00 3.19695 4.41
1 0 2 2 o 69.724 57.336 180.00 3.19695 2.26
2 0 0 1 o 2242.672 2185.523 180.00 3.14120 58.06
2 0 0 2 o 2173.973 2185.523 180.00 3.14120 28.02
2 0 1 1 o 277.548 254.503 180.00 2.89311 20.40
2 0 1 2 o 256.081 254.503 180.00 2.89311 9.41
1 1 2 1 o 334.957 328.470 0.00 2.84926 16.61
1 1 2 2 o 322.751 328.470 0.00 2.84926 7.97
2 1 1 1 o 27.180 35.590 0.00 2.62786 2.75
2 1 1 2 o 24.560 35.590 0.00 2.62786 1.24
0 0 3 1 o 687.578 370.782 0.00 2.47584 5.31
0 0 3 2 o 604.698 370.782 0.00 2.47584 2.33
2 0 2 1 o 231.627 260.789 180.00 2.39833 10.53
2 0 2 2 o 218.987 260.789 180.00 2.39833 4.97
1 0 3 1 o 15.002 8.472 180.00 2.30342 0.45
1 0 3 2 o 17.082 8.472 180.00 2.30342 0.26
2 1 2 1 o 58.131 49.482 0.00 2.24062 3.79
2 1 2 2 o 54.361 49.482 0.00 2.24062 1.76
2 2 0 1 o 736.874 801.913 0.00 2.22116 13.97
2 2 0 2 o 676.479 801.913 0.00 2.22116 6.40
1 1 3 1 o 100.185 118.847 0.00 2.16264 2.82
1 1 3 2 o 92.224 118.847 0.00 2.16264 1.30
2 2 1 1 o 215.440 155.412 0.00 2.12805 7.49
2 2 1 2 o 205.902 155.412 0.00 2.12805 3.57
3 0 1 1 o -0.152 9.264 0.00 2.01556 0.00
3 0 1 2 o 2.662 9.264 0.00 2.01556 0.04
3 1 0 1 o 18.472 0.025 0.00 1.98667 0.35
3 1 0 2 o 11.672 0.025 0.00 1.98667 0.11
2 0 3 1 o 203.813 165.411 180.00 1.94446 4.73
2 0 3 2 o 193.686 165.411 180.00 1.94446 2.24
3 1 1 1 o 119.419 119.181 180.00 1.91920 5.60
3 1 1 2 o 105.415 119.181 180.00 1.91920 2.48
2 2 2 1 o 143.996 124.366 0.00 1.90624 3.43
2 2 2 2 o 140.861 124.366 0.00 1.90624 1.67
2 1 3 1 o 0.227 2.224 0.00 1.85753 0.01
0 0 4 1 o 2.620 14.098 0.00 1.85688 0.02
2 1 3 2 o -0.056 2.224 0.00 1.85753 0.00
0 0 4 2 o -2.884 14.098 0.00 1.85688 0.00
3 0 2 1 o 6.241 34.389 0.00 1.82412 0.17
3 0 2 2 o 9.569 34.389 0.00 1.82412 0.12
1 0 4 1 o 20.594 5.100 180.00 1.78073 0.32
1 0 4 2 o 15.574 5.100 180.00 1.78073 0.12
3 1 2 1 o 94.050 71.893 180.00 1.75177 4.07
3 1 2 2 o 90.998 71.893 180.00 1.75177 1.96
1 1 4 1 o 197.915 197.722 0.00 1.71323 3.05
1 1 4 2 o 205.183 197.722 0.00 1.71323 1.57
3 2 1 1 o 4.897 1.121 180.00 1.69637 0.18
3 2 1 2 o 6.717 1.121 180.00 1.69637 0.12
2 2 3 1 o 56.669 80.098 0.00 1.65333 0.85
2 2 3 2 o 35.790 80.098 0.00 1.65333 0.28
3 0 3 1 o 1.059 0.775 0.00 1.59889 0.02
2 0 4 1 o 9.286 6.050 180.00 1.59848 0.14
3 0 3 2 o 2.121 0.775 0.00 1.59889 0.02
2 0 4 2 o 20.212 6.050 180.00 1.59848 0.14
3 2 2 1 o 6.629 28.427 180.00 1.57743 0.21
3 2 2 2 o 17.375 28.427 180.00 1.57743 0.27
4 0 0 1 o 186.603 181.668 0.00 1.57060 0.98
4 0 0 2 o 246.451 181.668 0.00 1.57060 0.64
3 1 3 1 o 61.732 34.474 180.00 1.54950 1.81
2 1 4 1 o 6.915 4.016 0.00 1.54912 0.16
3 1 3 2 o 51.753 34.474 180.00 1.54950 0.76
2 1 4 2 o 5.774 4.016 0.00 1.54912 0.07
4 0 1 1 o 99.534 47.530 0.00 1.53662 1.25
4 0 1 2 o 54.489 47.530 0.00 1.53662 0.35
4 1 1 1 o -0.013 0.410 180.00 1.49262 0.00
4 1 1 2 o -0.013 0.410 180.00 1.49262 0.00
0 0 5 1 o 44.166 19.737 0.00 1.48550 0.10
0 0 5 2 o 75.452 19.737 0.00 1.48550 0.09
3 3 0 1 o 8.852 2.919 0.00 1.48078 0.07
3 3 0 2 o 1.004 2.919 0.00 1.48078 0.01
3 3 1 1 o 28.314 20.047 0.00 1.45220 0.40
3 3 1 2 o 23.346 20.047 0.00 1.45220 0.17
4 0 2 1 o 32.168 36.450 0.00 1.44656 0.47
1 0 5 1 o 5.663 7.289 180.00 1.44564 0.05
4 0 2 2 o 19.991 36.450 0.00 1.44656 0.15
1 0 5 2 o 5.844 7.289 180.00 1.44564 0.03
3 2 3 1 o -0.006 0.096 180.00 1.42492 0.00
2 2 4 1 o -0.784 2.526 0.00 1.42463 0.00
3 2 3 2 o 0.136 0.096 180.00 1.42492 0.00
2 2 4 2 o 3.490 2.526 0.00 1.42463 0.02
4 1 2 1 o 13.710 16.990 180.00 1.40967 0.33
1 1 5 1 o 34.265 42.662 0.00 1.40882 0.33
4 1 2 2 o 18.061 16.990 180.00 1.40967 0.22
1 1 5 2 o 54.064 42.662 0.00 1.40882 0.25
4 2 0 1 o 111.181 80.386 180.00 1.40479 1.07
4 2 0 2 o 124.124 80.386 180.00 1.40479 0.59
3 0 4 1 o 4.224 2.676 0.00 1.38935 0.04
3 0 4 2 o 5.875 2.676 0.00 1.38935 0.03
4 2 1 1 o 59.168 33.194 180.00 1.38032 1.19
4 2 1 2 o 56.772 33.194 180.00 1.38032 0.57
3 3 2 1 o 36.581 20.103 0.00 1.37547 0.43
3 3 2 2 o 34.960 20.103 0.00 1.37547 0.20
3 1 4 1 o 45.861 63.036 180.00 1.35658 0.91
3 1 4 2 o 24.294 63.036 180.00 1.35658 0.26
2 0 5 1 o 7.035 10.716 180.00 1.34291 0.07
2 0 5 2 o -1.296 10.716 180.00 1.34291 0.00
4 0 3 1 o 31.678 22.360 0.00 1.32625 0.38
4 0 3 2 o 20.292 22.360 0.00 1.32625 0.12
4 2 2 1 o 38.307 20.213 180.00 1.31393 0.77
2 1 5 1 o 4.527 2.464 0.00 1.31324 0.07
4 2 2 2 o 32.861 20.213 180.00 1.31393 0.33
2 1 5 2 o 4.091 2.464 0.00 1.31324 0.03
4 1 3 1 o -0.005 0.091 180.00 1.29765 0.00
4 1 3 2 o -0.005 0.091 180.00 1.29765 0.00
3 3 3 1 o 31.705 11.641 0.00 1.27082 0.28
3 2 4 1 o 4.888 2.187 180.00 1.27062 0.07
3 3 3 2 o 17.466 11.641 0.00 1.27082 0.08
3 2 4 2 o 3.976 2.187 180.00 1.27062 0.03
5 0 1 1 o -0.002 0.042 180.00 1.23888 0.00
4 3 1 1 o -0.001 0.305 180.00 1.23888 0.00
0 0 6 1 o -0.215 0.275 0.00 1.23792 0.00
4 3 1 2 o -0.001 0.305 180.00 1.23888 0.00
5 0 1 2 o -0.002 0.042 180.00 1.23888 0.00
0 0 6 2 o 0.140 0.275 0.00 1.23792 0.00
2 2 5 1 o 5.233 5.930 0.00 1.23480 0.04
5 1 0 1 o 2.423 0.178 0.00 1.23208 0.01
2 2 5 2 o 51.650 5.930 0.00 1.23480 0.17
5 1 0 2 o 8.376 0.178 0.00 1.23208 0.02
4 2 3 1 o 20.974 11.959 180.00 1.22181 0.36
4 2 3 2 o 10.697 11.959 180.00 1.22181 0.10
5 1 1 1 o 12.653 7.513 0.00 1.21547 0.17
1 0 6 1 o 29.943 16.727 0.00 1.21457 0.18
5 1 1 2 o 12.748 7.513 0.00 1.21547 0.09
3 0 5 1 o 1.684 0.957 0.00 1.21162 0.01
1 0 6 2 o 29.612 16.727 0.00 1.21457 0.09
3 0 5 2 o -0.016 0.957 0.00 1.21162 0.00
4 0 4 1 o 3.683 0.326 0.00 1.19917 0.03
4 0 4 2 o 2.666 0.326 0.00 1.19917 0.01
1 1 6 1 o 27.057 27.438 0.00 1.19248 0.17
5 0 2 2 o 3.341 6.833 180.00 1.19021 0.01
4 3 2 2 o 5.510 11.259 0.00 1.19021 0.05
3 1 5 2 o 6.039 13.427 180.00 1.18969 0.05
5 0 2 1 o 5.103 6.833 180.00 1.19021 0.04
4 3 2 1 o 8.411 11.259 0.00 1.19021 0.14
3 1 5 1 o 9.326 13.427 180.00 1.18969 0.14
1 1 6 2 o 18.867 27.438 0.00 1.19248 0.06
4 1 4 1 o 10.224 1.206 180.00 1.17790 0.16
4 1 4 2 o 11.218 1.206 180.00 1.17790 0.09
5 1 2 1 o 22.580 5.482 0.00 1.16940 0.35
5 1 2 2 o 14.232 5.482 0.00 1.16940 0.11
3 3 4 1 o 11.727 22.996 0.00 1.15773 0.08
3 3 4 2 o 17.800 22.996 0.00 1.15773 0.06
5 2 1 1 o 0.390 0.083 180.00 1.15248 0.00
2 0 6 1 o 1.962 0.411 180.00 1.15171 0.01
5 2 1 2 o 0.000 0.083 180.00 1.15248 0.00
2 0 6 2 o 6.633 0.411 180.00 1.15171 0.02
2 1 6 1 o 15.148 8.372 180.00 1.13283 0.18
3 2 5 1 o 0.034 0.190 180.00 1.13044 0.00
2 1 6 2 o 1.733 8.372 180.00 1.13283 0.01
3 2 5 2 o 1.046 0.190 180.00 1.13044 0.01
4 3 3 1 o 0.325 0.010 180.00 1.12045 0.00
5 0 3 1 o 2.341 0.063 180.00 1.12045 0.02
4 2 4 1 o 5.472 0.075 180.00 1.12031 0.07
4 3 3 2 o 0.144 0.010 180.00 1.12045 0.00
5 0 3 2 o 1.030 0.063 180.00 1.12045 0.00
4 2 4 2 o 2.093 0.075 180.00 1.12031 0.01
5 2 2 1 o 7.270 6.241 0.00 1.11299 0.10
4 4 0 1 o 16.343 9.298 0.00 1.11058 0.06
5 2 2 2 o 10.255 6.241 0.00 1.11299 0.07
4 4 0 2 o -0.769 9.298 0.00 1.11058 0.00
5 1 3 1 o 6.856 3.825 0.00 1.10304 0.11
5 1 3 2 o 4.263 3.825 0.00 1.10304 0.04
4 4 1 1 o 22.665 9.527 0.00 1.09837 0.18
4 4 1 2 o 8.881 9.527 0.00 1.09837 0.04
