#------------------------------------------------------------------------------
#$Date: 2016-02-14 16:26:36 +0200 (Sun, 14 Feb 2016) $
#$Revision: 176435 $
#$URL: svn://www.crystallography.net/cod/cif/1/51/62/1516210.cif $
#------------------------------------------------------------------------------
#
# This file is available in the Crystallography Open Database (COD),
# http://www.crystallography.net/
#
# All data on this site have been placed in the public domain by the
# contributors.
#
data_1516210
loop_
_publ_author_name
'Migliorati, Valentina'
'Ballirano, Paolo'
'Gontrani, Lorenzo'
'Russina, Olga'
'Caminiti, Ruggero'
_publ_section_title
;
 Crystal polymorphism of propylammonium chloride and structural properties
 of its mixture with water.
;
_journal_issue                   41
_journal_name_full               'The journal of physical chemistry. B'
_journal_page_first              11805
_journal_page_last               11815
_journal_paper_doi               10.1021/jp206831d
_journal_volume                  115
_journal_year                    2011
_chemical_formula_sum            'C3 Cl N'
_chemical_formula_weight         85.49
_chemical_name_systematic        ' ?'
_space_group_IT_number           129
_symmetry_cell_setting           tetragonal
_symmetry_space_group_name_Hall  '-P 4a 2a'
_symmetry_space_group_name_H-M   'P 4/n m m :2'
_audit_creation_date             2011-07-21T08:58
_audit_creation_method           'from EXP file using GSAS2CIF'
_audit_update_record
' 2011-07-21T08:58  Initial CIF as created by GSAS2CIF'
_cell_angle_alpha                90.0
_cell_angle_beta                 90.0
_cell_angle_gamma                90.0
_cell_formula_units_Z            2
_cell_length_a                   6.27704(7)
_cell_length_b                   6.27704
_cell_length_c                   7.42097(18)
_cell_volume                     292.395(8)
_computing_structure_refinement  GSAS
_diffrn_radiation_probe          x-ray
_exptl_absorpt_correction_T_max  0.81791
_exptl_absorpt_correction_T_min  0.81483
_exptl_absorpt_process_details
;   GSAS Absorption/surface roughness correction: function number 0
 Debye-Scherrer absorption correction
Term (= MU.r/wave) =     0.78580E-01
Correction is not refined.
;
_pd_block_id
2011-07-21T08:58|100|paolo|Bruker_AXS_D8_Advance
_pd_calc_method                  'Rietveld Refinement'
_pd_instr_location               ' ?'
_pd_meas_2theta_range_inc        0.022
_pd_meas_2theta_range_max        89.988
_pd_meas_2theta_range_min        3.0
_pd_meas_number_of_points        3955
_pd_phase_name                   'Propylammonium chloride'
_pd_proc_2theta_range_inc        0.022
_pd_proc_2theta_range_max        89.988
_pd_proc_2theta_range_min        3.0
_pd_proc_info_datetime           2011-07-21T08:58:03
_pd_proc_info_excluded_regions   ' ?'
_pd_proc_ls_background_function
;   GSAS Background function number 1 with 30 terms.
 Shifted Chebyshev function of 1st kind
      1:    522.661     2:   -331.710     3:    27.7163     4:    83.1298    
      5:   -76.1278     6:   0.855069     7:    71.1957     8:   -78.1519    
      9:    36.1310    10:    10.4229    11:   -28.8546    12:    24.7930    
     13:   -5.50103    14:   -9.40601    15:    4.56862    16:   0.927769    
     17:   -2.47326    18:   -2.41246    19:    3.26540    20:   -1.77916    
     21:   -3.44606    22:    2.03263    23:   0.139116    24:   -2.31064    
     25:    4.05626    26:   -2.12773    27:   -1.12941    28:    1.66273    
     29:   -1.45784    30:   0.799952    
;
_pd_proc_ls_peak_cutoff          0.00100
_pd_proc_ls_profile_function
;
 CW Profile function number 3 with  19 terms
 Pseudovoigt profile coefficients as parameterized in
 P. Thompson, D.E. Cox & J.B. Hastings (1987). J. Appl. Cryst.,20,79-83.
 Asymmetry correction of L.W. Finger, D.E. Cox & A. P. Jephcoat (1994).
 J. Appl. Cryst.,27,892-900.
 Peak tails are ignored  where the intensity is below 0.0010 times the peak
   Aniso. broadening axis   0.0   1.0   0.0
;
_pd_proc_ls_prof_R_factor        0.0432
_pd_proc_ls_prof_wR_expected     0.0406
_pd_proc_ls_prof_wR_factor       0.0564
_pd_proc_number_of_points        3955
_pd_spec_mounting                ' ?'
_refine_ls_goodness_of_fit_all   1.41
_refine_ls_matrix_type           full
_refine_ls_number_parameters     47
_refine_ls_number_restraints     8
_refine_ls_R_Fsqd_factor         0.14995
_refine_ls_shift/su_max          0.08
_refine_ls_shift/su_mean         0.01
_reflns_d_resolution_high        1.097
_reflns_d_resolution_low         7.421
_reflns_limit_h_max              5
_reflns_limit_h_min              0
_reflns_limit_k_max              4
_reflns_limit_k_min              0
_reflns_limit_l_max              6
_reflns_limit_l_min              0
_reflns_number_total             174
_cod_data_source_file            373K.cif
_cod_data_source_block           100_publ
_cod_depositor_comments
;
The following automatic conversions were performed:

'_geom_bond_publ_flag' value 'N' changed to 'n' according to
/usr/data/users/saulius/automatic-downloads/retrospective/ACS/lib/dictionaries/cif_core.dic
dictionary named 'cif_core.dic' version 2.4.2 from 2011-04-26 (24
times).

'_geom_angle_publ_flag' value 'N' changed to 'n' according
to
/usr/data/users/saulius/automatic-downloads/retrospective/ACS/lib/dictionaries/cif_core.dic
dictionary named 'cif_core.dic' version 2.4.2 from 2011-04-26 (68
times).

Automatic conversion script
Id: cif_fix_values 2281 2013-09-26 08:29:07Z andrius 
;
_cod_original_cell_volume        292.396(10)
_cod_original_sg_symbol_H-M      'p 4/n m m'
_cod_original_formula_sum        'C3.00 Cl N'
_cod_database_code               1516210
#BEGIN Tags that were not found in dictionaries:
_gsas_exptl_extinct_corr_t_min   1.00000
_gsas_exptl_extinct_corr_t_max   1.00000
#END Tags that were not found in dictionaries
loop_
_symmetry_equiv_pos_site_id
_symmetry_equiv_pos_as_xyz
1 +x,+y,+z
2 -y+1/2,+x,+z
3 -x+1/2,-y+1/2,+z
4 +y,-x+1/2,+z
5 -x+1/2,+y,+z
6 -y+1/2,-x+1/2,+z
7 +x,-y+1/2,+z
8 +y,+x,+z
-1 -x,-y,-z
-2 +y+1/2,-x,-z
-3 +x+1/2,+y+1/2,-z
-4 -y,+x+1/2,-z
-5 +x+1/2,-y,-z
-6 +y+1/2,+x+1/2,-z
-7 -x,+y+1/2,-z
-8 -y,-x,-z
loop_
_atom_site_type_symbol
_atom_site_label
_atom_site_fract_x
_atom_site_fract_y
_atom_site_fract_z
_atom_site_occupancy
_atom_site_thermal_displace_type
_atom_site_U_iso_or_equiv
_atom_site_symmetry_multiplicity
Cl CL1 0.25 -0.25 0.0 1.0 Uiso 0.1209(9) 2
C C(1) 0.25 0.3323(6) 0.29086(32) 0.25 Uiso 0.0736(16) 8
N N 0.25 0.25 0.10587(28) 1.0 Uiso 0.0736(16) 2
C C(2) 0.25 0.1491(5) 0.42928(27) 0.25 Uiso 0.0736(16) 8
C C(3) 0.25 0.25 0.6207(4) 1.0 Uiso 0.0736(16) 2
loop_
_atom_type_symbol
_atom_type_number_in_cell
_atom_type_scat_dispersion_real
_atom_type_scat_dispersion_imag
_atom_type_scat_Cromer_Mann_a1
_atom_type_scat_Cromer_Mann_a2
_atom_type_scat_Cromer_Mann_a3
_atom_type_scat_Cromer_Mann_a4
_atom_type_scat_Cromer_Mann_b1
_atom_type_scat_Cromer_Mann_b2
_atom_type_scat_Cromer_Mann_b3
_atom_type_scat_Cromer_Mann_b4
_atom_type_scat_Cromer_Mann_c
_atom_type_scat_source
Cl 2.0 0.000 0.000 11.4604 0.01040 7.19640 1.16620 6.25560 18.5194 1.64550
47.7784 -9.5574 International_Tables_Vol_C
C 6.0 0.000 0.000 2.31000 20.8439 1.02000 10.2075 1.58860 0.56870 0.86500
51.6512 0.21560 International_Tables_Vol_C
N 2.0 0.000 0.000 12.2126 0.00570 3.13220 9.89330 2.01250 28.9975 1.16630
0.58260 -11.529 International_Tables_Vol_C
loop_
_diffrn_radiation_wavelength
_diffrn_radiation_wavelength_wt
_diffrn_radiation_type
_diffrn_radiation_wavelength_id
1.540598 1.000 K\a~1~ 1
1.544390 0.500 K\a~2~ 2
loop_
_geom_angle_atom_site_label_1
_geom_angle_atom_site_label_2
_geom_angle_atom_site_label_3
_geom_angle
_geom_angle_site_symmetry_1
_geom_angle_site_symmetry_3
_geom_angle_publ_flag
C(1) C(1) C(1) 45.0 2_555 3_555 n
C(1) C(1) C(1) 90.0 2_555 4_555 n
C(1) C(1) N 75.58(9) 2_555 1_555 n
C(1) C(1) C(2) 58.17(8) 2_555 1_555 n
C(1) C(1) C(2) 93.61(15) 2_555 2_555 n
C(1) C(1) C(2) 94.59(19) 2_555 3_555 n
C(1) C(1) C(2) 51.72(14) 2_555 4_555 n
C(1) C(1) C(1) 45.0 3_555 4_555 n
C(1) C(1) N 69.38(14) 3_555 1_555 n
C(1) C(1) C(2) 41.77(15) 3_555 1_555 n
C(1) C(1) C(2) 66.83(15) 3_555 2_555 n
C(1) C(1) C(2) 96.50(27) 3_555 3_555 n
C(1) C(1) C(2) 66.83(15) 3_555 4_555 n
C(1) C(1) N 75.58(9) 4_555 1_555 n
C(1) C(1) C(2) 58.17(8) 4_555 1_555 n
C(1) C(1) C(2) 51.72(14) 4_555 2_555 n
C(1) C(1) C(2) 94.59(19) 4_555 3_555 n
C(1) C(1) C(2) 93.61(15) 4_555 4_555 n
N C(1) C(2) 111.15(24) 1_555 1_555 n
N C(1) C(2) 126.43(23) 1_555 2_555 n
N C(1) C(2) 165.9(4) 1_555 3_555 n
N C(1) C(2) 126.43(23) 1_555 4_555 n
C(2) C(1) C(2) 35.44(17) 1_555 2_555 n
C(2) C(1) C(2) 54.73(30) 1_555 3_555 n
C(2) C(1) C(2) 35.44(17) 1_555 4_555 n
C(2) C(1) C(2) 42.87(23) 2_555 3_555 n
C(2) C(1) C(2) 57.71(28) 2_555 4_555 n
C(2) C(1) C(2) 42.87(23) 3_555 4_555 n
C(1) N C(1) 28.84(19) 1_555 2_555 n
C(1) N C(1) 41.24(27) 1_555 3_555 n
C(1) N C(1) 28.84(19) 1_555 4_555 n
C(1) N C(1) 28.84(19) 2_555 3_555 n
C(1) N C(1) 41.24(27) 2_555 4_555 n
C(1) N C(1) 28.84(19) 3_555 4_555 n
C(1) C(2) C(1) 28.21(18) 1_555 2_555 n
C(1) C(2) C(1) 41.73(31) 1_555 3_555 n
C(1) C(2) C(1) 28.21(18) 1_555 4_555 n
C(1) C(2) C(2) 58.17(8) 1_555 2_555 n
C(1) C(2) C(2) 41.77(15) 1_555 3_555 n
C(1) C(2) C(2) 58.17(8) 1_555 4_555 n
C(1) C(2) C(3) 107.73(22) 1_555 1_555 n
C(1) C(2) C(1) 33.69(25) 2_555 3_555 n
C(1) C(2) C(1) 46.34(31) 2_555 4_555 n
C(1) C(2) C(2) 86.39(15) 2_555 2_555 n
C(1) C(2) C(2) 61.14(14) 2_555 3_555 n
C(1) C(2) C(2) 51.72(14) 2_555 4_555 n
C(1) C(2) C(3) 121.20(22) 2_555 1_555 n
C(1) C(2) C(1) 33.69(25) 3_555 4_555 n
C(1) C(2) C(2) 85.41(19) 3_555 2_555 n
C(1) C(2) C(2) 83.50(27) 3_555 3_555 n
C(1) C(2) C(2) 85.41(19) 3_555 4_555 n
C(1) C(2) C(3) 149.5(4) 3_555 1_555 n
C(1) C(2) C(2) 51.72(14) 4_555 2_555 n
C(1) C(2) C(2) 61.14(14) 4_555 3_555 n
C(1) C(2) C(2) 86.39(15) 4_555 4_555 n
C(1) C(2) C(3) 121.20(22) 4_555 1_555 n
C(2) C(2) C(2) 45.0 2_555 3_555 n
C(2) C(2) C(2) 90.0 2_555 4_555 n
C(2) C(2) C(3) 73.26(8) 2_555 1_555 n
C(2) C(2) C(2) 45.0 3_555 4_555 n
C(2) C(2) C(3) 65.96(12) 3_555 1_555 n
C(2) C(2) C(3) 73.26(8) 4_555 1_555 n
C(2) C(3) C(2) 33.48(16) 1_555 2_555 n
C(2) C(3) C(2) 48.08(24) 1_555 3_555 n
C(2) C(3) C(2) 33.48(16) 1_555 4_555 n
C(2) C(3) C(2) 33.48(16) 2_555 3_555 n
C(2) C(3) C(2) 48.08(24) 2_555 4_555 n
C(2) C(3) C(2) 33.48(16) 3_555 4_555 n
loop_
_geom_bond_atom_site_label_1
_geom_bond_atom_site_label_2
_geom_bond_distance
_geom_bond_site_symmetry_2
_geom_bond_publ_flag
C(1) C(1) 0.730(5) 2_555 n
C(1) C(1) 1.033(7) 3_555 n
C(1) C(1) 0.730(5) 4_555 n
C(1) N 1.4668(32) 1_555 n
C(1) C(2) 1.542(4) 1_555 n
C(1) C(2) 1.3127(32) 2_555 n
C(1) C(2) 1.0338(31) 3_555 n
C(1) C(2) 1.3127(32) 4_555 n
N C(1) 1.4668(32) 1_555 n
N C(1) 1.4668(32) 2_555 n
N C(1) 1.4668(32) 3_555 n
N C(1) 1.4668(32) 4_555 n
C(2) C(1) 1.542(4) 1_555 n
C(2) C(1) 1.3127(32) 2_555 n
C(2) C(1) 1.0338(31) 3_555 n
C(2) C(1) 1.3127(32) 4_555 n
C(2) C(2) 0.896(5) 2_555 n
C(2) C(2) 1.267(7) 3_555 n
C(2) C(2) 0.896(5) 4_555 n
C(2) C(3) 1.5552(33) 1_555 n
C(3) C(2) 1.5552(33) 1_555 n
C(3) C(2) 1.5552(33) 2_555 n
C(3) C(2) 1.5552(33) 3_555 n
C(3) C(2) 1.5552(33) 4_555 n
loop_
_pd_meas_counts_total
_pd_proc_ls_weight
_pd_proc_intensity_bkg_calc
_pd_calc_intensity_total
21275.0 0.0 -20561052.00000 .
20680.0 0.0 -20038178.00000 .
19841.0 0.0 -19527710.00000 .
19285.0 0.0 -19029348.00000 .
18492.0 0.0 -18542838.00000 .
17770.0 0.0 -18067914.00000 .
17205.0 0.0 -17604330.00000 .
16720.0 0.0 -17151824.00000 .
16199.0 0.0 -16710148.00000 .
15617.0 0.0 -16279072.00000 .
15203.0 0.0 -15858351.00000 .
14787.0 0.0 -15447746.00000 .
14098.0 0.0 -15047045.00000 .
13907.0 0.0 -14656028.00000 .
13128.0 0.0 -14274456.00000 .
12764.0 0.0 -13902136.00000 .
12500.0 0.0 -13538847.00000 .
12135.0 0.0 -13184411.00000 .
11719.0 0.0 -12838598.00000 .
11386.0 0.0 -12501224.00000 .
11176.0 0.0 -12172096.00000 .
10816.0 0.0 -11851028.00000 .
10583.0 0.0 -11537839.00000 .
10165.0 0.0 -11232343.00000 .
9840.0 0.0 -10934371.00000 .
9562.0 0.0 -10643752.00000 .
9399.0 0.0 -10360304.00000 .
8983.0 0.0 -10083879.00000 .
9055.0 0.0 -9814310.00000 .
8603.0 0.0 -9551438.00000 .
8547.0 0.0 -9295109.00000 .
8202.0 0.0 -9045165.00000 .
8175.0 0.0 -8801473.00000 .
7878.0 0.0 -8563878.00000 .
7648.0 0.0 -8332238.50000 .
7640.0 0.0 -8106420.50000 .
7423.0 0.0 -7886282.00000 .
7122.0 0.0 -7671695.00000 .
7024.0 0.0 -7462530.00000 .
6825.0 0.0 -7258657.50000 .
6706.0 0.0 -7059951.00000 .
6537.0 0.0 -6866295.50000 .
6352.0 0.0 -6677569.00000 .
6345.0 0.0 -6493653.50000 .
6057.0 0.0 -6314441.50000 .
5997.0 0.0 -6139812.50000 .
5931.0 0.0 -5969665.50000 .
5794.0 0.0 -5803890.00000 .
5522.0 0.0 -5642381.00000 .
5536.0 0.0 -5485040.00000 .
5595.0 0.0 -5331768.00000 .
5632.0 0.0 -5182460.50000 .
5372.0 0.0 -5037029.50000 .
5304.0 0.0 -4895385.00000 .
5174.0 0.0 -4757427.00000 .
5325.0 0.0 -4623068.00000 .
5179.0 0.0 -4492223.50000 .
4885.0 0.0 -4364815.00000 .
4855.0 0.0 -4240744.50000 .
4910.0 0.0 -4119942.75000 .
4754.0 0.0 -4002325.00000 .
4697.0 0.0 -3887817.50000 .
4623.0 0.0 -3776339.50000 .
4534.0 0.0 -3667819.25000 .
4545.0 0.0 -3562184.50000 .
4441.0 0.0 -3459365.75000 .
4276.0 0.0 -3359289.00000 .
4321.0 0.0 -3261890.75000 .
4238.0 0.0 -3167102.25000 .
4155.0 0.0 -3074863.75000 .
4153.0 0.0 -2985103.00000 .
4108.0 0.0 -2897765.50000 .
4099.0 0.0 -2812790.25000 .
4031.0 0.0 -2730118.75000 .
4020.0 0.0 -2649690.75000 .
3917.0 0.0 -2571449.75000 .
3952.0 0.0 -2495342.75000 .
3968.0 0.0 -2421316.00000 .
3818.0 0.0 -2349314.75000 .
3743.0 0.0 -2279291.00000 .
3706.0 0.0 -2211193.25000 .
3676.0 0.0 -2144972.00000 .
3666.0 0.0 -2080581.75000 .
3583.0 0.0 -2017972.75000 .
3546.0 0.0 -1957101.87500 .
3443.0 0.0 -1897924.50000 .
3387.0 0.0 -1840395.00000 .
3438.0 0.0 -1784475.12500 .
3451.0 0.0 -1730120.37500 .
3354.0 0.0 -1677290.50000 .
3352.0 0.0 -1625946.00000 .
3286.0 0.0 -1576048.75000 .
3271.0 0.0 -1527563.62500 .
3189.0 0.0 -1480451.75000 .
3238.0 0.0 -1434676.12500 .
3135.0 0.0 -1390202.75000 .
3184.0 0.0 -1346999.62500 .
3197.0 0.0 -1305029.50000 .
3143.0 0.0 -1264263.62500 .
3088.0 0.0 -1224669.75000 .
3042.0 0.0 -1186214.25000 .
3037.0 0.0 -1148869.62500 .
2998.0 0.0 -1112603.62500 .
3057.0 0.0 -1077391.87500 .
3000.0 0.0 -1043205.00000 .
2947.0 0.0 -1010011.12500 .
2892.0 0.0 -977789.25000 .
2851.0 0.0 -946509.37500 .
2758.0 0.0 -916148.81250 .
2816.0 0.0 -886682.81250 .
2773.0 0.0 -858085.00000 .
2799.0 0.0 -830334.50000 .
2698.0 0.0 -803405.18750 .
2748.0 0.0 -777277.50000 .
2671.0 0.0 -751930.00000 .
2705.0 0.0 -727337.68750 .
2713.0 0.0 -703483.75000 .
2733.0 0.0 -680345.12500 .
2639.0 0.0 -657904.31250 .
2515.0 0.0 -636142.00000 .
2626.0 0.0 -615036.37500 .
2574.0 0.0 -594572.87500 .
2474.0 0.0 -574731.62500 .
2485.0 0.0 -555495.87500 .
2528.0 0.0 -536849.56250 .
2414.0 0.0 -518774.00000 .
2461.0 0.0 -501255.71875 .
2412.0 0.0 -484276.65625 .
2405.0 0.0 -467823.12500 .
2502.0 0.0 -451881.06250 .
2382.0 0.0 -436433.40625 .
2354.0 0.0 -421468.62500 .
2368.0 0.0 -406970.68750 .
2336.0 0.0 -392928.06250 .
2348.0 0.0 -379327.90625 .
2304.0 0.0 -366155.62500 .
2237.0 0.0 -353400.59375 .
2196.0 0.0 -341049.62500 .
2315.0 0.0 -329091.87500 .
2271.0 0.0 -317516.37500 .
2277.0 0.0 -306310.34375 .
2185.0 0.0 -295464.50000 .
2184.0 0.0 -284966.81250 .
2175.0 0.0 -274808.59375 .
2165.0 0.0 -264979.96875 .
2174.0 0.0 -255469.56250 .
2063.0 0.0 -246269.78125 .
2207.0 0.0 -237369.90625 .
2164.0 0.0 -228761.78125 .
2049.0 0.0 -220437.34375 .
2088.0 0.0 -212386.54688 .
2160.0 0.0 -204602.67188 .
2063.0 0.0 -197076.50000 .
2100.0 0.0 -189801.29688 .
2030.0 0.0 -182769.28125 .
2002.0 0.0 -175972.15625 .
1944.0 0.0 -169403.75000 .
1957.0 0.0 -163056.54688 .
1974.0 0.0 -156924.35938 .
1998.0 0.0 -151000.34375 .
1907.0 0.0 -145277.68750 .
1946.0 0.0 -139750.75000 .
1999.0 0.0 -134412.98438 .
1871.0 0.0 -129258.78125 .
1953.0 0.0 -124282.84375 .
1876.0 0.0 -119478.62500 .
1807.0 0.0 -114841.66406 .
1861.0 0.0 -110366.01563 .
1794.0 0.0 -106046.96094 .
1852.0 0.0 -101879.83594 .
1802.0 0.0 -97859.22656 .
1799.0 0.0 -93980.82813 .
1753.0 0.0 -90239.85156 .
1713.0 0.0 -86632.18750 .
1732.0 0.0 -83153.57813 .
1766.0 0.0 -79799.44531 .
1694.0 0.0 -76566.11719 .
1744.0 0.0 -73449.59375 .
1687.0 0.0 -70446.00000 .
1731.0 0.0 -67551.96875 .
1727.0 0.0 -64763.34375 .
1631.0 0.0 -62077.20703 .
1694.0 0.0 -59489.74219 .
1668.0 0.0 -56997.97266 .
1630.0 0.0 -54598.78125 .
1710.0 0.0 -52288.70703 .
1596.0 0.0 -50065.18750 .
1601.0 0.0 -47924.94531 .
1589.0 0.0 -45865.50000 .
1628.0 0.0 -43884.01953 .
1504.0 0.0 -41977.69141 .
1659.0 0.0 -40144.14844 .
1547.0 0.0 -38380.78125 .
1535.0 0.0 -36685.33203 .
1588.0 0.0 -35055.44141 .
1493.0 0.0 -33488.62891 .
1511.0 0.0 -31982.93945 .
1485.0 0.0 -30536.07813 .
1505.0 0.0 -29146.13086 .
1481.0 0.0 -27811.14648 .
1524.0 0.0 -26528.95313 .
1517.0 0.0 -25297.89844 .
1469.0 0.0 -24116.02930 .
1515.0 0.0 -22981.65234 .
1437.0 0.0 -21893.15625 .
1444.0 0.0 -20848.72852 .
1370.0 0.0 -19846.91992 .
1466.0 0.0 -18886.07227 .
1453.0 0.0 -17964.78125 .
1406.0 0.0 -17081.61133 .
1465.0 0.0 -16235.04785 .
1387.0 0.0 -15423.86816 .
1410.0 0.0 -14646.70020 .
1318.0 0.0 -13902.29492 .
1367.0 0.0 -13189.46484 .
1411.0 0.0 -12506.95801 .
1349.0 0.0 -11853.70410 .
1379.0 0.0 -11228.51855 .
1340.0 0.0 -10630.40430 .
1292.0 0.0 -10058.34375 .
1298.0 0.0 -9511.24902 .
1228.0 0.0 -8988.24414 .
1367.0 0.0 -8488.34375 .
1229.0 0.0 -8010.67529 .
1332.0 0.0 -7554.37988 .
1347.0 0.0 -7118.59082 .
1302.0 0.0 -6702.52197 .
1198.0 0.0 -6305.36182 .
1156.0 0.0 -5926.39355 .
1193.0 0.0 -5564.90918 .
1222.0 0.0 -5220.12354 .
1190.0 0.0 -4891.44189 .
1234.0 0.0 -4578.15967 .
1144.0 0.0 -4279.66748 .
1124.0 0.0 -3995.38037 .
1135.0 0.0 -3724.65527 .
1068.0 0.0 -3466.98267 .
1130.0 0.0 -3221.77734 .
1146.0 0.0 -2988.55371 .
1154.0 0.0 -2766.78662 .
1104.0 0.0 -2555.98560 .
1090.0 0.0 -2355.69751 .
1095.0 0.0 -2165.44214 .
1073.0 0.0 -1984.81787 .
1055.0 0.0 -1813.40479 .
968.0 0.0 -1650.76990 .
1039.0 0.0 -1496.55823 .
1040.0 0.0 -1350.38049 .
1055.0 0.0 -1211.88342 .
1035.0 0.0 -1080.72717 .
1027.0 0.0 -956.57318 .
927.0 0.0 -839.11194 .
992.0 0.0 -728.02356 .
987.0 0.0 -623.03033 .
962.0 0.0 -523.84583 .
1012.0 0.0 -430.19119 .
951.0 0.0 -341.81323 .
985.0 0.0 -258.45953 .
984.0 0.0 -179.89394 .
973.0 0.0 -105.89079 .
1017.0 0.0 -36.21489 .
1009.0 0.0 29.33088 .
946.0 0.0 90.95621 .
1001.0 0.0 148.85457 .
939.0 0.0 203.20718 .
956.0 0.0 254.19803 .
926.0 0.0 301.99377 .
918.0 0.0 346.76260 .
925.0 0.0 388.65460 .
975.0 0.0 427.82147 .
960.0 0.0 464.40897 .
880.0 0.0 498.55209 .
919.0 0.0 530.38104 .
963.0 0.0 560.02057 .
964.0 0.0 587.58813 .
987.0 0.0 613.20294 .
953.0 0.0 636.96838 .
937.0 0.0 658.99127 .
923.0 0.0 679.36938 .
911.0 0.0 698.19672 .
941.0 0.0 715.56396 .
929.0 0.0 731.55591 .
949.0 0.0 746.25574 .
899.0 0.0 759.73914 .
875.0 0.0 772.07965 .
972.0 0.0 783.34985 .
949.0 0.0 793.61438 .
921.0 0.0 802.93781 .
885.0 0.0 811.37994 .
924.0 0.0 818.99719 .
897.0 0.0 825.84558 .
886.0 0.0 831.97491 .
928.0 0.0 837.43463 .
859.0 0.0 842.27081 .
942.0 0.0 846.52679 .
957.0 0.0 850.24426 .
925.0 0.0 853.46185 .
923.0 0.0 856.21710 .
936.0 0.0 858.54419 .
895.0 0.0 860.47595 .
863.0 0.0 862.04382 .
941.0 0.0 863.27661 .
892.0 0.0 864.20184 .
879.0 0.0 864.84521 .
837.0 0.0 865.23114 .
881.0 0.0 865.38220 .
882.0 0.0 865.31982 .
860.0 0.0 865.06378 .
891.0 0.0 864.63300 .
881.0 0.0 864.04480 .
889.0 0.0 863.31555 .
850.0 0.0 862.46045 .
848.0 0.0 861.49341 .
881.0 0.0 860.42786 .
829.0 0.0 859.27606 .
854.0 0.0 858.04883 .
887.0 0.0 856.75708 .
867.0 0.0 855.41040 .
905.0 0.001105 854.01746 854.01691
892.0 0.001121 852.58661 852.58618
898.0 0.001114 851.12531 851.12494
824.0 0.001214 849.64044 849.64020
814.0 0.001229 848.13806 848.13788
824.0 0.001214 846.62408 846.62396
862.0 0.001160 845.10364 845.10358
844.0 0.001185 843.58124 843.58118
825.0 0.001212 842.06104 842.06104
854.0 0.001171 840.54681 840.54688
846.0 0.001182 839.04193 839.04199
799.0 0.001252 837.54932 837.54944
820.0 0.001220 836.07129 836.07147
817.0 0.001224 834.61035 834.61053
793.0 0.001261 833.16827 833.16846
828.0 0.001208 831.74664 831.74683
829.0 0.001206 830.34686 830.34705
879.0 0.001138 828.96997 828.97015
808.0 0.001238 827.61670 827.61694
853.0 0.001172 826.28784 826.28809
745.0 0.001342 824.98376 824.98401
824.0 0.001214 823.70471 823.70496
849.0 0.001178 822.45074 822.45099
834.0 0.001199 821.22168 821.22186
790.0 0.001266 820.01752 820.01770
824.0 0.001214 818.83765 818.83783
805.0 0.001242 817.68188 817.68207
792.0 0.001263 816.54950 816.54968
809.0 0.001236 815.43982 815.44000
793.0 0.001261 814.35223 814.35242
804.0 0.001244 813.28577 813.28595
859.0 0.001164 812.23975 812.23987
811.0 0.001233 811.21313 811.21326
796.0 0.001256 810.20490 810.20496
794.0 0.001259 809.21411 809.21423
874.0 0.001144 808.23981 808.23987
852.0 0.001174 807.28088 807.28094
778.0 0.001285 806.33612 806.33618
809.0 0.001236 805.40454 805.40460
813.0 0.001230 804.48517 804.48517
889.0 0.001125 803.57660 803.57666
806.0 0.001241 802.67810 802.67810
759.0 0.001318 801.78833 801.78833
788.0 0.001269 800.90625 800.90625
828.0 0.001208 800.03088 800.03082
830.0 0.001205 799.16107 799.16101
798.0 0.001253 798.29590 798.29584
761.0 0.001314 797.43439 800.51184
779.0 0.001284 796.57532 799.80945
808.0 0.001238 795.71802 800.70343
825.0 0.001212 794.86145 800.11127
785.0 0.001274 794.00488 799.54065
750.0 0.001333 793.14722 798.99298
814.0 0.001229 792.28772 798.47058
785.0 0.001274 791.42578 797.97571
817.0 0.001224 790.56036 797.51123
804.0 0.001244 789.69110 797.08087
806.0 0.001241 788.81714 796.68896
781.0 0.001280 787.93781 796.34064
763.0 0.001311 787.05261 796.04224
768.0 0.001302 786.16101 795.80145
793.0 0.001261 785.26245 795.62732
784.0 0.001276 784.35657 795.53119
859.0 0.001164 783.44269 795.52655
851.0 0.001175 782.52069 795.63000
821.0 0.001218 781.59015 795.86224
795.0 0.001258 780.65070 796.24878
809.0 0.001236 779.70215 796.82184
782.0 0.001279 778.74414 797.62195
858.0 0.001166 777.77667 798.70129
843.0 0.001186 776.79932 800.12781
812.0 0.001232 775.81226 801.99072
796.0 0.001256 774.81519 804.41052
874.0 0.001144 773.80811 807.55243
846.0 0.001182 772.79102 811.64789
868.0 0.001152 771.76392 817.03436
889.0 0.001125 770.72687 824.22644
932.0 0.001073 769.67993 834.13391
948.0 0.001055 768.62305 848.86792
941.0 0.001063 767.55670 874.10321
953.0 0.001049 766.48077 923.01245
1082.0 0.000924 765.39545 1017.76508
1136.0 0.000880 764.30115 1182.21741
1398.0 0.000715 763.19788 1435.25940
1665.0 0.000601 762.08600 1794.23181
2095.0 0.000477 760.96576 2297.85352
3076.0 0.0003251 759.83746 3030.33154
3989.0 0.0002507 758.70148 4074.24731
5309.0 0.0001884 757.55804 5268.06250
6055.0 0.0001652 756.40759 5922.03027
5157.0 0.0001939 755.25049 5277.42236
3678.0 0.0002719 754.08710 3742.48169
2088.0 0.000479 752.91779 2291.38037
1388.0 0.000720 751.74298 1446.54456
1024.0 0.000977 750.56323 1087.92273
914.0 0.001094 749.37872 953.26855
819.0 0.001221 748.19012 893.56781
831.0 0.001203 746.99786 858.39374
804.0 0.001244 745.80231 834.21924
776.0 0.001289 744.60400 816.52783
762.0 0.001312 743.40332 803.06885
803.0 0.001245 742.20087 792.50616
793.0 0.001261 740.99713 783.99164
739.0 0.001353 739.79248 776.96661
736.0 0.001359 738.58752 771.05219
717.0 0.001395 737.38275 765.98187
734.0 0.001362 736.17865 761.56610
763.0 0.001311 734.97559 757.66504
716.0 0.001397 733.77423 754.17499
744.0 0.001344 732.57501 751.01764
730.0 0.001370 731.37836 748.13251
796.0 0.001256 730.18494 745.47284
685.0 0.001460 728.99512 743.00165
703.0 0.001422 727.80933 740.68939
702.0 0.001425 726.62811 738.51263
744.0 0.001344 725.45197 736.45221
759.0 0.001318 724.28137 734.49268
765.0 0.001307 723.11670 732.62115
735.0 0.001361 721.95850 730.82709
747.0 0.001339 720.80719 729.10187
747.0 0.001339 719.66321 727.43787
749.0 0.001335 718.52692 725.82922
662.0 0.001511 717.39899 724.27063
700.0 0.001429 716.27948 722.75763
725.0 0.001379 715.16913 721.28656
705.0 0.001418 714.06812 719.85419
670.0 0.001493 712.97693 718.45801
702.0 0.001425 711.89600 717.09546
717.0 0.001395 710.82550 715.76465
698.0 0.001433 709.76593 714.46381
706.0 0.001416 708.71771 710.26978
780.0 0.001282 707.68103 709.15936
717.0 0.001395 706.65631 706.65637
690.0 0.001449 705.64374 705.64380
707.0 0.001414 704.64380 704.64386
706.0 0.001416 703.65668 703.65674
701.0 0.001427 702.68262 702.68268
683.0 0.001464 701.72205 701.72211
677.0 0.001477 700.77502 700.77509
715.0 0.001399 699.84192 699.84204
750.0 0.001333 698.92285 698.92297
724.0 0.001381 698.01825 698.01837
710.0 0.001408 697.12817 697.12830
702.0 0.001425 696.25275 696.25287
759.0 0.001318 695.39233 695.39246
747.0 0.001339 694.54700 694.54712
691.0 0.001447 693.71692 693.71704
706.0 0.001416 692.90234 692.90247
652.0 0.001534 692.10321 692.10333
712.0 0.001404 691.31982 691.31995
721.0 0.001387 690.55219 690.55231
628.0 0.001592 689.80048 689.80060
705.0 0.001418 689.06482 689.06494
685.0 0.001460 688.34515 688.34534
723.0 0.001383 687.64172 687.64185
698.0 0.001433 686.95441 686.95453
680.0 0.001471 686.28345 686.28357
659.0 0.001517 685.62878 685.62891
686.0 0.001458 684.99036 684.99048
713.0 0.001403 684.36835 684.36853
640.0 0.001563 683.76270 683.76288
673.0 0.001486 683.17346 683.17358
713.0 0.001403 682.60052 682.60065
716.0 0.001397 682.04395 682.04407
679.0 0.001473 681.50366 681.50385
767.0 0.001304 680.97961 680.97980
660.0 0.001515 680.47186 680.47198
722.0 0.001385 679.98029 679.98047
715.0 0.001399 679.50482 679.50494
700.0 0.001429 679.04535 679.04553
724.0 0.001381 678.60193 678.60205
635.0 0.001575 678.17438 678.17450
722.0 0.001385 677.76263 677.76276
704.0 0.001420 677.36652 677.36670
709.0 0.001410 676.98608 676.98621
665.0 0.001504 676.62109 676.62128
721.0 0.001387 676.27148 676.27167
665.0 0.001504 675.93713 675.93732
692.0 0.001445 675.61792 675.61810
674.0 0.001484 675.31372 675.31390
644.0 0.001553 675.02435 675.02448
677.0 0.001477 674.74969 674.74988
673.0 0.001486 674.48969 674.48981
717.0 0.001395 674.24402 674.24414
659.0 0.001517 674.01263 674.01276
682.0 0.001466 673.79535 673.79547
702.0 0.001425 673.59198 673.59216
663.0 0.001508 673.40240 673.40259
664.0 0.001506 673.22650 673.22662
700.0 0.001429 673.06396 673.06415
686.0 0.001458 672.91473 672.91492
707.0 0.001414 672.77863 672.77881
668.0 0.001497 672.65540 672.65558
705.0 0.001418 672.54492 672.54504
699.0 0.001431 672.44702 672.44714
717.0 0.001395 672.36145 672.36163
705.0 0.001418 672.28809 672.28827
665.0 0.001504 672.22675 672.22693
626.0 0.001597 672.17725 672.17743
649.0 0.001541 672.13940 672.13953
691.0 0.001447 672.11292 672.11310
669.0 0.001495 672.09784 672.09796
631.0 0.001585 672.09375 672.09387
625.0 0.001600 672.10059 672.10071
681.0 0.001468 672.11816 672.11829
693.0 0.001443 672.14624 672.14636
692.0 0.001445 672.18469 672.18481
734.0 0.001362 672.23328 672.23346
674.0 0.001484 672.29187 672.29205
675.0 0.001481 672.36029 672.36047
641.0 0.001560 672.43835 672.43854
680.0 0.001471 672.52588 672.52600
653.0 0.001531 672.62268 672.62280
663.0 0.001508 672.72858 672.72876
659.0 0.001517 672.84344 672.84363
661.0 0.001513 672.96710 672.96722
688.0 0.001453 673.09937 673.09949
673.0 0.001486 673.24005 673.24017
710.0 0.001408 673.38910 673.38922
659.0 0.001517 673.54620 673.54633
651.0 0.001536 673.71136 673.71149
714.0 0.001401 673.88434 673.88446
632.0 0.001582 674.06500 674.06512
662.0 0.001511 674.25317 674.25330
653.0 0.001531 674.44879 674.44891
710.0 0.001408 674.65167 674.65179
721.0 0.001387 674.86169 674.86182
669.0 0.001495 675.07867 675.07880
666.0 0.001502 675.30261 675.30273
645.0 0.001550 675.53326 675.53339
712.0 0.001404 675.77051 675.77069
652.0 0.001534 676.01434 676.01447
663.0 0.001508 676.26453 676.26471
701.0 0.001427 676.52112 676.52124
691.0 0.001447 676.78381 676.78394
713.0 0.001403 677.05267 677.05280
697.0 0.001435 677.32751 677.32764
654.0 0.001529 677.60822 677.60840
629.0 0.001590 677.89484 677.89496
650.0 0.001538 678.18713 678.18726
695.0 0.001439 678.48517 678.48529
689.0 0.001451 678.78870 678.78882
703.0 0.001422 679.09784 679.09796
660.0 0.001515 679.41241 679.41254
650.0 0.001538 679.73236 679.73248
638.0 0.001567 680.05768 680.05780
638.0 0.001567 680.38824 680.38837
649.0 0.001541 680.72400 680.72418
706.0 0.001416 681.06506 681.06519
703.0 0.001422 681.41119 681.41132
680.0 0.001471 681.76245 681.76257
652.0 0.001534 682.11877 682.11890
675.0 0.001481 682.48010 682.48022
680.0 0.001471 682.84650 682.84662
674.0 0.001484 683.21790 683.21802
668.0 0.001497 683.59424 683.59436
657.0 0.001522 683.97559 683.97571
700.0 0.001429 684.36188 684.36200
636.0 0.001572 684.75311 684.75323
638.0 0.001567 685.14929 685.14941
666.0 0.001502 685.55042 685.55054
679.0 0.001473 685.95654 685.95667
686.0 0.001458 686.36755 686.36768
620.0 0.001613 686.78357 686.78369
665.0 0.001504 687.20459 687.20471
656.0 0.001524 687.63062 687.63074
693.0 0.001443 688.06165 688.06177
654.0 0.001529 688.49768 688.49786
726.0 0.001377 688.93890 688.93903
691.0 0.001447 689.38519 689.38531
667.0 0.001499 689.83661 689.83673
693.0 0.001443 690.29321 690.29333
686.0 0.001458 690.75500 690.75513
692.0 0.001445 691.22211 691.22223
654.0 0.001529 691.69452 691.69464
699.0 0.001431 692.17230 692.17242
660.0 0.001515 692.65546 692.65558
708.0 0.001412 693.14404 693.14417
680.0 0.001471 693.63818 693.63837
684.0 0.001462 694.13788 694.13800
682.0 0.001466 694.64319 694.64337
666.0 0.001502 695.15424 695.15442
695.0 0.001439 695.67102 695.67114
702.0 0.001425 696.19360 696.19373
673.0 0.001486 696.72205 696.72217
694.0 0.001441 697.25647 697.25665
719.0 0.001391 697.79688 697.79706
645.0 0.001550 698.34344 698.34357
675.0 0.001481 698.89618 698.89630
684.0 0.001462 699.45508 699.45520
661.0 0.001513 700.02032 700.02051
712.0 0.001404 700.59198 700.59216
710.0 0.001408 701.17004 701.17023
660.0 0.001515 701.75476 701.75488
714.0 0.001401 702.34601 702.34619
704.0 0.001420 702.94403 702.94415
715.0 0.001399 703.54883 703.54895
680.0 0.001471 704.16040 704.16058
706.0 0.001416 704.77899 704.77917
749.0 0.001335 705.40454 705.40472
670.0 0.001493 706.03729 706.03748
725.0 0.001379 706.67719 706.67737
766.0 0.001305 707.32440 707.32452
726.0 0.001377 707.97894 707.97913
769.0 0.001300 708.64093 708.64105
699.0 0.001431 709.31042 709.31061
730.0 0.001370 709.98749 709.98767
798.0 0.001253 710.67230 710.67242
735.0 0.001361 711.36487 711.36499
715.0 0.001399 712.06519 712.06537
728.0 0.001374 712.77356 712.77368
747.0 0.001339 713.48981 713.48999
736.0 0.001359 714.21417 714.21429
694.0 0.001441 714.94666 714.94684
755.0 0.001325 715.68744 715.68756
762.0 0.001312 716.43652 716.43671
716.0 0.001397 717.19397 717.19409
685.0 0.001460 717.95984 717.95996
745.0 0.001342 718.73425 718.73444
708.0 0.001412 719.51727 719.51740
757.0 0.001321 720.30896 720.30914
753.0 0.001328 721.10938 721.10956
712.0 0.001404 721.91852 721.91870
744.0 0.001344 722.73663 722.73682
737.0 0.001357 723.56360 723.56378
714.0 0.001401 724.39960 724.39978
696.0 0.001437 725.24457 725.24475
734.0 0.001362 726.09863 726.09882
713.0 0.001403 726.96185 726.96204
712.0 0.001404 727.83435 727.83453
739.0 0.001353 728.71600 728.71619
687.0 0.001456 729.60699 729.60718
717.0 0.001395 730.50732 730.50751
737.0 0.001357 731.41711 731.41730
717.0 0.001395 732.33630 732.33649
740.0 0.001351 733.26501 733.26520
675.0 0.001481 734.20319 734.20337
732.0 0.001366 735.15088 735.15106
755.0 0.001325 736.10828 736.10846
746.0 0.001340 737.07513 737.07532
752.0 0.001330 738.05176 738.05194
755.0 0.001325 739.03796 739.03815
769.0 0.001300 740.03381 740.03406
773.0 0.001294 741.03943 741.03967
765.0 0.001307 742.05487 742.05505
721.0 0.001387 743.07990 743.08014
775.0 0.001290 744.11475 747.06720
771.0 0.001297 745.15930 748.25873
764.0 0.001309 746.21375 749.47137
734.0 0.001362 747.27783 752.24207
808.0 0.001238 748.35181 753.57861
794.0 0.001259 749.43542 754.94629
757.0 0.001321 750.52887 756.34760
760.0 0.001316 751.63208 757.78522
777.0 0.001287 752.74500 759.26227
797.0 0.001255 753.86774 760.78253
770.0 0.001299 755.00006 762.34979
767.0 0.001304 756.14209 763.96930
792.0 0.001263 757.29395 765.64667
772.0 0.001295 758.45532 767.38843
732.0 0.001366 759.62628 769.20251
816.0 0.001225 760.80682 771.09833
814.0 0.001229 761.99695 773.08698
809.0 0.001236 763.19666 775.18225
775.0 0.001290 764.40576 777.40002
793.0 0.001261 765.62445 779.76050
874.0 0.001144 766.85236 782.28790
807.0 0.001239 768.08960 785.01300
870.0 0.001149 769.33630 787.97406
795.0 0.001258 770.59204 791.21924
832.0 0.001202 771.85712 794.81140
819.0 0.001221 773.13116 798.83105
794.0 0.001259 774.41431 803.38586
815.0 0.001227 775.70654 808.62018
886.0 0.001129 777.00751 814.73077
864.0 0.001157 778.31738 821.99506
853.0 0.001172 779.63599 830.80969
873.0 0.001145 780.96344 841.77026
878.0 0.001139 782.29938 855.85126
897.0 0.001115 783.64380 874.99121
931.0 0.001074 784.99683 903.99115
994.0 0.001006 786.35803 955.18915
1027.0 0.000974 787.72754 1056.49292
1304.0 0.000767 789.10535 1260.40002
1638.0 0.000611 790.49103 1646.92456
2351.0 0.000425 791.88489 2309.89355
3185.0 0.0003140 793.28650 3284.22534
4083.0 0.0002449 794.69580 4395.51611
4784.0 0.0002090 796.11292 5159.44238
5095.0 0.0001963 797.53748 5064.08887
4428.0 0.0002258 798.96948 4243.27783
3346.0 0.0002989 800.40881 3150.31982
2393.0 0.000418 801.85553 2153.65430
1556.0 0.000643 803.30914 1496.37549
1149.0 0.000870 804.76978 1157.74536
978.0 0.001022 806.23730 1010.28278
847.0 0.001181 807.71149 947.25513
869.0 0.001151 809.19232 915.18390
863.0 0.001159 810.67969 895.14862
895.0 0.001117 812.17328 881.26080
833.0 0.001200 813.67316 871.25024
858.0 0.001166 815.17902 863.90515
802.0 0.001247 816.69086 858.46338
825.0 0.001212 818.20856 854.41833
840.0 0.001190 819.73181 851.42212
835.0 0.001198 821.26056 849.22870
842.0 0.001188 822.79480 847.66101
834.0 0.001199 824.33417 846.58801
821.0 0.001218 825.87854 845.91150
792.0 0.001263 827.42792 845.55695
811.0 0.001233 828.98212 845.46661
817.0 0.001224 830.54083 845.59515
852.0 0.001174 832.10406 845.90668
826.0 0.001211 833.67175 846.37256
815.0 0.001227 835.24341 847.59711
877.0 0.001140 836.81921 848.33777
799.0 0.001252 838.39874 849.48572
803.0 0.001245 839.98193 850.42676
828.0 0.001208 841.56885 851.44495
813.0 0.001230 843.15894 852.53125
843.0 0.001186 844.75220 853.67865
861.0 0.001161 846.34869 854.88141
797.0 0.001255 847.94788 856.13409
839.0 0.001192 849.54974 857.43304
823.0 0.001215 851.15424 858.77478
833.0 0.001200 852.76117 860.15698
833.0 0.001200 854.37018 861.57739
864.0 0.001157 855.98120 863.03461
856.0 0.001168 857.59430 864.52808
815.0 0.001227 859.20892 863.05713
845.0 0.001183 860.82520 864.76324
853.0 0.001172 862.44269 866.49719
823.0 0.001215 864.06140 866.83209
862.0 0.001160 865.68121 868.69708
870.0 0.001149 867.30182 870.59680
895.0 0.001117 868.92316 872.53796
855.0 0.001170 870.54486 874.52869
908.0 0.001101 872.16693 876.57928
895.0 0.001117 873.78918 878.70331
881.0 0.001135 875.41138 880.91833
921.0 0.001086 877.03357 883.24774
880.0 0.001136 878.65521 885.72284
865.0 0.001156 880.27637 888.38672
856.0 0.001168 881.89697 891.30048
885.0 0.001130 883.51660 894.55103
883.0 0.001133 885.13525 898.27039
913.0 0.001095 886.75262 902.67694
904.0 0.001106 888.36859 908.21753
885.0 0.001130 889.98315 916.01385
943.0 0.001060 891.59589 928.95996
999.0 0.001001 893.20685 953.67535
1051.0 0.000951 894.81561 1002.82928
1096.0 0.000912 896.42218 1095.42078
1409.0 0.000710 898.02637 1249.87268
1722.0 0.000581 899.62817 1462.66589
1985.0 0.000504 901.22705 1678.88049
2158.0 0.000463 902.82312 1792.29553
2236.0 0.000447 904.41614 1733.44971
1901.0 0.000526 906.00610 1562.17334
1523.0 0.000657 907.59259 1353.38281
1298.0 0.000770 909.17566 1168.11719
1052.0 0.000951 910.75494 1046.14258
1001.0 0.000999 912.33032 982.63232
986.0 0.001014 913.90192 954.94342
971.0 0.001030 915.46918 943.60779
896.0 0.001116 917.03235 938.45691
892.0 0.001121 918.59088 935.72406
837.0 0.001195 920.14478 934.20569
897.0 0.001115 921.69397 933.44653
903.0 0.001107 923.23834 933.20874
927.0 0.001079 924.77759 933.34302
909.0 0.001100 926.31158 933.74982
860.0 0.001163 927.84027 934.36035
928.0 0.001078 929.36359 935.12579
966.0 0.001035 930.88116 936.01056
922.0 0.001085 932.39307 936.98853
951.0 0.001052 933.89899 938.03992
931.0 0.001074 935.39880 939.14948
904.0 0.001106 936.89252 940.30566
943.0 0.001060 938.38025 941.49945
888.0 0.001126 939.86102 942.72284
901.0 0.001110 941.33551 943.97052
858.0 0.001166 942.80304 945.23718
911.0 0.001098 944.26385 946.51929
917.0 0.001091 945.71808 947.81378
876.0 0.001142 947.16467 949.11694
921.0 0.001086 948.60449 950.42773
912.0 0.001096 950.03656 951.74310
890.0 0.001124 951.46155 953.06226
950.0 0.001053 952.87909 954.38354
961.0 0.001041 954.28864 955.70526
883.0 0.001133 955.69067 957.02692
905.0 0.001105 957.08459 958.34705
945.0 0.001058 958.47058 959.66541
912.0 0.001096 959.84888 960.98120
876.0 0.001142 961.21851 962.29315
926.0 0.001080 962.58008 963.60138
885.0 0.001130 963.93304 964.28070
958.0 0.001044 965.27765 965.60822
952.0 0.001050 966.61395 966.61414
881.0 0.001135 967.94104 967.94122
919.0 0.001088 969.25983 969.25995
972.0 0.001029 970.56940 970.56958
1028.0 0.000973 971.87012 971.87030
986.0 0.001014 973.16211 973.16223
1009.0 0.000991 974.44458 974.44476
969.0 0.001032 975.71814 975.71826
1020.0 0.000980 976.98218 976.98230
987.0 0.001013 978.23700 978.23712
974.0 0.001027 979.48273 979.48285
972.0 0.001029 980.71857 980.71869
1009.0 0.000991 981.94501 981.94513
1027.0 0.000974 983.16162 983.16180
998.0 0.001002 984.36871 984.36884
1022.0 0.000978 985.56635 985.56647
1045.0 0.000957 986.75360 986.75378
991.0 0.001009 987.93146 987.93158
980.0 0.001020 989.09906 989.09924
986.0 0.001014 990.25684 990.25696
962.0 0.001040 991.40472 991.40491
977.0 0.001024 992.54230 992.54242
925.0 0.001081 993.66992 993.67004
980.0 0.001020 994.78717 994.78729
947.0 0.001056 995.89429 995.89447
953.0 0.001049 996.99146 996.99158
962.0 0.001040 998.07800 998.07813
995.0 0.001005 999.15436 999.15448
970.0 0.001031 1000.22015 1000.22028
989.0 0.001011 1001.27570 1001.27582
976.0 0.001025 1002.32104 1002.32117
1008.0 0.000992 1003.35553 1003.35565
996.0 0.001004 1004.37988 1004.38000
955.0 0.001047 1005.39349 1005.39362
990.0 0.001010 1006.39661 1006.39673
1032.0 0.000969 1007.38940 1007.38953
942.0 0.001062 1008.37140 1008.37152
977.0 0.001024 1009.34296 1009.34308
1021.0 0.000979 1010.30377 1010.30389
980.0 0.001020 1011.25409 1011.25421
1011.0 0.000989 1012.19403 1012.19415
944.0 0.001059 1013.12299 1013.12311
980.0 0.001020 1014.04156 1014.04169
970.0 0.001031 1014.94928 1014.94940
1013.0 0.000987 1015.84650 1015.84662
1028.0 0.000973 1016.73334 1016.73346
968.0 0.001033 1017.60913 1017.60925
941.0 0.001063 1018.47461 1018.47473
1059.0 0.000944 1019.32928 1019.32941
1008.0 0.000992 1020.17340 1020.17352
1034.0 0.000967 1021.00708 1021.00720
985.0 0.001015 1021.82996 1021.83008
952.0 0.001050 1022.64252 1022.64258
984.0 0.001016 1023.44415 1023.44427
1016.0 0.000984 1024.23547 1024.23560
1038.0 0.000963 1025.01636 1025.01648
974.0 0.001027 1025.78650 1025.78662
1041.0 0.000961 1026.54639 1033.09290
993.0 0.001007 1027.29565 1034.10303
1076.0 0.000929 1028.03455 1035.11877
1106.0 0.000904 1028.76318 1039.44519
1072.0 0.000933 1029.48120 1040.60864
1074.0 0.000931 1030.18896 1041.79028
1053.0 0.000950 1030.88635 1042.99255
1059.0 0.000944 1031.57349 1044.21826
1063.0 0.000941 1032.25049 1045.47058
1143.0 0.000875 1032.91711 1046.75256
1021.0 0.000979 1033.57373 1048.06885
1087.0 0.000920 1034.21997 1049.42285
1136.0 0.000880 1034.85620 1050.82019
1114.0 0.000898 1035.48254 1052.26624
1100.0 0.000909 1036.09863 1053.76660
1048.0 0.000954 1036.70483 1055.32922
1087.0 0.000920 1037.30103 1056.96143
1072.0 0.000933 1037.88733 1058.67273
1075.0 0.000930 1038.46399 1060.47412
1142.0 0.000876 1039.03076 1062.37671
1090.0 0.000917 1039.58777 1064.39563
1151.0 0.000869 1040.13489 1066.54602
1102.0 0.000907 1040.67261 1068.84766
1077.0 0.000929 1041.20068 1071.32324
1228.0 0.000814 1041.71912 1073.99756
1137.0 0.000880 1042.22827 1076.90344
1173.0 0.000853 1042.72778 1080.07642
1241.0 0.000806 1043.21802 1083.56226
1116.0 0.000896 1043.69897 1087.41541
1183.0 0.000845 1044.17065 1092.48181
1229.0 0.000814 1044.63306 1097.31104
1196.0 0.000836 1045.08643 1103.13257
1167.0 0.000857 1045.53064 1109.33081
1204.0 0.000831 1045.96594 1116.43018
1159.0 0.000863 1046.39209 1124.62866
1160.0 0.000862 1046.80957 1134.19397
1185.0 0.000844 1047.21802 1145.46692
1287.0 0.000777 1047.61780 1158.91187
1147.0 0.000872 1048.00891 1175.15894
1240.0 0.000806 1048.39124 1195.06897
1283.0 0.000779 1048.76526 1219.89063
1341.0 0.000746 1049.13049 1251.44080
1337.0 0.000748 1049.48743 1292.66418
1414.0 0.000707 1049.83606 1349.22278
1434.0 0.000697 1050.17615 1434.74780
1748.0 0.000572 1050.50818 1585.67419
2069.0 0.000483 1050.83203 1891.89685
2619.0 0.000382 1051.14771 2540.16235
3810.0 0.0002625 1051.45544 3825.87012
5647.0 0.0001771 1051.75513 6019.47852
8462.0 0.0001182 1052.04700 9042.43848
11438.0 0.0000874 1052.33093 12114.28906
13425.0 0.0000745 1052.60718 13849.47461
13568.0 0.0000737 1052.87585 13365.01172
12098.0 0.0000827 1053.13672 11377.73633
8850.0 0.0001130 1053.39014 8777.51465
6097.0 0.0001640 1053.63611 6098.39258
4060.0 0.0002463 1053.87463 3967.22363
2579.0 0.000388 1054.10583 2622.84839
1694.0 0.000590 1054.32971 1919.57556
1547.0 0.000646 1054.54651 1594.62305
1354.0 0.000739 1054.75610 1443.09058
1199.0 0.000834 1054.95862 1360.02087
1282.0 0.000780 1055.15430 1305.53052
1253.0 0.000798 1055.34290 1266.16907
1153.0 0.000867 1055.52466 1236.60120
1181.0 0.000847 1055.69971 1214.04431
1257.0 0.000796 1055.86816 1196.75183
1181.0 0.000847 1056.02991 1183.59937
1161.0 0.000861 1056.18494 1173.88635
1054.0 0.000949 1056.33362 1167.22668
1160.0 0.000862 1056.47583 1163.58203
1139.0 0.000878 1056.61169 1163.48596
1222.0 0.000818 1056.74133 1168.93372
1235.0 0.000810 1056.86475 1185.68164
1286.0 0.000778 1056.98193 1227.60864
1474.0 0.000678 1057.09302 1321.30200
1614.0 0.000620 1057.19812 1502.87488
1956.0 0.000511 1057.29736 1793.11377
2605.0 0.000384 1057.39050 2155.11450
2867.0 0.0003488 1057.47803 2467.69385
2701.0 0.000370 1057.55969 2573.88452
2622.0 0.000381 1057.63562 2442.30786
2233.0 0.000448 1057.70605 2186.76685
1908.0 0.000524 1057.77075 1881.89099
1503.0 0.000665 1057.83008 1587.95740
1356.0 0.000737 1057.88391 1367.86694
1244.0 0.000804 1057.93237 1234.40405
1162.0 0.000861 1057.97559 1165.99182
1142.0 0.000876 1058.01343 1133.92822
1073.0 0.000932 1058.04614 1117.94214
1123.0 0.000890 1058.07361 1108.35229
1061.0 0.000943 1058.09607 1101.58105
1074.0 0.000931 1058.11353 1096.39233
1151.0 0.000869 1058.12598 1092.26440
1053.0 0.000950 1058.13354 1088.89893
1073.0 0.000932 1058.13623 1086.10388
1071.0 0.000934 1058.13416 1083.74402
1089.0 0.000918 1058.12732 1081.72290
1105.0 0.000905 1058.11572 1079.97156
1033.0 0.000968 1058.09961 1078.43652
1060.0 0.000943 1058.07886 1077.07874
1063.0 0.000941 1058.05347 1075.86658
1021.0 0.000979 1058.02368 1068.17285
1073.0 0.000932 1057.98938 1067.43481
1043.0 0.000959 1057.95081 1066.76990
1081.0 0.000925 1057.90784 1062.92371
1055.0 0.000948 1057.86047 1062.49438
1034.0 0.000967 1057.80896 1062.10291
1078.0 0.000928 1057.75317 1061.74341
1049.0 0.000953 1057.69324 1061.41077
1038.0 0.000963 1057.62927 1061.10120
1098.0 0.000911 1057.56104 1060.81104
1087.0 0.000920 1057.48889 1060.53735
1064.0 0.000940 1057.41272 1060.27808
992.0 0.001008 1057.33264 1060.03076
1041.0 0.000961 1057.24854 1059.79382
1053.0 0.000950 1057.16064 1059.56567
1068.0 0.000936 1057.06885 1059.34473
1055.0 0.000948 1056.97327 1059.13025
1038.0 0.000963 1056.87390 1058.92114
1053.0 0.000950 1056.77075 1058.71631
1026.0 0.000975 1056.66394 1058.51526
1025.0 0.000976 1056.55334 1058.31714
1021.0 0.000979 1056.43921 1058.12158
982.0 0.001018 1056.32141 1057.92786
1070.0 0.000935 1056.20007 1057.73547
1117.0 0.000895 1056.07507 1057.54419
1056.0 0.000947 1055.94653 1057.35364
1014.0 0.000986 1055.81458 1057.16333
1098.0 0.000911 1055.67908 1056.97302
1011.0 0.000989 1055.54004 1056.78271
1004.0 0.000996 1055.39771 1055.82373
1043.0 0.000959 1055.25183 1055.66101
1038.0 0.000963 1055.10254 1055.49609
1006.0 0.000994 1054.94995 1054.95007
1053.0 0.000950 1054.79407 1054.79419
1030.0 0.000971 1054.63464 1054.63477
1041.0 0.000961 1054.47192 1054.47217
1051.0 0.000951 1054.30603 1054.30615
1019.0 0.000981 1054.13672 1054.13684
1070.0 0.000935 1053.96423 1053.96436
1034.0 0.000967 1053.78833 1053.78857
994.0 0.001006 1053.60913 1053.60938
1060.0 0.000943 1053.42688 1053.42700
1048.0 0.000954 1053.24121 1053.24146
1034.0 0.000967 1053.05249 1053.05261
953.0 0.001049 1052.86035 1052.86060
1080.0 0.000926 1052.66516 1052.66528
1035.0 0.000966 1052.46667 1052.46680
1068.0 0.000936 1052.26489 1052.26514
1052.0 0.000951 1052.06006 1052.06018
1105.0 0.000905 1051.85193 1051.85217
1013.0 0.000987 1051.64063 1051.64075
1045.0 0.000957 1051.42615 1051.42627
1074.0 0.000931 1051.20837 1051.20862
1070.0 0.000935 1050.98755 1050.98767
1096.0 0.000912 1050.76343 1050.76367
1109.0 0.000902 1050.53613 1050.53625
1084.0 0.000923 1050.30554 1050.30579
1031.0 0.000970 1050.07190 1050.07202
1072.0 0.000933 1049.83496 1049.83508
1138.0 0.000879 1049.59473 1049.59497
1039.0 0.000962 1049.35132 1049.35156
1033.0 0.000968 1049.10474 1049.10498
1124.0 0.000890 1048.85486 1048.85498
1109.0 0.000902 1048.60168 1048.60193
1038.0 0.000963 1048.34534 1048.34558
1005.0 0.000995 1048.08557 1048.08582
978.0 0.001022 1047.82263 1047.82288
1023.0 0.000978 1047.55640 1047.55664
1029.0 0.000972 1047.28687 1047.28711
1027.0 0.000974 1047.01392 1047.01416
1045.0 0.000957 1046.73767 1046.73779
972.0 0.001029 1046.45801 1046.45825
1003.0 0.000997 1046.17505 1046.17529
976.0 0.001025 1045.88867 1045.88892
964.0 0.001037 1045.59900 1045.59912
1099.0 0.000910 1045.30566 1045.30591
1006.0 0.000994 1045.00903 1045.00928
981.0 0.001019 1044.70886 1044.70911
1041.0 0.000961 1044.40527 1044.40552
1029.0 0.000972 1044.09814 1044.09839
1017.0 0.000983 1043.78748 1043.78772
1012.0 0.000988 1043.47327 1043.47351
1054.0 0.000949 1043.15552 1043.15576
1007.0 0.000993 1042.83411 1042.83435
985.0 0.001015 1042.50916 1042.50940
988.0 0.001012 1042.18042 1042.18066
1014.0 0.000986 1041.84814 1041.84827
1001.0 0.000999 1041.51208 1041.51233
1005.0 0.000995 1041.17236 1041.17249
1021.0 0.000979 1040.82886 1040.82910
998.0 0.001002 1040.48145 1040.48169
1032.0 0.000969 1040.13049 1040.13062
953.0 0.001049 1039.77551 1039.77563
1004.0 0.000996 1039.41663 1039.41687
981.0 0.001019 1039.05408 1039.05432
1047.0 0.000955 1038.68738 1038.68762
1054.0 0.000949 1038.31689 1038.31714
1045.0 0.000957 1037.94226 1037.94250
1018.0 0.000982 1037.56372 1037.56396
997.0 0.001003 1037.18115 1037.18140
1015.0 0.000985 1036.79443 1036.79468
1034.0 0.000967 1036.40369 1036.40393
1010.0 0.000990 1036.00867 1036.00891
1052.0 0.000951 1035.60962 1035.60986
1015.0 0.000985 1035.20642 1035.20667
1083.0 0.000923 1034.79871 1035.07104
1032.0 0.000969 1034.38708 1034.67017
967.0 0.001034 1033.97083 1034.26538
1050.0 0.000952 1033.55042 1033.99170
1004.0 0.000996 1033.12573 1033.58521
1016.0 0.000984 1032.69641 1033.17542
968.0 0.001033 1032.26282 1032.76257
952.0 0.001050 1031.82458 1032.34644
1055.0 0.000948 1031.38208 1031.92737
1039.0 0.000962 1030.93494 1031.50562
1018.0 0.000982 1030.48303 1031.08069
1030.0 0.000971 1030.02673 1030.65344
958.0 0.001044 1029.56567 1030.22339
1076.0 0.000929 1029.09998 1029.79138
996.0 0.001004 1028.62964 1029.35706
1018.0 0.000982 1028.15442 1028.92102
1000.0 0.001000 1027.67456 1028.48352
1014.0 0.000986 1027.18970 1028.04443
971.0 0.001030 1026.70020 1027.60498
1013.0 0.000987 1026.20569 1027.16479
985.0 0.001015 1025.70618 1026.72498
1034.0 0.000967 1025.20190 1026.28589
1038.0 0.000963 1024.69238 1025.84827
1081.0 0.000925 1024.17810 1029.47388
1012.0 0.000988 1023.65869 1029.20361
1055.0 0.000948 1023.13397 1028.94751
1023.0 0.000978 1022.60431 1030.71069
1024.0 0.000977 1022.06940 1030.56995
1043.0 0.000959 1021.52942 1030.45618
1027.0 0.000974 1020.98413 1030.37390
1045.0 0.000957 1020.43347 1030.32739
1056.0 0.000947 1019.87769 1030.32300
1046.0 0.000956 1019.31641 1030.36707
1091.0 0.000917 1018.74994 1030.46826
1003.0 0.000997 1018.17792 1030.63721
1036.0 0.000965 1017.60046 1030.88684
1086.0 0.000921 1017.01764 1031.23352
1102.0 0.000907 1016.42920 1031.69885
1081.0 0.000925 1015.83539 1032.31055
1094.0 0.000914 1015.23602 1033.10645
1106.0 0.000904 1014.63080 1034.13831
1031.0 0.000970 1014.02020 1035.48022
1066.0 0.000938 1013.40381 1037.25146
1105.0 0.000905 1012.78192 1039.68250
1070.0 0.000935 1012.15424 1043.33777
1129.0 0.000886 1011.52063 1049.71289
1155.0 0.000866 1010.88147 1062.41748
1105.0 0.000905 1010.23645 1088.57727
1226.0 0.000816 1009.58563 1138.38159
1191.0 0.000840 1008.92896 1219.52222
1383.0 0.000723 1008.26630 1325.93457
1543.0 0.000648 1007.59784 1429.86926
1504.0 0.000665 1006.92334 1488.65576
1624.0 0.000616 1006.24310 1479.71289
1473.0 0.000679 1005.55676 1427.12634
1403.0 0.000713 1004.86426 1357.50610
1214.0 0.000824 1004.16589 1278.44678
1224.0 0.000817 1003.46136 1202.76978
1160.0 0.000862 1002.75092 1145.69202
1166.0 0.000858 1002.03424 1111.65698
1123.0 0.000890 1001.31134 1096.86328
1156.0 0.000865 1000.58246 1094.77124
1099.0 0.000910 999.84735 1100.22241
1160.0 0.000862 999.10614 1110.77966
1195.0 0.000837 998.35870 1126.15283
1214.0 0.000824 997.60486 1147.55627
1246.0 0.000803 996.84497 1178.22815
1276.0 0.000784 996.07861 1226.74536
1396.0 0.000716 995.30627 1316.07727
1648.0 0.000607 994.52753 1501.42310
2019.0 0.000495 993.74219 1889.56091
2660.0 0.000376 992.95081 2628.53125
4010.0 0.0002494 992.15302 3822.07300
5821.0 0.0001718 991.34894 5365.30811
7126.0 0.0001403 990.53845 6841.45166
7078.0 0.0001413 989.72137 7633.79785
7301.0 0.0001370 988.89813 7447.05713
7144.0 0.0001400 988.06842 6647.71191
5882.0 0.0001700 987.23236 5609.24414
4039.0 0.0002476 986.38983 4425.30908
3215.0 0.0003110 985.54071 3268.66992
2570.0 0.000389 984.68536 2358.30640
1772.0 0.000564 983.82336 1763.56470
1411.0 0.000709 982.95520 1432.68469
1200.0 0.000833 982.08026 1268.10474
1157.0 0.000864 981.19891 1186.93127
1105.0 0.000905 980.31122 1141.72571
1092.0 0.000916 979.41693 1111.89502
1068.0 0.000936 978.51630 1089.83435
997.0 0.001003 977.60907 1072.58875
1043.0 0.000959 976.69519 1058.71509
1017.0 0.000983 975.77509 1047.33484
1074.0 0.000931 974.84833 1037.83691
1013.0 0.000987 973.91528 1029.79456
952.0 0.001050 972.97565 1022.89020
1046.0 0.000956 972.02924 1016.88953
1004.0 0.000996 971.07684 1011.61847
1019.0 0.000981 970.11755 1006.93787
940.0 0.001064 969.15222 1002.74426
1018.0 0.000982 968.18005 998.95233
961.0 0.001041 967.20142 995.49585
972.0 0.001029 966.21649 992.32281
973.0 0.001028 965.22504 989.38831
958.0 0.001044 964.22729 986.65820
977.0 0.001024 963.22302 983.83606
1025.0 0.000976 962.21204 981.43909
981.0 0.001019 961.19507 979.17200
994.0 0.001006 960.17145 976.88306
953.0 0.001049 959.14166 974.83032
931.0 0.001074 958.10541 972.86224
967.0 0.001034 957.06250 970.96802
935.0 0.001070 956.01373 969.13983
980.0 0.001020 954.95825 967.36853
988.0 0.001012 953.89673 965.64838
1041.0 0.000961 952.82880 963.97290
976.0 0.001025 951.75446 962.33685
934.0 0.001071 950.67413 960.73633
931.0 0.001074 949.58740 959.16681
902.0 0.001109 948.49457 957.62524
936.0 0.001068 947.39551 956.10828
917.0 0.001091 946.28998 954.61273
964.0 0.001037 945.17865 953.13721
991.0 0.001009 944.06104 951.67865
912.0 0.001096 942.93750 950.23578
958.0 0.001044 941.80774 948.80627
990.0 0.001010 940.67169 947.38849
965.0 0.001036 939.53009 941.86548
954.0 0.001048 938.38214 940.62347
943.0 0.001060 937.22845 939.38141
942.0 0.001062 936.06879 938.13843
922.0 0.001085 934.90295 934.90326
874.0 0.001144 933.73157 933.73187
943.0 0.001060 932.55414 932.55450
958.0 0.001044 931.37109 931.37146
875.0 0.001143 930.18219 930.18250
911.0 0.001098 928.98718 928.98755
969.0 0.001032 927.78693 929.13074
920.0 0.001087 926.58075 927.97754
908.0 0.001101 925.36914 926.82208
908.0 0.001101 924.15186 925.66437
951.0 0.001052 922.92859 925.18506
919.0 0.001088 921.70038 924.05139
975.0 0.001026 920.46631 922.91772
910.0 0.001099 919.22699 921.78558
965.0 0.001036 917.98230 920.65509
915.0 0.001093 916.73193 919.52679
929.0 0.001076 915.47650 918.40210
885.0 0.001130 914.21570 917.28131
891.0 0.001122 912.94977 916.16571
889.0 0.001125 911.67859 915.05627
919.0 0.001088 910.40186 913.95392
873.0 0.001145 909.12054 912.86060
908.0 0.001101 907.83386 911.77740
886.0 0.001129 906.54242 910.70648
904.0 0.001106 905.24591 909.64941
944.0 0.001059 903.94415 908.60852
892.0 0.001121 902.63800 907.58710
980.0 0.001020 901.32666 906.58734
875.0 0.001143 900.01080 905.61359
889.0 0.001125 898.69019 905.90540
892.0 0.001121 897.36462 905.04517
911.0 0.001098 896.03473 904.22845
951.0 0.001052 894.70001 904.06311
851.0 0.001175 893.36115 903.37958
882.0 0.001134 892.01764 902.76593
891.0 0.001122 890.66931 902.23462
919.0 0.001088 889.31714 901.80066
907.0 0.001103 887.96039 901.48206
895.0 0.001117 886.59967 901.30121
932.0 0.001073 885.23462 901.28638
934.0 0.001071 883.86505 901.47266
900.0 0.001111 882.49188 901.90521
933.0 0.001072 881.11444 902.64282
918.0 0.001089 879.73334 903.76154
939.0 0.001065 878.34814 905.36407
922.0 0.001085 876.95886 907.58990
942.0 0.001062 875.56610 910.63055
925.0 0.001081 874.16931 914.76752
972.0 0.001029 872.76935 920.44519
936.0 0.001068 871.36548 928.52612
1040.0 0.000962 869.95770 941.08618
1044.0 0.000958 868.54694 963.57672
1050.0 0.000952 867.13251 1009.32928
1079.0 0.000927 865.71490 1105.17017
1262.0 0.000792 864.29388 1291.66675
1648.0 0.000607 862.86932 1605.94324
2094.0 0.000478 861.44202 2042.01758
2634.0 0.000380 860.01135 2511.80884
2881.0 0.0003471 858.57788 2850.26245
3078.0 0.0003249 857.14130 2916.77271
2760.0 0.000362 855.70154 2750.50317
2416.0 0.000414 854.25934 2488.34937
2110.0 0.000474 852.81390 2182.53247
1736.0 0.000576 851.36633 1840.97046
1442.0 0.000693 849.91577 1516.44141
1211.0 0.000826 848.46222 1263.52563
1041.0 0.000961 847.00671 1097.77332
1043.0 0.000959 845.54840 1004.74884
933.0 0.001072 844.08801 958.72003
922.0 0.001085 842.62512 937.53589
921.0 0.001086 841.15967 928.32001
952.0 0.001050 839.69244 925.72290
919.0 0.001088 838.22284 928.96399
941.0 0.001063 836.75146 941.21118
918.0 0.001089 835.27795 972.16156
1024.0 0.000977 833.80231 1042.66577
1270.0 0.000787 832.32513 1186.03271
1507.0 0.000664 830.84583 1436.53210
1867.0 0.000536 829.36523 1798.32300
2350.0 0.000426 827.88269 2209.52563
2531.0 0.000395 826.39838 2536.72510
2539.0 0.000394 824.91296 2642.78101
2642.0 0.000379 823.42584 2527.94580
2436.0 0.000411 821.93762 2310.48364
2170.0 0.000461 820.44794 2054.44751
1720.0 0.000581 818.95667 1762.94934
1532.0 0.000653 817.46472 1469.88110
1253.0 0.000798 815.97144 1227.54297
1103.0 0.000907 814.47736 1059.08118
945.0 0.001058 812.98218 958.26410
921.0 0.001086 811.48578 904.38092
863.0 0.001159 809.98914 876.47949
855.0 0.001170 808.49127 860.70270
817.0 0.001224 806.99323 850.23553
807.0 0.001239 805.49420 842.30151
862.0 0.001160 803.99451 835.83502
814.0 0.001229 802.49469 830.36823
866.0 0.001155 800.99426 825.63348
797.0 0.001255 799.49371 821.45782
831.0 0.001203 797.99280 817.71564
755.0 0.001325 796.49127 814.31549
795.0 0.001258 794.99011 811.19104
782.0 0.001279 793.48871 808.28900
776.0 0.001289 791.98755 805.57043
773.0 0.001294 790.48633 803.00311
841.0 0.001189 788.98486 800.56207
781.0 0.001280 787.48425 798.22919
794.0 0.001259 785.98358 795.98682
757.0 0.001321 784.48334 793.82281
808.0 0.001238 782.98352 791.72601
821.0 0.001218 781.48401 788.32928
766.0 0.001305 779.98529 786.39294
799.0 0.001252 778.48712 784.49847
753.0 0.001328 776.98969 781.95050
782.0 0.001279 775.49304 780.15192
743.0 0.001346 773.99689 778.38062
729.0 0.001372 772.50220 776.63446
755.0 0.001325 771.00793 774.90973
770.0 0.001299 769.51526 773.20544
788.0 0.001269 768.02338 771.51874
738.0 0.001355 766.53210 769.84760
775.0 0.001290 765.04285 768.19208
769.0 0.001300 763.55438 766.54956
774.0 0.001292 762.06775 764.91992
777.0 0.001287 760.58234 763.30151
705.0 0.001418 759.09784 761.69305
742.0 0.001348 757.61566 760.09528
792.0 0.001263 756.13458 758.50610
801.0 0.001248 754.65570 756.92615
820.0 0.001220 753.17828 755.35394
768.0 0.001302 751.70239 753.78906
791.0 0.001264 750.22864 752.23163
716.0 0.001397 748.75653 749.45941
784.0 0.001276 747.28693 747.96155
743.0 0.001346 745.81909 746.46710
736.0 0.001359 744.35315 744.97607
804.0 0.001244 742.88959 742.89001
752.0 0.001330 741.42828 741.42865
749.0 0.001335 739.96924 739.96960
711.0 0.001406 738.51257 738.51294
752.0 0.001330 737.05798 737.05835
719.0 0.001391 735.60620 735.60657
761.0 0.001314 734.15686 734.15723
754.0 0.001326 732.71008 732.71051
711.0 0.001406 731.26599 731.26636
719.0 0.001391 729.82434 729.82471
694.0 0.001441 728.38593 728.38629
707.0 0.001414 726.94983 726.95020
752.0 0.001330 725.51709 725.51746
685.0 0.001460 724.08673 724.08710
686.0 0.001458 722.65936 722.65973
717.0 0.001395 721.23547 721.23584
745.0 0.001342 719.81421 720.08820
740.0 0.001351 718.39655 718.68134
732.0 0.001366 716.98181 717.27802
755.0 0.001325 715.56982 715.87817
717.0 0.001395 714.16187 714.61969
724.0 0.001381 712.75671 713.23370
739.0 0.001353 711.35547 711.85278
733.0 0.001364 709.95746 710.47650
737.0 0.001357 708.56238 709.10461
670.0 0.001493 707.17157 707.73853
677.0 0.001477 705.78387 706.37726
695.0 0.001439 704.40027 705.02203
676.0 0.001479 703.02014 703.67242
700.0 0.001429 701.64343 702.32843
720.0 0.001389 700.27081 700.99109
717.0 0.001395 698.90198 699.66040
654.0 0.001529 697.53693 698.33661
644.0 0.001553 696.17590 697.02014
669.0 0.001495 694.81848 695.71130
662.0 0.001511 693.46539 694.41095
659.0 0.001517 692.11627 693.11951
712.0 0.001404 690.77124 691.83759
695.0 0.001439 689.43036 690.56592
722.0 0.001385 688.09338 689.30518
738.0 0.001355 686.76105 688.05707
663.0 0.001508 685.43256 686.82172
633.0 0.001580 684.10852 685.60144
644.0 0.001553 682.78882 684.39752
683.0 0.001464 681.47321 683.21179
715.0 0.001399 680.16254 682.04718
648.0 0.001543 678.85577 680.90588
721.0 0.001387 677.55396 679.79224
688.0 0.001453 676.25641 678.71014
689.0 0.001451 674.96295 677.66479
701.0 0.001427 673.67474 676.66425
739.0 0.001353 672.39075 675.71649
659.0 0.001517 671.11182 674.83374
644.0 0.001553 669.83728 674.03070
667.0 0.001499 668.56708 673.32751
677.0 0.001477 667.30225 672.75256
677.0 0.001477 666.04175 672.34387
647.0 0.001546 664.78650 672.15985
653.0 0.001531 663.53583 672.30090
657.0 0.001522 662.28986 672.98517
681.0 0.001468 661.04895 674.76215
661.0 0.001513 659.81299 679.01550
674.0 0.001484 658.58203 688.77655
677.0 0.001477 657.35596 709.38416
680.0 0.001471 656.13470 747.63074
713.0 0.001403 654.91864 807.93097
813.0 0.001230 653.70764 886.14551
983.0 0.001017 652.50177 964.54077
947.0 0.001056 651.30096 1015.76563
977.0 0.001024 650.10504 1020.75623
927.0 0.001079 648.91473 989.80548
920.0 0.001087 647.72913 945.81781
821.0 0.001218 646.54895 896.98779
788.0 0.001269 645.37396 841.41956
780.0 0.001282 644.20398 783.81519
688.0 0.001453 643.03967 733.98212
635.0 0.001575 641.88025 697.24969
666.0 0.001502 640.72650 673.67242
617.0 0.001621 639.57782 660.04553
591.0 0.001692 638.43408 652.43976
673.0 0.001486 637.29626 647.88593
643.0 0.001555 636.16345 644.72247
647.0 0.001546 635.03638 642.20667
641.0 0.001560 633.91449 640.03961
611.0 0.001637 632.79761 638.09760
638.0 0.001567 631.68665 636.31952
619.0 0.001616 630.58081 634.66534
621.0 0.001610 629.48077 633.10931
680.0 0.001471 628.38599 631.63098
621.0 0.001610 627.29645 630.21582
603.0 0.001658 626.21259 628.85321
671.0 0.001490 625.13403 627.53400
605.0 0.001653 624.06134 626.25226
601.0 0.001664 622.99396 625.00208
634.0 0.001577 621.93182 623.77917
629.0 0.001590 620.87549 622.58057
612.0 0.001634 619.82458 621.40338
634.0 0.001577 618.77930 620.24524
631.0 0.001585 617.73950 619.10437
660.0 0.001515 616.70508 617.97900
627.0 0.001595 615.67633 616.86816
661.0 0.001513 614.65320 615.77051
633.0 0.001580 613.63556 614.68518
610.0 0.001639 612.62354 613.61151
598.0 0.001672 611.61682 612.54840
636.0 0.001572 610.61609 611.49597
608.0 0.001645 609.62054 610.45288
606.0 0.001650 608.63086 609.41949
596.0 0.001678 607.64661 608.39484
604.0 0.001656 606.66760 607.37842
581.0 0.001721 605.69464 606.37085
591.0 0.001692 604.72693 605.37103
587.0 0.001704 603.76508 604.37933
610.0 0.001639 602.80865 603.39496
632.0 0.001582 601.85742 602.41772
608.0 0.001645 600.91229 601.68243
601.0 0.001664 599.97235 600.72913
585.0 0.001709 599.03827 599.78351
582.0 0.001718 598.10956 598.84528
582.0 0.001718 597.18628 598.02997
567.0 0.001764 596.26868 596.83636
585.0 0.001709 595.35638 595.93518
638.0 0.001567 594.44995 595.04144
598.0 0.001672 593.54889 594.15460
621.0 0.001610 592.65320 593.13843
613.0 0.001631 591.76312 592.27124
602.0 0.001661 590.87854 591.41119
623.0 0.001605 589.99945 590.55841
556.0 0.001799 589.12579 589.71313
579.0 0.001727 588.25751 588.87543
573.0 0.001745 587.39478 588.04578
600.0 0.001667 586.53754 587.22424
572.0 0.001748 585.68567 586.41119
598.0 0.001672 584.83923 585.60693
587.0 0.001704 583.99811 584.81177
587.0 0.001704 583.16260 584.02649
592.0 0.001689 582.33221 583.25116
598.0 0.001672 581.50751 582.48688
568.0 0.001761 580.68787 581.73383
603.0 0.001658 579.87354 580.99329
593.0 0.001686 579.06482 580.26636
566.0 0.001767 578.26111 579.55377
568.0 0.001761 577.46301 578.85748
610.0 0.001639 576.67010 578.17889
598.0 0.001672 575.88208 577.52002
546.0 0.001832 575.09979 576.88409
595.0 0.001681 574.32245 576.27374
566.0 0.001767 573.55060 575.69336
618.0 0.001618 572.78381 575.14777
563.0 0.001776 572.02197 574.64325
595.0 0.001681 571.26563 574.18860
600.0 0.001667 570.51422 573.79407
539.0 0.001855 569.76819 573.47430
548.0 0.001825 569.02710 573.24823
581.0 0.001721 568.29102 573.14258
602.0 0.001661 567.56006 573.19623
546.0 0.001832 566.83423 573.47498
585.0 0.001709 566.11340 574.11273
552.0 0.001812 565.39758 575.43713
620.0 0.001613 564.68665 578.26257
634.0 0.001577 563.98083 584.40527
639.0 0.001565 563.27991 597.22443
674.0 0.001484 562.58392 621.42078
726.0 0.001377 561.89282 661.15594
872.0 0.001147 561.20654 716.26038
959.0 0.001043 560.52527 778.15088
978.0 0.001022 559.84869 829.21863
1020.0 0.000980 559.17700 850.59656
1043.0 0.000959 558.51007 839.03223
967.0 0.001034 557.84784 810.17340
910.0 0.001099 557.19055 778.11597
801.0 0.001248 556.53772 742.05536
729.0 0.001372 555.88989 700.87103
701.0 0.001427 555.24658 659.01855
628.0 0.001592 554.60767 623.65015
635.0 0.001575 553.97375 597.29535
587.0 0.001704 553.34418 580.29138
576.0 0.001736 552.71942 570.41522
626.0 0.001597 552.09906 564.93311
553.0 0.001808 551.48303 561.74438
575.0 0.001739 550.87183 559.63898
558.0 0.001792 550.26489 558.04803
579.0 0.001727 549.66260 556.73724
574.0 0.001742 549.06458 555.60797
569.0 0.001757 548.47089 554.61218
561.0 0.001783 547.88165 553.72186
580.0 0.001724 547.29669 552.91724
562.0 0.001779 546.71613 552.18475
543.0 0.001842 546.13977 551.51471
524.0 0.001908 545.56763 550.89984
541.0 0.001848 544.99976 550.33569
564.0 0.001773 544.43616 549.81909
518.0 0.001931 543.87671 549.34814
558.0 0.001792 543.32135 548.92261
595.0 0.001681 542.77002 548.54285
558.0 0.001792 542.22302 548.21075
556.0 0.001799 541.67987 547.92926
552.0 0.001812 541.14087 547.70221
582.0 0.001718 540.60583 547.53522
608.0 0.001645 540.07471 547.43524
601.0 0.001664 539.54767 547.41132
541.0 0.001848 539.02441 547.47473
513.0 0.001949 538.50519 547.64001
582.0 0.001718 537.98975 547.92548
510.0 0.001961 537.47797 548.35468
568.0 0.001761 536.97028 548.95776
562.0 0.001779 536.46613 549.77435
587.0 0.001704 535.96594 550.85651
534.0 0.001873 535.46942 552.27435
545.0 0.001835 534.97632 554.12476
540.0 0.001852 534.48718 556.54779
536.0 0.001866 534.00153 559.77869
561.0 0.001783 533.51959 564.29028
565.0 0.001770 533.04120 571.21802
601.0 0.001664 532.56622 583.35455
549.0 0.001821 532.09485 606.91620
654.0 0.001529 531.62689 653.52197
658.0 0.001520 531.16254 739.91058
834.0 0.001199 530.70148 881.93311
1028.0 0.000973 530.24384 1082.92175
1281.0 0.000781 529.78955 1317.54553
1383.0 0.000723 529.33862 1527.09314
1533.0 0.000652 528.89105 1638.78931
1649.0 0.000606 528.44666 1623.03101
1603.0 0.000624 528.00549 1526.92249
1312.0 0.000762 527.56763 1409.03503
1081.0 0.000925 527.13293 1284.30408
968.0 0.001033 526.70142 1141.44104
935.0 0.001070 526.27307 985.59058
817.0 0.001224 525.84772 841.30548
647.0 0.001546 525.42554 727.29272
591.0 0.001692 525.00629 648.87390
604.0 0.001656 524.59021 601.25903
586.0 0.001706 524.17700 574.83209
535.0 0.001869 523.76666 560.54883
543.0 0.001842 523.35944 552.32837
561.0 0.001783 522.95502 546.95782
551.0 0.001815 522.55353 542.98779
548.0 0.001825 522.15485 539.82758
513.0 0.001949 521.75885 537.21118
532.0 0.001880 521.36578 534.99707
490.0 0.002041 520.97540 533.09180
533.0 0.001876 520.58789 531.43060
541.0 0.001848 520.20294 529.96423
508.0 0.001969 519.82068 528.65588
506.0 0.001976 519.44104 527.47748
500.0 0.002000 519.06403 526.40631
520.0 0.001923 518.68970 525.42523
517.0 0.001934 518.31787 524.51984
491.0 0.002037 517.94849 523.67883
534.0 0.001873 517.58167 522.89331
525.0 0.001905 517.21735 522.15533
516.0 0.001938 516.85547 521.45892
510.0 0.001961 516.49597 520.79883
504.0 0.001984 516.13885 520.17029
512.0 0.001953 515.78418 519.57031
469.0 0.002132 515.43176 518.99524
508.0 0.001969 515.08173 518.44269
542.0 0.001845 514.73395 517.91028
544.0 0.001838 514.38837 517.39581
545.0 0.001835 514.04517 516.89801
476.0 0.002101 513.70404 516.41516
543.0 0.001842 513.36517 515.94635
543.0 0.001842 513.02838 515.48987
525.0 0.001905 512.69366 515.04517
512.0 0.001953 512.36121 514.61139
501.0 0.001996 512.03070 514.18781
548.0 0.001825 511.70236 513.77368
496.0 0.002016 511.37598 513.36865
534.0 0.001873 511.05151 512.97198
478.0 0.002092 510.72916 512.58362
516.0 0.001938 510.40863 512.20319
505.0 0.001980 510.09015 511.83047
492.0 0.002033 509.77353 511.46536
476.0 0.002101 509.45865 510.19418
526.0 0.001901 509.14578 509.87817
516.0 0.001938 508.83463 509.56796
509.0 0.001965 508.52542 509.26437
489.0 0.002045 508.21790 508.50681
479.0 0.002088 507.91208 508.23535
499.0 0.002004 507.60806 507.97217
486.0 0.002058 507.30573 507.71896
487.0 0.002053 507.00510 507.47812
473.0 0.002114 506.70609 507.25314
523.0 0.001912 506.40869 507.24155
510.0 0.001961 506.11298 507.07968
516.0 0.001938 505.81885 506.98355
552.0 0.001812 505.52625 507.02612
467.0 0.002141 505.23523 507.36462
471.0 0.002123 504.94568 508.37650
533.0 0.001876 504.65775 510.26230
530.0 0.001887 504.37115 513.47424
549.0 0.001821 504.08609 518.05548
546.0 0.001832 503.80246 523.42731
559.0 0.001789 503.52020 528.25171
559.0 0.001789 503.23944 530.83734
538.0 0.001859 502.95993 530.41101
576.0 0.001736 502.68192 527.96832
586.0 0.001706 502.40515 524.95355
534.0 0.001873 502.12961 521.86725
527.0 0.001898 501.85550 518.43304
530.0 0.001887 501.58258 515.45428
564.0 0.001773 501.31097 511.66898
500.0 0.002000 501.04059 508.45383
509.0 0.001965 500.77130 506.04721
492.0 0.002033 500.50336 504.85855
520.0 0.001923 500.23651 503.85049
504.0 0.001984 499.97089 503.22183
513.0 0.001949 499.70636 502.79999
476.0 0.002101 499.44293 502.48257
484.0 0.002066 499.18060 502.21942
521.0 0.001919 498.91940 501.98898
489.0 0.002045 498.65924 501.78229
488.0 0.002049 498.40012 501.59564
511.0 0.001957 498.14200 501.42700
538.0 0.001859 497.88489 501.27545
500.0 0.002000 497.62881 501.14066
474.0 0.002110 497.37372 501.02264
513.0 0.001949 497.11957 500.92206
501.0 0.001996 496.86633 500.83960
539.0 0.001855 496.61411 500.77673
542.0 0.001845 496.36270 500.73499
523.0 0.001912 496.11221 500.71640
533.0 0.001876 495.86264 500.72360
502.0 0.001992 495.61386 500.75949
514.0 0.001946 495.36603 500.82800
514.0 0.001946 495.11893 500.93372
505.0 0.001980 494.87271 501.08209
509.0 0.001965 494.62729 501.28036
522.0 0.001916 494.38254 501.53699
501.0 0.001996 494.13870 501.86292
514.0 0.001946 493.89557 502.27203
579.0 0.001727 493.65323 502.78214
516.0 0.001938 493.41156 503.41702
529.0 0.001890 493.17053 504.20889
528.0 0.001894 492.93033 505.20551
525.0 0.001905 492.69073 506.49106
505.0 0.001980 492.45190 508.24167
501.0 0.001996 492.21368 510.87354
515.0 0.001942 491.97607 515.34363
502.0 0.001992 491.73914 523.60010
537.0 0.001862 491.50278 538.95013
569.0 0.001757 491.26712 565.68201
606.0 0.001650 491.03201 607.33673
737.0 0.001357 490.79742 663.63428
789.0 0.001267 490.56348 727.34027
814.0 0.001229 490.33008 783.39563
767.0 0.001304 490.09723 813.83234
867.0 0.001153 489.86493 811.77594
802.0 0.001247 489.63309 789.04352
741.0 0.001350 489.40182 761.28949
751.0 0.001332 489.17105 733.93634
687.0 0.001456 488.94080 703.95343
702.0 0.001425 488.71100 670.33307
641.0 0.001560 488.48163 638.51123
623.0 0.001605 488.25281 616.94922
591.0 0.001692 488.02435 614.20703
615.0 0.001626 487.79642 641.10992
684.0 0.001462 487.56885 712.64111
786.0 0.001272 487.34167 845.57440
1045.0 0.000957 487.11499 1049.79895
1373.0 0.000728 486.88864 1314.25208
1487.0 0.000672 486.66275 1594.59326
1653.0 0.000605 486.43723 1814.69348
1674.0 0.000597 486.21198 1900.79138
1794.0 0.000557 485.98721 1847.29285
1771.0 0.000565 485.76273 1721.54419
1434.0 0.000697 485.53867 1583.78906
1244.0 0.000804 485.31491 1444.04297
1050.0 0.000952 485.09143 1284.18506
932.0 0.001073 484.86835 1104.00464
864.0 0.001157 484.64551 928.52325
689.0 0.001451 484.42307 781.55780
575.0 0.001739 484.20087 673.70087
556.0 0.001799 483.97894 603.52557
560.0 0.001786 483.75732 562.23102
548.0 0.001825 483.53601 539.28436
535.0 0.001869 483.31494 526.40387
487.0 0.002053 483.09412 518.52441
545.0 0.001835 482.87357 513.09393
537.0 0.001862 482.65323 508.96786
494.0 0.002024 482.43323 505.65158
490.0 0.002041 482.21335 502.90503
490.0 0.002041 481.99377 500.59189
516.0 0.001938 481.77441 498.62024
476.0 0.002101 481.55524 497.23807
519.0 0.001927 481.33630 495.77444
499.0 0.002004 481.11755 494.49615
503.0 0.001988 480.89899 493.37363
543.0 0.001842 480.68063 492.38394
501.0 0.001996 480.46246 491.66559
520.0 0.001923 480.24448 490.89545
495.0 0.002020 480.02670 490.21484
482.0 0.002075 479.80902 489.61557
453.0 0.002208 479.59158 489.09201
490.0 0.002041 479.37427 488.64008
504.0 0.001984 479.15717 488.25821
506.0 0.001976 478.94012 487.94653
479.0 0.002088 478.72324 487.70773
476.0 0.002101 478.50656 487.54666
478.0 0.002092 478.28998 487.47147
477.0 0.002096 478.07358 487.49423
487.0 0.002053 477.85724 487.63251
503.0 0.001988 477.64102 487.91241
490.0 0.002041 477.42499 488.37634
505.0 0.001980 477.20901 489.10577
508.0 0.001969 476.99323 490.28220
516.0 0.001938 476.77747 492.33624
520.0 0.001923 476.56183 496.22964
518.0 0.001931 476.34634 503.84238
509.0 0.001965 476.13089 518.02753
515.0 0.001942 475.91562 542.91278
563.0 0.001776 475.70035 581.14758
587.0 0.001704 475.48523 632.03699
644.0 0.001553 475.27017 688.88770
714.0 0.001401 475.05521 738.28082
665.0 0.001504 474.84030 764.65820
739.0 0.001353 474.62546 761.69934
689.0 0.001451 474.41074 739.42419
599.0 0.001669 474.19604 711.92438
627.0 0.001595 473.98145 684.86780
548.0 0.001825 473.76694 655.64343
548.0 0.001825 473.55246 621.46332
619.0 0.001616 473.33801 585.34082
477.0 0.002096 473.12369 552.60309
540.0 0.001852 472.90936 526.71887
479.0 0.002088 472.69510 508.65518
492.0 0.002033 472.48093 496.52771
506.0 0.001976 472.26672 490.14444
538.0 0.001859 472.05267 486.70880
489.0 0.002045 471.83859 484.86951
497.0 0.002012 471.62460 483.42426
548.0 0.001825 471.41061 482.90784
499.0 0.002004 471.19662 482.72113
471.0 0.002123 470.98279 482.81961
504.0 0.001984 470.76886 483.20770
466.0 0.002146 470.55508 483.92712
509.0 0.001965 470.34125 485.07993
501.0 0.001996 470.12744 486.90695
476.0 0.002101 469.91376 489.98819
495.0 0.002020 469.70001 495.64789
521.0 0.001919 469.48636 506.54498
512.0 0.001953 469.27271 527.17157
604.0 0.001656 469.05905 563.46362
706.0 0.001416 468.84543 620.69250
817.0 0.001224 468.63187 699.66638
1001.0 0.000999 468.41827 792.47601
1130.0 0.000885 468.20471 880.45764
1173.0 0.000853 467.99115 937.76886
1195.0 0.000837 467.77765 947.31360
1214.0 0.000824 467.56415 917.96399
1143.0 0.000875 467.35065 873.58698
972.0 0.001029 467.13721 829.05725
865.0 0.001156 466.92371 783.79590
749.0 0.001335 466.71027 731.25830
765.0 0.001307 466.49680 672.26868
676.0 0.001479 466.28339 615.01495
542.0 0.001845 466.06995 566.78131
561.0 0.001783 465.85651 530.93915
513.0 0.001949 465.64316 507.17410
492.0 0.002033 465.42972 492.82828
486.0 0.002058 465.21637 484.64075
504.0 0.001984 465.00296 479.93240
498.0 0.002008 464.78952 477.00494
501.0 0.001996 464.57620 474.96146
495.0 0.002020 464.36279 473.38394
457.0 0.002188 464.14948 472.08878
452.0 0.002212 463.93607 470.98795
482.0 0.002075 463.72266 470.03348
494.0 0.002024 463.50934 469.19373
460.0 0.002174 463.29596 468.44540
478.0 0.002092 463.08264 467.77158
491.0 0.002037 462.86923 467.15863
498.0 0.002008 462.65588 466.59625
461.0 0.002169 462.44254 466.07617
458.0 0.002183 462.22916 465.59155
435.0 0.002299 462.01584 465.13733
459.0 0.002179 461.80243 464.70880
433.0 0.002309 461.58908 464.30249
476.0 0.002101 461.37573 463.72998
448.0 0.002232 461.16235 463.36530
468.0 0.002137 460.94901 463.01495
483.0 0.002070 460.73563 462.67712
480.0 0.002083 460.52225 462.35037
461.0 0.002169 460.30887 461.94138
460.0 0.002174 460.09552 461.63589
432.0 0.002315 459.88211 461.33801
453.0 0.002208 459.66876 461.04697
443.0 0.002257 459.45535 460.76187
444.0 0.002252 459.24200 460.48233
438.0 0.002283 459.02856 460.20761
416.0 0.002404 458.81522 459.93741
434.0 0.002304 458.60178 459.67117
460.0 0.002174 458.38834 459.40857
439.0 0.002278 458.17499 459.14935
411.0 0.002433 457.96155 458.89310
456.0 0.002193 457.74817 458.63968
478.0 0.002092 457.53473 458.38870
475.0 0.002105 457.32126 458.15506
454.0 0.002203 457.10788 457.90912
437.0 0.002288 456.89441 457.66501
468.0 0.002137 456.68103 457.42291
451.0 0.002217 456.46756 457.18231
480.0 0.002083 456.25409 456.94342
409.0 0.002445 456.04065 456.71362
451.0 0.002217 455.82718 456.47769
445.0 0.002247 455.61374 456.24323
473.0 0.002114 455.40024 456.00980
442.0 0.002262 455.18680 455.77759
458.0 0.002183 454.97333 455.54636
441.0 0.002268 454.75983 455.31619
446.0 0.002242 454.54636 454.76755
418.0 0.002392 454.33286 454.54907
434.0 0.002304 454.11932 454.33093
445.0 0.002247 453.90585 454.11325
440.0 0.002273 453.69235 453.89590
455.0 0.002198 453.47882 453.51999
428.0 0.002336 453.26532 453.30829
445.0 0.002247 453.05176 453.09665
430.0 0.002326 452.83826 452.88519
436.0 0.002294 452.62469 452.67380
444.0 0.002252 452.41119 452.46268
453.0 0.002208 452.19763 452.25162
432.0 0.002315 451.98404 452.04077
450.0 0.002222 451.77054 451.83017
418.0 0.002392 451.55695 451.61972
488.0 0.002049 451.34341 451.40964
430.0 0.002326 451.12979 451.19974
459.0 0.002179 450.91620 450.99014
414.0 0.002415 450.70264 450.78104
422.0 0.002370 450.48901 450.57285
438.0 0.002283 450.27545 450.36456
452.0 0.002212 450.06183 450.15671
463.0 0.002160 449.84818 449.94946
485.0 0.002062 449.63461 449.74292
420.0 0.002381 449.42093 449.53741
403.0 0.002481 449.20737 449.33255
427.0 0.002342 448.99368 449.12869
486.0 0.002058 448.78006 448.92596
419.0 0.002387 448.56641 448.72467
456.0 0.002193 448.35275 448.52499
441.0 0.002268 448.13910 448.32724
468.0 0.002137 447.92538 448.13184
479.0 0.002088 447.71173 447.93924
428.0 0.002336 447.49805 447.75003
437.0 0.002288 447.28436 447.56494
436.0 0.002294 447.07068 447.38510
433.0 0.002309 446.85699 447.21173
434.0 0.002304 446.64325 447.04675
437.0 0.002288 446.42957 446.89319
446.0 0.002242 446.21582 446.75644
457.0 0.002188 446.00208 446.64844
428.0 0.002336 445.78836 446.59637
456.0 0.002193 445.57458 446.65967
430.0 0.002326 445.36087 446.95374
473.0 0.002114 445.14706 447.66681
433.0 0.002309 444.93335 449.04205
406.0 0.002463 444.71954 451.29376
446.0 0.002242 444.50574 454.45880
421.0 0.002375 444.29199 458.24142
454.0 0.002203 444.07819 461.92828
455.0 0.002198 443.86441 464.45694
472.0 0.002119 443.65057 464.97870
488.0 0.002049 443.43674 463.70038
486.0 0.002058 443.22296 461.62332
453.0 0.002208 443.00909 459.53061
482.0 0.002075 442.79529 457.56601
449.0 0.002227 442.58142 455.40958
449.0 0.002227 442.36758 452.86542
443.0 0.002257 442.15372 450.16058
431.0 0.002320 441.93985 447.64789
406.0 0.002463 441.72601 445.56802
427.0 0.002342 441.51208 444.00473
446.0 0.002242 441.29822 442.91321
455.0 0.002198 441.08432 442.17520
394.0 0.002538 440.87042 441.66287
411.0 0.002433 440.65652 441.27744
426.0 0.002347 440.44260 441.19464
403.0 0.002481 440.22867 440.91605
411.0 0.002433 440.01477 440.65622
468.0 0.002137 439.80081 440.40823
453.0 0.002208 439.58685 440.16919
447.0 0.002237 439.37292 439.93747
467.0 0.002141 439.15894 439.83237
427.0 0.002342 438.94501 439.61957
412.0 0.002427 438.73102 439.41782
434.0 0.002304 438.51709 439.23346
441.0 0.002268 438.30310 439.07480
483.0 0.002070 438.08908 438.95090
477.0 0.002096 437.87512 438.86603
482.0 0.002075 437.66110 438.81354
510.0 0.001961 437.44714 438.77170
516.0 0.001938 437.23312 438.70306
538.0 0.001859 437.01907 438.56723
472.0 0.002119 436.80511 438.35400
532.0 0.001880 436.59106 438.09433
493.0 0.002028 436.37708 437.82645
485.0 0.002062 436.16302 437.56696
477.0 0.002096 435.94901 437.30969
451.0 0.002217 435.73499 437.04156
465.0 0.002151 435.52094 436.76358
452.0 0.002212 435.30695 436.48901
437.0 0.002288 435.09290 436.23035
442.0 0.002262 434.87885 435.99429
420.0 0.002381 434.66483 435.78201
480.0 0.002083 434.45078 435.59073
467.0 0.002141 434.23676 435.41565
414.0 0.002415 434.02274 435.59698
430.0 0.002326 433.80865 435.45486
420.0 0.002381 433.59464 435.32172
454.0 0.002203 433.38062 435.19736
409.0 0.002445 433.16660 435.08234
442.0 0.002262 432.95258 434.97754
433.0 0.002309 432.73849 435.05746
442.0 0.002262 432.52454 434.98270
421.0 0.002375 432.31049 434.92285
440.0 0.002273 432.09653 434.88019
428.0 0.002336 431.88251 434.85721
431.0 0.002320 431.66849 434.85703
409.0 0.002445 431.45453 434.88358
451.0 0.002217 431.24051 434.94165
453.0 0.002208 431.02658 435.03699
459.0 0.002179 430.81259 435.17688
424.0 0.002358 430.59860 435.55432
425.0 0.002353 430.38470 435.80414
430.0 0.002326 430.17075 436.15088
427.0 0.002342 429.95688 436.59918
435.0 0.002299 429.74295 437.17822
443.0 0.002257 429.52905 438.02454
461.0 0.002169 429.31519 439.05048
426.0 0.002347 429.10132 440.52884
466.0 0.002146 428.88751 442.90491
467.0 0.002141 428.67365 447.08008
441.0 0.002268 428.45984 454.75092
423.0 0.002364 428.24606 468.59348
457.0 0.002188 428.03232 491.98441
513.0 0.001949 427.81857 527.82391
531.0 0.001883 427.60486 576.63910
658.0 0.001520 427.39114 634.51990
739.0 0.001353 427.17749 691.95935
767.0 0.001304 426.96387 734.62952
749.0 0.001335 426.75024 749.72296
748.0 0.001337 426.53665 737.63037
803.0 0.001245 426.32309 711.38483
740.0 0.001351 426.10959 683.47467
641.0 0.001560 425.89609 658.23700
628.0 0.001592 425.68268 632.36188
610.0 0.001639 425.46921 601.26605
612.0 0.001634 425.25580 565.84680
557.0 0.001795 425.04251 530.87250
511.0 0.001957 424.82916 500.58197
504.0 0.001984 424.61594 477.25983
444.0 0.002252 424.40268 461.17990
449.0 0.002227 424.18948 451.19208
438.0 0.002283 423.97638 445.54968
433.0 0.002309 423.76328 442.63672
472.0 0.002119 423.55029 441.31949
452.0 0.002212 423.33728 440.95810
460.0 0.002174 423.12430 441.28516
459.0 0.002179 422.91147 442.31244
469.0 0.002132 422.69861 444.35855
434.0 0.002304 422.48590 448.24319
470.0 0.002128 422.27316 455.65213
422.0 0.002370 422.06052 469.51086
473.0 0.002114 421.84796 494.00183
544.0 0.001838 421.63544 533.70764
617.0 0.001621 421.42300 591.48608
650.0 0.001538 421.21057 665.75098
745.0 0.001342 420.99826 748.06427
850.0 0.001176 420.78604 822.38770
857.0 0.001167 420.57388 868.34180
816.0 0.001225 420.36179 873.82910
927.0 0.001079 420.14978 847.47723
838.0 0.001193 419.93784 808.92572
714.0 0.001401 419.72601 771.93152
705.0 0.001418 419.51422 738.54865
682.0 0.001466 419.30258 702.63904
598.0 0.001672 419.09100 660.13025
582.0 0.001718 418.87946 615.53326
539.0 0.001855 418.66809 577.42572
542.0 0.001845 418.45679 553.29675
511.0 0.001957 418.24561 547.66150
548.0 0.001825 418.03445 560.94104
583.0 0.001715 417.82343 588.96399
674.0 0.001484 417.61258 623.19061
724.0 0.001381 417.40176 651.86792
700.0 0.001429 417.19113 663.83319
686.0 0.001458 416.98053 656.39899
707.0 0.001414 416.77005 637.16260
700.0 0.001429 416.55975 615.50415
610.0 0.001639 416.34952 595.92047
558.0 0.001792 416.13947 577.17889
564.0 0.001773 415.92947 555.55127
529.0 0.001890 415.71964 530.15417
505.0 0.001980 415.50995 503.76791
526.0 0.001901 415.30038 479.69702
443.0 0.002257 415.09097 460.09567
447.0 0.002237 414.88165 445.67941
408.0 0.002451 414.67252 435.99063
411.0 0.002433 414.46350 429.90173
415.0 0.002410 414.25464 426.17792
426.0 0.002347 414.04596 423.83868
425.0 0.002353 413.83740 422.24756
416.0 0.002404 413.62897 421.05283
443.0 0.002257 413.42078 419.84244
473.0 0.002114 413.21268 419.01508
444.0 0.002252 413.00479 418.28546
403.0 0.002481 412.79706 417.63049
439.0 0.002278 412.58945 417.03540
425.0 0.002353 412.38208 416.36945
413.0 0.002421 412.17487 415.86823
388.0 0.002577 411.96786 415.40146
420.0 0.002381 411.76099 414.96368
420.0 0.002381 411.55429 414.55075
369.0 0.002710 411.34787 414.15945
421.0 0.002375 411.14157 413.78677
425.0 0.002353 410.93552 413.43048
413.0 0.002421 410.72961 413.08847
410.0 0.002439 410.52390 412.75925
421.0 0.002375 410.31848 412.44159
447.0 0.002237 410.11319 412.13397
419.0 0.002387 409.90820 411.83582
437.0 0.002288 409.70334 411.54599
439.0 0.002278 409.49875 411.26401
375.0 0.002667 409.29437 410.98926
413.0 0.002421 409.09018 410.72125
416.0 0.002404 408.88629 410.45987
360.0 0.002778 408.68259 410.26367
389.0 0.002571 408.47913 410.01642
405.0 0.002469 408.27594 409.77548
428.0 0.002336 408.07297 409.54089
415.0 0.002410 407.87027 409.31299
391.0 0.002558 407.66782 409.09247
401.0 0.002494 407.46558 408.56229
421.0 0.002375 407.26364 408.37219
416.0 0.002404 407.06195 408.19635
386.0 0.002591 406.86057 408.04404
418.0 0.002392 406.65942 407.93536
368.0 0.002717 406.45853 407.90994
451.0 0.002217 406.25797 407.86502
410.0 0.002439 406.05762 408.24780
424.0 0.002358 405.85764 408.99728
413.0 0.002421 405.65787 410.20300
408.0 0.002451 405.45840 411.86395
434.0 0.002304 405.25931 413.82755
447.0 0.002237 405.06042 415.75766
385.0 0.002597 404.86194 417.16690
443.0 0.002257 404.66367 417.62830
405.0 0.002469 404.46573 417.11050
413.0 0.002421 404.26816 415.82208
407.0 0.002457 404.07083 414.57977
385.0 0.002597 403.87393 413.42297
411.0 0.002433 403.67728 412.30521
409.0 0.002445 403.48096 411.05817
416.0 0.002404 403.28500 409.53107
416.0 0.002404 403.08936 408.02112
387.0 0.002584 402.89410 406.59735
366.0 0.002732 402.69916 405.37848
375.0 0.002667 402.50458 404.41672
404.0 0.002475 402.31036 403.70267
406.0 0.002463 402.11649 403.18781
380.0 0.002632 401.92297 402.81213
420.0 0.002381 401.72986 402.52304
403.0 0.002481 401.53705 402.28394
427.0 0.002342 401.34467 402.07343
393.0 0.002545 401.15265 401.88025
365.0 0.002740 400.96103 401.69952
399.0 0.002506 400.76981 401.52908
371.0 0.002695 400.57892 401.36838
433.0 0.002309 400.38849 401.21777
373.0 0.002681 400.19839 401.07767
422.0 0.002370 400.00879 400.94943
378.0 0.002646 399.81952 400.83456
398.0 0.002513 399.63065 400.73541
387.0 0.002584 399.44226 400.65497
412.0 0.002427 399.25424 400.59753
389.0 0.002571 399.06668 400.56943
360.0 0.002778 398.87952 400.58148
379.0 0.002639 398.69275 400.65482
396.0 0.002525 398.50650 400.83469
398.0 0.002513 398.32062 401.21783
426.0 0.002347 398.13525 401.99631
397.0 0.002519 397.95029 403.51123
388.0 0.002577 397.76575 406.27942
383.0 0.002611 397.58173 410.93515
410.0 0.002439 397.39810 418.03757
419.0 0.002387 397.21500 427.74017
435.0 0.002299 397.03232 439.43875
428.0 0.002336 396.85013 451.56049
431.0 0.002320 396.66843 461.58109
412.0 0.002427 396.48718 466.77176
439.0 0.002278 396.30643 466.10599
445.0 0.002247 396.12613 461.32758
414.0 0.002415 395.94635 455.18311
460.0 0.002174 395.76706 449.44064
419.0 0.002387 395.58829 444.29486
428.0 0.002336 395.41000 438.80719
386.0 0.002591 395.23224 432.17279
379.0 0.002639 395.05493 424.68307
416.0 0.002404 394.87820 417.25543
402.0 0.002488 394.70193 410.69504
369.0 0.002710 394.52621 405.46301
387.0 0.002584 394.35104 401.65335
395.0 0.002532 394.17636 399.08441
377.0 0.002653 394.00226 397.43701
401.0 0.002494 393.82864 396.38843
396.0 0.002525 393.65561 395.69037
417.0 0.002398 393.48309 395.18307
423.0 0.002364 393.31110 394.77759
374.0 0.002674 393.13971 394.42285
404.0 0.002475 392.96884 394.10641
397.0 0.002519 392.79858 393.81873
383.0 0.002611 392.62881 393.54984
378.0 0.002646 392.45963 393.29599
412.0 0.002427 392.29105 393.05463
369.0 0.002710 392.12302 392.96771
415.0 0.002410 391.95560 392.74756
354.0 0.002825 391.78870 392.53677
389.0 0.002571 391.62241 392.33261
423.0 0.002364 391.45673 392.13412
414.0 0.002415 391.29163 391.94077
367.0 0.002725 391.12711 391.82480
386.0 0.002591 390.96317 391.64203
392.0 0.002551 390.79987 391.46307
381.0 0.002625 390.63715 391.28763
397.0 0.002519 390.47507 391.11548
421.0 0.002375 390.31357 390.94653
383.0 0.002611 390.15271 390.78058
406.0 0.002463 389.99240 390.61752
365.0 0.002740 389.83279 390.45740
419.0 0.002387 389.67377 390.30020
373.0 0.002681 389.51538 390.14584
337.0 0.002967 389.35764 389.99460
419.0 0.002387 389.20047 389.84656
404.0 0.002475 389.04404 389.70193
389.0 0.002571 388.88815 389.56122
401.0 0.002494 388.73300 389.42508
403.0 0.002481 388.57840 389.29477
389.0 0.002571 388.42447 389.17307
383.0 0.002611 388.27124 389.06589
399.0 0.002506 388.11862 388.98483
396.0 0.002525 387.96671 388.95084
397.0 0.002519 387.81540 388.99640
420.0 0.002381 387.66476 389.16357
369.0 0.002710 387.51483 389.49341
381.0 0.002625 387.36551 390.00677
394.0 0.002538 387.21692 390.68057
406.0 0.002463 387.06897 391.43073
394.0 0.002538 386.92169 392.10666
417.0 0.002398 386.77512 392.51697
381.0 0.002625 386.62918 392.52930
413.0 0.002421 386.48401 392.18921
369.0 0.002710 386.33945 391.67575
422.0 0.002370 386.19562 391.09283
381.0 0.002625 386.05246 390.62640
429.0 0.002331 385.91000 390.18414
426.0 0.002347 385.76825 389.69202
428.0 0.002336 385.62720 389.12265
410.0 0.002439 385.48679 388.51984
416.0 0.002404 385.34714 387.91849
378.0 0.002646 385.20819 387.42642
364.0 0.002747 385.06995 387.03775
407.0 0.002457 384.93240 386.75363
366.0 0.002732 384.79556 386.55920
402.0 0.002488 384.65948 386.43347
397.0 0.002519 384.52408 386.35693
362.0 0.002762 384.38943 386.31573
364.0 0.002747 384.25543 386.30219
396.0 0.002525 384.12219 386.31348
393.0 0.002545 383.98972 386.34991
375.0 0.002667 383.85788 386.41388
391.0 0.002558 383.72687 386.50937
339.0 0.002950 383.59650 386.64191
385.0 0.002597 383.46689 386.96552
386.0 0.002591 383.33804 387.19910
380.0 0.002632 383.20987 387.49835
389.0 0.002571 383.08249 387.88080
387.0 0.002584 382.95581 388.37488
405.0 0.002469 382.82990 389.03232
388.0 0.002577 382.70468 390.03189
392.0 0.002551 382.58023 391.45410
414.0 0.002415 382.45654 393.81677
384.0 0.002604 382.33356 397.94000
416.0 0.002404 382.21130 405.14066
425.0 0.002353 382.08984 417.20621
435.0 0.002299 381.96912 436.06314
484.0 0.002066 381.84912 463.00894
528.0 0.001894 381.72989 497.74591
554.0 0.001805 381.61139 537.45526
661.0 0.001513 381.49362 576.38538
667.0 0.001499 381.37665 606.35223
638.0 0.001567 381.26041 619.66382
679.0 0.001473 381.14493 614.94183
694.0 0.001441 381.03015 598.56989
650.0 0.001538 380.91620 578.86627
602.0 0.001661 380.80295 560.88159
558.0 0.001792 380.69049 545.08203
509.0 0.001965 380.57877 528.51825
504.0 0.001984 380.46777 508.39670
511.0 0.001957 380.35760 485.12238
468.0 0.002137 380.24811 461.33621
489.0 0.002045 380.13943 439.69849
454.0 0.002203 380.03149 421.90085
413.0 0.002421 379.92429 408.56308
417.0 0.002398 379.81787 399.37637
442.0 0.002262 379.71219 393.47141
418.0 0.002392 379.60727 389.84039
391.0 0.002558 379.50311 387.62048
425.0 0.002353 379.39969 386.20755
384.0 0.002604 379.29706 385.23636
406.0 0.002463 379.19516 384.50937
394.0 0.002538 379.09402 383.92807
374.0 0.002674 378.99365 383.43927
389.0 0.002571 378.89401 383.02692
397.0 0.002519 378.79514 382.67169
416.0 0.002404 378.69702 382.36365
375.0 0.002667 378.59967 382.09589
379.0 0.002639 378.50305 381.86310
394.0 0.002538 378.40720 381.66132
384.0 0.002604 378.31210 381.48553
407.0 0.002457 378.21774 381.33795
407.0 0.002457 378.12411 381.21494
375.0 0.002667 378.03128 381.11575
396.0 0.002525 377.93915 381.04013
385.0 0.002597 377.84781 380.98865
393.0 0.002545 377.75717 380.96210
355.0 0.002817 377.66733 380.96213
375.0 0.002667 377.57819 380.99124
354.0 0.002825 377.48981 381.05246
366.0 0.002732 377.40216 381.15012
377.0 0.002653 377.31528 381.28976
390.0 0.002564 377.22913 381.47876
400.0 0.002500 377.14371 381.72696
436.0 0.002294 377.05899 382.04794
381.0 0.002625 376.97507 382.46280
377.0 0.002653 376.89182 383.00876
423.0 0.002364 376.80936 383.75851
410.0 0.002439 376.72760 384.86377
391.0 0.002558 376.64655 386.63123
399.0 0.002506 376.56628 389.63864
422.0 0.002370 376.48669 394.86331
410.0 0.002439 376.40787 403.72986
410.0 0.002439 376.32971 417.96786
405.0 0.002469 376.25229 439.12277
429.0 0.002331 376.17560 467.77161
481.0 0.002079 376.09961 502.68912
532.0 0.001880 376.02435 540.19519
577.0 0.001733 375.94980 574.10803
589.0 0.001698 375.87595 596.74670
537.0 0.001862 375.80280 602.76221
568.0 0.001761 375.73038 593.69482
528.0 0.001894 375.65863 576.60065
564.0 0.001773 375.58759 558.36615
506.0 0.001976 375.51724 542.38428
472.0 0.002119 375.44760 528.08118
486.0 0.002058 375.37863 512.43707
443.0 0.002257 375.31036 493.32220
489.0 0.002045 375.24280 471.55203
430.0 0.002326 375.17587 449.61777
379.0 0.002639 375.10968 429.82626
380.0 0.002632 375.04413 413.60812
365.0 0.002740 374.97928 401.45718
387.0 0.002584 374.91507 393.05704
380.0 0.002632 374.85153 387.62891
399.0 0.002506 374.78867 384.27643
378.0 0.002646 374.72644 382.23459
417.0 0.002398 374.66492 380.82227
349.0 0.002865 374.60403 380.02600
387.0 0.002584 374.54379 379.58899
334.0 0.002994 374.48422 379.32608
405.0 0.002469 374.42526 379.25378
378.0 0.002646 374.36697 379.33154
372.0 0.002688 374.30933 379.49670
405.0 0.002469 374.25229 379.58453
382.0 0.002618 374.19592 379.63297
396.0 0.002525 374.14014 379.51447
384.0 0.002604 374.08502 379.18237
380.0 0.002632 374.03049 378.75278
358.0 0.002793 373.97659 378.31857
390.0 0.002564 373.92331 377.92850
393.0 0.002545 373.87064 377.57816
382.0 0.002618 373.81857 377.22723
387.0 0.002584 373.76709 376.84073
390.0 0.002564 373.71622 376.42258
410.0 0.002439 373.66595 376.00385
356.0 0.002809 373.61627 375.61606
363.0 0.002755 373.56717 375.28033
376.0 0.002660 373.51865 375.00482
383.0 0.002611 373.47067 374.78696
360.0 0.002778 373.42334 374.61667
396.0 0.002525 373.37653 374.48141
379.0 0.002639 373.33029 374.36996
393.0 0.002545 373.28461 374.27386
429.0 0.002331 373.23947 374.18781
352.0 0.002841 373.19492 374.10867
354.0 0.002825 373.15088 374.03473
409.0 0.002445 373.10739 373.96515
393.0 0.002545 373.06445 373.89920
403.0 0.002481 373.02203 373.83673
362.0 0.002762 372.98013 373.77737
384.0 0.002604 372.93878 373.72110
385.0 0.002597 372.89795 373.66760
345.0 0.002899 372.85760 373.61691
380.0 0.002632 372.81778 373.56885
362.0 0.002762 372.77847 373.52341
393.0 0.002545 372.73965 373.48059
369.0 0.002710 372.70132 373.44040
375.0 0.002667 372.66348 373.40271
379.0 0.002639 372.62616 373.36774
399.0 0.002506 372.58926 373.33548
356.0 0.002809 372.55289 373.30606
352.0 0.002841 372.51694 373.27954
385.0 0.002597 372.48151 373.25623
365.0 0.002740 372.44647 373.23611
383.0 0.002611 372.41193 373.21951
386.0 0.002591 372.37784 373.20682
381.0 0.002625 372.34418 373.19824
386.0 0.002591 372.31094 373.19424
377.0 0.002653 372.27814 373.19543
389.0 0.002571 372.24579 373.20227
382.0 0.002618 372.21384 373.21555
445.0 0.002247 372.18231 373.23611
382.0 0.002618 372.15121 373.26517
396.0 0.002525 372.12048 373.30399
360.0 0.002778 372.09018 373.20798
375.0 0.002667 372.06027 373.27554
402.0 0.002488 372.03073 373.35907
384.0 0.002604 372.00159 373.46210
364.0 0.002747 371.97281 373.58920
380.0 0.002632 371.94443 373.74768
363.0 0.002755 371.91641 373.87592
399.0 0.002506 371.88873 374.14682
376.0 0.002660 371.86142 374.53226
385.0 0.002597 371.83444 375.12668
378.0 0.002646 371.80783 376.10638
386.0 0.002591 371.78152 377.77060
383.0 0.002611 371.75558 380.56305
364.0 0.002747 371.72995 385.04614
380.0 0.002632 371.70465 391.77481
373.0 0.002681 371.67966 401.07419
374.0 0.002674 371.65497 412.77548
427.0 0.002342 371.63055 425.97403
415.0 0.002410 371.60648 438.94894
439.0 0.002278 371.58267 449.27109
425.0 0.002353 371.55917 454.55594
430.0 0.002326 371.53592 454.01382
436.0 0.002294 371.51297 449.19534
420.0 0.002381 371.49026 442.66638
477.0 0.002096 371.46780 436.38022
416.0 0.002404 371.44565 431.02969
408.0 0.002451 371.42371 426.09372
394.0 0.002538 371.40201 420.49197
412.0 0.002427 371.38052 413.63684
398.0 0.002513 371.35928 405.91928
382.0 0.002618 371.33829 398.18994
398.0 0.002513 371.31750 391.20444
382.0 0.002618 371.29694 385.44315
378.0 0.002646 371.27655 381.07135
378.0 0.002646 371.25638 378.00006
380.0 0.002632 371.23639 375.97583
373.0 0.002681 371.21658 374.69766
392.0 0.002551 371.19696 373.90073
358.0 0.002793 371.17752 373.39059
378.0 0.002646 371.15823 373.04559
407.0 0.002457 371.13913 372.78763
393.0 0.002545 371.12018 372.58301
377.0 0.002653 371.10138 372.41272
351.0 0.002849 371.08270 372.26663
385.0 0.002597 371.06418 372.13907
435.0 0.002299 371.04578 372.02686
379.0 0.002639 371.02750 371.92844
380.0 0.002632 371.00934 371.83829
403.0 0.002481 370.99130 371.75671
356.0 0.002809 370.97336 371.68250
396.0 0.002525 370.95551 371.61450
372.0 0.002688 370.93777 371.55197
360.0 0.002778 370.92010 371.49402
382.0 0.002618 370.90253 371.44016
359.0 0.002786 370.88504 371.38992
365.0 0.002740 370.86761 371.34271
362.0 0.002762 370.85022 371.29837
378.0 0.002646 370.83292 371.25641
350.0 0.002857 370.81564 371.21655
383.0 0.002611 370.79843 371.17874
366.0 0.002732 370.78125 371.14255
379.0 0.002639 370.76407 371.10800
355.0 0.002817 370.74695 371.07489
360.0 0.002778 370.72983 371.04300
375.0 0.002667 370.71274 371.01218
370.0 0.002703 370.69565 370.98245
374.0 0.002674 370.67856 370.95367
362.0 0.002762 370.66147 370.92575
357.0 0.002801 370.64438 370.89862
380.0 0.002632 370.62723 370.87213
362.0 0.002762 370.61011 370.84641
396.0 0.002525 370.59293 370.82120
362.0 0.002762 370.57571 370.79660
384.0 0.002604 370.55844 370.77249
358.0 0.002793 370.54114 370.74878
388.0 0.002577 370.52380 370.72565
367.0 0.002725 370.50638 370.70288
366.0 0.002732 370.48889 370.72711
364.0 0.002747 370.47134 370.70633
359.0 0.002786 370.45370 370.68591
391.0 0.002558 370.43600 370.66592
327.0 0.003058 370.41821 370.64633
354.0 0.002825 370.40030 370.62701
371.0 0.002695 370.38229 370.60806
360.0 0.002778 370.36420 370.58960
356.0 0.002809 370.34598 370.59525
425.0 0.002353 370.32767 370.57816
341.0 0.002933 370.30917 370.56149
371.0 0.002695 370.29062 370.54532
372.0 0.002688 370.27188 370.52966
366.0 0.002732 370.25302 370.56461
373.0 0.002681 370.23401 370.55151
343.0 0.002915 370.21484 370.53912
392.0 0.002551 370.19553 370.52771
374.0 0.002674 370.17606 370.51721
357.0 0.002801 370.15640 370.50784
400.0 0.002500 370.13657 370.44312
341.0 0.002933 370.11658 370.46292
343.0 0.002915 370.09637 370.46051
352.0 0.002841 370.07599 370.46057
384.0 0.002604 370.05542 370.46387
362.0 0.002762 370.03467 370.47220
320.0 0.003125 370.01367 370.45984
398.0 0.002513 369.99249 370.49130
370.0 0.002703 369.97107 370.54855
353.0 0.002833 369.94946 370.65085
338.0 0.002959 369.92761 370.82751
379.0 0.002639 369.90552 371.11649
350.0 0.002857 369.88318 371.55899
376.0 0.002660 369.86063 372.18573
354.0 0.002825 369.83783 372.99976
393.0 0.002545 369.81476 373.96005
371.0 0.002695 369.79144 374.96951
370.0 0.002703 369.76788 375.87732
377.0 0.002653 369.74402 376.50327
394.0 0.002538 369.71991 376.71616
389.0 0.002571 369.69553 376.52908
351.0 0.002849 369.67087 376.09308
341.0 0.002933 369.64590 375.58575
358.0 0.002793 369.62064 375.12314
340.0 0.002941 369.59512 374.73227
402.0 0.002488 369.56927 374.36322
400.0 0.002500 369.54315 373.93918
372.0 0.002688 369.51672 373.42490
366.0 0.002732 369.48996 372.85052
381.0 0.002625 369.46289 372.27701
349.0 0.002865 369.43549 371.75909
382.0 0.002618 369.40781 371.33292
324.0 0.003086 369.37976 371.01294
344.0 0.002907 369.35138 370.79547
394.0 0.002538 369.32269 370.71619
385.0 0.002597 369.29364 370.65750
353.0 0.002833 369.26425 370.64264
365.0 0.002740 369.23450 370.66199
353.0 0.002833 369.20441 370.70746
335.0 0.002985 369.17398 370.77515
363.0 0.002755 369.14316 370.86481
369.0 0.002710 369.11200 370.97925
340.0 0.002941 369.08047 371.15292
353.0 0.002833 369.04855 371.34250
377.0 0.002653 369.01630 371.59955
370.0 0.002703 368.98364 371.97189
385.0 0.002597 368.95062 372.54810
364.0 0.002747 368.91721 373.48257
377.0 0.002653 368.88342 375.01572
387.0 0.002584 368.84921 377.47672
376.0 0.002660 368.81464 381.24811
357.0 0.002801 368.77966 386.66415
366.0 0.002732 368.74429 393.87051
395.0 0.002532 368.70853 402.65433
376.0 0.002660 368.67233 412.32718
436.0 0.002294 368.63574 421.69446
398.0 0.002513 368.59875 429.15097
408.0 0.002451 368.56131 433.19040
405.0 0.002469 368.52350 433.35144
399.0 0.002506 368.48526 430.74683
404.0 0.002475 368.44659 427.19632
396.0 0.002525 368.40750 424.41605
417.0 0.002398 368.36798 423.41617
405.0 0.002469 368.32803 424.43643
387.0 0.002584 368.28766 427.08441
411.0 0.002433 368.24686 430.77332
450.0 0.002222 368.20563 435.08386
460.0 0.002174 368.16394 439.59937
444.0 0.002252 368.12183 443.43332
431.0 0.002320 368.07928 445.29919
434.0 0.002304 368.03629 444.06607
439.0 0.002278 367.99283 439.74298
462.0 0.002165 367.94894 433.60123
459.0 0.002179 367.90460 427.22641
441.0 0.002268 367.85983 421.67285
416.0 0.002404 367.81461 417.18912
407.0 0.002457 367.76889 413.28906
408.0 0.002451 367.72275 409.11588
436.0 0.002294 367.67615 404.10287
415.0 0.002410 367.62912 398.35880
374.0 0.002674 367.58160 392.41357
347.0 0.002882 367.53363 386.83011
368.0 0.002717 367.48520 382.01233
372.0 0.002688 367.43628 378.16864
346.0 0.002890 367.38693 375.31659
359.0 0.002786 367.33713 373.33151
364.0 0.002747 367.28683 372.02032
389.0 0.002571 367.23608 371.18243
378.0 0.002646 367.18488 370.65240
370.0 0.002703 367.13321 370.31253
392.0 0.002551 367.08105 370.08865
364.0 0.002747 367.02847 369.93954
335.0 0.002985 366.97537 369.84393
347.0 0.002882 366.92181 369.79230
362.0 0.002762 366.86783 369.78094
365.0 0.002740 366.81332 369.82297
370.0 0.002703 366.75839 369.92960
386.0 0.002591 366.70297 370.13388
381.0 0.002625 366.64706 370.50128
363.0 0.002755 366.59073 371.15063
365.0 0.002740 366.53391 372.28058
403.0 0.002481 366.47662 374.18280
399.0 0.002506 366.41885 377.24512
399.0 0.002506 366.36063 381.87415
393.0 0.002545 366.30194 388.38596
422.0 0.002370 366.24277 396.84384
460.0 0.002174 366.18314 406.88498
432.0 0.002315 366.12305 417.62796
431.0 0.002320 366.06250 427.64325
495.0 0.002020 366.00146 435.13342
499.0 0.002004 365.94000 438.56161
512.0 0.001953 365.87805 437.63141
471.0 0.002123 365.81564 433.56854
524.0 0.001908 365.75275 428.21194
447.0 0.002237 365.68942 423.01318
459.0 0.002179 365.62564 418.60394
451.0 0.002217 365.56140 414.77972
445.0 0.002247 365.49670 410.78262
460.0 0.002174 365.43155 405.93384
448.0 0.002232 365.36594 400.17526
403.0 0.002481 365.29987 393.98935
392.0 0.002551 365.23337 388.00302
383.0 0.002611 365.16641 382.72803
420.0 0.002381 365.09897 378.50046
361.0 0.002770 365.03113 375.48099
368.0 0.002717 364.96283 373.70419
407.0 0.002457 364.89410 373.15750
371.0 0.002695 364.82492 373.84149
387.0 0.002584 364.75528 375.78900
396.0 0.002525 364.68524 379.02106
413.0 0.002421 364.61475 383.46222
439.0 0.002278 364.54385 388.83926
435.0 0.002299 364.47250 394.62115
469.0 0.002132 364.40073 399.94879
462.0 0.002165 364.32852 403.91684
432.0 0.002315 364.25589 405.63309
517.0 0.001934 364.18286 404.94336
507.0 0.001972 364.10938 402.53223
470.0 0.002128 364.03549 399.41681
450.0 0.002222 363.96121 396.39877
496.0 0.002016 363.88651 393.80905
433.0 0.002309 363.81140 391.59192
404.0 0.002475 363.73587 389.30557
380.0 0.002632 363.65994 386.55417
404.0 0.002475 363.58365 383.27591
418.0 0.002392 363.50693 379.67062
364.0 0.002747 363.42984 376.18152
359.0 0.002786 363.35236 373.03549
345.0 0.002899 363.27444 370.40714
356.0 0.002809 363.19620 368.35861
361.0 0.002770 363.11752 366.85400
348.0 0.002874 363.03851 365.79996
333.0 0.003003 362.95911 365.05469
377.0 0.002653 362.87933 364.56171
377.0 0.002653 362.79922 364.21136
368.0 0.002717 362.71872 363.94586
326.0 0.003067 362.63788 363.73032
358.0 0.002793 362.55664 363.54388
358.0 0.002793 362.47504 363.37595
358.0 0.002793 362.39313 363.22086
359.0 0.002786 362.31085 363.07507
354.0 0.002825 362.22827 362.93680
367.0 0.002725 362.14529 362.80453
390.0 0.002564 362.06201 362.67734
364.0 0.002747 361.97842 362.55664
357.0 0.002801 361.89444 362.43738
341.0 0.002933 361.81021 362.32120
356.0 0.002809 361.72562 362.20764
346.0 0.002890 361.64072 362.09641
373.0 0.002681 361.55551 361.98718
359.0 0.002786 361.46997 361.87964
367.0 0.002725 361.38416 361.77356
399.0 0.002506 361.29803 361.66992
378.0 0.002646 361.21161 361.56631
350.0 0.002857 361.12491 361.46478
370.0 0.002703 361.03790 361.36307
362.0 0.002762 360.95062 361.26212
395.0 0.002532 360.86310 361.16177
335.0 0.002985 360.77524 361.06216
335.0 0.002985 360.68716 360.96301
346.0 0.002890 360.59879 360.86426
366.0 0.002732 360.51016 360.76599
354.0 0.002825 360.42130 360.66864
372.0 0.002688 360.33215 360.57098
372.0 0.002688 360.24280 360.47363
379.0 0.002639 360.15314 360.32434
374.0 0.002674 360.06332 360.22455
364.0 0.002747 359.97321 360.12930
382.0 0.002618 359.88287 360.03418
400.0 0.002500 359.79233 359.93906
349.0 0.002865 359.70157 359.84412
334.0 0.002994 359.61060 359.74921
357.0 0.002801 359.51938 359.65430
382.0 0.002618 359.42798 359.53180
354.0 0.002825 359.33640 359.43777
336.0 0.002976 359.24460 359.34381
358.0 0.002793 359.15262 359.24976
346.0 0.002890 359.06042 359.15576
348.0 0.002874 358.96808 359.06183
339.0 0.002950 358.87555 358.96786
377.0 0.002653 358.78284 358.87396
340.0 0.002941 358.68997 358.78006
356.0 0.002809 358.59692 358.68622
333.0 0.003003 358.50372 358.59253
402.0 0.002488 358.41037 358.49887
334.0 0.002994 358.31689 358.40524
370.0 0.002703 358.22324 358.31186
317.0 0.003155 358.12946 358.21860
350.0 0.002857 358.03555 358.12552
309.0 0.003236 357.94153 358.03284
332.0 0.003012 357.84732 357.90845
348.0 0.002874 357.75302 357.81784
351.0 0.002849 357.65863 357.72849
353.0 0.002833 357.56412 357.64142
347.0 0.002882 357.46948 357.55807
365.0 0.002740 357.37476 357.48062
339.0 0.002950 357.27997 357.41223
328.0 0.003049 357.18503 357.35577
336.0 0.002976 357.09003 357.29831
361.0 0.002770 356.99496 357.27304
370.0 0.002703 356.89978 357.26193
339.0 0.002950 356.80457 357.25970
350.0 0.002857 356.70926 357.25705
356.0 0.002809 356.61389 357.24109
347.0 0.002882 356.51846 357.19873
357.0 0.002801 356.42300 357.12268
345.0 0.002899 356.32748 357.01813
376.0 0.002660 356.23190 356.89987
368.0 0.002717 356.13629 356.78552
342.0 0.002924 356.04065 356.69025
389.0 0.002571 355.94498 356.62570
354.0 0.002825 355.84927 356.60092
325.0 0.003077 355.75354 356.62265
310.0 0.003226 355.65781 356.69794
364.0 0.002747 355.56207 356.83249
341.0 0.002933 355.46631 357.02478
339.0 0.002950 355.37054 357.25925
350.0 0.002857 355.27478 357.51828
329.0 0.003040 355.17899 357.72260
355.0 0.002817 355.08325 357.83237
371.0 0.002695 354.98752 357.81290
354.0 0.002825 354.89178 357.67676
370.0 0.002703 354.79608 357.47910
300.0 0.003333 354.70041 357.28354
340.0 0.002941 354.60477 357.13437
361.0 0.002770 354.50916 357.05234
401.0 0.002494 354.41360 357.00317
402.0 0.002488 354.31805 356.95044
373.0 0.002681 354.22256 356.84534
360.0 0.002778 354.12714 356.68335
353.0 0.002833 354.03174 356.40552
404.0 0.002475 353.93643 356.06265
354.0 0.002825 353.84116 355.69986
372.0 0.002688 353.74597 355.34827
368.0 0.002717 353.65085 355.03760
350.0 0.002857 353.55579 354.77530
351.0 0.002849 353.46082 354.55286
343.0 0.002915 353.36591 354.35172
339.0 0.002950 353.27109 354.16800
356.0 0.002809 353.17636 353.96527
355.0 0.002817 353.08173 353.76184
322.0 0.003106 352.98718 353.56021
342.0 0.002924 352.89273 353.36908
329.0 0.003040 352.79837 353.19333
310.0 0.003226 352.70413 353.03506
366.0 0.002732 352.61002 352.89386
315.0 0.003175 352.51599 352.76755
322.0 0.003106 352.42206 352.65298
321.0 0.003115 352.32825 352.54691
315.0 0.003175 352.23456 352.44669
348.0 0.002874 352.14102 352.35034
392.0 0.002551 352.04758 352.25662
383.0 0.002611 351.95425 352.16479
320.0 0.003125 351.86108 352.07434
338.0 0.002959 351.76804 351.98505
367.0 0.002725 351.67511 351.89682
330.0 0.003030 351.58234 351.80957
368.0 0.002717 351.48969 351.72348
330.0 0.003030 351.39719 351.63828
335.0 0.002985 351.30484 351.55429
335.0 0.002985 351.21262 351.47134
339.0 0.002950 351.12057 351.38956
367.0 0.002725 351.02866 351.30902
370.0 0.002703 350.93689 351.22986
352.0 0.002841 350.84531 351.15222
341.0 0.002933 350.75385 351.07617
359.0 0.002786 350.66257 351.00201
345.0 0.002899 350.57141 350.93066
347.0 0.002882 350.48044 350.86063
377.0 0.002653 350.38965 350.79309
354.0 0.002825 350.29898 350.72821
375.0 0.002667 350.20853 350.66678
333.0 0.003003 350.11819 350.60889
360.0 0.002778 350.02805 350.55539
364.0 0.002747 349.93808 350.50714
332.0 0.003012 349.84827 350.46539
330.0 0.003030 349.75864 350.43146
338.0 0.002959 349.66916 350.40857
332.0 0.003012 349.57986 350.40240
358.0 0.002793 349.49072 350.42291
349.0 0.002865 349.40179 350.48770
346.0 0.002890 349.31302 350.62726
376.0 0.002660 349.22443 350.88724
347.0 0.002882 349.13599 351.33121
320.0 0.003125 349.04776 352.03699
337.0 0.002967 348.95966 353.08444
358.0 0.002793 348.87180 354.53326
341.0 0.002933 348.78403 356.39508
379.0 0.002639 348.69653 358.60477
338.0 0.002959 348.60913 361.00443
353.0 0.002833 348.52197 363.34076
386.0 0.002591 348.43494 365.28543
418.0 0.002392 348.34808 366.52390
374.0 0.002674 348.26144 366.92300
384.0 0.002604 348.17493 366.66727
363.0 0.002755 348.08862 366.18533
372.0 0.002688 348.00247 365.96500
341.0 0.002933 347.91650 366.39920
407.0 0.002457 347.83069 367.72525
367.0 0.002725 347.74509 369.98431
385.0 0.002597 347.65961 373.02155
405.0 0.002469 347.57431 376.53824
387.0 0.002584 347.48917 380.18088
391.0 0.002558 347.40421 383.45517
367.0 0.002725 347.31943 385.83856
398.0 0.002513 347.23477 386.76456
383.0 0.002611 347.15033 386.04651
436.0 0.002294 347.06601 383.97253
384.0 0.002604 346.98181 381.14877
397.0 0.002519 346.89783 378.19324
387.0 0.002584 346.81396 375.53683
363.0 0.002755 346.73029 373.30084
381.0 0.002625 346.64676 371.34909
345.0 0.002899 346.56332 369.37796
377.0 0.002653 346.48010 367.13351
376.0 0.002660 346.39697 364.49200
348.0 0.002874 346.31403 361.61288
339.0 0.002950 346.23120 358.70474
358.0 0.002793 346.14847 355.97610
382.0 0.002618 346.06595 353.58362
361.0 0.002770 345.98349 351.61005
349.0 0.002865 345.90121 350.07010
334.0 0.002994 345.81903 348.93860
340.0 0.002941 345.73694 348.11267
322.0 0.003106 345.65503 347.52814
366.0 0.002732 345.57318 347.11200
317.0 0.003155 345.49149 346.80664
355.0 0.002817 345.40988 346.57114
335.0 0.002985 345.32837 346.37857
346.0 0.002890 345.24698 346.21292
367.0 0.002725 345.16568 346.06464
354.0 0.002825 345.08450 345.92828
335.0 0.002985 345.00339 345.80090
358.0 0.002793 344.92233 345.68063
363.0 0.002755 344.84140 345.56635
321.0 0.003115 344.76053 345.45712
353.0 0.002833 344.67975 345.35233
351.0 0.002849 344.59903 345.25153
335.0 0.002985 344.51837 345.15448
345.0 0.002899 344.43781 345.06082
354.0 0.002825 344.35727 344.97067
341.0 0.002933 344.27679 344.88406
352.0 0.002841 344.19635 344.80167
366.0 0.002732 344.11597 344.72491
364.0 0.002747 344.03564 344.65588
357.0 0.002801 343.95532 344.59814
354.0 0.002825 343.87506 344.55682
350.0 0.002857 343.79480 344.53806
347.0 0.002882 343.71457 344.54858
364.0 0.002747 343.63434 344.59357
328.0 0.003049 343.55414 344.67477
381.0 0.002625 343.47394 344.78818
331.0 0.003021 343.39374 344.92328
347.0 0.002882 343.31354 345.05844
324.0 0.003086 343.23334 345.16791
334.0 0.002994 343.15311 345.22263
336.0 0.002976 343.07285 345.20239
356.0 0.002809 342.99258 345.10825
314.0 0.003185 342.91226 344.96317
322.0 0.003106 342.83191 344.79767
379.0 0.002639 342.75153 344.63641
341.0 0.002933 342.67108 344.49350
369.0 0.002710 342.59061 344.36804
334.0 0.002994 342.51004 344.25067
327.0 0.003058 342.42944 344.12753
347.0 0.002882 342.34872 343.99042
335.0 0.002985 342.26797 343.84131
292.0 0.003425 342.18710 343.68930
330.0 0.003030 342.10617 343.53021
329.0 0.003040 342.02515 343.40369
358.0 0.002793 341.94397 343.30054
380.0 0.002632 341.86273 343.22424
325.0 0.003077 341.78134 343.17572
337.0 0.002967 341.69986 343.15454
352.0 0.002841 341.61826 343.16040
344.0 0.002907 341.53650 343.22321
387.0 0.002584 341.45462 343.28281
341.0 0.002933 341.37259 343.39395
330.0 0.003030 341.29037 343.57083
338.0 0.002959 341.20807 343.85287
346.0 0.002890 341.12552 344.30569
350.0 0.002857 341.04285 345.00256
330.0 0.003030 340.95999 346.14209
338.0 0.002959 340.87692 347.88574
324.0 0.003086 340.79370 350.41333
331.0 0.003021 340.71027 353.91565
360.0 0.002778 340.62665 358.49771
342.0 0.002924 340.54276 364.14035
336.0 0.002976 340.45868 370.59741
365.0 0.002740 340.37439 377.41208
370.0 0.002703 340.28986 383.95135
379.0 0.002639 340.20511 389.43283
379.0 0.002639 340.12009 393.25235
381.0 0.002625 340.03479 395.22330
375.0 0.002667 339.94928 395.70135
388.0 0.002577 339.86349 395.48907
368.0 0.002717 339.77744 395.56152
394.0 0.002538 339.69110 396.67535
388.0 0.002577 339.60446 399.13156
385.0 0.002597 339.51755 402.66705
428.0 0.002336 339.43033 406.54596
406.0 0.002463 339.34280 409.75238
440.0 0.002273 339.25497 411.23486
444.0 0.002252 339.16681 410.20703
459.0 0.002179 339.07834 406.53455
452.0 0.002212 338.98950 400.87238
457.0 0.002188 338.90039 394.33185
404.0 0.002475 338.81088 387.96042
408.0 0.002451 338.72101 382.44431
405.0 0.002469 338.63083 378.01492
386.0 0.002591 338.54022 374.47745
375.0 0.002667 338.44931 371.35156
378.0 0.002646 338.35797 368.12241
403.0 0.002481 338.26627 364.52670
388.0 0.002577 338.17413 360.62482
381.0 0.002625 338.08167 356.65570
367.0 0.002725 337.98874 352.88437
339.0 0.002950 337.89542 349.51822
341.0 0.002933 337.80170 346.68649
354.0 0.002825 337.70752 344.43118
333.0 0.003003 337.61295 342.71878
339.0 0.002950 337.51791 341.46841
342.0 0.002924 337.42245 340.57660
362.0 0.002762 337.32654 339.94308
315.0 0.003175 337.23019 339.48444
356.0 0.002809 337.13333 339.13843
357.0 0.002801 337.03601 338.86374
349.0 0.002865 336.93826 338.63477
349.0 0.002865 336.84000 338.43683
334.0 0.002994 336.74127 338.26318
331.0 0.003021 336.64203 338.11151
355.0 0.002817 336.54233 337.98297
346.0 0.002890 336.44208 337.88092
309.0 0.003236 336.34134 337.81012
343.0 0.002915 336.24011 337.77496
325.0 0.003077 336.13831 337.77823
310.0 0.003226 336.03604 337.87137
336.0 0.002976 335.93320 337.94263
332.0 0.003012 335.82983 338.03021
325.0 0.003077 335.72595 338.11365
342.0 0.002924 335.62149 338.16763
344.0 0.002907 335.51654 338.16806
298.0 0.003356 335.41095 338.10297
319.0 0.003135 335.30484 337.98154
325.0 0.003077 335.19818 337.82843
332.0 0.003012 335.09091 337.69766
361.0 0.002770 334.98312 337.56064
336.0 0.002976 334.87469 337.45490
335.0 0.002985 334.76572 337.38544
301.0 0.003322 334.65616 337.35413
369.0 0.002710 334.54599 337.36874
332.0 0.003012 334.43521 337.45825
319.0 0.003135 334.32385 337.68295
369.0 0.002710 334.21185 338.13867
370.0 0.002703 334.09930 338.95706
352.0 0.002841 333.98611 340.29538
306.0 0.003268 333.87231 342.31644
350.0 0.002857 333.75787 345.15552
360.0 0.002778 333.64279 348.86884
364.0 0.002747 333.52713 353.38412
348.0 0.002874 333.41083 358.46643
434.0 0.002304 333.29391 363.69281
413.0 0.002421 333.17630 368.47446
407.0 0.002457 333.05807 372.12064
446.0 0.002242 332.93921 374.04840
433.0 0.002309 332.81970 374.09476
394.0 0.002538 332.69955 372.65976
438.0 0.002283 332.57874 370.48956
432.0 0.002315 332.45724 368.32776
362.0 0.002762 332.33517 366.69296
379.0 0.002639 332.21237 365.79343
409.0 0.002445 332.08896 365.51895
383.0 0.002611 331.96484 365.50232
404.0 0.002475 331.84009 365.28845
390.0 0.002564 331.71466 364.52179
419.0 0.002387 331.58853 363.04922
398.0 0.002513 331.46179 360.85690
377.0 0.002653 331.33435 358.04898
353.0 0.002833 331.20627 354.87433
377.0 0.002653 331.07748 351.67410
364.0 0.002747 330.94806 348.75729
355.0 0.002817 330.81793 346.29852
338.0 0.002959 330.68716 344.38535
368.0 0.002717 330.55566 342.90390
363.0 0.002755 330.42349 341.72665
327.0 0.003058 330.29071 340.64215
345.0 0.002899 330.15720 339.50717
349.0 0.002865 330.02304 338.27777
347.0 0.002882 329.88818 336.99304
345.0 0.002899 329.75269 335.71545
345.0 0.002899 329.61646 334.53128
348.0 0.002874 329.47961 333.47369
310.0 0.003226 329.34204 332.55426
359.0 0.002786 329.20380 331.83588
368.0 0.002717 329.06494 331.27112
345.0 0.002899 328.92535 330.83438
363.0 0.002755 328.78516 330.49725
350.0 0.002857 328.64426 330.23245
332.0 0.003012 328.50266 330.01837
318.0 0.003145 328.36047 329.83911
361.0 0.002770 328.21756 329.68423
319.0 0.003135 328.07404 329.53128
338.0 0.002959 327.92981 329.40982
309.0 0.003236 327.78494 329.30200
335.0 0.002985 327.63947 329.20773
310.0 0.003226 327.49326 329.12793
334.0 0.002994 327.34650 329.06433
337.0 0.002967 327.19901 329.01993
347.0 0.002882 327.05090 328.99997
320.0 0.003125 326.90219 329.01343
327.0 0.003058 326.75278 329.07657
319.0 0.003135 326.60281 329.21823
307.0 0.003257 326.45218 329.48889
338.0 0.002959 326.30090 329.97134
312.0 0.003205 326.14905 330.79309
307.0 0.003257 325.99655 332.13583
340.0 0.002941 325.84348 334.23328
317.0 0.003155 325.68976 337.35236
325.0 0.003077 325.53543 341.74609
312.0 0.003205 325.38055 347.59534
326.0 0.003067 325.22504 354.88318
320.0 0.003125 325.06897 363.37946
385.0 0.002597 324.91229 372.55573
363.0 0.002755 324.75504 381.57285
375.0 0.002667 324.59726 389.33337
363.0 0.002755 324.43884 394.66800
349.0 0.002865 324.27994 396.74149
371.0 0.002695 324.12042 395.53772
361.0 0.002770 323.96039 391.90768
334.0 0.002994 323.79984 387.07117
398.0 0.002513 323.63870 382.12222
357.0 0.002801 323.47708 377.74768
315.0 0.003175 323.31488 374.14316
320.0 0.003125 323.15219 371.05695
362.0 0.002762 322.98904 367.93716
330.0 0.003030 322.82535 364.23123
353.0 0.002833 322.66119 359.70908
332.0 0.003012 322.49652 354.53287
321.0 0.003115 322.33139 349.08633
310.0 0.003226 322.16577 343.77399
335.0 0.002985 321.99973 338.92093
340.0 0.002941 321.83319 334.74237
325.0 0.003077 321.66620 331.33209
305.0 0.003279 321.49881 328.68042
345.0 0.002899 321.33096 326.70026
305.0 0.003279 321.16272 325.26321
290.0 0.003448 320.99402 324.23416
311.0 0.003215 320.82498 323.49307
300.0 0.003333 320.65552 322.94647
334.0 0.002994 320.48569 322.53024
336.0 0.002976 320.31543 322.20529
327.0 0.003058 320.14481 321.95337
332.0 0.003012 319.97388 321.77121
312.0 0.003205 319.80255 321.63663
288.0 0.003472 319.63098 321.63705
310.0 0.003226 319.45898 321.71994
343.0 0.002915 319.28674 321.91019
309.0 0.003236 319.11411 322.19763
314.0 0.003185 318.94119 322.56152
344.0 0.002907 318.76807 322.96021
305.0 0.003279 318.59457 323.33325
349.0 0.002865 318.42090 323.60590
301.0 0.003322 318.24692 323.69058
328.0 0.003049 318.07266 323.58215
329.0 0.003040 317.89825 323.26315
290.0 0.003448 317.72354 322.80609
300.0 0.003333 317.54868 322.28180
301.0 0.003322 317.37360 321.77411
340.0 0.002941 317.19827 321.31152
293.0 0.003413 317.02286 320.90094
326.0 0.003067 316.84720 320.52158
281.0 0.00356 316.67148 320.13580
334.0 0.002994 316.49554 319.70956
313.0 0.003195 316.31946 319.23096
304.0 0.003289 316.14334 318.70786
353.0 0.002833 315.96704 318.17578
323.0 0.003096 315.79068 317.65546
284.0 0.00352 315.61420 317.16742
302.0 0.003311 315.43765 316.72516
362.0 0.002762 315.26111 316.33475
329.0 0.003040 315.08447 315.99500
313.0 0.003195 314.90784 315.70059
333.0 0.003003 314.73111 315.44312
288.0 0.003472 314.55438 315.21405
331.0 0.003021 314.37775 315.00574
314.0 0.003185 314.20105 314.81201
308.0 0.003247 314.02441 314.62875
332.0 0.003012 313.84778 314.45319
317.0 0.003155 313.67120 314.28397
274.0 0.00365 313.49475 314.12061
332.0 0.003012 313.31833 313.96338
326.0 0.003067 313.14206 313.81369
305.0 0.003279 312.96582 313.67395
312.0 0.003205 312.78970 313.54913
304.0 0.003289 312.61380 313.44754
297.0 0.003367 312.43796 313.38306
349.0 0.002865 312.26236 313.37753
309.0 0.003236 312.08685 313.46237
316.0 0.003165 311.91159 313.67932
329.0 0.003040 311.73648 314.07816
299.0 0.003344 311.56158 314.71075
329.0 0.003040 311.38696 315.61896
312.0 0.003205 311.21252 316.82178
316.0 0.003165 311.03839 318.29819
321.0 0.003115 310.86447 319.97589
314.0 0.003185 310.69089 321.72687
345.0 0.002899 310.51755 323.36551
319.0 0.003135 310.34454 324.66864
315.0 0.003175 310.17181 325.41980
322.0 0.003106 309.99942 325.50021
330.0 0.003030 309.82742 324.96100
325.0 0.003077 309.65573 323.99768
368.0 0.002717 309.48450 322.85059
322.0 0.003106 309.31357 321.71890
290.0 0.003448 309.14307 320.72028
330.0 0.003030 308.97296 319.82660
327.0 0.003058 308.80331 319.08908
311.0 0.003215 308.63406 318.34235
310.0 0.003226 308.46524 317.47940
331.0 0.003021 308.29697 316.45444
344.0 0.002907 308.12912 315.29691
318.0 0.003145 307.96179 314.08072
331.0 0.003021 307.79492 312.88519
317.0 0.003155 307.62860 311.77731
306.0 0.003268 307.46283 310.77716
319.0 0.003135 307.29755 309.96225
303.0 0.003300 307.13290 309.31055
300.0 0.003333 306.96875 308.81238
300.0 0.003333 306.80518 308.45285
318.0 0.003145 306.64227 308.21939
325.0 0.003077 306.47989 308.10950
303.0 0.003300 306.31821 308.13760
323.0 0.003096 306.15707 308.33768
326.0 0.003067 305.99661 308.76431
342.0 0.002924 305.83685 309.48709
288.0 0.003472 305.67773 310.58087
348.0 0.002874 305.51932 312.10712
288.0 0.003472 305.36157 314.09344
334.0 0.002994 305.20450 316.50900
334.0 0.002994 305.04819 319.24652
378.0 0.002646 304.89258 322.11441
339.0 0.002950 304.73776 324.83447
343.0 0.002915 304.58365 327.06921
339.0 0.002950 304.43027 328.48837
386.0 0.002591 304.27774 328.89645
348.0 0.002874 304.12595 328.33679
323.0 0.003096 303.97501 327.06720
324.0 0.003086 303.82483 325.43332
334.0 0.002994 303.67545 323.74725
313.0 0.003195 303.52695 322.21625
355.0 0.002817 303.37924 320.91364
324.0 0.003086 303.23245 319.78458
316.0 0.003165 303.08649 318.67700
325.0 0.003077 302.94138 317.43448
315.0 0.003175 302.79718 315.96005
355.0 0.002817 302.65384 314.26578
351.0 0.002849 302.51144 312.44131
320.0 0.003125 302.36993 310.60135
328.0 0.003049 302.22934 308.85394
298.0 0.003356 302.08969 307.28119
283.0 0.00353 301.95096 305.93112
317.0 0.003155 301.81323 304.81857
301.0 0.003322 301.67639 303.93521
325.0 0.003077 301.54059 303.24979
327.0 0.003058 301.40570 302.72369
271.0 0.00369 301.27185 302.31757
297.0 0.003367 301.13892 301.99698
290.0 0.003448 301.00702 301.73456
302.0 0.003311 300.87616 301.51050
314.0 0.003185 300.74628 301.31137
319.0 0.003135 300.61746 301.12863
312.0 0.003205 300.48962 300.95697
256.0 0.00391 300.36288 300.79330
276.0 0.00362 300.23715 300.63583
285.0 0.00351 300.11249 300.48340
317.0 0.003155 299.98886 300.33521
276.0 0.00362 299.86627 300.19098
277.0 0.00361 299.74481 300.05042
312.0 0.003205 299.62439 299.91339
294.0 0.003401 299.50510 299.77988
313.0 0.003195 299.38684 299.65021
338.0 0.002959 299.26971 299.52454
304.0 0.003289 299.15369 299.40311
318.0 0.003145 299.03870 299.29105
300.0 0.003333 298.92490 299.18069
307.0 0.003257 298.81216 299.07349
293.0 0.003413 298.70059 298.97037
300.0 0.003333 298.59012 298.87027
289.0 0.003460 298.48074 298.77142
316.0 0.003165 298.37256 298.67197
295.0 0.003390 298.26547 298.56985
303.0 0.003300 298.15955 298.46326
270.0 0.00370 298.05472 298.35193
282.0 0.00355 297.95102 298.23923
301.0 0.003322 297.84854 298.12350
311.0 0.003215 297.74716 298.00784
298.0 0.003356 297.64697 297.89420
288.0 0.003472 297.54788 297.78342
295.0 0.003390 297.44998 297.66379
288.0 0.003472 297.35324 297.55829
321.0 0.003115 297.25763 297.45364
271.0 0.00369 297.16321 297.34927
317.0 0.003155 297.06992 297.24454
325.0 0.003077 296.97781 297.13995
275.0 0.00364 296.88687 297.03616
294.0 0.003401 296.79703 296.93390
288.0 0.003472 296.70844 296.83380
297.0 0.003367 296.62094 296.73041
271.0 0.00369 296.53461 296.63556
284.0 0.00352 296.44949 296.54352
305.0 0.003279 296.36548 296.45410
297.0 0.003367 296.28265 296.36703
295.0 0.003390 296.20096 296.28217
290.0 0.003448 296.12042 296.19910
319.0 0.003135 296.04105 296.11780
281.0 0.00356 295.96283 296.03796
285.0 0.00351 295.88574 295.95959
312.0 0.003205 295.80978 295.88257
327.0 0.003058 295.73499 295.80692
299.0 0.003344 295.66135 295.73248
330.0 0.003030 295.58884 295.65936
323.0 0.003096 295.51746 295.58746
331.0 0.003021 295.44717 295.51688
289.0 0.003460 295.37805 295.44745
291.0 0.003436 295.31003 295.37927
301.0 0.003322 295.24313 295.31241
287.0 0.003484 295.17737 295.24667
285.0 0.00351 295.11264 295.18213
301.0 0.003322 295.04907 295.11890
302.0 0.003311 294.98657 295.05682
280.0 0.00357 294.92520 294.99606
293.0 0.003413 294.86487 294.93649
285.0 0.00351 294.80563 294.87808
320.0 0.003125 294.74747 294.80350
310.0 0.003226 294.69034 294.74792
280.0 0.00357 294.63431 294.69162
295.0 0.003390 294.57932 294.63855
278.0 0.00360 294.52536 294.58670
301.0 0.003322 294.47244 294.53613
315.0 0.003175 294.42056 294.48685
288.0 0.003472 294.36969 294.43878
267.0 0.00375 294.31982 294.39209
293.0 0.003413 294.27097 294.33792
318.0 0.003145 294.22311 294.29404
274.0 0.00365 294.17624 294.25052
270.0 0.00370 294.13034 294.20950
288.0 0.003472 294.08542 294.16995
294.0 0.003401 294.04144 294.13187
277.0 0.00361 293.99841 294.09549
269.0 0.00372 293.95636 294.06082
285.0 0.00351 293.91519 294.02789
279.0 0.00358 293.87497 293.99707
278.0 0.00360 293.83563 293.96844
300.0 0.003333 293.79721 293.94229
272.0 0.00368 293.75967 293.91937
287.0 0.003484 293.72299 293.90042
286.0 0.003497 293.68719 293.88712
296.0 0.003378 293.65225 293.88214
304.0 0.003289 293.61816 293.88992
310.0 0.003226 293.58490 293.91733
285.0 0.00351 293.55243 293.97443
258.0 0.00388 293.52081 294.07513
300.0 0.003333 293.48993 294.23691
277.0 0.00361 293.45987 294.47983
290.0 0.003448 293.43057 294.82346
320.0 0.003125 293.40204 295.28314
330.0 0.003030 293.37424 295.86423
314.0 0.003185 293.34717 296.55759
292.0 0.003425 293.32083 297.33481
315.0 0.003175 293.29517 298.14609
297.0 0.003367 293.27023 298.92194
282.0 0.00355 293.24594 299.57623
316.0 0.003165 293.22232 300.02267
327.0 0.003058 293.19937 300.20132
294.0 0.003401 293.17703 300.10977
335.0 0.002985 293.15533 299.80597
318.0 0.003145 293.13425 299.38065
330.0 0.003030 293.11374 298.92252
300.0 0.003333 293.09381 298.49670
301.0 0.003322 293.07443 298.13580
276.0 0.00362 293.05563 297.83902
316.0 0.003165 293.03735 297.57748
316.0 0.003165 293.01959 297.30576
315.0 0.003175 293.00232 296.98285
270.0 0.00370 292.98557 296.59180
274.0 0.00365 292.96927 296.14276
299.0 0.003344 292.95343 295.66483
326.0 0.003067 292.93802 295.18643
306.0 0.003268 292.92307 294.73624
315.0 0.003175 292.90851 294.33435
321.0 0.003115 292.89435 293.99228
302.0 0.003311 292.88055 293.71396
301.0 0.003322 292.86716 293.49622
270.0 0.00370 292.85410 293.33136
311.0 0.003215 292.84134 293.20953
311.0 0.003215 292.82892 293.12045
321.0 0.003115 292.81680 293.05576
326.0 0.003067 292.80496 293.00677
297.0 0.003367 292.79343 292.96866
261.0 0.00383 292.78210 292.93771
284.0 0.00352 292.77103 292.91147
294.0 0.003401 292.76016 292.88831
259.0 0.00386 292.74951 292.86743
301.0 0.003322 292.73904 292.84811
308.0 0.003247 292.72876 292.83011
309.0 0.003236 292.71863 292.81317
273.0 0.00366 292.70862 292.79718
307.0 0.003257 292.69873 292.78177
252.0 0.00397 292.68896 292.76712
305.0 0.003279 292.67929 292.75293
289.0 0.003460 292.66968 292.73932
280.0 0.00357 292.66013 292.72610
310.0 0.003226 292.65063 292.71329
272.0 0.00368 292.64114 292.70071
262.0 0.00382 292.63168 292.68851
313.0 0.003195 292.62219 292.67642
293.0 0.003413 292.61270 292.66458
276.0 0.00362 292.60315 292.65292
297.0 0.003367 292.59354 292.64130
286.0 0.003497 292.58386 292.62982
292.0 0.003425 292.57413 292.61838
283.0 0.00353 292.56427 292.60693
287.0 0.003484 292.55429 292.59555
299.0 0.003344 292.54416 292.58408
302.0 0.003311 292.53391 292.57263
264.0 0.00379 292.52347 292.56113
283.0 0.00353 292.51288 292.54941
296.0 0.003378 292.50208 292.53769
317.0 0.003155 292.49103 292.52585
274.0 0.00365 292.47980 292.51379
278.0 0.00360 292.46832 292.50912
276.0 0.00362 292.45657 292.49692
282.0 0.00355 292.44458 292.48444
292.0 0.003425 292.43228 292.47183
292.0 0.003425 292.41968 292.45886
299.0 0.003344 292.40677 292.44568
328.0 0.003049 292.39352 292.43225
288.0 0.003472 292.37994 292.41855
293.0 0.003413 292.36600 292.40445
306.0 0.003268 292.35168 292.39014
305.0 0.003279 292.33698 292.37927
295.0 0.003390 292.32187 292.36435
278.0 0.00360 292.30637 292.34909
293.0 0.003413 292.29044 292.33340
315.0 0.003175 292.27405 292.31741
305.0 0.003279 292.25723 292.30096
284.0 0.00352 292.23993 292.28424
290.0 0.003448 292.22217 292.26700
300.0 0.003333 292.20392 292.24948
274.0 0.00365 292.18515 292.23151
265.0 0.00377 292.16586 292.21304
314.0 0.003185 292.14606 292.19421
250.0 0.00400 292.12570 292.17856
276.0 0.00362 292.10483 292.15887
288.0 0.003472 292.08337 292.13889
300.0 0.003333 292.06134 292.12274
290.0 0.003448 292.03873 292.10187
292.0 0.003425 292.01553 292.08075
262.0 0.00382 291.99173 292.05936
271.0 0.00369 291.96729 292.03754
312.0 0.003205 291.94226 292.01578
273.0 0.00366 291.91656 291.99414
285.0 0.00351 291.89023 291.96692
311.0 0.003215 291.86325 291.94867
280.0 0.00357 291.83560 291.93030
265.0 0.00377 291.80728 291.91437
301.0 0.003322 291.77829 291.90424
293.0 0.003413 291.74860 291.89587
295.0 0.003390 291.71820 291.89255
294.0 0.003401 291.68710 291.89441
285.0 0.00351 291.65530 291.90131
257.0 0.00389 291.62277 291.91223
297.0 0.003367 291.58951 291.92255
313.0 0.003195 291.55548 291.93610
287.0 0.003484 291.52075 291.94705
283.0 0.00353 291.48526 291.95306
321.0 0.003115 291.44904 291.95367
287.0 0.003484 291.41202 291.95102
285.0 0.00351 291.37424 291.95081
312.0 0.003205 291.33569 291.96091
310.0 0.003226 291.29639 291.99026
288.0 0.003472 291.25629 292.04611
264.0 0.00379 291.21536 292.13391
281.0 0.00356 291.17368 292.25409
292.0 0.003425 291.13120 292.40247
280.0 0.00357 291.08789 292.56888
309.0 0.003236 291.04382 292.73761
305.0 0.003279 290.99890 292.88885
254.0 0.00394 290.95319 293.00064
270.0 0.00370 290.90668 293.05255
286.0 0.003497 290.85931 293.03281
300.0 0.003333 290.81116 292.94385
271.0 0.00369 290.76218 292.80252
323.0 0.003096 290.71237 292.63260
294.0 0.003401 290.66174 292.45682
308.0 0.003247 290.61029 292.29135
289.0 0.003460 290.55801 292.14478
307.0 0.003257 290.50491 292.01724
308.0 0.003247 290.45096 291.90143
302.0 0.003311 290.39621 291.78583
289.0 0.003460 290.34064 291.65848
302.0 0.003311 290.28421 291.51282
291.0 0.003436 290.22696 291.34933
321.0 0.003115 290.16888 291.17419
282.0 0.00355 290.11002 290.99557
288.0 0.003472 290.05029 290.82095
300.0 0.003333 289.98978 290.65665
324.0 0.003086 289.92841 290.50641
302.0 0.003311 289.86624 290.37250
296.0 0.003378 289.80328 290.25494
274.0 0.00365 289.73947 290.15256
300.0 0.003333 289.67490 290.06345
261.0 0.00383 289.60947 289.98544
312.0 0.003205 289.54327 289.91678
319.0 0.003135 289.47629 289.85611
315.0 0.003175 289.40851 289.80301
284.0 0.00352 289.33994 289.75836
317.0 0.003155 289.27057 289.72409
294.0 0.003401 289.20044 289.70480
274.0 0.00365 289.12952 289.70764
244.0 0.00410 289.05786 289.74393
277.0 0.00361 288.98541 289.82928
329.0 0.003040 288.91223 289.98392
293.0 0.003413 288.83829 290.23294
296.0 0.003378 288.76364 290.60275
296.0 0.003378 288.68820 291.11832
278.0 0.00360 288.61203 291.79697
299.0 0.003344 288.53519 292.64285
320.0 0.003125 288.45761 293.63989
294.0 0.003401 288.37933 294.74786
319.0 0.003135 288.30032 295.90067
306.0 0.003268 288.22067 297.00589
309.0 0.003236 288.14032 297.95184
314.0 0.003185 288.05930 298.62207
305.0 0.003279 287.97760 298.92862
275.0 0.00364 287.89523 298.85605
305.0 0.003279 287.81226 298.45157
287.0 0.003484 287.72864 297.83487
293.0 0.003413 287.64435 297.13126
331.0 0.003021 287.55951 296.44501
299.0 0.003344 287.47400 295.84360
302.0 0.003311 287.38794 295.35501
271.0 0.00369 287.30127 294.96902
299.0 0.003344 287.21402 294.65649
297.0 0.003367 287.12622 294.34732
316.0 0.003165 287.03784 294.02371
267.0 0.00375 286.94894 293.67606
279.0 0.00358 286.85950 293.34332
286.0 0.003497 286.76953 293.08740
291.0 0.003436 286.67908 292.96658
305.0 0.003279 286.58807 293.02591
301.0 0.003322 286.49664 293.28745
325.0 0.003077 286.40469 293.74524
304.0 0.003289 286.31229 294.36124
297.0 0.003367 286.21948 295.07153
282.0 0.00355 286.12619 295.77365
309.0 0.003236 286.03250 296.37607
333.0 0.003003 285.93835 296.78635
323.0 0.003096 285.84381 296.95364
310.0 0.003226 285.74893 296.85950
349.0 0.002865 285.65363 296.52414
305.0 0.003279 285.55801 296.00494
294.0 0.003401 285.46201 295.38315
307.0 0.003257 285.36566 294.73849
298.0 0.003356 285.26901 294.12766
285.0 0.00351 285.17203 293.57288
276.0 0.00362 285.07480 293.06656
315.0 0.003175 284.97726 292.57947
296.0 0.003378 284.87943 292.07593
319.0 0.003135 284.78137 291.52310
286.0 0.003497 284.68304 290.89951
276.0 0.00362 284.58453 290.20322
291.0 0.003436 284.48578 289.45364
281.0 0.00356 284.38684 288.68491
293.0 0.003413 284.28766 287.93369
290.0 0.003448 284.18832 287.23044
290.0 0.003448 284.08887 286.59656
279.0 0.00358 283.98923 286.04282
266.0 0.00376 283.88950 285.57086
291.0 0.003436 283.78961 285.17477
287.0 0.003484 283.68964 284.84338
283.0 0.00353 283.58954 284.56436
271.0 0.00369 283.48941 284.32529
304.0 0.003289 283.38916 284.11624
258.0 0.00388 283.28888 283.92953
284.0 0.00352 283.18860 283.75970
293.0 0.003413 283.08823 283.60275
254.0 0.00394 282.98788 283.45590
249.0 0.00402 282.88751 283.31750
276.0 0.00362 282.78720 283.18625
282.0 0.00355 282.68689 283.06161
296.0 0.003378 282.58664 282.94159
298.0 0.003356 282.48639 282.82596
278.0 0.00360 282.38623 282.71375
281.0 0.00356 282.28619 282.60324
271.0 0.00369 282.18619 282.49634
290.0 0.003448 282.08633 282.39169
268.0 0.00373 281.98657 282.28857
309.0 0.003236 281.88693 282.18707
292.0 0.003425 281.78745 282.08710
276.0 0.00362 281.68811 281.98856
271.0 0.00369 281.58896 281.89197
291.0 0.003436 281.48996 281.79669
254.0 0.00394 281.39114 281.70331
299.0 0.003344 281.29257 281.61160
297.0 0.003367 281.19415 281.52289
278.0 0.00360 281.09601 281.43704
276.0 0.00362 280.99808 281.35382
269.0 0.00372 280.90036 281.27347
297.0 0.003367 280.80295 281.19568
266.0 0.00376 280.70578 281.12000
239.0 0.00418 280.60892 281.04602
309.0 0.003236 280.51230 280.97272
296.0 0.003378 280.41595 280.89932
280.0 0.00357 280.31998 280.82501
297.0 0.003367 280.22427 280.74948
265.0 0.00377 280.12894 280.67340
313.0 0.003195 280.03391 280.59756
263.0 0.00380 279.93921 280.52383
263.0 0.00380 279.84491 280.45395
286.0 0.003497 279.75092 280.38998
311.0 0.003215 279.65735 280.33423
296.0 0.003378 279.56409 280.28964
270.0 0.00370 279.47125 280.26401
288.0 0.003472 279.37881 280.25677
307.0 0.003257 279.28674 280.27988
292.0 0.003425 279.19513 280.34576
281.0 0.00356 279.10388 280.47058
296.0 0.003378 279.01306 280.67392
257.0 0.00389 278.92267 280.97699
255.0 0.00392 278.83270 281.40137
281.0 0.00356 278.74319 281.96533
276.0 0.00362 278.65411 282.68195
269.0 0.00372 278.56546 283.55606
291.0 0.003436 278.47733 284.58475
262.0 0.00382 278.38959 285.75131
296.0 0.003378 278.30234 287.03424
278.0 0.00360 278.21552 288.40405
284.0 0.00352 278.12921 289.82074
290.0 0.003448 278.04337 291.27798
270.0 0.00370 277.95801 292.77423
287.0 0.003484 277.87311 294.34158
319.0 0.003135 277.78867 296.02066
281.0 0.00356 277.70474 297.82135
261.0 0.00383 277.62131 299.69766
288.0 0.003472 277.53836 301.53845
317.0 0.003155 277.45587 303.17105
307.0 0.003257 277.37390 304.39377
277.0 0.00361 277.29242 305.02014
259.0 0.00386 277.21143 304.95450
283.0 0.00353 277.13092 304.20474
322.0 0.003106 277.05090 302.89728
293.0 0.003413 276.97141 301.23264
301.0 0.003322 276.89236 299.42828
300.0 0.003333 276.81384 297.66580
289.0 0.003460 276.73578 296.05930
285.0 0.00351 276.65823 294.64825
302.0 0.003311 276.58115 293.40100
294.0 0.003401 276.50455 292.23776
313.0 0.003195 276.42844 291.06390
306.0 0.003268 276.35281 289.80215
289.0 0.003460 276.27768 288.43140
326.0 0.003067 276.20297 286.96558
253.0 0.00395 276.12875 285.45056
296.0 0.003378 276.05502 283.95874
273.0 0.00366 275.98172 282.54416
267.0 0.00375 275.90891 281.25458
248.0 0.00403 275.83652 280.12024
271.0 0.00369 275.76459 279.15558
293.0 0.003413 275.69308 278.36630
281.0 0.00356 275.62201 277.72681
255.0 0.00392 275.55142 277.22107
265.0 0.00377 275.48120 276.82849
285.0 0.00351 275.41141 276.52319
254.0 0.00394 275.34204 276.28104
281.0 0.00356 275.27307 276.08893
295.0 0.003390 275.20450 275.93073
294.0 0.003401 275.13632 275.79623
284.0 0.00352 275.06851 275.67889
266.0 0.00376 275.00110 275.57452
277.0 0.00361 274.93402 275.48108
294.0 0.003401 274.86734 275.40115
282.0 0.00355 274.80096 275.32867
290.0 0.003448 274.73492 275.26770
285.0 0.00351 274.66925 275.21936
274.0 0.00365 274.60388 275.18494
292.0 0.003425 274.53885 275.16483
278.0 0.00360 274.47409 275.15839
324.0 0.003086 274.40961 275.16376
279.0 0.00358 274.34546 275.17743
258.0 0.00388 274.28152 275.19418
301.0 0.003322 274.21790 275.20715
272.0 0.00368 274.15448 275.20853
300.0 0.003333 274.09131 275.19052
262.0 0.00382 274.02841 275.14725
270.0 0.00370 273.96567 275.07733
282.0 0.00355 273.90320 274.98483
279.0 0.00358 273.84085 274.87692
277.0 0.00361 273.77872 274.76260
283.0 0.00353 273.71674 274.64886
294.0 0.003401 273.65494 274.54089
268.0 0.00373 273.59332 274.44119
288.0 0.003472 273.53174 274.34952
278.0 0.00360 273.47037 274.26352
270.0 0.00370 273.40903 274.17902
286.0 0.003497 273.34781 274.09210
275.0 0.00364 273.28671 274.00009
251.0 0.00398 273.22562 273.90298
273.0 0.00366 273.16464 273.80319
284.0 0.00352 273.10364 273.70444
266.0 0.00376 273.04269 273.61154
267.0 0.00375 272.98181 273.53003
246.0 0.00407 272.92087 273.46548
292.0 0.003425 272.85995 273.42462
280.0 0.00357 272.79895 273.41513
275.0 0.00364 272.73795 273.44504
243.0 0.00412 272.67697 273.52246
298.0 0.003356 272.61581 273.65521
290.0 0.003448 272.55463 273.84818
247.0 0.00405 272.49332 274.10336
294.0 0.003401 272.43188 274.41632
274.0 0.00365 272.37045 274.77573
267.0 0.00375 272.30875 275.16354
287.0 0.003484 272.24695 275.55200
256.0 0.00391 272.18497 275.90778
298.0 0.003356 272.12280 276.19189
283.0 0.00353 272.06055 276.36774
302.0 0.003311 271.99799 276.41135
310.0 0.003226 271.93524 276.32101
298.0 0.003356 271.87225 276.11957
300.0 0.003333 271.80902 275.84549
305.0 0.003279 271.74557 275.53992
301.0 0.003322 271.68179 275.23669
278.0 0.00360 271.61777 274.95941
251.0 0.00398 271.55341 274.71829
284.0 0.00352 271.48877 274.51132
271.0 0.00369 271.42386 274.32538
271.0 0.00369 271.35849 274.13992
255.0 0.00392 271.29285 273.93484
271.0 0.00369 271.22684 273.69650
242.0 0.00413 271.16043 273.42337
247.0 0.00405 271.09372 273.12341
285.0 0.00351 271.02652 272.80933
276.0 0.00362 270.95895 272.48923
297.0 0.003367 270.89090 272.18704
283.0 0.00353 270.82248 271.90643
298.0 0.003356 270.75363 271.65363
287.0 0.003484 270.68423 271.43103
273.0 0.00366 270.61447 271.23935
292.0 0.003425 270.54413 271.07617
297.0 0.003367 270.47333 270.93823
265.0 0.00377 270.40210 270.81113
294.0 0.003401 270.33026 270.71164
267.0 0.00375 270.25800 270.61896
282.0 0.00355 270.18509 270.54279
275.0 0.00364 270.11169 270.48148
286.0 0.003497 270.03778 270.43353
273.0 0.00366 269.96326 270.40219
232.0 0.00431 269.88821 270.39352
264.0 0.00379 269.81253 270.41623
247.0 0.00405 269.73627 270.48154
267.0 0.00375 269.65952 270.60303
273.0 0.00366 269.58200 270.79044
256.0 0.00391 269.50397 271.06827
260.0 0.00385 269.42526 271.43900
252.0 0.00397 269.34595 271.91479
291.0 0.003436 269.26608 272.48734
232.0 0.00431 269.18542 273.14240
293.0 0.003413 269.10425 273.84964
232.0 0.00431 269.02234 274.56778
274.0 0.00365 268.93976 275.24048
306.0 0.003268 268.85666 275.80344
245.0 0.00408 268.77274 276.19806
266.0 0.00376 268.68820 276.36533
260.0 0.00385 268.60294 276.29620
265.0 0.00377 268.51700 276.01874
280.0 0.00357 268.43045 275.59317
265.0 0.00377 268.34311 275.08908
266.0 0.00376 268.25513 274.57141
284.0 0.00352 268.16638 274.08615
278.0 0.00360 268.07697 273.65997
261.0 0.00383 267.98694 273.29785
261.0 0.00383 267.89609 272.98373
293.0 0.003413 267.80457 272.68793
257.0 0.00389 267.71228 272.37631
279.0 0.00358 267.61932 272.01459
269.0 0.00372 267.52573 271.59308
282.0 0.00355 267.43130 271.11682
266.0 0.00376 267.33621 270.60611
274.0 0.00365 267.24036 270.08359
261.0 0.00383 267.14380 269.57205
278.0 0.00360 267.04666 269.08994
265.0 0.00377 266.94864 268.64893
256.0 0.00391 266.84998 268.25690
260.0 0.00385 266.75055 267.91492
253.0 0.00395 266.65042 267.62021
241.0 0.00415 266.54971 267.36685
270.0 0.00370 266.44815 267.14661
269.0 0.00372 266.34598 266.95157
289.0 0.003460 266.24301 266.77625
297.0 0.003367 266.13937 266.61511
259.0 0.00386 266.03516 266.46466
283.0 0.00353 265.93011 266.32199
276.0 0.00362 265.82446 266.18579
287.0 0.003484 265.71805 266.05429
297.0 0.003367 265.61105 265.92657
264.0 0.00379 265.50339 265.80118
284.0 0.00352 265.39499 265.67682
258.0 0.00388 265.28601 265.55270
303.0 0.003300 265.17624 265.42731
228.0 0.00439 265.06592 265.30099
272.0 0.00368 264.95505 265.17358
263.0 0.00380 264.84338 265.04504
251.0 0.00398 264.73120 264.91620
279.0 0.00358 264.61832 264.78729
252.0 0.00397 264.50485 264.65903
267.0 0.00375 264.39084 264.53168
291.0 0.003436 264.27612 264.40518
255.0 0.00392 264.16095 264.28000
243.0 0.00412 264.04507 264.15570
269.0 0.00372 263.92868 264.03247
270.0 0.00370 263.81180 263.91013
267.0 0.00375 263.69424 263.78809
250.0 0.00400 263.57629 263.66653
279.0 0.00358 263.45767 263.54514
251.0 0.00398 263.33856 263.42380
246.0 0.00407 263.21909 263.30249
240.0 0.00417 263.09888 263.18097
300.0 0.003333 262.97839 263.05936
288.0 0.003472 262.85727 262.93741
286.0 0.003497 262.73575 262.81525
256.0 0.00391 262.61386 262.68958
270.0 0.00370 262.49139 262.56699
275.0 0.00364 262.36859 262.44412
263.0 0.00380 262.24527 262.32104
261.0 0.00383 262.12158 262.19775
266.0 0.00376 261.99765 262.07443
252.0 0.00397 261.87317 261.95081
249.0 0.00402 261.74838 261.82700
248.0 0.00403 261.62317 261.70306
279.0 0.00358 261.49765 261.57901
290.0 0.003448 261.37195 261.45499
255.0 0.00392 261.24579 261.32913
281.0 0.00356 261.11938 261.20801
260.0 0.00385 260.99261 261.08392
286.0 0.003497 260.86560 260.95996
278.0 0.00360 260.73849 260.83618
267.0 0.00375 260.61096 260.71243
258.0 0.00388 260.48331 260.58893
291.0 0.003436 260.35532 260.46576
273.0 0.00366 260.22720 260.34302
240.0 0.00417 260.09906 260.22089
232.0 0.00431 259.97055 260.09918
294.0 0.003401 259.84198 259.97849
246.0 0.00407 259.71320 259.85999
257.0 0.00389 259.58435 259.74365
271.0 0.00369 259.45554 259.62823
243.0 0.00412 259.32645 259.51624
293.0 0.003413 259.19739 259.40948
258.0 0.00388 259.06821 259.31049
243.0 0.00412 258.93900 259.22302
253.0 0.00395 258.80994 259.15210
248.0 0.00403 258.68069 259.10419
262.0 0.00382 258.55157 259.08746
253.0 0.00395 258.42239 259.11108
246.0 0.00407 258.29330 259.18475
268.0 0.00373 258.16443 259.31781
232.0 0.00431 258.03546 259.51608
221.0 0.00452 257.90674 259.78217
261.0 0.00383 257.77798 260.11310
241.0 0.00415 257.64948 260.49759
251.0 0.00398 257.52121 260.91623
264.0 0.00379 257.39297 261.34256
262.0 0.00382 257.26511 261.74036
246.0 0.00407 257.13727 262.06894
242.0 0.00413 257.00980 262.28687
252.0 0.00397 256.88266 262.36130
264.0 0.00379 256.75565 262.27368
288.0 0.003472 256.62909 262.05054
241.0 0.00415 256.50272 261.72015
279.0 0.00358 256.37677 261.32819
244.0 0.00410 256.25125 260.91742
235.0 0.00426 256.12601 260.52075
271.0 0.00369 256.00131 260.15967
245.0 0.00408 255.87689 259.84106
270.0 0.00370 255.75301 259.55975
296.0 0.003378 255.62971 259.29935
274.0 0.00365 255.50673 259.03598
247.0 0.00405 255.38443 258.74652
245.0 0.00408 255.26256 258.41809
252.0 0.00397 255.14131 258.04706
256.0 0.00391 255.02080 257.64182
248.0 0.00403 254.90070 257.21603
271.0 0.00369 254.78142 256.78665
254.0 0.00394 254.66269 256.36728
236.0 0.00424 254.54471 255.96999
278.0 0.00360 254.42758 255.60307
282.0 0.00355 254.31105 255.27008
276.0 0.00362 254.19537 254.97298
271.0 0.00369 254.08044 254.70970
249.0 0.00402 253.96638 254.47729
267.0 0.00375 253.85333 254.27255
232.0 0.00431 253.74100 254.08875
245.0 0.00408 253.62968 253.92279
273.0 0.00366 253.51927 253.77065
248.0 0.00403 253.40985 253.62932
260.0 0.00385 253.30159 253.49643
242.0 0.00413 253.19423 253.36980
266.0 0.00376 253.08803 253.24844
269.0 0.00372 252.98286 253.13120
281.0 0.00356 252.87889 253.01997
259.0 0.00386 252.77623 252.90955
278.0 0.00360 252.67462 252.80168
279.0 0.00358 252.57434 252.69632
269.0 0.00372 252.47530 252.59338
247.0 0.00405 252.37759 252.49277
257.0 0.00389 252.28136 252.39458
250.0 0.00400 252.18639 252.29858
244.0 0.00410 252.09293 252.20506
277.0 0.00361 252.00089 252.11398
228.0 0.00439 251.91039 252.02553
258.0 0.00388 251.82152 251.93987
262.0 0.00382 251.73415 251.85677
246.0 0.00407 251.64844 251.77769
295.0 0.003390 251.56438 251.69984
247.0 0.00405 251.48206 251.62447
267.0 0.00375 251.40157 251.55118
271.0 0.00369 251.32278 251.47952
217.0 0.00461 251.24590 251.40912
245.0 0.00408 251.17084 251.33955
248.0 0.00403 251.09776 251.27052
250.0 0.00400 251.02670 251.20203
246.0 0.00407 250.95760 251.13426
266.0 0.00376 250.89061 251.06769
244.0 0.00410 250.82567 251.00284
251.0 0.00398 250.76294 250.94048
259.0 0.00386 250.70245 250.88103
243.0 0.00412 250.64417 250.82477
242.0 0.00413 250.58824 250.77208
250.0 0.00400 250.53461 250.72305
237.0 0.00422 250.48340 250.67780
236.0 0.00424 250.43466 250.63637
272.0 0.00368 250.38840 250.59911
248.0 0.00403 250.34471 250.56660
244.0 0.00410 250.30357 250.53992
251.0 0.00398 250.26509 250.52094
252.0 0.00397 250.22934 250.51222
247.0 0.00405 250.19630 250.51738
241.0 0.00415 250.16608 250.54105
257.0 0.00389 250.13867 250.58893
262.0 0.00382 250.11414 250.66763
225.0 0.00444 250.09259 250.78426
271.0 0.00369 250.07399 250.94618
220.0 0.00455 250.05844 251.15912
268.0 0.00373 250.04596 251.42725
264.0 0.00379 250.03661 251.75079
231.0 0.00433 250.03043 252.12534
268.0 0.00373 250.02745 252.54237
222.0 0.00450 250.02773 252.98619
256.0 0.00391 250.03133 253.43701
248.0 0.00403 250.03827 253.86894
279.0 0.00358 250.04857 254.25374
269.0 0.00372 250.06232 254.56531
249.0 0.00402 250.07948 254.78392
240.0 0.00417 250.10019 254.90634
262.0 0.00382 250.12442 254.94638
242.0 0.00413 250.15216 254.93112
243.0 0.00412 250.18355 254.89163
244.0 0.00410 250.21852 254.85487
257.0 0.00389 250.25717 254.83890
242.0 0.00413 250.29947 254.85083
262.0 0.00382 250.34541 254.88622
262.0 0.00382 250.39514 254.93047
241.0 0.00415 250.44853 254.96165
264.0 0.00379 250.50571 254.95618
266.0 0.00376 250.56660 254.89563
252.0 0.00397 250.63118 254.77301
275.0 0.00364 250.69958 254.59424
259.0 0.00386 250.77168 254.37569
261.0 0.00383 250.84758 254.13770
245.0 0.00408 250.92717 253.89604
260.0 0.00385 251.01038 253.67690
260.0 0.00385 251.09740 253.48636
245.0 0.00408 251.18800 253.33044
262.0 0.00382 251.28230 253.20924
276.0 0.00362 251.38017 253.11897
261.0 0.00383 251.48146 253.05339
256.0 0.00391 251.58641 253.00639
268.0 0.00373 251.69472 252.97412
230.0 0.00435 251.80649 252.95525
241.0 0.00415 251.92152 252.95068
260.0 0.00385 252.03969 252.96280
240.0 0.00417 252.16115 252.99229
247.0 0.00405 252.28554 253.04730
252.0 0.00397 252.41306 253.12950
249.0 0.00402 252.54329 253.24255
227.0 0.00441 252.67621 253.39035
238.0 0.00420 252.81186 253.57631
240.0 0.00417 252.94984 253.80234
243.0 0.00412 253.09035 254.06975
261.0 0.00383 253.23286 254.37668
293.0 0.003413 253.37730 254.71930
238.0 0.00420 253.52373 255.09175
275.0 0.00364 253.67163 255.48254
271.0 0.00369 253.82112 255.87959
252.0 0.00397 253.97177 256.26642
231.0 0.00433 254.12329 256.62466
256.0 0.00391 254.27573 256.93713
265.0 0.00377 254.42851 257.18866
250.0 0.00400 254.58171 257.37341
285.0 0.00351 254.73480 257.49542
263.0 0.00380 254.88741 257.56903
284.0 0.00352 255.03961 257.61377
246.0 0.00407 255.19069 257.65005
290.0 0.003448 255.34059 257.69629
269.0 0.00372 255.48882 257.76718
241.0 0.00415 255.63484 257.87183
257.0 0.00389 255.77875 258.01590
278.0 0.00360 255.91962 258.19940
279.0 0.00358 256.05740 258.41895
260.0 0.00385 256.19150 258.66769
272.0 0.00368 256.32135 258.93768
268.0 0.00373 256.44678 259.22290
284.0 0.00352 256.56705 259.51755
262.0 0.00382 256.68179 259.81674
260.0 0.00385 256.79037 260.11288
277.0 0.00361 256.89218 260.39499
271.0 0.00369 256.98688 260.64880
247.0 0.00405 257.07370 260.85556
230.0 0.00435 257.15213 260.99725
253.0 0.00395 257.22147 261.06003
268.0 0.00373 257.28101 261.04044
266.0 0.00376 257.33023 260.94693
236.0 0.00424 257.36835 260.79752
245.0 0.00408 257.39468 260.61371
267.0 0.00375 257.40848 260.41602
243.0 0.00412 257.40897 260.22046
231.0 0.00433 257.39536 260.03613
267.0 0.00375 257.36691 259.86688
241.0 0.00415 257.32272 259.70935
257.0 0.00389 257.26196 259.55487
268.0 0.00373 257.18390 259.39072
277.0 0.00361 257.08740 259.20239
254.0 0.00394 256.97177 258.97812
256.0 0.00391 256.83591 258.71078
258.0 0.00388 256.67896 258.40018
260.0 0.00385 256.50012 258.05087
238.0 0.00420 256.29794 257.66873
264.0 0.00379 256.07181 257.26169
273.0 0.00366 255.82040 256.83536
265.0 0.00377 255.54288 256.39502
263.0 0.00380 255.23840 255.94415
273.0 0.00366 254.90514 255.48322
261.0 0.00383 254.54266 255.01295
249.0 0.00402 254.14932 254.53101
262.0 0.00382 253.72452 254.03534
249.0 0.00402 253.26700 253.52242
241.0 0.00415 252.77490 252.98778
246.0 0.00407 252.24812 252.42882
257.0 0.00389 251.68411 251.84058
275.0 0.00364 251.08304 251.22116
233.0 0.00429 250.44331 250.56764
257.0 0.00389 249.76283 249.87634
253.0 0.00395 249.04175 249.14674
231.0 0.00433 248.27733 248.37540
257.0 0.00389 247.46936 247.56155
275.0 . . .
loop_
_refln_index_h
_refln_index_k
_refln_index_l
_pd_refln_wavelength_id
_refln_observed_status
_refln_F_squared_meas
_refln_F_squared_calc
_refln_phase_calc
_refln_d_spacing
_gsas_i100_meas
0 0 1 1 o 418.316 425.903 0.00 7.42097 34.24
0 0 1 2 o 413.937 425.903 0.00 7.42097 16.87
1 0 1 1 o 162.828 164.233 180.00 4.79252 31.08
1 0 1 2 o 166.534 164.233 180.00 4.79252 15.81
1 1 0 1 o 101.312 85.762 180.00 4.43854 7.73
1 1 0 2 o 95.527 85.762 180.00 4.43854 3.61
1 1 1 1 o 905.535 899.388 0.00 3.80919 100.00
1 1 1 2 o 916.515 899.388 0.00 3.80919 50.32
0 0 2 1 o 706.924 605.751 0.00 3.71049 13.45
0 0 2 2 o 606.777 605.751 0.00 3.71049 5.78
1 0 2 1 o 67.432 59.523 180.00 3.19416 4.39
1 0 2 2 o 63.363 59.523 180.00 3.19416 2.05
2 0 0 1 o 2312.442 2223.791 180.00 3.13852 59.72
2 0 0 2 o 2257.809 2223.791 180.00 3.13852 29.02
2 0 1 1 o 265.303 253.512 180.00 2.89063 19.52
2 0 1 2 o 245.584 253.512 180.00 2.89063 9.03
1 1 2 1 o 346.811 334.829 0.00 2.84678 17.14
1 1 2 2 o 346.569 334.829 0.00 2.84678 8.52
2 1 1 1 o 28.242 36.166 0.00 2.62560 2.85
2 1 1 2 o 25.388 36.166 0.00 2.62560 1.28
0 0 3 1 o 669.266 375.546 0.00 2.47366 5.17
0 0 3 2 o 596.892 375.546 0.00 2.47366 2.30
2 0 2 1 o 234.991 258.669 180.00 2.39626 10.65
2 0 2 2 o 216.447 258.669 180.00 2.39626 4.91
1 0 3 1 o 15.826 9.784 180.00 2.30140 0.48
1 0 3 2 o 19.098 9.784 180.00 2.30140 0.28
2 1 2 1 o 59.013 52.272 0.00 2.23868 3.84
2 1 2 2 o 54.993 52.272 0.00 2.23868 1.78
2 2 0 1 o 773.920 829.244 0.00 2.21927 14.63
2 2 0 2 o 698.584 829.244 0.00 2.21927 6.59
1 1 3 1 o 96.799 118.092 0.00 2.16075 2.73
1 1 3 2 o 88.483 118.092 0.00 2.16075 1.25
2 2 1 1 o 234.782 156.178 0.00 2.12623 8.11
2 2 1 2 o 201.410 156.178 0.00 2.12623 3.49
3 0 1 1 o -0.160 9.677 0.00 2.01383 0.00
3 0 1 2 o -0.160 9.677 0.00 2.01383 0.00
3 1 0 1 o 22.266 0.271 0.00 1.98498 0.42
3 1 0 2 o 14.156 0.271 0.00 1.98498 0.13
2 0 3 1 o 195.173 169.476 180.00 1.94277 4.53
2 0 3 2 o 204.568 169.476 180.00 1.94277 2.36
3 1 1 1 o 120.183 120.738 180.00 1.91756 5.62
3 1 1 2 o 109.267 120.738 180.00 1.91756 2.56
2 2 2 1 o 140.967 123.422 0.00 1.90460 3.36
2 2 2 2 o 136.146 123.422 0.00 1.90460 1.61
2 1 3 1 o 3.294 2.748 0.00 1.85591 0.12
0 0 4 1 o 11.758 12.757 0.00 1.85524 0.06
2 1 3 2 o -0.067 2.748 0.00 1.85591 0.00
0 0 4 2 o -2.777 12.757 0.00 1.85524 0.00
3 0 2 1 o 14.014 37.253 0.00 1.82255 0.36
3 0 2 2 o 10.292 37.253 0.00 1.82255 0.13
1 0 4 1 o 11.857 4.358 180.00 1.77916 0.19
1 0 4 2 o 23.339 4.358 180.00 1.77916 0.18
3 1 2 1 o 96.804 74.427 180.00 1.75026 4.18
3 1 2 2 o 100.019 74.427 180.00 1.75026 2.14
1 1 4 1 o 201.196 207.042 0.00 1.71173 3.09
1 1 4 2 o 172.952 207.042 0.00 1.71173 1.33
3 2 1 1 o 2.533 1.213 180.00 1.69492 0.09
3 2 1 2 o 3.926 1.213 180.00 1.69492 0.07
2 2 3 1 o 83.357 83.017 0.00 1.65190 1.22
2 2 3 2 o 90.342 83.017 0.00 1.65190 0.65
3 0 3 1 o -0.032 1.014 0.00 1.59751 0.00
2 0 4 1 o -1.406 5.014 180.00 1.59708 0.00
3 0 3 2 o -0.032 1.014 0.00 1.59751 0.00
2 0 4 2 o -1.406 5.014 180.00 1.59708 0.00
3 2 2 1 o 12.746 31.509 180.00 1.57608 0.40
3 2 2 2 o 21.416 31.509 180.00 1.57608 0.33
4 0 0 1 o 180.196 193.495 0.00 1.56926 0.95
4 0 0 2 o 157.284 193.495 0.00 1.56926 0.42
3 1 3 1 o 61.382 34.063 180.00 1.54816 1.79
2 1 4 1 o 6.433 3.653 0.00 1.54777 0.15
3 1 3 2 o 65.072 34.063 180.00 1.54816 0.94
2 1 4 2 o 6.716 3.653 0.00 1.54777 0.08
4 0 1 1 o 126.245 48.654 0.00 1.53531 1.57
4 0 1 2 o 74.425 48.654 0.00 1.53531 0.47
4 1 1 1 o -0.014 0.450 180.00 1.49135 0.00
4 1 1 2 o -0.014 0.450 180.00 1.49135 0.00
0 0 5 1 o -2.130 17.536 0.00 1.48419 0.00
0 0 5 2 o 50.519 17.536 0.00 1.48419 0.06
3 3 0 1 o 8.600 2.183 0.00 1.47951 0.06
3 3 0 2 o -0.830 2.183 0.00 1.47951 0.00
3 3 1 1 o 19.186 19.864 0.00 1.45096 0.28
3 3 1 2 o 23.505 19.864 0.00 1.45096 0.17
4 0 2 1 o 42.362 36.485 0.00 1.44532 0.61
1 0 5 1 o 9.971 8.760 180.00 1.44437 0.09
4 0 2 2 o 35.066 36.485 0.00 1.44532 0.25
1 0 5 2 o 7.564 8.760 180.00 1.44437 0.03
3 2 3 1 o 0.066 0.157 180.00 1.42369 0.00
2 2 4 1 o -0.503 1.826 0.00 1.42339 0.00
3 2 3 2 o -0.009 0.157 180.00 1.42369 0.00
2 2 4 2 o -0.697 1.826 0.00 1.42339 0.00
4 1 2 1 o 11.610 19.411 180.00 1.40846 0.28
1 1 5 1 o 33.399 46.934 0.00 1.40758 0.33
4 1 2 2 o 21.525 19.411 180.00 1.40846 0.26
1 1 5 2 o 60.495 46.934 0.00 1.40758 0.28
4 2 0 1 o 119.671 86.593 180.00 1.40359 1.14
4 2 0 2 o 139.104 86.593 180.00 1.40359 0.66
3 0 4 1 o -0.055 2.530 0.00 1.38815 0.00
3 0 4 2 o 1.928 2.530 0.00 1.38815 0.01
4 2 1 1 o 71.620 34.648 180.00 1.37914 1.43
4 2 1 2 o 69.737 34.648 180.00 1.37914 0.69
3 3 2 1 o 42.265 21.179 0.00 1.37429 0.49
3 3 2 2 o 50.867 21.179 0.00 1.37429 0.29
3 1 4 1 o 29.310 68.573 180.00 1.35540 0.61
3 1 4 2 o 19.336 68.573 180.00 1.35540 0.21
2 0 5 1 o -1.237 9.610 180.00 1.34173 0.00
2 0 5 2 o 0.372 9.610 180.00 1.34173 0.01
4 0 3 1 o 30.227 23.561 0.00 1.32511 0.36
4 0 3 2 o 40.479 23.561 0.00 1.32511 0.24
4 2 2 1 o 43.168 20.229 180.00 1.31280 0.86
2 1 5 1 o 6.033 3.091 0.00 1.31209 0.09
4 2 2 2 o 40.767 20.229 180.00 1.31280 0.40
2 1 5 2 o 6.304 3.091 0.00 1.31209 0.05
4 1 3 1 o -0.008 0.139 180.00 1.29653 0.00
4 1 3 2 o -0.008 0.139 180.00 1.29653 0.00
3 3 3 1 o 11.948 11.468 0.00 1.26973 0.11
3 2 4 1 o 2.445 2.172 180.00 1.26952 0.04
3 3 3 2 o 27.376 11.468 0.00 1.26973 0.12
3 2 4 2 o 5.755 2.172 180.00 1.26952 0.04
4 3 1 1 o -0.002 0.355 180.00 1.23782 0.00
5 0 1 1 o -0.003 0.046 180.00 1.23782 0.00
0 0 6 1 o -0.134 0.346 0.00 1.23683 0.00
4 3 1 2 o -0.002 0.355 180.00 1.23782 0.00
5 0 1 2 o -0.003 0.046 180.00 1.23782 0.00
0 0 6 2 o -0.236 0.346 0.00 1.23683 0.00
2 2 5 1 o -0.724 5.373 0.00 1.23372 0.00
5 1 0 1 o 0.913 0.040 0.00 1.23103 0.01
2 2 5 2 o 40.533 5.373 0.00 1.23372 0.14
5 1 0 2 o 1.899 0.040 0.00 1.23103 0.01
4 2 3 1 o 22.370 12.748 180.00 1.22076 0.39
4 2 3 2 o 13.207 12.748 180.00 1.22076 0.12
5 1 1 1 o 15.824 7.504 0.00 1.21443 0.21
1 0 6 1 o 44.307 21.345 0.00 1.21350 0.27
5 1 1 2 o 10.379 7.504 0.00 1.21443 0.07
3 0 5 1 o 1.132 1.256 0.00 1.21056 0.01
1 0 6 2 o 18.643 21.345 0.00 1.21350 0.06
3 0 5 2 o -0.021 1.256 0.00 1.21056 0.00
4 0 4 1 o 0.849 0.123 0.00 1.19813 0.01
4 0 4 2 o 1.481 0.123 0.00 1.19813 0.01
1 1 6 1 o 14.419 27.863 0.00 1.19144 0.10
5 0 2 1 o 6.525 8.285 180.00 1.18919 0.05
4 3 2 1 o 10.660 13.532 0.00 1.18919 0.18
3 1 5 1 o 12.728 14.857 180.00 1.18866 0.18
1 1 6 2 o 24.659 27.863 0.00 1.19144 0.08
5 0 2 2 o 9.893 8.285 180.00 1.18919 0.04
4 3 2 2 o 16.157 13.532 0.00 1.18919 0.13
3 1 5 2 o 16.092 14.857 180.00 1.18866 0.11
4 1 4 1 o 9.912 1.217 180.00 1.17688 0.15
4 1 4 2 o 2.087 1.217 180.00 1.17688 0.02
5 1 2 1 o 22.687 5.775 0.00 1.16840 0.35
5 1 2 2 o 18.452 5.775 0.00 1.16840 0.14
3 3 4 1 o 0.878 26.129 0.00 1.15673 0.02
3 3 4 2 o 35.159 26.129 0.00 1.15673 0.12
5 2 1 1 o 0.542 0.102 180.00 1.15150 0.01
2 0 6 1 o 7.761 0.460 180.00 1.15070 0.05
5 2 1 2 o 2.190 0.102 180.00 1.15150 0.01
2 0 6 2 o 9.567 0.460 180.00 1.15070 0.03
2 1 6 1 o 7.433 10.919 180.00 1.13184 0.09
3 2 5 1 o 0.894 0.273 180.00 1.12946 0.01
2 1 6 2 o 42.150 10.919 180.00 1.13184 0.25
3 2 5 2 o 3.409 0.273 180.00 1.12946 0.02
4 3 3 1 o 0.048 0.006 180.00 1.11949 0.00
5 0 3 1 o 0.837 0.093 180.00 1.11949 0.01
4 2 4 1 o 0.310 0.003 180.00 1.11934 0.00
4 3 3 2 o 0.001 0.006 180.00 1.11949 0.00
5 0 3 2 o -0.005 0.093 180.00 1.11949 0.00
4 2 4 2 o -0.053 0.003 180.00 1.11934 0.00
5 2 2 1 o 5.152 7.746 0.00 1.11204 0.07
4 4 0 1 o 16.041 10.222 0.00 1.10963 0.06
5 2 2 2 o 13.565 7.746 0.00 1.11204 0.09
4 4 0 2 o 1.391 10.222 0.00 1.10963 0.00
5 1 3 1 o 10.101 3.797 0.00 1.10210 0.16
5 1 3 2 o 14.138 3.797 0.00 1.10210 0.11
4 4 1 1 o 4.124 10.573 0.00 1.09743 0.04
4 4 1 2 o 17.838 10.573 0.00 1.09743 0.07
