#------------------------------------------------------------------------------
#$Date: 2016-02-14 16:26:36 +0200 (Sun, 14 Feb 2016) $
#$Revision: 176435 $
#$URL: svn://www.crystallography.net/cod/cif/1/51/62/1516200.cif $
#------------------------------------------------------------------------------
#
# This file is available in the Crystallography Open Database (COD),
# http://www.crystallography.net/
#
# All data on this site have been placed in the public domain by the
# contributors.
#
data_1516200
loop_
_publ_author_name
'Migliorati, Valentina'
'Ballirano, Paolo'
'Gontrani, Lorenzo'
'Russina, Olga'
'Caminiti, Ruggero'
_publ_section_title
;
 Crystal polymorphism of propylammonium chloride and structural properties
 of its mixture with water.
;
_journal_issue                   41
_journal_name_full               'The journal of physical chemistry. B'
_journal_page_first              11805
_journal_page_last               11815
_journal_paper_doi               10.1021/jp206831d
_journal_volume                  115
_journal_year                    2011
_chemical_formula_sum            'C3 Cl N'
_chemical_formula_weight         85.49
_chemical_name_systematic        ' ?'
_space_group_IT_number           129
_symmetry_cell_setting           tetragonal
_symmetry_space_group_name_Hall  '-P 4a 2a'
_symmetry_space_group_name_H-M   'P 4/n m m :2'
_audit_creation_date             2011-07-21T08:56
_audit_creation_method           'from EXP file using GSAS2CIF'
_audit_update_record
' 2011-07-21T08:56  Initial CIF as created by GSAS2CIF'
_cell_angle_alpha                90.0
_cell_angle_beta                 90.0
_cell_angle_gamma                90.0
_cell_formula_units_Z            2
_cell_length_a                   6.26158(7)
_cell_length_b                   6.26158
_cell_length_c                   7.40222(18)
_cell_volume                     290.222(8)
_computing_structure_refinement  GSAS
_diffrn_radiation_probe          x-ray
_exptl_absorpt_correction_T_max  0.81793
_exptl_absorpt_correction_T_min  0.81483
_exptl_absorpt_process_details
;   GSAS Absorption/surface roughness correction: function number 0
 Debye-Scherrer absorption correction
Term (= MU.r/wave) =     0.78580E-01
Correction is not refined.
;
_pd_block_id                     2011-07-21T08:56|70|paolo|Bruker_AXS_D8_Advance
_pd_calc_method                  'Rietveld Refinement'
_pd_instr_location               ' ?'
_pd_meas_2theta_range_inc        0.022
_pd_meas_2theta_range_max        89.988
_pd_meas_2theta_range_min        3.0
_pd_meas_number_of_points        3955
_pd_phase_name                   'Propylammonium chloride'
_pd_proc_2theta_range_inc        0.022
_pd_proc_2theta_range_max        89.988
_pd_proc_2theta_range_min        3.0
_pd_proc_info_datetime           2011-07-21T08:56:18
_pd_proc_info_excluded_regions   ' ?'
_pd_proc_ls_background_function
;   GSAS Background function number 1 with 30 terms.
 Shifted Chebyshev function of 1st kind
      1:    517.805     2:   -346.945     3:    41.5312     4:    78.5209    
      5:   -73.3389     6:   -1.06454     7:    70.1656     8:   -77.2829    
      9:    36.0436    10:    10.3668    11:   -29.3157    12:    24.0816    
     13:   -5.43953    14:   -9.54480    15:    3.68209    16:   0.411282    
     17:   -2.53437    18:   -1.09452    19:    1.49203    20:   0.617629    
     21:   -4.66394    22:    1.27953    23:  -0.518856    24:   -3.84554    
     25:    3.83088    26:   -3.68177    27:   -1.97936    28:    1.95642    
     29:   -2.86562    30:   0.575946    
;
_pd_proc_ls_peak_cutoff          0.00100
_pd_proc_ls_profile_function
;
 CW Profile function number 3 with  19 terms
 Pseudovoigt profile coefficients as parameterized in
 P. Thompson, D.E. Cox & J.B. Hastings (1987). J. Appl. Cryst.,20,79-83.
 Asymmetry correction of L.W. Finger, D.E. Cox & A. P. Jephcoat (1994).
 J. Appl. Cryst.,27,892-900.
 Peak tails are ignored  where the intensity is below 0.0010 times the peak
   Aniso. broadening axis   0.0   1.0   0.0
;
_pd_proc_ls_prof_R_factor        0.0442
_pd_proc_ls_prof_wR_expected     0.0409
_pd_proc_ls_prof_wR_factor       0.0578
_pd_proc_number_of_points        3955
_pd_spec_mounting                ' ?'
_refine_ls_goodness_of_fit_all   1.43
_refine_ls_matrix_type           full
_refine_ls_number_parameters     47
_refine_ls_number_restraints     8
_refine_ls_R_Fsqd_factor         0.14732
_refine_ls_shift/su_max          0.07
_refine_ls_shift/su_mean         0.01
_reflns_d_resolution_high        1.095
_reflns_d_resolution_low         7.402
_reflns_limit_h_max              5
_reflns_limit_h_min              0
_reflns_limit_k_max              4
_reflns_limit_k_min              0
_reflns_limit_l_max              6
_reflns_limit_l_min              0
_reflns_number_total             174
_cod_data_source_file            343K.cif
_cod_data_source_block           70_publ
_cod_depositor_comments
;
The following automatic conversions were performed:

'_geom_bond_publ_flag' value 'N' changed to 'n' according to
/usr/data/users/saulius/automatic-downloads/retrospective/ACS/lib/dictionaries/cif_core.dic
dictionary named 'cif_core.dic' version 2.4.2 from 2011-04-26 (24
times).

'_geom_angle_publ_flag' value 'N' changed to 'n' according
to
/usr/data/users/saulius/automatic-downloads/retrospective/ACS/lib/dictionaries/cif_core.dic
dictionary named 'cif_core.dic' version 2.4.2 from 2011-04-26 (68
times).

Automatic conversion script
Id: cif_fix_values 2281 2013-09-26 08:29:07Z andrius 
;
_cod_original_cell_volume        290.222(10)
_cod_original_sg_symbol_H-M      'p 4/n m m'
_cod_original_formula_sum        'C3.00 Cl N'
_cod_database_code               1516200
#BEGIN Tags that were not found in dictionaries:
_gsas_exptl_extinct_corr_t_min   1.00000
_gsas_exptl_extinct_corr_t_max   1.00000
#END Tags that were not found in dictionaries
loop_
_symmetry_equiv_pos_site_id
_symmetry_equiv_pos_as_xyz
1 +x,+y,+z
2 -y+1/2,+x,+z
3 -x+1/2,-y+1/2,+z
4 +y,-x+1/2,+z
5 -x+1/2,+y,+z
6 -y+1/2,-x+1/2,+z
7 +x,-y+1/2,+z
8 +y,+x,+z
-1 -x,-y,-z
-2 +y+1/2,-x,-z
-3 +x+1/2,+y+1/2,-z
-4 -y,+x+1/2,-z
-5 +x+1/2,-y,-z
-6 +y+1/2,+x+1/2,-z
-7 -x,+y+1/2,-z
-8 -y,-x,-z
loop_
_atom_site_type_symbol
_atom_site_label
_atom_site_fract_x
_atom_site_fract_y
_atom_site_fract_z
_atom_site_occupancy
_atom_site_thermal_displace_type
_atom_site_U_iso_or_equiv
_atom_site_symmetry_multiplicity
Cl CL1 0.25 -0.25 0.0 1.0 Uiso 0.1162(9) 2
C C(1) 0.25 0.3335(6) 0.29466(32) 0.25 Uiso 0.0667(16) 8
N N 0.25 0.25 0.10934(28) 1.0 Uiso 0.0667(16) 2
C C(2) 0.25 0.1497(5) 0.43340(28) 0.25 Uiso 0.0667(16) 8
C C(3) 0.25 0.25 0.6256(4) 1.0 Uiso 0.0667(16) 2
loop_
_atom_type_symbol
_atom_type_number_in_cell
_atom_type_scat_dispersion_real
_atom_type_scat_dispersion_imag
_atom_type_scat_Cromer_Mann_a1
_atom_type_scat_Cromer_Mann_a2
_atom_type_scat_Cromer_Mann_a3
_atom_type_scat_Cromer_Mann_a4
_atom_type_scat_Cromer_Mann_b1
_atom_type_scat_Cromer_Mann_b2
_atom_type_scat_Cromer_Mann_b3
_atom_type_scat_Cromer_Mann_b4
_atom_type_scat_Cromer_Mann_c
_atom_type_scat_source
Cl 2.0 0.000 0.000 11.4604 0.01040 7.19640 1.16620 6.25560 18.5194 1.64550
47.7784 -9.5574 International_Tables_Vol_C
C 6.0 0.000 0.000 2.31000 20.8439 1.02000 10.2075 1.58860 0.56870 0.86500
51.6512 0.21560 International_Tables_Vol_C
N 2.0 0.000 0.000 12.2126 0.00570 3.13220 9.89330 2.01250 28.9975 1.16630
0.58260 -11.529 International_Tables_Vol_C
loop_
_diffrn_radiation_wavelength
_diffrn_radiation_wavelength_wt
_diffrn_radiation_type
_diffrn_radiation_wavelength_id
1.540598 1.000 K\a~1~ 1
1.544390 0.500 K\a~2~ 2
loop_
_geom_angle_atom_site_label_1
_geom_angle_atom_site_label_2
_geom_angle_atom_site_label_3
_geom_angle
_geom_angle_site_symmetry_1
_geom_angle_site_symmetry_3
_geom_angle_publ_flag
C(1) C(1) C(1) 45.0 2_555 3_555 n
C(1) C(1) C(1) 90.0 2_555 4_555 n
C(1) C(1) N 75.42(9) 2_555 1_555 n
C(1) C(1) C(2) 58.16(8) 2_555 1_555 n
C(1) C(1) C(2) 93.26(15) 2_555 2_555 n
C(1) C(1) C(2) 94.15(19) 2_555 3_555 n
C(1) C(1) C(2) 51.68(15) 2_555 4_555 n
C(1) C(1) C(1) 45.0 3_555 4_555 n
C(1) C(1) N 69.14(14) 3_555 1_555 n
C(1) C(1) C(2) 41.74(15) 3_555 1_555 n
C(1) C(1) C(2) 66.53(15) 3_555 2_555 n
C(1) C(1) C(2) 95.87(27) 3_555 3_555 n
C(1) C(1) C(2) 66.53(15) 3_555 4_555 n
C(1) C(1) N 75.42(9) 4_555 1_555 n
C(1) C(1) C(2) 58.16(8) 4_555 1_555 n
C(1) C(1) C(2) 51.68(15) 4_555 2_555 n
C(1) C(1) C(2) 94.15(19) 4_555 3_555 n
C(1) C(1) C(2) 93.26(15) 4_555 4_555 n
N C(1) C(2) 110.88(24) 1_555 1_555 n
N C(1) C(2) 126.11(24) 1_555 2_555 n
N C(1) C(2) 165.0(4) 1_555 3_555 n
N C(1) C(2) 126.11(24) 1_555 4_555 n
C(2) C(1) C(2) 35.11(17) 1_555 2_555 n
C(2) C(1) C(2) 54.13(30) 1_555 3_555 n
C(2) C(1) C(2) 35.11(17) 1_555 4_555 n
C(2) C(1) C(2) 42.47(23) 2_555 3_555 n
C(2) C(1) C(2) 57.20(29) 2_555 4_555 n
C(2) C(1) C(2) 42.47(23) 3_555 4_555 n
C(1) N C(1) 29.16(19) 1_555 2_555 n
C(1) N C(1) 41.72(28) 1_555 3_555 n
C(1) N C(1) 29.16(19) 1_555 4_555 n
C(1) N C(1) 29.16(19) 2_555 3_555 n
C(1) N C(1) 41.72(28) 2_555 4_555 n
C(1) N C(1) 29.16(19) 3_555 4_555 n
C(1) C(2) C(1) 28.58(18) 1_555 2_555 n
C(1) C(2) C(1) 42.39(31) 1_555 3_555 n
C(1) C(2) C(1) 28.58(18) 1_555 4_555 n
C(1) C(2) C(2) 58.16(8) 1_555 2_555 n
C(1) C(2) C(2) 41.74(15) 1_555 3_555 n
C(1) C(2) C(2) 58.16(8) 1_555 4_555 n
C(1) C(2) C(3) 107.91(23) 1_555 1_555 n
C(1) C(2) C(1) 34.17(25) 2_555 3_555 n
C(1) C(2) C(1) 46.94(31) 2_555 4_555 n
C(1) C(2) C(2) 86.74(15) 2_555 2_555 n
C(1) C(2) C(2) 61.40(14) 2_555 3_555 n
C(1) C(2) C(2) 51.68(15) 2_555 4_555 n
C(1) C(2) C(3) 121.49(23) 2_555 1_555 n
C(1) C(2) C(1) 34.17(25) 3_555 4_555 n
C(1) C(2) C(2) 85.85(19) 3_555 2_555 n
C(1) C(2) C(2) 84.13(27) 3_555 3_555 n
C(1) C(2) C(2) 85.85(19) 3_555 4_555 n
C(1) C(2) C(3) 150.3(4) 3_555 1_555 n
C(1) C(2) C(2) 51.68(15) 4_555 2_555 n
C(1) C(2) C(2) 61.40(14) 4_555 3_555 n
C(1) C(2) C(2) 86.74(15) 4_555 4_555 n
C(1) C(2) C(3) 121.49(23) 4_555 1_555 n
C(2) C(2) C(2) 45.0 2_555 3_555 n
C(2) C(2) C(2) 90.0 2_555 4_555 n
C(2) C(2) C(3) 73.40(8) 2_555 1_555 n
C(2) C(2) C(2) 45.0 3_555 4_555 n
C(2) C(2) C(3) 66.17(12) 3_555 1_555 n
C(2) C(2) C(3) 73.40(8) 4_555 1_555 n
C(2) C(3) C(2) 33.20(16) 1_555 2_555 n
C(2) C(3) C(2) 47.66(24) 1_555 3_555 n
C(2) C(3) C(2) 33.20(16) 1_555 4_555 n
C(2) C(3) C(2) 33.20(16) 2_555 3_555 n
C(2) C(3) C(2) 47.66(24) 2_555 4_555 n
C(2) C(3) C(2) 33.20(16) 3_555 4_555 n
loop_
_geom_bond_atom_site_label_1
_geom_bond_atom_site_label_2
_geom_bond_distance
_geom_bond_site_symmetry_2
_geom_bond_publ_flag
C(1) C(1) 0.739(5) 2_555 n
C(1) C(1) 1.045(7) 3_555 n
C(1) C(1) 0.739(5) 4_555 n
C(1) N 1.4680(32) 1_555 n
C(1) C(2) 1.543(4) 1_555 n
C(1) C(2) 1.3125(32) 2_555 n
C(1) C(2) 1.0324(32) 3_555 n
C(1) C(2) 1.3125(32) 4_555 n
N C(1) 1.4680(32) 1_555 n
N C(1) 1.4680(32) 2_555 n
N C(1) 1.4680(32) 3_555 n
N C(1) 1.4680(32) 4_555 n
C(2) C(1) 1.543(4) 1_555 n
C(2) C(1) 1.3125(32) 2_555 n
C(2) C(1) 1.0324(32) 3_555 n
C(2) C(1) 1.3125(32) 4_555 n
C(2) C(2) 0.889(5) 2_555 n
C(2) C(2) 1.257(7) 3_555 n
C(2) C(2) 0.889(5) 4_555 n
C(2) C(3) 1.5552(34) 1_555 n
C(3) C(2) 1.5552(34) 1_555 n
C(3) C(2) 1.5552(34) 2_555 n
C(3) C(2) 1.5552(34) 3_555 n
C(3) C(2) 1.5552(34) 4_555 n
loop_
_pd_meas_counts_total
_pd_proc_ls_weight
_pd_proc_intensity_bkg_calc
_pd_calc_intensity_total
21577.0 0.0 -27626842.00000 .
20796.0 0.0 -26930986.00000 .
20152.0 0.0 -26251488.00000 .
19234.0 0.0 -25587952.00000 .
18326.0 0.0 -24940050.00000 .
17877.0 0.0 -24307434.00000 .
17171.0 0.0 -23689784.00000 .
16809.0 0.0 -23086754.00000 .
16117.0 0.0 -22498022.00000 .
15595.0 0.0 -21923286.00000 .
15145.0 0.0 -21362226.00000 .
14662.0 0.0 -20814530.00000 .
14222.0 0.0 -20279920.00000 .
14008.0 0.0 -19758108.00000 .
13461.0 0.0 -19248780.00000 .
13115.0 0.0 -18751686.00000 .
12527.0 0.0 -18266532.00000 .
12281.0 0.0 -17793090.00000 .
11802.0 0.0 -17331056.00000 .
11439.0 0.0 -16880190.00000 .
11097.0 0.0 -16440238.00000 .
10797.0 0.0 -16010954.00000 .
10630.0 0.0 -15592106.00000 .
10333.0 0.0 -15183445.00000 .
10209.0 0.0 -14784751.00000 .
9749.0 0.0 -14395802.00000 .
9690.0 0.0 -14016356.00000 .
9366.0 0.0 -13646219.00000 .
9075.0 0.0 -13285174.00000 .
8712.0 0.0 -12933009.00000 .
8516.0 0.0 -12589524.00000 .
8393.0 0.0 -12254511.00000 .
8092.0 0.0 -11927795.00000 .
7937.0 0.0 -11609173.00000 .
7840.0 0.0 -11298458.00000 .
7420.0 0.0 -10995474.00000 .
7315.0 0.0 -10700035.00000 .
7266.0 0.0 -10411971.00000 .
6965.0 0.0 -10131113.00000 .
6919.0 0.0 -9857291.00000 .
6718.0 0.0 -9590337.00000 .
6475.0 0.0 -9330100.00000 .
6446.0 0.0 -9076420.00000 .
6274.0 0.0 -8829141.00000 .
6208.0 0.0 -8588121.00000 .
6082.0 0.0 -8353202.50000 .
6009.0 0.0 -8124251.50000 .
5868.0 0.0 -7901122.50000 .
5751.0 0.0 -7683676.50000 .
5684.0 0.0 -7471785.00000 .
5753.0 0.0 -7265316.00000 .
5515.0 0.0 -7064132.00000 .
5385.0 0.0 -6868117.50000 .
5436.0 0.0 -6677153.00000 .
5344.0 0.0 -6491106.50000 .
5183.0 0.0 -6309862.00000 .
5100.0 0.0 -6133309.50000 .
5026.0 0.0 -5961343.50000 .
4984.0 0.0 -5793835.50000 .
4922.0 0.0 -5630694.00000 .
4883.0 0.0 -5471806.00000 .
4844.0 0.0 -5317075.00000 .
4747.0 0.0 -5166393.50000 .
4741.0 0.0 -5019667.00000 .
4604.0 0.0 -4876800.00000 .
4444.0 0.0 -4737700.00000 .
4459.0 0.0 -4602269.00000 .
4356.0 0.0 -4470423.50000 .
4287.0 0.0 -4342072.00000 .
4028.0 0.0 -4217135.50000 .
4335.0 0.0 -4095518.00000 .
4203.0 0.0 -3977147.50000 .
4086.0 0.0 -3861942.75000 .
4116.0 0.0 -3749827.25000 .
4085.0 0.0 -3640720.00000 .
3932.0 0.0 -3534546.00000 .
3998.0 0.0 -3431235.50000 .
3831.0 0.0 -3330716.75000 .
3911.0 0.0 -3232917.00000 .
3784.0 0.0 -3137773.25000 .
3859.0 0.0 -3045216.00000 .
3734.0 0.0 -2955180.25000 .
3655.0 0.0 -2867605.25000 .
3661.0 0.0 -2782424.75000 .
3665.0 0.0 -2699581.50000 .
3408.0 0.0 -2619016.25000 .
3395.0 0.0 -2540668.25000 .
3430.0 0.0 -2464486.50000 .
3474.0 0.0 -2390412.00000 .
3432.0 0.0 -2318391.00000 .
3514.0 0.0 -2248370.75000 .
3370.0 0.0 -2180300.50000 .
3276.0 0.0 -2114133.50000 .
3253.0 0.0 -2049818.25000 .
3274.0 0.0 -1987305.00000 .
3300.0 0.0 -1926548.50000 .
3190.0 0.0 -1867506.12500 .
3180.0 0.0 -1810128.37500 .
3160.0 0.0 -1754376.37500 .
3082.0 0.0 -1700207.50000 .
2991.0 0.0 -1647576.75000 .
3091.0 0.0 -1596447.37500 .
3038.0 0.0 -1546776.12500 .
2929.0 0.0 -1498530.62500 .
3009.0 0.0 -1451671.75000 .
2890.0 0.0 -1406156.50000 .
2835.0 0.0 -1361957.12500 .
2795.0 0.0 -1319033.12500 .
2847.0 0.0 -1277354.50000 .
2829.0 0.0 -1236887.87500 .
2771.0 0.0 -1197598.00000 .
2836.0 0.0 -1159457.12500 .
2766.0 0.0 -1122429.87500 .
2777.0 0.0 -1086490.37500 .
2773.0 0.0 -1051609.75000 .
2807.0 0.0 -1017754.37500 .
2774.0 0.0 -984901.87500 .
2670.0 0.0 -953021.06250 .
2641.0 0.0 -922088.75000 .
2723.0 0.0 -892078.93750 .
2565.0 0.0 -862962.06250 .
2586.0 0.0 -834718.93750 .
2634.0 0.0 -807322.62500 .
2592.0 0.0 -780750.75000 .
2411.0 0.0 -754981.62500 .
2521.0 0.0 -729990.06250 .
2466.0 0.0 -705758.06250 .
2540.0 0.0 -682261.31250 .
2475.0 0.0 -659481.31250 .
2363.0 0.0 -637399.18750 .
2374.0 0.0 -615991.93750 .
2432.0 0.0 -595244.00000 .
2312.0 0.0 -575133.75000 .
2416.0 0.0 -555645.75000 .
2417.0 0.0 -536762.62500 .
2329.0 0.0 -518464.62500 .
2282.0 0.0 -500737.46875 .
2324.0 0.0 -483563.31250 .
2336.0 0.0 -466927.59375 .
2240.0 0.0 -450815.43750 .
2236.0 0.0 -435209.56250 .
2297.0 0.0 -420097.43750 .
2216.0 0.0 -405462.81250 .
2215.0 0.0 -391293.87500 .
2266.0 0.0 -377577.37500 .
2170.0 0.0 -364297.81250 .
2109.0 0.0 -351445.00000 .
2100.0 0.0 -339004.28125 .
2158.0 0.0 -326964.71875 .
2104.0 0.0 -315315.37500 .
2126.0 0.0 -304042.56250 .
2032.0 0.0 -293137.25000 .
2088.0 0.0 -282586.84375 .
2110.0 0.0 -272382.31250 .
2070.0 0.0 -262513.00000 .
1954.0 0.0 -252967.64063 .
2037.0 0.0 -243737.87500 .
2029.0 0.0 -234813.46875 .
1928.0 0.0 -226186.03125 .
2022.0 0.0 -217846.26563 .
1951.0 0.0 -209784.84375 .
2006.0 0.0 -201994.12500 .
1923.0 0.0 -194465.18750 .
1939.0 0.0 -187190.37500 .
1975.0 0.0 -180162.51563 .
1961.0 0.0 -173372.60938 .
1869.0 0.0 -166814.64063 .
1823.0 0.0 -160480.43750 .
1867.0 0.0 -154363.59375 .
1829.0 0.0 -148457.73438 .
1826.0 0.0 -142755.46875 .
1818.0 0.0 -137250.89063 .
1838.0 0.0 -131937.46875 .
1741.0 0.0 -126809.57031 .
1765.0 0.0 -121861.39063 .
1733.0 0.0 -117086.64063 .
1719.0 0.0 -112480.28906 .
1767.0 0.0 -108036.86719 .
1718.0 0.0 -103751.05469 .
1657.0 0.0 -99618.25000 .
1717.0 0.0 -95632.71875 .
1680.0 0.0 -91790.48438 .
1742.0 0.0 -88086.28125 .
1667.0 0.0 -84516.04688 .
1668.0 0.0 -81075.48438 .
1724.0 0.0 -77759.82031 .
1645.0 0.0 -74565.54688 .
1627.0 0.0 -71488.14063 .
1658.0 0.0 -68524.19531 .
1601.0 0.0 -65669.80469 .
1627.0 0.0 -62921.08594 .
1654.0 0.0 -60274.78516 .
1667.0 0.0 -57727.28516 .
1577.0 0.0 -55275.48438 .
1562.0 0.0 -52916.12500 .
1592.0 0.0 -50645.76563 .
1538.0 0.0 -48461.71484 .
1563.0 0.0 -46360.78125 .
1569.0 0.0 -44340.33203 .
1507.0 0.0 -42397.66797 .
1486.0 0.0 -40529.75781 .
1485.0 0.0 -38734.33203 .
1511.0 0.0 -37008.66406 .
1486.0 0.0 -35350.41406 .
1468.0 0.0 -33757.34766 .
1441.0 0.0 -32226.93750 .
1502.0 0.0 -30757.17383 .
1419.0 0.0 -29345.74414 .
1400.0 0.0 -27990.69727 .
1444.0 0.0 -26690.03906 .
1457.0 0.0 -25441.64258 .
1428.0 0.0 -24243.82031 .
1432.0 0.0 -23094.64648 .
1438.0 0.0 -21992.38086 .
1360.0 0.0 -20935.36523 .
1374.0 0.0 -19921.84570 .
1430.0 0.0 -18950.33008 .
1320.0 0.0 -18019.15234 .
1348.0 0.0 -17126.92188 .
1373.0 0.0 -16272.21484 .
1326.0 0.0 -15453.49609 .
1372.0 0.0 -14669.54199 .
1358.0 0.0 -13918.96484 .
1305.0 0.0 -13200.54199 .
1357.0 0.0 -12513.06152 .
1292.0 0.0 -11855.30566 .
1270.0 0.0 -11226.16504 .
1297.0 0.0 -10624.49316 .
1231.0 0.0 -10049.28418 .
1252.0 0.0 -9499.53809 .
1186.0 0.0 -8974.13672 .
1221.0 0.0 -8472.24805 .
1185.0 0.0 -7992.86865 .
1298.0 0.0 -7535.13721 .
1182.0 0.0 -7098.22803 .
1185.0 0.0 -6681.22070 .
1147.0 0.0 -6283.39746 .
1120.0 0.0 -5903.92188 .
1175.0 0.0 -5542.10791 .
1203.0 0.0 -5197.20459 .
1094.0 0.0 -4868.51221 .
1152.0 0.0 -4555.38623 .
1082.0 0.0 -4257.13574 .
1136.0 0.0 -3973.19189 .
1100.0 0.0 -3702.95361 .
1083.0 0.0 -3445.79492 .
1129.0 0.0 -3201.21265 .
1045.0 0.0 -2968.64453 .
1162.0 0.0 -2747.58374 .
1064.0 0.0 -2537.54175 .
1106.0 0.0 -2338.02979 .
1080.0 0.0 -2148.60303 .
1088.0 0.0 -1968.79663 .
1036.0 0.0 -1798.21216 .
1068.0 0.0 -1636.43469 .
1075.0 0.0 -1483.05798 .
1042.0 0.0 -1337.71631 .
989.0 0.0 -1200.04224 .
1015.0 0.0 -1069.69287 .
983.0 0.0 -946.34039 .
996.0 0.0 -829.63812 .
1001.0 0.0 -719.30200 .
1029.0 0.0 -615.02289 .
1069.0 0.0 -516.51794 .
991.0 0.0 -423.52206 .
984.0 0.0 -335.76376 .
1016.0 0.0 -252.99818 .
991.0 0.0 -174.97670 .
914.0 0.0 -101.47881 .
984.0 0.0 -32.27987 .
1001.0 0.0 32.83725 .
933.0 0.0 94.07218 .
1042.0 0.0 151.61861 .
971.0 0.0 205.66237 .
980.0 0.0 256.37820 .
1020.0 0.0 303.94638 .
973.0 0.0 348.51990 .
1043.0 0.0 390.26041 .
985.0 0.0 429.31476 .
986.0 0.0 465.82474 .
931.0 0.0 499.92749 .
1000.0 0.0 531.75165 .
923.0 0.0 561.42401 .
1012.0 0.0 589.05945 .
879.0 0.0 614.76978 .
925.0 0.0 638.66766 .
925.0 0.0 660.85083 .
955.0 0.0 681.41992 .
933.0 0.0 700.46674 .
967.0 0.0 718.07843 .
909.0 0.0 734.34320 .
959.0 0.0 749.33759 .
939.0 0.0 763.13989 .
898.0 0.0 775.82196 .
938.0 0.0 787.45221 .
888.0 0.0 798.09674 .
931.0 0.0 807.81696 .
918.0 0.0 816.67285 .
913.0 0.0 824.71906 .
940.0 0.0 832.00824 .
900.0 0.0 838.59192 .
839.0 0.0 844.51624 .
926.0 0.0 849.82672 .
861.0 0.0 854.56549 .
870.0 0.0 858.77258 .
863.0 0.0 862.48602 .
860.0 0.0 865.74121 .
981.0 0.0 868.57214 .
944.0 0.0 871.01013 .
879.0 0.0 873.08521 .
874.0 0.0 874.82556 .
905.0 0.0 876.25745 .
831.0 0.0 877.40576 .
840.0 0.0 878.29358 .
911.0 0.0 878.94287 .
916.0 0.0 879.37396 .
881.0 0.0 879.60596 .
859.0 0.0 879.65686 .
889.0 0.001125 879.54309 879.54303
900.0 0.001111 879.28033 879.28033
872.0 0.001147 878.88306 878.88312
906.0 0.001104 878.36475 878.36481
860.0 0.001163 877.73779 877.73785
912.0 0.001096 877.01379 877.01392
819.0 0.001221 876.20367 876.20374
895.0 0.001117 875.31708 875.31720
890.0 0.001124 874.36328 874.36340
915.0 0.001093 873.35071 873.35083
882.0 0.001134 872.28705 872.28717
871.0 0.001148 871.17950 871.17969
853.0 0.001172 870.03442 870.03455
861.0 0.001161 868.85779 868.85797
860.0 0.001163 867.65503 867.65521
845.0 0.001183 866.43097 866.43109
816.0 0.001225 865.19000 865.19019
838.0 0.001193 863.93622 863.93634
892.0 0.001121 862.67291 862.67303
892.0 0.001121 861.40350 861.40363
873.0 0.001145 860.13062 860.13080
833.0 0.001200 858.85693 858.85706
807.0 0.001239 857.58441 857.58453
879.0 0.001138 856.31488 856.31494
823.0 0.001215 855.05017 855.05029
859.0 0.001164 853.79132 853.79144
845.0 0.001183 852.53986 852.53992
847.0 0.001181 851.29639 851.29645
841.0 0.001189 850.06165 850.06171
839.0 0.001192 848.83624 848.83630
822.0 0.001217 847.62048 847.62048
835.0 0.001198 846.41473 846.41473
868.0 0.001152 845.21893 845.21899
885.0 0.001130 844.03308 844.03308
778.0 0.001285 842.85712 842.85712
802.0 0.001247 841.69080 841.69080
870.0 0.001149 840.53375 840.53375
864.0 0.001157 839.38556 839.38556
813.0 0.001230 838.24573 838.24573
824.0 0.001214 837.11395 837.11395
831.0 0.001203 835.98938 835.98932
835.0 0.001198 834.87158 834.87158
952.0 0.001050 833.75989 833.75983
814.0 0.001229 832.65356 832.65350
869.0 0.001151 831.55188 831.55182
879.0 0.001138 830.45422 830.45416
823.0 0.001215 829.35986 829.35980
862.0 0.001160 828.26813 828.26807
850.0 0.001176 827.17804 827.17798
875.0 0.001143 826.08923 829.14569
790.0 0.001266 825.00067 829.71039
830.0 0.001205 823.91199 828.86890
782.0 0.001279 822.82220 828.04633
830.0 0.001205 821.73077 827.24438
822.0 0.001217 820.63715 826.46503
785.0 0.001274 819.54041 825.71033
804.0 0.001244 818.44037 824.98346
812.0 0.001232 817.33624 824.28735
811.0 0.001233 816.22742 823.62628
836.0 0.001196 815.11353 823.00488
861.0 0.001161 813.99408 822.42902
805.0 0.001242 812.86865 821.90552
843.0 0.001186 811.73676 821.44269
844.0 0.001185 810.59796 821.05048
762.0 0.001312 809.45215 820.74127
787.0 0.001271 808.29883 820.52991
855.0 0.001170 807.13782 820.43451
891.0 0.001122 805.96887 820.47803
857.0 0.001167 804.79181 820.68854
795.0 0.001258 803.60645 821.10156
827.0 0.001209 802.41260 821.76276
838.0 0.001193 801.21033 822.73071
851.0 0.001175 799.99951 824.08234
921.0 0.001086 798.78003 825.92010
894.0 0.001119 797.55206 828.38287
904.0 0.001106 796.31555 831.66425
880.0 0.001136 795.07056 836.04022
889.0 0.001125 793.81732 841.93048
892.0 0.001121 792.55573 850.07355
979.0 0.001021 791.28625 862.14514
896.0 0.001116 790.00891 882.48999
982.0 0.001018 788.72388 921.11865
1040.0 0.000962 787.43164 995.84515
1211.0 0.000826 786.13220 1129.03662
1258.0 0.000795 784.82605 1341.14868
1582.0 0.000632 783.51343 1650.80774
1981.0 0.000505 782.19470 2090.49829
2555.0 0.000391 780.87024 2724.21826
3494.0 0.0002862 779.54034 3618.32666
4779.0 0.0002092 778.20563 4685.90088
5534.0 0.0001807 776.86633 5479.74072
5100.0 0.0001961 775.52301 5333.41309
4253.0 0.0002351 774.17596 4202.78516
2591.0 0.000386 772.82574 2798.02930
1619.0 0.000618 771.47296 1765.63147
1197.0 0.000835 770.11786 1232.22485
918.0 0.001089 768.76123 1012.53479
864.0 0.001157 767.40338 925.52893
833.0 0.001200 766.04480 883.12561
784.0 0.001276 764.68622 856.49377
775.0 0.001290 763.32800 837.47467
786.0 0.001272 761.97076 823.13062
772.0 0.001295 760.61505 811.93188
830.0 0.001205 759.26135 802.93872
765.0 0.001307 757.91034 795.53986
771.0 0.001297 756.56238 789.32153
775.0 0.001290 755.21832 783.99744
751.0 0.001332 753.87836 779.36285
779.0 0.001284 752.54327 775.26929
801.0 0.001248 751.21362 771.60706
798.0 0.001253 749.88977 768.29285
705.0 0.001418 748.57257 765.26379
783.0 0.001277 747.26227 762.47028
697.0 0.001435 745.95953 759.87390
745.0 0.001342 744.66479 757.44421
776.0 0.001289 743.37866 755.15674
737.0 0.001357 742.10168 752.99188
720.0 0.001389 740.83435 750.93347
725.0 0.001379 739.57697 748.96832
772.0 0.001295 738.33026 747.08594
731.0 0.001368 737.09460 745.27698
756.0 0.001323 735.87048 743.53424
735.0 0.001361 734.65839 741.85144
778.0 0.001285 733.45868 740.22302
731.0 0.001368 732.27191 738.64478
735.0 0.001361 731.09833 737.11285
717.0 0.001395 729.93854 735.62421
760.0 0.001316 728.79285 734.17584
754.0 0.001326 727.66156 732.76550
716.0 0.001397 726.54517 731.39111
738.0 0.001355 725.44397 730.05121
706.0 0.001416 724.35840 728.74402
751.0 0.001332 723.28870 724.73773
704.0 0.001420 722.23511 722.23517
772.0 0.001295 721.19812 721.19818
718.0 0.001393 720.17786 720.17792
712.0 0.001404 719.17462 719.17468
762.0 0.001312 718.18884 718.18890
687.0 0.001456 717.22046 717.22052
763.0 0.001311 716.26996 716.27002
732.0 0.001366 715.33740 715.33746
725.0 0.001379 714.42310 714.42316
745.0 0.001342 713.52716 713.52722
720.0 0.001389 712.64966 712.64972
757.0 0.001321 711.79095 711.79102
744.0 0.001344 710.95105 710.95111
690.0 0.001449 710.13019 710.13019
673.0 0.001486 709.32837 709.32843
700.0 0.001429 708.54559 708.54565
696.0 0.001437 707.78217 707.78223
720.0 0.001389 707.03796 707.03802
728.0 0.001374 706.31317 706.31323
777.0 0.001287 705.60779 705.60785
727.0 0.001376 704.92181 704.92188
697.0 0.001435 704.25531 704.25531
730.0 0.001370 703.60815 703.60822
722.0 0.001385 702.98041 702.98047
743.0 0.001346 702.37213 702.37219
693.0 0.001443 701.78308 701.78314
742.0 0.001348 701.21344 701.21344
675.0 0.001481 700.66296 700.66296
664.0 0.001506 700.13165 700.13165
711.0 0.001406 699.61932 699.61938
714.0 0.001401 699.12598 699.12604
708.0 0.001412 698.65155 698.65155
729.0 0.001372 698.19574 698.19580
667.0 0.001499 697.75854 697.75861
688.0 0.001453 697.33990 697.33990
735.0 0.001361 696.93945 696.93945
713.0 0.001403 696.55713 696.55719
661.0 0.001513 696.19281 696.19281
724.0 0.001381 695.84631 695.84631
643.0 0.001555 695.51733 695.51733
729.0 0.001372 695.20575 695.20581
728.0 0.001374 694.91144 694.91144
692.0 0.001445 694.63409 694.63409
687.0 0.001456 694.37347 694.37347
666.0 0.001502 694.12946 694.12946
714.0 0.001401 693.90173 693.90173
706.0 0.001416 693.69006 693.69006
699.0 0.001431 693.49426 693.49426
692.0 0.001445 693.31403 693.31403
715.0 0.001399 693.14917 693.14917
701.0 0.001427 692.99933 692.99933
737.0 0.001357 692.86438 692.86432
763.0 0.001311 692.74390 692.74390
690.0 0.001449 692.63776 692.63770
662.0 0.001511 692.54559 692.54559
709.0 0.001410 692.46716 692.46716
694.0 0.001441 692.40222 692.40216
722.0 0.001385 692.35040 692.35040
671.0 0.001490 692.31152 692.31152
660.0 0.001515 692.28528 692.28522
701.0 0.001427 692.27130 692.27124
672.0 0.001488 692.26935 692.26935
669.0 0.001495 692.27917 692.27917
690.0 0.001449 692.30048 692.30048
647.0 0.001546 692.33295 692.33289
683.0 0.001464 692.37628 692.37628
699.0 0.001431 692.43024 692.43024
705.0 0.001418 692.49445 692.49445
680.0 0.001471 692.56879 692.56873
701.0 0.001427 692.65277 692.65277
692.0 0.001445 692.74628 692.74622
649.0 0.001541 692.84894 692.84894
678.0 0.001475 692.96045 692.96045
732.0 0.001366 693.08063 693.08063
718.0 0.001393 693.20917 693.20917
698.0 0.001433 693.34576 693.34576
719.0 0.001391 693.49017 693.49017
674.0 0.001484 693.64209 693.64209
686.0 0.001458 693.80133 693.80127
655.0 0.001527 693.96753 693.96753
677.0 0.001477 694.14056 694.14050
681.0 0.001468 694.32001 694.32001
711.0 0.001406 694.50580 694.50580
661.0 0.001513 694.69757 694.69751
761.0 0.001314 694.89508 694.89508
696.0 0.001437 695.09821 695.09821
736.0 0.001359 695.30664 695.30658
687.0 0.001456 695.52014 695.52014
706.0 0.001416 695.73853 695.73853
687.0 0.001456 695.96161 695.96161
661.0 0.001513 696.18909 696.18909
731.0 0.001368 696.42084 696.42084
684.0 0.001462 696.65668 696.65668
736.0 0.001359 696.89630 696.89630
671.0 0.001490 697.13965 697.13965
690.0 0.001449 697.38654 697.38647
721.0 0.001387 697.63666 697.63666
726.0 0.001377 697.88995 697.88995
658.0 0.001520 698.14624 698.14624
714.0 0.001401 698.40533 698.40533
700.0 0.001429 698.66718 698.66718
682.0 0.001466 698.93152 698.93152
680.0 0.001471 699.19830 699.19824
708.0 0.001412 699.46735 699.46729
710.0 0.001408 699.73853 699.73846
689.0 0.001451 700.01172 700.01172
725.0 0.001379 700.28680 700.28680
746.0 0.001340 700.56378 700.56378
682.0 0.001466 700.84241 700.84241
743.0 0.001346 701.12274 701.12274
709.0 0.001410 701.40460 701.40460
684.0 0.001462 701.68787 701.68787
727.0 0.001376 701.97260 701.97260
652.0 0.001534 702.25861 702.25861
714.0 0.001401 702.54584 702.54584
689.0 0.001451 702.83435 702.83435
685.0 0.001460 703.12402 703.12402
718.0 0.001393 703.41486 703.41486
661.0 0.001513 703.70673 703.70673
706.0 0.001416 703.99969 703.99969
736.0 0.001359 704.29376 704.29376
698.0 0.001433 704.58881 704.58881
718.0 0.001393 704.88483 704.88483
714.0 0.001401 705.18195 705.18195
770.0 0.001299 705.48004 705.48004
684.0 0.001462 705.77924 705.77924
696.0 0.001437 706.07947 706.07947
714.0 0.001401 706.38074 706.38074
703.0 0.001422 706.68311 706.68317
713.0 0.001403 706.98663 706.98663
686.0 0.001458 707.29132 707.29132
737.0 0.001357 707.59723 707.59729
679.0 0.001473 707.90448 707.90448
723.0 0.001383 708.21289 708.21295
713.0 0.001403 708.52277 708.52277
707.0 0.001414 708.83411 708.83411
657.0 0.001522 709.14691 709.14691
686.0 0.001458 709.46130 709.46130
662.0 0.001511 709.77734 709.77734
739.0 0.001353 710.09515 710.09515
696.0 0.001437 710.41479 710.41479
690.0 0.001449 710.73633 710.73639
695.0 0.001439 711.05994 711.05994
677.0 0.001477 711.38568 711.38568
691.0 0.001447 711.71356 711.71356
721.0 0.001387 712.04388 712.04388
684.0 0.001462 712.37653 712.37659
709.0 0.001410 712.71185 712.71185
710.0 0.001408 713.04980 713.04980
693.0 0.001443 713.39050 713.39050
730.0 0.001370 713.73419 713.73419
691.0 0.001447 714.08087 714.08093
672.0 0.001488 714.43085 714.43085
694.0 0.001441 714.78406 714.78406
660.0 0.001515 715.14069 715.14075
680.0 0.001471 715.50104 715.50104
694.0 0.001441 715.86499 715.86505
741.0 0.001350 716.23291 716.23297
722.0 0.001385 716.60486 716.60486
732.0 0.001366 716.98090 716.98096
697.0 0.001435 717.36133 717.36139
724.0 0.001381 717.74622 717.74628
704.0 0.001420 718.13574 718.13580
715.0 0.001399 718.53009 718.53009
713.0 0.001403 718.92932 718.92932
697.0 0.001435 719.33362 719.33362
797.0 0.001255 719.74316 719.74316
679.0 0.001473 720.15814 720.15814
729.0 0.001372 720.57867 720.57874
665.0 0.001504 721.00494 721.00500
731.0 0.001368 721.43713 721.43713
739.0 0.001353 721.87531 721.87531
725.0 0.001379 722.31976 722.31976
760.0 0.001316 722.77051 722.77051
739.0 0.001353 723.22778 723.22784
725.0 0.001379 723.69177 723.69183
762.0 0.001312 724.16266 724.16266
727.0 0.001376 724.64050 724.64050
728.0 0.001374 725.12549 725.12549
705.0 0.001418 725.61774 725.61780
746.0 0.001340 726.11755 726.11755
746.0 0.001340 726.62494 726.62500
723.0 0.001383 727.14020 727.14020
707.0 0.001414 727.66339 727.66339
746.0 0.001340 728.19464 728.19464
724.0 0.001381 728.73413 728.73413
796.0 0.001256 729.28198 729.28204
764.0 0.001309 729.83850 729.83850
757.0 0.001321 730.40363 730.40363
744.0 0.001344 730.97754 730.97754
707.0 0.001414 731.56055 731.56055
696.0 0.001437 732.15259 732.15259
703.0 0.001422 732.75391 732.75391
697.0 0.001435 733.36456 733.36456
749.0 0.001335 733.98480 733.98480
737.0 0.001357 734.61462 734.61462
725.0 0.001379 735.25433 735.25433
781.0 0.001280 735.90387 735.90387
735.0 0.001361 736.56342 736.56342
722.0 0.001385 737.23315 737.23315
757.0 0.001321 737.91315 737.91315
709.0 0.001410 738.60352 738.60352
743.0 0.001346 739.30438 739.30438
705.0 0.001418 740.01587 740.01587
710.0 0.001408 740.73798 740.73798
726.0 0.001377 741.47101 741.47101
733.0 0.001364 742.21484 742.21484
766.0 0.001305 742.96979 742.96979
737.0 0.001357 743.73572 743.73572
692.0 0.001445 744.51282 744.51282
751.0 0.001332 745.30115 745.30115
754.0 0.001326 746.10095 746.10095
754.0 0.001326 746.91205 746.91205
730.0 0.001370 747.73468 747.73468
732.0 0.001366 748.56885 748.56885
732.0 0.001366 749.41467 749.41467
707.0 0.001414 750.27216 753.10187
766.0 0.001305 751.14142 754.11517
778.0 0.001285 752.02240 756.55310
783.0 0.001277 752.91528 757.68494
784.0 0.001276 753.82007 758.84814
808.0 0.001238 754.73676 760.04480
725.0 0.001379 755.66547 761.27759
825.0 0.001212 756.60608 762.54907
818.0 0.001222 757.55872 763.86298
773.0 0.001294 758.52350 765.22290
770.0 0.001299 759.50031 766.63318
754.0 0.001326 760.48914 768.09912
760.0 0.001316 761.49011 769.62671
759.0 0.001318 762.50317 771.22308
809.0 0.001236 763.52844 772.89679
789.0 0.001267 764.56580 774.65771
862.0 0.001160 765.61530 776.51819
838.0 0.001193 766.67676 778.49274
870.0 0.001149 767.75037 780.59912
826.0 0.001211 768.83612 782.85968
842.0 0.001188 769.93378 785.30115
872.0 0.001147 771.04364 787.95819
818.0 0.001222 772.16534 790.87378
837.0 0.001195 773.29895 794.10339
825.0 0.001212 774.44464 797.71948
806.0 0.001241 775.60205 801.81659
830.0 0.001205 776.77130 806.52258
874.0 0.001144 777.95233 812.01129
797.0 0.001255 779.14520 818.52600
822.0 0.001217 780.34961 826.41498
907.0 0.001103 781.56555 836.19757
907.0 0.001103 782.79315 848.72852
912.0 0.001096 784.03210 865.72491
930.0 0.001075 785.28247 891.48126
970.0 0.001031 786.54419 937.11493
1077.0 0.000929 787.81702 1027.96570
1289.0 0.000776 789.10114 1212.36279
1585.0 0.000631 790.39606 1565.39417
2268.0 0.000441 791.70197 2175.83594
3008.0 0.0003324 793.01886 3081.51440
3899.0 0.0002565 794.34637 4134.58301
4478.0 0.0002233 795.68445 4909.51221
4889.0 0.0002045 797.03308 4918.63818
4546.0 0.0002200 798.39221 4204.61670
3487.0 0.0002868 799.76154 3181.24487
2413.0 0.000414 801.14099 2205.36523
1629.0 0.000614 802.53058 1531.32495
1121.0 0.000892 803.92999 1169.57019
926.0 0.001080 805.33923 1008.18280
907.0 0.001103 806.75818 940.56470
848.0 0.001179 808.18646 908.20056
847.0 0.001181 809.62427 888.90283
793.0 0.001261 811.07117 875.76154
842.0 0.001188 812.52716 866.35193
762.0 0.001312 813.99219 859.48035
877.0 0.001140 815.46582 854.41681
782.0 0.001279 816.94806 850.67761
812.0 0.001232 818.43884 847.93213
868.0 0.001152 819.93787 845.94647
827.0 0.001209 821.44495 844.55255
825.0 0.001212 822.96002 843.62677
881.0 0.001135 824.48297 843.07654
783.0 0.001277 826.01343 842.83118
834.0 0.001199 827.55127 842.83630
802.0 0.001247 829.09656 843.04932
813.0 0.001230 830.64874 843.43634
790.0 0.001266 832.20795 843.97052
851.0 0.001175 833.77380 845.22687
864.0 0.001157 835.34607 846.02344
812.0 0.001232 836.92493 846.91510
852.0 0.001174 838.50970 848.19775
855.0 0.001170 840.10046 849.26141
893.0 0.001120 841.69708 850.39148
893.0 0.001120 843.29919 851.58087
848.0 0.001179 844.90662 852.82422
857.0 0.001167 846.51923 854.11682
877.0 0.001140 848.13690 855.45490
879.0 0.001138 849.75922 856.83508
879.0 0.001138 851.38611 858.25507
857.0 0.001167 853.01752 859.71301
824.0 0.001214 854.65289 861.20746
775.0 0.001290 856.29236 862.73785
823.0 0.001215 857.93536 864.30371
881.0 0.001135 859.58191 863.26581
826.0 0.001211 861.23193 865.02521
845.0 0.001183 862.88495 865.49554
860.0 0.001163 864.54089 867.37976
911.0 0.001098 866.19946 869.29791
848.0 0.001179 867.86047 871.25592
867.0 0.001153 869.52374 873.26099
885.0 0.001130 871.18903 875.32257
862.0 0.001160 872.85626 877.45288
879.0 0.001138 874.52496 879.66730
899.0 0.001112 876.19501 881.98663
922.0 0.001085 877.86646 884.43890
849.0 0.001178 879.53864 887.06189
899.0 0.001112 881.21173 889.90900
895.0 0.001117 882.88525 893.05603
821.0 0.001218 884.55902 896.61609
856.0 0.001168 886.23303 900.77332
896.0 0.001116 887.90680 905.88989
931.0 0.001074 889.58038 912.86560
915.0 0.001093 891.25323 924.07129
951.0 0.001052 892.92535 945.14282
984.0 0.001016 894.59644 987.37402
1125.0 0.000889 896.26654 1068.88013
1358.0 0.000736 897.93506 1209.62219
1585.0 0.000631 899.60193 1413.74829
1911.0 0.000523 901.26703 1639.62524
2113.0 0.000473 902.93018 1790.62659
2331.0 0.000429 904.59094 1775.97021
2130.0 0.000469 906.24945 1624.67944
1757.0 0.000569 907.90509 1417.60730
1351.0 0.000740 909.55786 1217.76050
1108.0 0.000903 911.20770 1075.39258
1018.0 0.000982 912.85413 996.33997
822.0 0.001217 914.49725 960.40918
954.0 0.001048 916.13647 945.89954
863.0 0.001159 917.77185 939.80627
910.0 0.001099 919.40308 936.82629
925.0 0.001081 921.03021 935.24597
833.0 0.001200 922.65271 934.48431
919.0 0.001088 924.27057 934.27283
890.0 0.001124 925.88354 934.45068
939.0 0.001065 927.49158 934.91205
875.0 0.001143 929.09424 935.58405
927.0 0.001079 930.69159 936.41565
873.0 0.001145 932.28320 937.36963
953.0 0.001049 933.86896 938.41876
886.0 0.001129 935.44879 939.54279
912.0 0.001096 937.02283 940.72620
918.0 0.001089 938.58997 941.95618
922.0 0.001085 940.15088 943.22400
937.0 0.001067 941.70483 944.52161
888.0 0.001126 943.25201 945.84320
940.0 0.001064 944.79260 947.18427
897.0 0.001115 946.32526 948.53961
937.0 0.001067 947.85107 949.90729
930.0 0.001075 949.36890 951.28314
902.0 0.001109 950.87939 952.66595
875.0 0.001143 952.38214 954.05341
940.0 0.001064 953.87653 955.44330
922.0 0.001085 955.36298 956.83472
893.0 0.001120 956.84088 958.22607
830.0 0.001205 958.31042 959.61639
956.0 0.001046 959.77173 961.00519
914.0 0.001094 961.22382 962.39056
941.0 0.001063 962.66724 963.77258
922.0 0.001085 964.10138 965.15009
917.0 0.001091 965.52649 966.52277
944.0 0.001059 966.94263 967.28168
872.0 0.001147 968.34875 968.67108
971.0 0.001030 969.74579 970.05261
970.0 0.001031 971.13281 971.13281
896.0 0.001116 972.51007 972.51007
998.0 0.001002 973.87769 973.87775
973.0 0.001028 975.23492 975.23492
1062.0 0.000942 976.58221 976.58221
975.0 0.001026 977.91901 977.91901
1034.0 0.000967 979.24554 979.24554
1016.0 0.000984 980.56189 980.56195
970.0 0.001031 981.86725 981.86725
987.0 0.001013 983.16211 983.16211
985.0 0.001015 984.44598 984.44598
1019.0 0.000981 985.71906 985.71912
1090.0 0.000917 986.98151 986.98157
944.0 0.001059 988.23236 988.23236
960.0 0.001042 989.47247 989.47247
1033.0 0.000968 990.70105 990.70105
1003.0 0.000997 991.91840 991.91840
975.0 0.001026 993.12457 993.12457
959.0 0.001043 994.31897 994.31897
867.0 0.001153 995.50208 995.50208
966.0 0.001035 996.67334 996.67334
974.0 0.001027 997.83301 997.83301
1014.0 0.000986 998.98126 998.98126
969.0 0.001032 1000.11731 1000.11731
951.0 0.001052 1001.24170 1001.24176
977.0 0.001024 1002.35400 1002.35406
987.0 0.001013 1003.45447 1003.45447
974.0 0.001027 1004.54315 1004.54315
1013.0 0.000987 1005.61932 1005.61938
1055.0 0.000948 1006.68378 1006.68384
964.0 0.001037 1007.73584 1007.73584
960.0 0.001042 1008.77582 1008.77582
1041.0 0.000961 1009.80371 1009.80371
975.0 0.001026 1010.81909 1010.81915
1046.0 0.000956 1011.82245 1011.82245
971.0 0.001030 1012.81323 1012.81329
994.0 0.001006 1013.79187 1013.79187
968.0 0.001033 1014.75836 1014.75836
970.0 0.001031 1015.71216 1015.71216
1030.0 0.000971 1016.65375 1016.65375
969.0 0.001032 1017.58276 1017.58276
995.0 0.001005 1018.49945 1018.49945
1013.0 0.000987 1019.40393 1019.40399
1015.0 0.000985 1020.29565 1020.29572
880.0 0.001136 1021.17523 1021.17529
963.0 0.001038 1022.04218 1022.04224
966.0 0.001035 1022.89679 1022.89679
936.0 0.001068 1023.73907 1023.73914
1047.0 0.000955 1024.56885 1024.56885
987.0 0.001013 1025.38635 1025.38635
1022.0 0.000978 1026.19116 1026.19116
995.0 0.001005 1026.98376 1026.98376
1039.0 0.000962 1027.76416 1027.76416
1095.0 0.000913 1028.53198 1028.53198
985.0 0.001015 1029.28760 1029.28772
1032.0 0.000969 1030.03088 1030.03088
944.0 0.001059 1030.76184 1030.76184
1001.0 0.000999 1031.48083 1031.48083
1046.0 0.000956 1032.18738 1032.18738
1079.0 0.000927 1032.88171 1032.88171
1127.0 0.000887 1033.56396 1033.56396
1045.0 0.000957 1034.23401 1034.23413
1084.0 0.000923 1034.89221 1034.89221
1133.0 0.000883 1035.53821 1035.53821
1041.0 0.000961 1036.17236 1036.17236
1090.0 0.000917 1036.79431 1036.79431
1068.0 0.000936 1037.40454 1037.40454
1087.0 0.000920 1038.00305 1047.72852
1070.0 0.000935 1038.58960 1048.80310
1086.0 0.000921 1039.16443 1049.90381
1123.0 0.000890 1039.72754 1055.95593
1082.0 0.000924 1040.27893 1057.37000
1128.0 0.000887 1040.81897 1058.84387
1087.0 0.000920 1041.34741 1060.38416
1089.0 0.000918 1041.86438 1062.00110
1076.0 0.000929 1042.36987 1063.70459
1172.0 0.000853 1042.86401 1065.50696
1187.0 0.000842 1043.34705 1067.42285
1159.0 0.000863 1043.81873 1069.46729
1090.0 0.000917 1044.27942 1071.66052
1078.0 0.000928 1044.72888 1074.02405
1121.0 0.000892 1045.16748 1076.58496
1149.0 0.000870 1045.59521 1079.37488
1171.0 0.000854 1046.01196 1082.43005
1186.0 0.000843 1046.41797 1085.79700
1216.0 0.000822 1046.81335 1089.52930
1191.0 0.000840 1047.19800 1093.69458
1230.0 0.000813 1047.57227 1098.37622
1261.0 0.000793 1047.93604 1103.67346
1160.0 0.000862 1048.28943 1109.71802
1194.0 0.000838 1048.63245 1116.67004
1204.0 0.000831 1048.96533 1124.74146
1225.0 0.000816 1049.28809 1134.20630
1259.0 0.000794 1049.60071 1145.41980
1211.0 0.000826 1049.90344 1158.87268
1256.0 0.000796 1050.19629 1175.22180
1248.0 0.000801 1050.47937 1196.50232
1285.0 0.000778 1050.75293 1221.90271
1256.0 0.000796 1051.01660 1254.99976
1317.0 0.000759 1051.27087 1298.18542
1409.0 0.000710 1051.51575 1359.16589
1559.0 0.000641 1051.75134 1456.81360
1793.0 0.000558 1051.97766 1641.93787
2101.0 0.000476 1052.19470 2035.49146
2925.0 0.0003419 1052.40283 2872.47363
4329.0 0.0002310 1052.60193 4480.15430
6712.0 0.0001490 1052.79224 7067.48389
9697.0 0.0001031 1052.97375 10340.25781
12729.0 0.0000786 1053.14648 13218.87500
13947.0 0.0000717 1053.31067 14264.21387
13818.0 0.0000724 1053.46643 13114.65430
11293.0 0.0000886 1053.61365 10784.51270
7869.0 0.0001271 1053.75281 8005.79688
5377.0 0.0001860 1053.88354 5374.97217
3507.0 0.0002851 1054.00623 3449.06836
2245.0 0.000445 1054.12097 2316.53027
1660.0 0.000602 1054.22778 1759.55664
1390.0 0.000719 1054.32678 1511.08643
1285.0 0.000778 1054.41797 1393.07300
1254.0 0.000797 1054.50159 1324.89050
1283.0 0.000779 1054.57764 1278.43811
1171.0 0.000854 1054.64624 1244.26538
1191.0 0.000840 1054.70764 1218.36230
1193.0 0.000838 1054.76160 1198.48169
1123.0 0.000890 1054.80859 1183.17200
1139.0 0.000878 1054.84839 1171.50378
1110.0 0.000901 1054.88123 1162.89172
1221.0 0.000819 1054.90735 1157.04492
1142.0 0.000876 1054.92651 1154.00525
1157.0 0.000864 1054.93909 1154.45056
1192.0 0.000839 1054.94507 1160.77759
1206.0 0.000829 1054.94458 1179.79883
1272.0 0.000786 1054.93774 1227.48950
1355.0 0.000738 1054.92444 1333.07410
1652.0 0.000605 1054.90503 1532.74207
2080.0 0.000481 1054.87952 1839.36597
2529.0 0.000395 1054.84790 2199.68726
2726.0 0.000367 1054.81042 2477.62256
2473.0 0.000404 1054.76697 2529.14600
2508.0 0.000399 1054.71790 2363.98975
2173.0 0.000460 1054.66309 2097.59448
1728.0 0.000579 1054.60266 1793.62219
1486.0 0.000673 1054.53674 1515.85400
1254.0 0.000797 1054.46545 1317.72437
1234.0 0.000810 1054.38879 1202.72681
1100.0 0.000909 1054.30688 1146.14771
1138.0 0.000879 1054.21985 1120.16016
1114.0 0.000898 1054.12769 1106.99414
1137.0 0.000880 1054.03052 1098.81091
1054.0 0.000949 1053.92847 1092.87561
1025.0 0.000976 1053.82153 1078.73328
1056.0 0.000947 1053.70984 1075.44580
1062.0 0.000942 1053.59351 1072.77905
1094.0 0.000914 1053.47253 1065.91394
1116.0 0.000896 1053.34717 1064.27344
1008.0 0.000992 1053.21716 1062.89001
1088.0 0.000919 1053.08289 1061.70630
1095.0 0.000913 1052.94434 1060.68030
1072.0 0.000933 1052.80151 1059.78088
1063.0 0.000941 1052.65454 1058.98303
1046.0 0.000956 1052.50342 1058.26831
1045.0 0.000957 1052.34827 1057.62158
1026.0 0.000975 1052.18921 1057.03137
1007.0 0.000993 1052.02637 1056.48804
997.0 0.001003 1051.85950 1055.98413
1054.0 0.000949 1051.68909 1055.51331
1080.0 0.000926 1051.51489 1055.07043
1113.0 0.000898 1051.33704 1054.65125
1033.0 0.000968 1051.15564 1054.25232
964.0 0.001037 1050.97070 1053.87073
1050.0 0.000952 1050.78235 1053.50378
1020.0 0.000980 1050.59058 1053.14941
1057.0 0.000946 1050.39539 1052.80591
1022.0 0.000978 1050.19702 1052.47168
1061.0 0.000943 1049.99536 1052.14539
1021.0 0.000979 1049.79065 1051.82593
1052.0 0.000951 1049.58276 1051.51208
1042.0 0.000960 1049.37170 1051.20325
1032.0 0.000969 1049.15771 1050.89893
1027.0 0.000974 1048.94067 1049.54175
966.0 0.001035 1048.72070 1049.29248
1056.0 0.000947 1048.49792 1048.49780
1077.0 0.000929 1048.27222 1048.27209
996.0 0.001004 1048.04370 1048.04358
1029.0 0.000972 1047.81238 1047.81238
1052.0 0.000951 1047.57849 1047.57837
984.0 0.001016 1047.34180 1047.34167
1018.0 0.000982 1047.10242 1047.10229
1066.0 0.000938 1046.86047 1046.86047
1016.0 0.000984 1046.61597 1046.61584
1021.0 0.000979 1046.36890 1046.36890
967.0 0.001034 1046.11926 1046.11926
1069.0 0.000935 1045.86719 1045.86707
1019.0 0.000981 1045.61267 1045.61255
1058.0 0.000945 1045.35571 1045.35559
1029.0 0.000972 1045.09631 1045.09619
1067.0 0.000937 1044.83447 1044.83447
1004.0 0.000996 1044.57031 1044.57019
1006.0 0.000994 1044.30383 1044.30371
1010.0 0.000990 1044.03503 1044.03491
1046.0 0.000956 1043.76404 1043.76392
1067.0 0.000937 1043.49060 1043.49048
997.0 0.001003 1043.21497 1043.21484
992.0 0.001008 1042.93701 1042.93701
1001.0 0.000999 1042.65686 1042.65674
1064.0 0.000940 1042.37451 1042.37451
994.0 0.001006 1042.08997 1042.08997
1032.0 0.000969 1041.80322 1041.80310
1025.0 0.000976 1041.51428 1041.51416
1053.0 0.000950 1041.22302 1041.22302
1083.0 0.000923 1040.92981 1040.92969
1062.0 0.000942 1040.63428 1040.63416
1038.0 0.000963 1040.33655 1040.33643
1067.0 0.000937 1040.03674 1040.03662
1052.0 0.000951 1039.73474 1039.73462
1065.0 0.000939 1039.43066 1039.43054
1043.0 0.000959 1039.12427 1039.12415
992.0 0.001008 1038.81567 1038.81567
1079.0 0.000927 1038.50500 1038.50500
1126.0 0.000888 1038.19214 1038.19202
1109.0 0.000902 1037.87720 1037.87708
1051.0 0.000951 1037.55994 1037.55981
1072.0 0.000933 1037.24048 1037.24036
1062.0 0.000942 1036.91882 1036.91870
1002.0 0.000998 1036.59497 1036.59485
976.0 0.001025 1036.26892 1036.26880
1023.0 0.000978 1035.94055 1035.94043
1024.0 0.000977 1035.60986 1035.60974
1066.0 0.000938 1035.27698 1035.27698
1017.0 0.000983 1034.94189 1034.94177
1003.0 0.000997 1034.60449 1034.60437
1011.0 0.000989 1034.26477 1034.26465
994.0 0.001006 1033.92249 1033.92236
980.0 0.001020 1033.57813 1033.57800
998.0 0.001002 1033.23120 1033.23108
983.0 0.001017 1032.88196 1032.88196
984.0 0.001016 1032.53027 1032.53027
1032.0 0.000969 1032.17615 1032.17603
1047.0 0.000955 1031.81958 1031.81946
965.0 0.001036 1031.46045 1031.46033
974.0 0.001027 1031.09875 1031.09875
1045.0 0.000957 1030.73462 1030.73462
1048.0 0.000954 1030.36780 1030.36768
974.0 0.001027 1029.99841 1029.99841
1044.0 0.000958 1029.62646 1029.62634
990.0 0.001010 1029.25171 1029.25171
1028.0 0.000973 1028.87439 1028.87427
980.0 0.001020 1028.49426 1028.49414
1017.0 0.000983 1028.11145 1028.11133
1006.0 0.000994 1027.72571 1027.72559
1054.0 0.000949 1027.33716 1027.33704
1046.0 0.000956 1026.94580 1026.94568
998.0 0.001002 1026.55139 1026.55139
990.0 0.001010 1026.15430 1026.15417
956.0 0.001046 1025.75403 1025.75403
1005.0 0.000995 1025.35083 1025.35083
1003.0 0.000997 1024.94470 1024.94458
1009.0 0.000991 1024.53528 1024.53516
1023.0 0.000978 1024.12280 1024.12268
982.0 0.001018 1023.70709 1023.70697
1042.0 0.000960 1023.28827 1023.28815
994.0 0.001006 1022.86615 1022.86609
992.0 0.001008 1022.44067 1022.44055
972.0 0.001029 1022.01202 1022.01190
961.0 0.001041 1021.57983 1021.57971
982.0 0.001018 1021.14435 1021.39764
970.0 0.001031 1020.70544 1020.96875
1004.0 0.000996 1020.26288 1020.53693
1017.0 0.000983 1019.81689 1020.22736
960.0 0.001042 1019.36725 1019.79462
1073.0 0.000932 1018.91406 1019.35944
1031.0 0.000970 1018.45715 1018.92169
1024.0 0.000977 1017.99640 1018.48138
991.0 0.001009 1017.53204 1018.03882
975.0 0.001026 1017.06372 1017.59393
1055.0 0.000948 1016.59174 1017.14685
972.0 0.001029 1016.11578 1016.69769
994.0 0.001006 1015.63574 1016.24640
1020.0 0.000980 1015.15192 1015.79352
1002.0 0.000998 1014.66382 1015.33881
985.0 0.001015 1014.17188 1014.88281
1049.0 0.000953 1013.67566 1014.42572
997.0 0.001003 1013.17529 1013.96759
1005.0 0.000995 1012.67078 1013.50903
978.0 0.001022 1012.16180 1013.05023
1042.0 0.000960 1011.64874 1012.59186
1037.0 0.000964 1011.13123 1012.13434
1053.0 0.000950 1010.60913 1011.67810
1058.0 0.000945 1010.08276 1014.94458
1043.0 0.000959 1009.55182 1014.64117
1001.0 0.000999 1009.01642 1014.35101
1035.0 0.000966 1008.47644 1014.07599
1009.0 0.000991 1007.93164 1015.72394
1080.0 0.000926 1007.38239 1015.56323
983.0 0.001017 1006.82813 1015.43073
994.0 0.001006 1006.26935 1015.33087
1063.0 0.000941 1005.70563 1015.26862
1019.0 0.000981 1005.13702 1015.25037
1064.0 0.000940 1004.56360 1015.28339
1008.0 0.000992 1003.98505 1015.37695
1010.0 0.000990 1003.40173 1015.54285
1044.0 0.000958 1002.81329 1015.79547
1039.0 0.000962 1002.21954 1016.15369
1020.0 0.000980 1001.62091 1016.64185
1050.0 0.000952 1001.01697 1017.29297
1040.0 0.000962 1000.40796 1018.15179
1016.0 0.000984 999.79364 1019.28180
1048.0 0.000954 999.17389 1020.78113
1075.0 0.000930 998.54889 1022.82733
1009.0 0.000991 997.91852 1025.84265
1053.0 0.000950 997.28278 1030.97314
1097.0 0.000912 996.64154 1041.19971
1107.0 0.000903 995.99469 1062.97571
1110.0 0.000901 995.34241 1106.76587
1248.0 0.000801 994.68445 1182.93042
1361.0 0.000735 994.02106 1290.28772
1469.0 0.000681 993.35187 1405.02612
1486.0 0.000673 992.67688 1482.97424
1504.0 0.000665 991.99640 1489.81738
1467.0 0.000682 991.30994 1441.26978
1454.0 0.000688 990.61786 1370.75476
1319.0 0.000758 989.91986 1289.23840
1307.0 0.000765 989.21582 1206.85156
1308.0 0.000765 988.50610 1140.77380
1216.0 0.000822 987.79034 1098.88611
1071.0 0.000934 987.06873 1078.79907
1062.0 0.000942 986.34106 1073.53906
1097.0 0.000912 985.60730 1076.85571
1124.0 0.000890 984.86755 1085.42224
1141.0 0.000876 984.12158 1098.41565
1144.0 0.000874 983.36969 1116.58374
1244.0 0.000804 982.61157 1142.29846
1258.0 0.000795 981.84705 1181.79419
1421.0 0.000704 981.07660 1252.45557
1509.0 0.000663 980.29987 1399.40601
1729.0 0.000578 979.51691 1718.66077
2372.0 0.000422 978.72766 2362.56934
3569.0 0.0002802 977.93188 3474.13940
5341.0 0.0001872 977.13000 5020.67139
7125.0 0.0001404 976.32172 6642.66846
7275.0 0.0001375 975.50720 7702.63867
7313.0 0.0001367 974.68616 7739.19922
7527.0 0.0001329 973.85864 7005.56055
6420.0 0.0001558 973.02490 5971.62891
4348.0 0.0002300 972.18445 4777.30078
3440.0 0.0002907 971.33789 3552.34912
2754.0 0.000363 970.48456 2536.27466
1851.0 0.000540 969.62476 1847.46875
1415.0 0.000707 968.75861 1456.73486
1248.0 0.000801 967.88586 1263.64587
1179.0 0.000848 967.00665 1172.21106
1067.0 0.000937 966.12085 1124.18896
1022.0 0.000978 965.22833 1093.86255
1103.0 0.000907 964.32947 1071.89075
1089.0 0.000918 963.42395 1054.86353
1040.0 0.000962 962.51196 1041.24072
973.0 0.001028 961.59326 1030.10327
1004.0 0.000996 960.66779 1020.83588
1021.0 0.000979 959.73615 1013.00854
941.0 0.001063 958.79755 1006.30035
946.0 0.001057 957.85272 1000.48096
1014.0 0.000986 956.90094 995.37183
1001.0 0.000999 955.94257 990.83826
941.0 0.001063 954.97778 986.77820
961.0 0.001041 954.00623 983.10712
920.0 0.001087 953.02826 979.76147
956.0 0.001046 952.04358 976.68799
954.0 0.001048 951.05206 973.84412
1025.0 0.000976 950.05426 971.19684
983.0 0.001017 949.04974 968.46350
1026.0 0.000975 948.03882 966.13611
920.0 0.001087 947.02118 963.93170
994.0 0.001006 945.99670 961.70697
916.0 0.001092 944.96613 959.70703
933.0 0.001072 943.92871 957.78711
931.0 0.001074 942.88495 955.93811
953.0 0.001049 941.83459 954.15063
912.0 0.001096 940.77759 952.41711
973.0 0.001028 939.71436 950.73187
944.0 0.001059 938.64447 949.08844
987.0 0.001013 937.56824 947.48254
926.0 0.001080 936.48547 945.90936
922.0 0.001085 935.39606 944.36487
974.0 0.001027 934.30060 942.84668
943.0 0.001060 933.19855 941.35107
978.0 0.001022 932.09033 939.87592
906.0 0.001104 930.97565 938.41846
897.0 0.001115 929.85437 936.97662
933.0 0.001072 928.72723 935.54932
907.0 0.001103 927.59351 934.13379
870.0 0.001149 926.45380 932.72955
925.0 0.001081 925.30780 931.33472
966.0 0.001035 924.15533 926.24927
919.0 0.001088 922.99701 925.00787
902.0 0.001109 921.83240 923.76501
934.0 0.001071 920.66187 920.66174
946.0 0.001057 919.48511 919.48505
918.0 0.001089 918.30212 918.30200
871.0 0.001148 917.11346 917.11334
844.0 0.001185 915.91864 915.91852
952.0 0.001050 914.71802 914.71796
897.0 0.001115 913.51147 913.51141
911.0 0.001098 912.29871 913.52490
893.0 0.001120 911.08069 912.35559
881.0 0.001135 909.85645 911.18304
911.0 0.001098 908.62671 910.00824
848.0 0.001179 907.39124 909.45209
947.0 0.001056 906.14984 908.29779
881.0 0.001135 904.90314 907.14380
946.0 0.001057 903.65063 905.99017
890.0 0.001124 902.39282 904.83783
912.0 0.001096 901.12939 903.68732
920.0 0.001087 899.86017 902.53900
905.0 0.001105 898.58606 901.39447
943.0 0.001060 897.30627 900.25397
852.0 0.001174 896.02148 899.11908
888.0 0.001126 894.73126 897.99048
917.0 0.001091 893.43555 896.86951
885.0 0.001130 892.13519 895.75812
890.0 0.001124 890.82928 894.65741
898.0 0.001114 889.51862 893.56976
897.0 0.001115 888.20288 892.49725
839.0 0.001192 886.88196 891.44214
917.0 0.001091 885.55646 890.40784
908.0 0.001101 884.22577 890.54291
908.0 0.001101 882.89075 889.60590
895.0 0.001117 881.55084 888.70428
858.0 0.001166 880.20581 887.84338
875.0 0.001143 878.85663 887.60950
930.0 0.001075 877.50269 886.87610
919.0 0.001088 876.14447 886.21002
918.0 0.001089 874.78168 885.62323
911.0 0.001098 873.41418 885.13013
915.0 0.001093 872.04279 884.74908
935.0 0.001070 870.66693 884.50195
893.0 0.001120 869.28711 884.41675
863.0 0.001159 867.90295 884.52899
883.0 0.001133 866.51453 884.88416
917.0 0.001091 865.12244 885.54108
867.0 0.001153 863.72607 886.57849
875.0 0.001143 862.32629 888.10120
875.0 0.001143 860.92242 890.25354
941.0 0.001063 859.51440 893.23956
952.0 0.001050 858.10321 897.35999
907.0 0.001103 856.68817 903.13037
926.0 0.001080 855.26978 911.64813
954.0 0.001048 853.84778 925.80676
1000.0 0.001000 852.42200 953.42059
1018.0 0.000982 850.99335 1012.97778
1141.0 0.000876 849.56122 1139.24219
1473.0 0.000679 848.12604 1377.97107
1862.0 0.000537 846.68762 1757.13257
2322.0 0.000431 845.24585 2237.98022
2732.0 0.000366 843.80145 2686.52954
3086.0 0.0003240 842.35376 2920.12671
2882.0 0.0003470 840.90369 2863.21484
2798.0 0.000357 839.45056 2632.62183
2366.0 0.000423 837.99432 2344.63379
1876.0 0.000533 836.53595 2016.41626
1551.0 0.000645 835.07471 1669.41138
1343.0 0.000745 833.61121 1367.36743
1089.0 0.000918 832.14520 1150.74048
995.0 0.001005 830.67639 1020.43683
951.0 0.001052 829.20581 953.41199
925.0 0.001081 827.73279 922.49200
880.0 0.001136 826.25781 908.91089
899.0 0.001112 824.78070 903.53802
892.0 0.001121 823.30133 903.39197
902.0 0.001109 821.82037 909.14734
906.0 0.001104 820.33722 925.84637
954.0 0.001048 818.85278 967.03284
1061.0 0.000943 817.36627 1060.30859
1227.0 0.000815 815.87799 1246.41919
1543.0 0.000648 814.38855 1559.17371
2073.0 0.000482 812.89740 1984.44238
2548.0 0.000392 811.40503 2423.56421
2720.0 0.000368 809.91132 2711.87769
2798.0 0.000357 808.41589 2733.26904
2686.0 0.000372 806.91980 2552.86230
2492.0 0.000401 805.42236 2299.44727
1985.0 0.000504 803.92419 2011.06946
1606.0 0.000623 802.42493 1691.18433
1445.0 0.000692 800.92438 1388.92578
1192.0 0.000839 799.42365 1154.47205
1007.0 0.000993 797.92175 1001.73444
894.0 0.001119 796.41968 916.36719
862.0 0.001160 794.91663 873.14624
860.0 0.001163 793.41296 851.05096
829.0 0.001206 791.90924 838.10345
814.0 0.001229 790.40497 829.06427
845.0 0.001183 788.90063 821.98413
769.0 0.001300 787.39594 816.11310
763.0 0.001311 785.89081 811.09406
795.0 0.001258 784.38605 806.71313
805.0 0.001242 782.88110 802.81976
799.0 0.001252 781.37653 799.30872
697.0 0.001435 779.87201 796.09991
783.0 0.001277 778.36731 793.13409
764.0 0.001309 776.86359 790.36755
797.0 0.001255 775.35986 787.76385
796.0 0.001256 773.85675 785.29608
801.0 0.001248 772.35413 782.94232
792.0 0.001263 770.85193 780.68469
774.0 0.001292 769.35065 778.50977
832.0 0.001202 767.85010 776.40546
797.0 0.001255 766.35040 773.11676
775.0 0.001290 764.85162 771.17407
813.0 0.001230 763.35352 769.27496
788.0 0.001269 761.85699 767.41528
755.0 0.001325 760.36102 764.97955
757.0 0.001321 758.86676 763.20697
741.0 0.001350 757.37354 761.45978
746.0 0.001340 755.88110 759.73505
749.0 0.001335 754.39081 758.03186
783.0 0.001277 752.90155 756.34680
722.0 0.001385 751.41425 754.67908
749.0 0.001335 749.92828 753.02655
749.0 0.001335 748.44354 751.38763
798.0 0.001253 746.96124 749.76245
752.0 0.001330 745.48029 748.14874
714.0 0.001401 744.00165 746.54657
765.0 0.001307 742.52478 744.95459
793.0 0.001261 741.04956 743.37189
743.0 0.001346 739.57672 741.79852
726.0 0.001377 738.10571 740.23340
739.0 0.001353 736.63745 738.67688
727.0 0.001376 735.17120 737.12775
765.0 0.001307 733.70703 735.58569
714.0 0.001401 732.24548 732.90417
738.0 0.001355 730.78638 731.41870
741.0 0.001350 729.32977 729.93732
734.0 0.001362 727.87579 727.87561
716.0 0.001397 726.42413 726.42395
734.0 0.001362 724.97546 724.97528
718.0 0.001393 723.52954 723.52936
699.0 0.001431 722.08643 722.08624
697.0 0.001435 720.64624 720.64606
683.0 0.001464 719.20868 719.20850
728.0 0.001374 717.77460 717.77441
735.0 0.001361 716.34314 716.34296
733.0 0.001364 714.91522 714.91504
628.0 0.001592 713.48999 713.48981
712.0 0.001404 712.06799 712.06781
691.0 0.001447 710.64972 710.64954
705.0 0.001418 709.23431 709.23413
736.0 0.001359 707.82281 707.82263
684.0 0.001462 706.41443 706.41425
679.0 0.001473 705.00909 705.00891
693.0 0.001443 703.60803 703.84729
699.0 0.001431 702.21002 702.45874
730.0 0.001370 700.81616 701.07489
753.0 0.001328 699.42578 699.69513
677.0 0.001477 698.03864 698.43866
703.0 0.001422 696.65607 697.07288
668.0 0.001497 695.27679 695.71143
695.0 0.001439 693.90186 694.35535
750.0 0.001333 692.53070 693.00446
648.0 0.001543 691.16321 691.65863
667.0 0.001499 689.79999 690.31854
710.0 0.001408 688.44092 688.98425
692.0 0.001445 687.08588 687.65582
695.0 0.001439 685.73499 686.33356
679.0 0.001473 684.38812 685.01752
671.0 0.001490 683.04572 683.70837
677.0 0.001477 681.70758 682.40625
674.0 0.001484 680.37384 681.11151
653.0 0.001531 679.04437 679.82446
695.0 0.001439 677.71912 678.54535
654.0 0.001529 676.39880 677.27533
663.0 0.001508 675.08246 676.01410
693.0 0.001443 673.77087 674.76300
708.0 0.001412 672.46387 673.52252
658.0 0.001520 671.16119 672.29333
657.0 0.001522 669.86365 671.07715
634.0 0.001577 668.57031 669.87433
663.0 0.001508 667.28210 668.68719
752.0 0.001330 665.99841 667.51672
680.0 0.001471 664.71899 666.36493
659.0 0.001517 663.44507 665.23529
681.0 0.001468 662.17554 664.12988
651.0 0.001536 660.91132 663.05353
696.0 0.001437 659.65173 662.01025
657.0 0.001522 658.39667 661.00604
614.0 0.001629 657.14716 660.04950
631.0 0.001585 655.90222 659.14996
710.0 0.001408 654.66266 658.32117
652.0 0.001534 653.42798 657.58032
649.0 0.001541 652.19812 656.95148
649.0 0.001541 650.97351 656.46820
659.0 0.001517 649.75403 656.18054
670.0 0.001493 648.53967 656.17310
647.0 0.001546 647.33044 656.62854
699.0 0.001431 646.12622 658.01953
625.0 0.001600 644.92731 661.58643
689.0 0.001451 643.73370 670.21417
687.0 0.001456 642.54529 689.26978
714.0 0.001401 641.36212 726.03082
765.0 0.001307 640.18402 785.83881
835.0 0.001198 639.01160 865.16870
892.0 0.001121 637.84406 946.23334
926.0 0.001080 636.68207 1000.07672
888.0 0.001126 635.52539 1006.11591
857.0 0.001167 634.37390 974.83337
868.0 0.001152 633.22815 930.40662
824.0 0.001214 632.08740 881.75378
753.0 0.001328 630.95239 826.49512
680.0 0.001471 629.82263 768.67877
680.0 0.001471 628.69788 718.16833
660.0 0.001515 627.57910 680.96027
684.0 0.001462 626.46545 657.35376
627.0 0.001595 625.35760 644.02417
612.0 0.001634 624.25494 636.79333
615.0 0.001626 623.15747 632.55927
593.0 0.001686 622.06598 629.64453
595.0 0.001681 620.97961 627.32111
611.0 0.001637 619.89911 625.31189
650.0 0.001538 618.82385 623.50421
628.0 0.001592 617.75397 621.84241
651.0 0.001536 616.68976 620.29242
633.0 0.001580 615.63080 618.82971
593.0 0.001686 614.57782 617.43744
561.0 0.001783 613.53009 616.10187
620.0 0.001613 612.48767 614.81305
640.0 0.001563 611.45105 613.56390
597.0 0.001675 610.41986 612.34814
586.0 0.001706 609.39417 611.16107
571.0 0.001751 608.37402 609.99915
650.0 0.001538 607.35919 608.85889
620.0 0.001613 606.35010 607.73834
613.0 0.001631 605.34650 606.63531
620.0 0.001613 604.34833 605.54810
617.0 0.001621 603.35577 604.47540
584.0 0.001712 602.36847 603.41571
587.0 0.001704 601.38696 602.36871
592.0 0.001689 600.41071 601.33282
613.0 0.001631 599.44019 600.30804
588.0 0.001701 598.47498 599.29321
680.0 0.001471 597.51495 598.28766
592.0 0.001689 596.56085 597.29175
639.0 0.001565 595.61194 596.30426
556.0 0.001799 594.66870 595.32556
577.0 0.001733 593.73077 594.35480
567.0 0.001764 592.79797 593.39148
624.0 0.001603 591.87109 592.43628
590.0 0.001695 590.94922 591.48816
612.0 0.001634 590.03314 590.54761
654.0 0.001529 589.12225 589.61377
623.0 0.001605 588.21655 588.89240
560.0 0.001786 587.31641 587.98041
556.0 0.001799 586.42139 587.07532
567.0 0.001764 585.53210 586.17749
598.0 0.001672 584.64795 585.38812
600.0 0.001667 583.76892 584.26660
593.0 0.001686 582.89532 583.40265
595.0 0.001681 582.02704 582.54541
613.0 0.001631 581.16400 581.69470
562.0 0.001779 580.30621 580.73090
577.0 0.001733 579.45349 579.89813
577.0 0.001733 578.60614 579.07214
539.0 0.001855 577.76398 578.25287
552.0 0.001812 576.92700 577.44049
587.0 0.001704 576.09521 576.63525
586.0 0.001706 575.26837 575.83704
585.0 0.001709 574.44690 575.04663
605.0 0.001653 573.63031 574.26361
558.0 0.001792 572.81903 573.48895
588.0 0.001701 572.01257 572.72217
554.0 0.001805 571.21118 571.96417
602.0 0.001661 570.41504 571.21552
603.0 0.001658 569.62360 570.47638
551.0 0.001815 568.83746 569.74762
593.0 0.001686 568.05615 569.02979
576.0 0.001736 567.27948 568.32343
558.0 0.001792 566.50812 567.63037
585.0 0.001709 565.74139 566.95105
593.0 0.001686 564.97980 566.28748
600.0 0.001667 564.22290 565.64099
553.0 0.001808 563.47058 565.01379
597.0 0.001675 562.72339 564.40912
594.0 0.001684 561.98077 563.82953
577.0 0.001733 561.24316 563.27979
570.0 0.001754 560.51013 562.76483
539.0 0.001855 559.78168 562.29156
630.0 0.001587 559.05798 561.86884
568.0 0.001761 558.33899 561.50830
571.0 0.001751 557.62457 561.22546
550.0 0.001818 556.91473 561.04169
564.0 0.001773 556.20941 560.98743
550.0 0.001818 555.50873 561.11053
586.0 0.001706 554.81250 561.50360
572.0 0.001748 554.12085 562.38672
600.0 0.001667 553.43365 564.33685
571.0 0.001751 552.75073 568.76501
629.0 0.001590 552.07245 578.57666
589.0 0.001698 551.39838 598.46057
695.0 0.001439 550.72870 633.59033
806.0 0.001241 550.06342 686.04388
968.0 0.001033 549.40228 749.99701
1029.0 0.000972 548.74567 809.24219
998.0 0.001002 548.09302 842.61401
969.0 0.001032 547.44489 839.81281
1022.0 0.000978 546.80072 813.01367
936.0 0.001068 546.16058 779.40735
805.0 0.001242 545.52484 744.68481
719.0 0.001391 544.89301 704.31458
712.0 0.001404 544.26550 660.95270
648.0 0.001543 543.64185 621.63953
628.0 0.001592 543.02209 591.81708
582.0 0.001718 542.40656 571.80750
573.0 0.001745 541.79480 560.11749
580.0 0.001724 541.18719 553.78186
581.0 0.001721 540.58331 550.28210
559.0 0.001789 539.98322 548.09839
548.0 0.001825 539.38708 546.50781
551.0 0.001815 538.79474 545.21484
525.0 0.001905 538.20618 544.10431
602.0 0.001661 537.62140 543.12341
575.0 0.001739 537.04022 542.24292
509.0 0.001965 536.46283 541.44360
537.0 0.001862 535.88910 540.71149
540.0 0.001852 535.31897 540.03693
552.0 0.001812 534.75244 539.41278
564.0 0.001773 534.18939 538.83405
538.0 0.001859 533.63007 538.29773
544.0 0.001838 533.07410 537.80151
562.0 0.001779 532.52167 537.34467
541.0 0.001848 531.97272 536.92743
489.0 0.002045 531.42706 536.55072
537.0 0.001862 530.88501 536.21661
551.0 0.001815 530.34613 535.92810
522.0 0.001916 529.81073 535.68964
532.0 0.001880 529.27863 535.50641
522.0 0.001916 528.74951 535.38538
527.0 0.001898 528.22400 535.33582
550.0 0.001818 527.70142 535.36896
514.0 0.001946 527.18231 535.49915
522.0 0.001916 526.66620 535.74487
537.0 0.001862 526.15308 536.12976
509.0 0.001965 525.64331 536.68463
512.0 0.001953 525.13641 537.44983
530.0 0.001887 524.63275 538.47894
545.0 0.001835 524.13202 539.84564
517.0 0.001934 523.63416 541.65375
561.0 0.001783 523.13934 544.06262
548.0 0.001825 522.64740 547.37256
562.0 0.001779 522.15851 552.27374
523.0 0.001912 521.67236 560.54852
555.0 0.001802 521.18903 576.57239
601.0 0.001664 520.70856 609.55402
646.0 0.001548 520.23090 675.02643
738.0 0.001355 519.75598 791.77405
959.0 0.001043 519.28375 971.02490
1243.0 0.000805 518.81421 1201.04956
1350.0 0.000741 518.34741 1433.86401
1401.0 0.000714 517.88324 1594.94409
1579.0 0.000633 517.42169 1628.03601
1552.0 0.000644 516.96277 1553.15283
1404.0 0.000712 516.50629 1436.83679
1131.0 0.000884 516.05249 1314.91724
1000.0 0.001000 515.60107 1181.27820
920.0 0.001087 515.15234 1029.00537
823.0 0.001215 514.70593 876.85223
705.0 0.001418 514.26184 748.60706
620.0 0.001613 513.82037 656.03882
551.0 0.001815 513.38116 598.01672
515.0 0.001942 512.94446 565.67694
545.0 0.001835 512.51001 548.73102
541.0 0.001848 512.07770 539.58386
516.0 0.001938 511.64789 534.00586
538.0 0.001859 511.22025 530.06891
527.0 0.001898 510.79492 526.99835
546.0 0.001832 510.37177 524.47430
486.0 0.002058 509.95071 522.34149
527.0 0.001898 509.53189 520.50708
503.0 0.001988 509.11514 518.90491
524.0 0.001908 508.70068 517.48816
533.0 0.001876 508.28821 516.24677
473.0 0.002114 507.87775 515.10132
496.0 0.002016 507.46939 514.05640
540.0 0.001852 507.06305 513.09497
509.0 0.001965 506.65875 512.21661
527.0 0.001898 506.25641 511.38538
532.0 0.001880 505.85593 510.60474
509.0 0.001965 505.45749 509.86795
464.0 0.002155 505.06091 509.16888
502.0 0.001992 504.66629 508.50296
511.0 0.001957 504.27350 507.86581
544.0 0.001838 503.88251 507.25409
475.0 0.002105 503.49350 506.66516
468.0 0.002137 503.10614 506.09625
466.0 0.002146 502.72070 505.54550
506.0 0.001976 502.33691 505.01089
470.0 0.002128 501.95486 504.49103
508.0 0.001969 501.57468 503.98465
474.0 0.002110 501.19608 503.49033
482.0 0.002075 500.81931 503.00742
556.0 0.001799 500.44412 502.53479
474.0 0.002110 500.07047 502.07166
547.0 0.001828 499.69864 501.61771
486.0 0.002058 499.32831 501.17203
507.0 0.001972 498.95972 500.73441
490.0 0.002041 498.59262 500.30429
458.0 0.002183 498.22696 499.88132
477.0 0.002096 497.86307 499.46552
484.0 0.002066 497.50055 499.05640
466.0 0.002146 497.13968 498.65417
471.0 0.002123 496.78024 497.45609
485.0 0.002062 496.42221 497.09732
487.0 0.002053 496.06573 496.74396
491.0 0.002037 495.71069 496.39639
470.0 0.002128 495.35709 495.65024
524.0 0.001908 495.00488 495.33163
495.0 0.002020 494.65402 495.02054
480.0 0.002083 494.30463 494.71857
499.0 0.002004 493.95660 494.42783
492.0 0.002033 493.60992 494.15121
516.0 0.001938 493.26459 493.89331
449.0 0.002227 492.92053 493.66257
501.0 0.001996 492.57791 493.47806
493.0 0.002028 492.23648 493.38760
445.0 0.002247 491.89639 493.50790
478.0 0.002092 491.55756 494.08551
498.0 0.002008 491.21997 495.54480
510.0 0.001961 490.88373 498.42868
536.0 0.001866 490.54858 503.14420
520.0 0.001923 490.21481 509.52664
532.0 0.001880 489.88220 516.46655
531.0 0.001883 489.55066 521.93384
556.0 0.001799 489.22049 524.18445
536.0 0.001866 488.89139 522.50708
536.0 0.001866 488.56354 518.93439
547.0 0.001828 488.23682 515.04126
533.0 0.001876 487.91113 511.05151
520.0 0.001923 487.58673 506.65952
555.0 0.001802 487.26340 501.72308
537.0 0.001862 486.94122 497.07413
506.0 0.001976 486.62012 493.28906
512.0 0.001953 486.30008 490.57303
479.0 0.002088 485.98117 488.80804
499.0 0.002004 485.66333 487.71030
480.0 0.002083 485.34656 487.00040
517.0 0.001934 485.03082 486.48572
511.0 0.001957 484.71613 486.06314
499.0 0.002004 484.40250 485.68658
488.0 0.002049 484.08994 485.33710
466.0 0.002146 483.77838 486.20099
521.0 0.001919 483.46783 485.93442
499.0 0.002004 483.15826 485.68427
496.0 0.002016 482.84976 485.44958
502.0 0.001992 482.54218 485.80688
499.0 0.002004 482.23563 485.62482
458.0 0.002183 481.93008 485.45950
492.0 0.002033 481.62543 485.31158
487.0 0.002053 481.32187 485.18237
483.0 0.002070 481.01917 485.07324
497.0 0.002012 480.71747 484.98630
492.0 0.002033 480.41672 484.92389
490.0 0.002041 480.11679 484.88882
551.0 0.001815 479.81796 484.88495
481.0 0.002079 479.51996 484.91660
473.0 0.002114 479.22299 484.98917
503.0 0.001988 478.92688 485.10931
507.0 0.001972 478.63159 485.28564
515.0 0.001942 478.33734 485.52869
537.0 0.001862 478.04391 485.85205
525.0 0.001905 477.75150 486.27325
477.0 0.002096 477.45990 486.81577
479.0 0.002088 477.16916 487.51212
495.0 0.002020 476.87933 488.41165
502.0 0.001992 476.59036 489.60703
506.0 0.001976 476.30237 491.30588
557.0 0.001795 476.01517 494.02075
475.0 0.002105 475.72882 498.95181
520.0 0.001923 475.44336 508.53159
580.0 0.001724 475.15878 526.78796
511.0 0.001957 474.87506 558.65570
641.0 0.001560 474.59219 607.57245
709.0 0.001410 474.31015 671.66968
816.0 0.001225 474.02896 740.54510
815.0 0.001227 473.74866 795.76282
798.0 0.001253 473.46918 819.21881
848.0 0.001179 473.19055 808.84802
844.0 0.001185 472.91269 780.70355
795.0 0.001258 472.63577 749.94800
692.0 0.001445 472.35959 719.66699
668.0 0.001497 472.08432 685.83612
652.0 0.001534 471.80984 648.53101
652.0 0.001534 471.53610 614.82751
624.0 0.001603 471.26334 593.61584
637.0 0.001570 470.99127 594.42664
605.0 0.001653 470.72012 629.86469
672.0 0.001488 470.44977 717.30914
787.0 0.001271 470.18011 875.25598
1104.0 0.000906 469.91141 1111.04211
1389.0 0.000720 469.64343 1404.59473
1691.0 0.000591 469.37634 1697.25696
1670.0 0.000599 469.11005 1901.92395
1741.0 0.000574 468.84445 1952.37000
1855.0 0.000539 468.57977 1866.65027
1741.0 0.000574 468.31583 1723.76782
1384.0 0.000723 468.05276 1577.02832
1152.0 0.000868 467.79047 1426.54993
1098.0 0.000911 467.52893 1252.91077
958.0 0.001044 467.26822 1062.02783
846.0 0.001182 467.00833 882.04266
639.0 0.001565 466.74921 736.12396
579.0 0.001727 466.49088 633.03064
534.0 0.001873 466.23334 568.85205
537.0 0.001862 465.97659 532.70703
484.0 0.002066 465.72070 513.34100
473.0 0.002114 465.46548 502.63589
476.0 0.002101 465.21115 496.03406
484.0 0.002066 464.95758 491.39157
505.0 0.001980 464.70480 487.80145
505.0 0.001980 464.45279 484.88181
523.0 0.001912 464.20160 482.44415
466.0 0.002146 463.95111 480.37717
488.0 0.002049 463.70148 478.60416
504.0 0.001984 463.45264 477.06775
507.0 0.001972 463.20453 475.72559
491.0 0.002037 462.95724 474.54428
494.0 0.002024 462.71069 473.49844
497.0 0.002012 462.46500 472.56848
480.0 0.002083 462.22000 471.73831
467.0 0.002141 461.97586 470.99628
492.0 0.002033 461.73242 470.33252
481.0 0.002079 461.48978 469.74036
468.0 0.002137 461.24796 469.21478
490.0 0.002041 461.00684 468.75238
436.0 0.002294 460.76657 468.35208
496.0 0.002016 460.52701 468.43958
454.0 0.002203 460.28821 467.92065
484.0 0.002066 460.05026 467.74472
506.0 0.001976 459.81302 467.64621
462.0 0.002165 459.57660 467.63638
542.0 0.001845 459.34088 467.94308
495.0 0.002020 459.10593 468.04620
472.0 0.002119 458.87183 468.45193
489.0 0.002045 458.63840 469.10205
481.0 0.002079 458.40582 470.17230
476.0 0.002101 458.17392 472.09491
464.0 0.002155 457.94284 475.87161
481.0 0.002079 457.71249 483.52307
458.0 0.002183 457.48291 498.41156
484.0 0.002066 457.25409 524.77368
550.0 0.001818 457.02597 565.90747
560.0 0.001786 456.79868 621.09253
679.0 0.001473 456.57211 682.79364
681.0 0.001468 456.34628 735.07178
696.0 0.001437 456.12125 763.32550
650.0 0.001538 455.89691 759.85413
658.0 0.001520 455.67331 735.51532
630.0 0.001587 455.45053 705.57477
609.0 0.001642 455.22839 675.82031
541.0 0.001848 455.00708 644.75519
525.0 0.001905 454.78647 608.53931
563.0 0.001776 454.56656 570.04321
506.0 0.001976 454.34747 534.94043
464.0 0.002155 454.12903 507.18011
505.0 0.001980 453.91141 487.96521
442.0 0.002262 453.69443 476.18622
480.0 0.002083 453.47818 469.65018
505.0 0.001980 453.26273 466.23026
472.0 0.002119 453.04791 464.44601
445.0 0.002247 452.83389 463.48376
498.0 0.002008 452.62051 462.96991
433.0 0.002309 452.40787 462.75903
462.0 0.002165 452.19598 462.80682
464.0 0.002155 451.98474 463.11539
499.0 0.002004 451.77426 463.72141
445.0 0.002247 451.56445 464.71658
526.0 0.001901 451.35535 466.32584
496.0 0.002016 451.14691 469.11118
514.0 0.001946 450.93921 474.40237
475.0 0.002105 450.73221 484.95572
517.0 0.001934 450.52582 505.55679
553.0 0.001808 450.32016 542.68390
670.0 0.001493 450.11520 602.22400
823.0 0.001215 449.91089 685.19250
965.0 0.001036 449.70724 782.98163
1132.0 0.000883 449.50430 875.45490
1159.0 0.000863 449.30197 935.39917
1198.0 0.000835 449.10037 945.21698
1203.0 0.000831 448.89935 914.20471
1041.0 0.000961 448.69904 867.27161
953.0 0.001049 448.49936 820.37024
841.0 0.001189 448.30029 773.35767
748.0 0.001337 448.10193 719.30743
701.0 0.001427 447.90414 658.44086
702.0 0.001425 447.70706 598.91724
605.0 0.001653 447.51053 548.56067
513.0 0.001949 447.31461 511.26257
466.0 0.002146 447.11938 486.82584
482.0 0.002075 446.92471 472.37949
463.0 0.002160 446.73071 464.37225
476.0 0.002101 446.53723 459.92123
491.0 0.002037 446.34436 457.23575
453.0 0.002208 446.15216 455.39526
428.0 0.002336 445.96048 453.98532
508.0 0.001969 445.76944 452.83072
436.0 0.002294 445.57889 451.85043
512.0 0.001953 445.38898 450.75290
447.0 0.002237 445.19962 450.01553
462.0 0.002165 445.01080 449.35965
452.0 0.002212 444.82260 448.77026
464.0 0.002155 444.63486 448.23511
447.0 0.002237 444.44772 447.62201
452.0 0.002212 444.26111 447.17435
452.0 0.002212 444.07504 446.75824
472.0 0.002119 443.88950 446.36896
445.0 0.002247 443.70447 446.00259
476.0 0.002101 443.51993 445.65601
447.0 0.002237 443.33591 445.32657
418.0 0.002392 443.15240 445.01202
429.0 0.002331 442.96939 444.71054
438.0 0.002283 442.78690 444.42047
440.0 0.002273 442.60483 444.14059
464.0 0.002155 442.42328 443.86981
460.0 0.002174 442.24216 443.60703
453.0 0.002208 442.06155 443.35147
453.0 0.002208 441.88135 443.10233
403.0 0.002481 441.70160 442.85901
422.0 0.002370 441.52234 442.62112
410.0 0.002439 441.34348 442.38788
439.0 0.002278 441.16507 442.15912
413.0 0.002421 440.98706 441.93423
435.0 0.002299 440.80945 441.71301
455.0 0.002198 440.63229 441.49524
428.0 0.002336 440.45547 441.28040
473.0 0.002114 440.27911 441.06860
434.0 0.002304 440.10309 440.85925
421.0 0.002375 439.92746 440.65240
408.0 0.002451 439.75220 440.46100
436.0 0.002294 439.57727 439.84348
428.0 0.002336 439.40277 439.65900
440.0 0.002273 439.22855 439.47543
440.0 0.002273 439.05469 439.29288
383.0 0.002611 438.88116 439.11765
443.0 0.002257 438.70795 438.73029
451.0 0.002217 438.53510 438.55820
448.0 0.002232 438.36252 438.38644
434.0 0.002304 438.19019 438.21503
436.0 0.002294 438.01822 438.04395
400.0 0.002500 437.84653 437.87323
414.0 0.002415 437.67511 437.70285
437.0 0.002288 437.50394 437.53278
430.0 0.002326 437.33301 437.36301
409.0 0.002445 437.16241 437.19366
419.0 0.002387 436.99197 437.02457
398.0 0.002513 436.82184 436.85580
454.0 0.002203 436.65189 436.68735
379.0 0.002639 436.48212 436.51917
398.0 0.002513 436.31265 436.35141
415.0 0.002410 436.14331 436.18387
389.0 0.002571 435.97424 436.01675
443.0 0.002257 435.80527 435.84985
414.0 0.002415 435.63651 435.68335
447.0 0.002237 435.46796 435.51721
421.0 0.002375 435.29950 435.35132
412.0 0.002427 435.13129 435.18594
405.0 0.002469 434.96310 435.02081
440.0 0.002273 434.79510 434.85614
426.0 0.002347 434.62726 434.69186
430.0 0.002326 434.45950 434.52863
448.0 0.002232 434.29190 434.36536
418.0 0.002392 434.12433 434.20248
455.0 0.002198 433.95688 434.04025
419.0 0.002387 433.78955 433.87860
444.0 0.002252 433.62225 433.71768
378.0 0.002646 433.45505 433.55783
406.0 0.002463 433.28787 433.39853
404.0 0.002475 433.12079 433.24020
414.0 0.002415 432.95370 433.08304
459.0 0.002179 432.78668 432.92715
413.0 0.002421 432.61969 432.77289
414.0 0.002415 432.45270 432.62036
440.0 0.002273 432.28571 432.47000
418.0 0.002392 432.11874 432.32227
398.0 0.002513 431.95175 432.17767
459.0 0.002179 431.78473 432.03699
432.0 0.002315 431.61771 431.90121
433.0 0.002309 431.45062 431.77151
417.0 0.002398 431.28354 431.65005
414.0 0.002415 431.11636 431.54001
414.0 0.002415 430.94919 431.44846
407.0 0.002457 430.78189 431.39136
400.0 0.002500 430.61450 431.40625
441.0 0.002268 430.44711 431.57260
401.0 0.002494 430.27954 432.03665
420.0 0.002381 430.11197 433.01947
428.0 0.002336 429.94421 434.77600
443.0 0.002257 429.77634 437.47690
408.0 0.002451 429.60837 441.03955
452.0 0.002212 429.44025 444.99149
488.0 0.002049 429.27206 448.44803
427.0 0.002342 429.10364 450.37634
380.0 0.002632 428.93509 450.27524
458.0 0.002183 428.76639 448.67368
453.0 0.002208 428.59753 446.54559
452.0 0.002212 428.42850 444.47995
447.0 0.002237 428.25922 442.46140
434.0 0.002304 428.08981 440.18683
451.0 0.002217 427.92017 437.58786
411.0 0.002433 427.75034 434.93741
447.0 0.002237 427.58029 432.56342
412.0 0.002427 427.41003 430.66782
428.0 0.002336 427.23950 429.29797
429.0 0.002331 427.06879 428.37830
450.0 0.002222 426.89780 427.77676
419.0 0.002387 426.72656 427.36798
425.0 0.002353 426.55508 427.06226
444.0 0.002252 426.38330 427.01871
410.0 0.002439 426.21133 426.79639
441.0 0.002268 426.03900 426.58832
466.0 0.002146 425.86646 426.38950
411.0 0.002433 425.69354 426.19757
434.0 0.002304 425.52036 426.01169
427.0 0.002342 425.34692 425.93881
414.0 0.002415 425.17310 425.77121
426.0 0.002347 424.99905 425.61703
421.0 0.002375 424.82458 425.48425
427.0 0.002342 424.64981 425.38376
405.0 0.002469 424.47476 425.32516
438.0 0.002283 424.29932 425.31015
492.0 0.002033 424.12360 425.32556
455.0 0.002198 423.94745 425.33966
500.0 0.002000 423.77097 425.30725
446.0 0.002242 423.59415 425.19098
497.0 0.002012 423.41690 424.99295
479.0 0.002088 423.23935 424.75235
482.0 0.002075 423.06137 424.50674
443.0 0.002257 422.88303 424.26889
449.0 0.002227 422.70432 424.02927
430.0 0.002326 422.52518 423.77640
427.0 0.002342 422.34567 423.51495
435.0 0.002299 422.16574 423.25967
428.0 0.002336 421.98541 423.02341
405.0 0.002469 421.80466 422.81284
460.0 0.002174 421.62350 422.62796
427.0 0.002342 421.44193 422.46460
392.0 0.002551 421.25992 422.31714
425.0 0.002353 421.07745 422.49344
456.0 0.002193 420.89465 422.37601
396.0 0.002525 420.71130 422.26636
417.0 0.002398 420.52762 422.16440
444.0 0.002252 420.34338 422.07047
425.0 0.002353 420.15875 422.13791
411.0 0.002433 419.97369 422.06802
422.0 0.002370 419.78812 422.00986
390.0 0.002564 419.60217 421.96509
426.0 0.002347 419.41571 421.93570
392.0 0.002551 419.22873 421.92422
417.0 0.002398 419.04141 421.93362
421.0 0.002375 418.85352 421.96756
431.0 0.002320 418.66525 422.03036
384.0 0.002604 418.47641 422.12781
437.0 0.002288 418.28714 422.41870
415.0 0.002410 418.09741 422.61295
436.0 0.002294 417.90717 422.85596
422.0 0.002370 417.71649 423.18948
450.0 0.002222 417.52527 423.62033
444.0 0.002252 417.33359 424.17911
375.0 0.002667 417.14145 424.99557
421.0 0.002375 416.94879 426.02509
419.0 0.002387 416.75565 427.61221
424.0 0.002358 416.56204 430.33676
435.0 0.002299 416.36786 435.41370
418.0 0.002392 416.17328 445.02380
461.0 0.002169 415.97818 462.41400
459.0 0.002179 415.78256 491.25827
492.0 0.002033 415.58649 534.04974
575.0 0.001739 415.38986 589.74219
717.0 0.001395 415.19281 651.84869
738.0 0.001355 414.99521 708.09692
797.0 0.001255 414.79715 743.08057
791.0 0.001264 414.59857 747.68622
819.0 0.001221 414.39948 728.06250
782.0 0.001279 414.19995 698.75220
750.0 0.001333 413.99988 670.11841
706.0 0.001416 413.79935 643.81006
586.0 0.001706 413.59827 615.20697
579.0 0.001727 413.39673 581.06982
589.0 0.001698 413.19473 543.93860
571.0 0.001751 412.99219 508.75516
497.0 0.002012 412.78922 479.42682
458.0 0.002183 412.58572 457.72955
414.0 0.002415 412.38171 443.41907
448.0 0.002232 412.17728 434.93680
450.0 0.002222 411.97232 430.37015
453.0 0.002208 411.76694 428.14182
407.0 0.002457 411.56100 427.23059
461.0 0.002169 411.35464 427.11307
480.0 0.002083 411.14780 427.61496
470.0 0.002128 410.94049 428.84775
447.0 0.002237 410.73270 431.29868
453.0 0.002208 410.52441 436.12228
448.0 0.002232 410.31570 445.58426
474.0 0.002110 410.10654 463.41626
461.0 0.002169 409.89691 494.58514
508.0 0.001969 409.68683 543.79340
595.0 0.001681 409.47629 612.77081
769.0 0.001300 409.26529 697.09351
813.0 0.001230 409.05389 784.33813
844.0 0.001185 408.84198 854.92456
825.0 0.001212 408.62970 888.81628
839.0 0.001192 408.41696 880.81885
844.0 0.001185 408.20377 845.93616
895.0 0.001117 407.99020 803.90991
760.0 0.001316 407.77618 765.30914
670.0 0.001493 407.56180 728.99451
598.0 0.001672 407.34692 688.14117
590.0 0.001695 407.13165 641.15222
587.0 0.001704 406.91605 594.48505
534.0 0.001873 406.69998 556.99359
538.0 0.001859 406.48358 535.91400
513.0 0.001949 406.26672 534.91205
573.0 0.001745 406.04950 552.97394
628.0 0.001592 405.83194 584.16711
646.0 0.001548 405.61398 618.42816
697.0 0.001435 405.39569 643.48804
737.0 0.001357 405.17697 650.03870
726.0 0.001377 404.95798 638.62274
696.0 0.001437 404.73859 618.00586
678.0 0.001475 404.51886 596.48889
618.0 0.001618 404.29883 577.11096
565.0 0.001770 404.07840 557.75110
534.0 0.001873 403.85770 535.12500
526.0 0.001901 403.63669 509.32104
480.0 0.002083 403.41534 483.31427
464.0 0.002155 403.19370 460.19949
455.0 0.002198 402.97177 441.86057
399.0 0.002506 402.74948 428.76886
411.0 0.002433 402.52701 420.24170
425.0 0.002353 402.30420 415.03476
401.0 0.002494 402.08112 411.91974
408.0 0.002451 401.85779 409.97656
406.0 0.002463 401.63419 408.64395
427.0 0.002342 401.41037 407.41235
402.0 0.002488 401.18628 406.57376
416.0 0.002404 400.96201 405.84387
389.0 0.002571 400.73743 405.19110
432.0 0.002315 400.51263 404.59796
359.0 0.002786 400.28772 404.05319
445.0 0.002247 400.06250 403.44312
392.0 0.002551 399.83719 402.97418
416.0 0.002404 399.61160 402.53278
413.0 0.002421 399.38583 402.11490
416.0 0.002404 399.15997 401.71725
419.0 0.002387 398.93387 401.33698
436.0 0.002294 398.70767 400.97195
384.0 0.002604 398.48126 400.62012
368.0 0.002717 398.25476 400.27988
436.0 0.002294 398.02811 399.95013
405.0 0.002469 397.80133 399.62952
366.0 0.002732 397.57449 399.31738
432.0 0.002315 397.34747 399.01273
407.0 0.002457 397.12039 398.71497
369.0 0.002710 396.89325 398.42374
415.0 0.002410 396.66599 398.13834
344.0 0.002907 396.43869 397.85864
400.0 0.002500 396.21133 397.58438
413.0 0.002421 395.98386 397.36963
404.0 0.002475 395.75638 397.10767
366.0 0.002732 395.52890 396.85120
373.0 0.002681 395.30136 396.60034
421.0 0.002375 395.07382 396.35568
349.0 0.002865 394.84625 396.11771
386.0 0.002591 394.61877 395.60669
391.0 0.002558 394.39120 395.39783
397.0 0.002519 394.16373 395.20465
422.0 0.002370 393.93622 395.03934
382.0 0.002618 393.70874 394.92856
400.0 0.002500 393.48138 394.92514
386.0 0.002591 393.25403 394.96756
411.0 0.002433 393.02682 395.49387
393.0 0.002545 392.79959 396.49335
395.0 0.002532 392.57248 398.06866
400.0 0.002500 392.34555 400.19543
396.0 0.002525 392.11859 402.65198
422.0 0.002370 391.89188 404.99088
397.0 0.002519 391.66519 406.61758
370.0 0.002703 391.43869 407.06543
449.0 0.002227 391.21234 406.36438
412.0 0.002427 390.98611 404.84586
425.0 0.002353 390.76010 403.33490
358.0 0.002793 390.53421 401.92099
403.0 0.002481 390.30853 400.54099
393.0 0.002545 390.08307 399.00504
404.0 0.002475 389.85779 397.17999
403.0 0.002481 389.63272 395.35587
391.0 0.002558 389.40787 393.64252
398.0 0.002513 389.18323 392.18338
397.0 0.002519 388.95886 391.04089
414.0 0.002415 388.73477 390.20093
387.0 0.002584 388.51093 389.60187
368.0 0.002717 388.28735 389.16806
400.0 0.002500 388.06403 388.83499
388.0 0.002577 387.84106 388.55853
417.0 0.002398 387.61832 388.31311
388.0 0.002577 387.39600 388.08588
362.0 0.002762 387.17389 387.87088
397.0 0.002519 386.95212 387.66586
399.0 0.002506 386.73077 387.47025
383.0 0.002611 386.50967 387.28391
399.0 0.002506 386.28903 387.10760
389.0 0.002571 386.06870 386.94223
382.0 0.002618 385.84872 386.78918
387.0 0.002584 385.62924 386.65070
371.0 0.002695 385.41003 386.52939
387.0 0.002584 385.19135 386.42926
381.0 0.002625 384.97299 386.35623
350.0 0.002857 384.75507 386.32080
386.0 0.002591 384.53766 386.34460
396.0 0.002525 384.32062 386.47519
368.0 0.002717 384.10410 386.81689
391.0 0.002558 383.88800 387.58099
398.0 0.002513 383.67236 389.14597
404.0 0.002475 383.45724 392.08908
395.0 0.002532 383.24258 397.12646
416.0 0.002404 383.02847 404.88220
416.0 0.002404 382.81482 415.52435
376.0 0.002660 382.60168 428.36346
429.0 0.002331 382.38913 441.63028
388.0 0.002577 382.17709 452.60733
418.0 0.002392 381.96561 458.41891
404.0 0.002475 381.75467 457.95233
437.0 0.002288 381.54425 452.92557
419.0 0.002387 381.33447 446.21448
371.0 0.002695 381.12524 439.77960
453.0 0.002208 380.91660 433.98047
399.0 0.002506 380.70859 427.92725
368.0 0.002717 380.50113 420.75098
407.0 0.002457 380.29434 412.64584
404.0 0.002475 380.08813 404.51791
368.0 0.002717 379.88263 397.26022
385.0 0.002597 379.67767 391.42245
374.0 0.002674 379.47339 387.15839
363.0 0.002755 379.26984 384.28986
363.0 0.002755 379.06686 382.46573
400.0 0.002500 378.86462 381.32260
356.0 0.002809 378.66302 380.57516
381.0 0.002625 378.46210 380.03976
382.0 0.002618 378.26193 379.61429
400.0 0.002500 378.06241 379.24011
400.0 0.002500 377.86368 378.90591
391.0 0.002558 377.66556 378.59854
356.0 0.002809 377.46823 378.30896
331.0 0.003021 377.27164 378.03366
379.0 0.002639 377.07578 377.76990
344.0 0.002907 376.88068 377.51218
405.0 0.002469 376.68631 377.26498
394.0 0.002538 376.49271 377.02646
385.0 0.002597 376.29990 376.79395
402.0 0.002488 376.10785 376.56674
367.0 0.002725 375.91660 376.34421
340.0 0.002941 375.72614 376.12589
342.0 0.002924 375.53644 375.91122
381.0 0.002625 375.34760 375.70001
352.0 0.002841 375.15952 375.49188
353.0 0.002833 374.97226 375.28656
404.0 0.002475 374.78586 375.08392
377.0 0.002653 374.60022 374.88370
360.0 0.002778 374.41553 374.88583
354.0 0.002825 374.23157 374.69669
386.0 0.002591 374.04855 374.51010
373.0 0.002681 373.86630 374.32590
371.0 0.002695 373.68491 374.14413
353.0 0.002833 373.50443 373.96500
368.0 0.002717 373.32480 373.88681
367.0 0.002725 373.14606 373.71603
380.0 0.002632 372.96817 373.54831
367.0 0.002725 372.79114 373.38425
374.0 0.002674 372.61508 373.22479
393.0 0.002545 372.43985 373.07242
348.0 0.002874 372.26556 372.93195
347.0 0.002882 372.09213 372.81259
365.0 0.002740 371.91965 372.72934
395.0 0.002532 371.74805 372.70264
362.0 0.002762 371.57736 372.75473
382.0 0.002618 371.40765 372.90030
394.0 0.002538 371.23880 373.13455
356.0 0.002809 371.07092 373.42331
364.0 0.002747 370.90396 373.69977
397.0 0.002519 370.73795 373.87354
389.0 0.002571 370.57288 373.86630
332.0 0.003012 370.40875 373.67084
394.0 0.002538 370.24554 373.35852
368.0 0.002717 370.08331 372.96216
375.0 0.002667 369.92203 372.64227
404.0 0.002475 369.76172 372.34503
380.0 0.002632 369.60236 372.03946
371.0 0.002695 369.44394 371.70157
379.0 0.002639 369.28656 371.34100
416.0 0.002404 369.13007 370.95993
389.0 0.002571 368.97461 370.64102
357.0 0.002801 368.82007 370.37405
368.0 0.002717 368.66653 370.16461
359.0 0.002786 368.51401 370.00839
368.0 0.002717 368.36240 369.89572
346.0 0.002890 368.21185 369.81665
375.0 0.002667 368.06223 369.76361
405.0 0.002469 367.91357 369.73233
388.0 0.002577 367.76599 369.72174
358.0 0.002793 367.61932 369.73267
375.0 0.002667 367.47372 369.76758
356.0 0.002809 367.32904 369.83008
392.0 0.002551 367.18539 369.92511
369.0 0.002710 367.04276 370.05872
364.0 0.002747 366.90106 370.23907
398.0 0.002513 366.76044 370.47665
367.0 0.002725 366.62073 370.78662
387.0 0.002584 366.48209 371.19293
398.0 0.002513 366.34442 371.73959
358.0 0.002793 366.20776 372.51926
373.0 0.002681 366.07208 373.73105
390.0 0.002564 365.93744 375.79053
376.0 0.002660 365.80374 379.48798
374.0 0.002674 365.67108 386.15204
387.0 0.002584 365.53943 397.69864
410.0 0.002439 365.40878 416.34454
439.0 0.002278 365.27911 444.08929
477.0 0.002096 365.15042 480.81317
553.0 0.001808 365.02280 524.32892
597.0 0.001675 364.89609 569.10779
666.0 0.001502 364.77048 606.76385
658.0 0.001520 364.64578 628.39093
683.0 0.001464 364.52209 629.91345
642.0 0.001558 364.39944 615.49371
629.0 0.001590 364.27774 594.06104
584.0 0.001712 364.15704 572.65698
560.0 0.001786 364.03735 553.71619
555.0 0.001802 363.91861 535.35364
528.0 0.001894 363.80090 514.20001
519.0 0.001927 363.68414 489.26001
500.0 0.002000 363.56842 462.61987
425.0 0.002353 363.45361 437.25229
437.0 0.002288 363.33981 415.51996
364.0 0.002747 363.22702 398.64886
379.0 0.002639 363.11514 386.69577
412.0 0.002427 363.00430 378.89063
357.0 0.002801 362.89438 374.09851
379.0 0.002639 362.78546 371.24524
388.0 0.002577 362.67749 369.52048
382.0 0.002618 362.57050 368.40796
359.0 0.002786 362.46445 367.62070
393.0 0.002545 362.35934 367.01300
367.0 0.002725 362.25522 366.51785
393.0 0.002545 362.15204 366.09494
363.0 0.002755 362.04980 365.73212
364.0 0.002747 361.94852 365.41681
408.0 0.002451 361.84818 365.14130
370.0 0.002703 361.74872 364.90024
360.0 0.002778 361.65027 364.69058
378.0 0.002646 361.55270 364.50601
379.0 0.002639 361.45605 364.34723
358.0 0.002793 361.36035 364.21164
353.0 0.002833 361.26556 364.09821
369.0 0.002710 361.17169 364.00656
354.0 0.002825 361.07870 363.93671
370.0 0.002703 360.98666 363.88931
385.0 0.002597 360.89548 363.86536
388.0 0.002577 360.80521 363.86661
377.0 0.002653 360.71585 363.89560
377.0 0.002653 360.62735 363.95547
381.0 0.002625 360.53973 364.05066
325.0 0.003077 360.45300 364.18674
384.0 0.002604 360.36713 364.37128
384.0 0.002604 360.28217 364.61447
392.0 0.002551 360.19800 364.93176
407.0 0.002457 360.11475 365.34906
406.0 0.002463 360.03232 365.91721
384.0 0.002604 359.95074 366.74332
365.0 0.002740 359.87003 368.05341
364.0 0.002747 359.79013 370.30038
391.0 0.002558 359.71106 374.30234
396.0 0.002525 359.63281 381.36777
396.0 0.002525 359.55539 393.26706
407.0 0.002457 359.47876 411.90857
413.0 0.002421 359.40298 438.65118
455.0 0.002198 359.32797 473.31482
472.0 0.002119 359.25378 513.38068
563.0 0.001776 359.18036 553.59662
562.0 0.001779 359.10776 586.47266
511.0 0.001957 359.03589 604.48401
544.0 0.001838 358.96481 604.61377
545.0 0.001835 358.89450 591.05872
544.0 0.001838 358.82495 571.53857
557.0 0.001795 358.75616 552.13306
473.0 0.002114 358.68808 534.82013
476.0 0.002101 358.62079 518.47888
458.0 0.002183 358.55420 499.88086
467.0 0.002141 358.48834 477.83029
418.0 0.002392 358.42322 453.87152
427.0 0.002342 358.35880 430.57971
393.0 0.002545 358.29510 410.06128
416.0 0.002404 358.23209 393.79248
411.0 0.002433 358.16977 381.94742
392.0 0.002551 358.10815 374.00162
379.0 0.002639 358.04718 369.01703
369.0 0.002710 357.98694 366.02856
393.0 0.002545 357.92731 364.26218
366.0 0.002732 357.86838 363.20685
352.0 0.002841 357.81009 362.57367
398.0 0.002513 357.75241 362.22122
380.0 0.002632 357.69543 362.08423
396.0 0.002525 357.63904 362.11984
409.0 0.002445 357.58328 362.27536
389.0 0.002571 357.52814 362.47345
379.0 0.002639 357.47360 362.61398
378.0 0.002646 357.41968 362.59824
328.0 0.003049 357.36636 362.38385
395.0 0.002532 357.31360 362.01743
381.0 0.002625 357.26144 361.59103
353.0 0.002833 357.20984 361.17853
335.0 0.002985 357.15881 360.80783
378.0 0.002646 357.10834 360.46060
391.0 0.002558 357.05841 360.17130
389.0 0.002571 357.00903 359.77643
366.0 0.002732 356.96021 359.36191
357.0 0.002801 356.91190 358.95856
355.0 0.002817 356.86407 358.59372
361.0 0.002770 356.81680 358.28442
366.0 0.002732 356.77002 358.03525
370.0 0.002703 356.72372 357.87726
369.0 0.002710 356.67795 357.72681
375.0 0.002667 356.63263 357.60696
376.0 0.002660 356.58780 357.50720
381.0 0.002625 356.54343 357.42014
380.0 0.002632 356.49951 357.34128
330.0 0.003030 356.45605 357.26807
372.0 0.002688 356.41306 357.19922
318.0 0.003145 356.37045 357.13382
352.0 0.002841 356.32831 357.07169
372.0 0.002688 356.28656 357.01236
377.0 0.002653 356.24527 356.95581
365.0 0.002740 356.20435 356.90179
386.0 0.002591 356.16382 356.85022
364.0 0.002747 356.12369 356.80093
383.0 0.002611 356.08395 356.75397
377.0 0.002653 356.04459 356.70923
387.0 0.002584 356.00558 356.66669
378.0 0.002646 355.96692 356.62637
368.0 0.002717 355.92862 356.58829
367.0 0.002725 355.89069 356.55243
361.0 0.002770 355.85309 356.51895
382.0 0.002618 355.81580 356.48782
367.0 0.002725 355.77881 356.26666
323.0 0.003096 355.74216 356.24670
346.0 0.002890 355.70581 356.22934
332.0 0.003012 355.66977 356.21472
331.0 0.003021 355.63400 356.20319
356.0 0.002809 355.59851 356.19507
381.0 0.002625 355.56332 356.19073
367.0 0.002725 355.52835 356.09625
342.0 0.002924 355.49368 356.10385
354.0 0.002825 355.45926 356.11682
344.0 0.002907 355.42508 356.13593
396.0 0.002525 355.39114 356.16220
409.0 0.002445 355.35742 356.19687
350.0 0.002857 355.32391 356.24146
365.0 0.002740 355.29062 356.29788
371.0 0.002695 355.25757 356.36856
350.0 0.002857 355.22470 356.45667
377.0 0.002653 355.19202 356.56689
368.0 0.002717 355.15952 356.70667
368.0 0.002717 355.12720 356.89001
384.0 0.002604 355.09506 357.14520
322.0 0.003106 355.06308 357.53091
330.0 0.003030 355.03125 358.16418
382.0 0.002618 354.99957 359.25940
347.0 0.002882 354.96802 361.17047
383.0 0.002611 354.93661 364.40488
350.0 0.002857 354.90536 369.56821
373.0 0.002681 354.87421 377.22214
397.0 0.002519 354.84317 387.60361
359.0 0.002786 354.81223 400.36401
396.0 0.002525 354.78140 414.35413
429.0 0.002331 354.75067 427.61261
397.0 0.002519 354.72000 437.64749
395.0 0.002532 354.68942 442.29550
413.0 0.002421 354.65894 441.15536
413.0 0.002421 354.62848 435.94366
420.0 0.002381 354.59811 429.13736
424.0 0.002358 354.56778 422.54501
400.0 0.002500 354.53754 416.76761
386.0 0.002591 354.50726 411.27292
391.0 0.002558 354.47708 405.07440
391.0 0.002558 354.44690 397.71429
389.0 0.002571 354.41672 389.60031
344.0 0.002907 354.38660 381.54724
362.0 0.002762 354.35645 374.29657
357.0 0.002801 354.32629 368.33447
330.0 0.003030 354.29617 363.83368
389.0 0.002571 354.26602 360.69073
357.0 0.002801 354.23584 358.63867
392.0 0.002551 354.20566 357.35995
353.0 0.002833 354.17542 356.57632
343.0 0.002915 354.14517 356.08395
357.0 0.002801 354.11487 355.75314
351.0 0.002849 354.08450 355.51065
354.0 0.002825 354.05411 355.31805
367.0 0.002725 354.02362 355.15619
374.0 0.002674 353.99310 355.01556
317.0 0.003155 353.96249 354.89075
319.0 0.003135 353.93182 354.77850
330.0 0.003030 353.90106 354.67661
346.0 0.002890 353.87021 354.58328
353.0 0.002833 353.83929 354.49719
339.0 0.002950 353.80826 354.41714
360.0 0.002778 353.77710 354.34232
355.0 0.002817 353.74585 354.27338
372.0 0.002688 353.71451 354.21112
350.0 0.002857 353.68301 354.14807
329.0 0.003040 353.65140 354.08792
352.0 0.002841 353.61966 354.03021
351.0 0.002849 353.58780 353.97476
343.0 0.002915 353.55579 353.92120
355.0 0.002817 353.52362 353.87006
376.0 0.002660 353.49130 353.82181
329.0 0.003040 353.45886 353.77286
361.0 0.002770 353.42624 353.72504
344.0 0.002907 353.39343 353.67825
380.0 0.002632 353.36050 353.63232
358.0 0.002793 353.32736 353.58728
364.0 0.002747 353.29410 353.54291
355.0 0.002817 353.26059 353.49918
353.0 0.002833 353.22693 353.45605
341.0 0.002933 353.19305 353.41339
346.0 0.002890 353.15900 353.37119
339.0 0.002950 353.12476 353.32928
373.0 0.002681 353.09030 353.28781
356.0 0.002809 353.05563 353.24661
369.0 0.002710 353.02075 353.20566
362.0 0.002762 352.98569 353.16501
401.0 0.002494 352.95035 353.12448
348.0 0.002874 352.91483 353.08417
369.0 0.002710 352.87906 353.04404
320.0 0.003125 352.84308 353.00400
351.0 0.002849 352.80688 352.96417
351.0 0.002849 352.77039 352.92435
351.0 0.002849 352.73370 352.88467
371.0 0.002695 352.69675 352.84515
353.0 0.002833 352.65958 352.73349
339.0 0.002950 352.62213 352.69635
374.0 0.002674 352.58441 352.68094
366.0 0.002732 352.54645 352.64438
344.0 0.002907 352.50824 352.60788
376.0 0.002660 352.46976 352.57147
331.0 0.003021 352.43100 352.53516
349.0 0.002865 352.39200 352.57022
358.0 0.002793 352.35269 352.53857
371.0 0.002695 352.31311 352.50735
354.0 0.002825 352.27328 352.47650
350.0 0.002857 352.23315 352.44629
369.0 0.002710 352.19272 352.41675
349.0 0.002865 352.15204 352.38800
363.0 0.002755 352.11105 352.36038
376.0 0.002660 352.06976 352.35681
356.0 0.002809 352.02817 352.33301
341.0 0.002933 351.98630 352.31177
363.0 0.002755 351.94412 352.29477
333.0 0.003003 351.90167 352.28500
345.0 0.002899 351.85889 352.28867
342.0 0.002924 351.81580 352.31683
329.0 0.003040 351.77240 352.38846
334.0 0.002994 351.72873 352.53192
347.0 0.002882 351.68469 352.78415
358.0 0.002793 351.64035 353.18454
342.0 0.002924 351.59573 353.76288
379.0 0.002639 351.55078 354.52200
344.0 0.002907 351.50549 355.42279
357.0 0.002801 351.45987 356.37424
382.0 0.002618 351.41397 357.23758
366.0 0.002732 351.36771 357.85220
330.0 0.003030 351.32117 358.09485
341.0 0.002933 351.27426 357.95868
343.0 0.002915 351.22702 357.56024
351.0 0.002849 351.17947 357.05762
396.0 0.002525 351.13156 356.56769
322.0 0.003106 351.08337 356.13330
354.0 0.002825 351.03479 355.72610
342.0 0.002924 350.98590 355.28433
379.0 0.002639 350.93668 354.76941
341.0 0.002933 350.88712 354.19568
377.0 0.002653 350.83722 353.61212
372.0 0.002688 350.78699 353.07043
345.0 0.002899 350.73639 352.60922
339.0 0.002950 350.68549 352.24808
331.0 0.003021 350.63422 351.98776
342.0 0.002924 350.58264 351.81580
362.0 0.002762 350.53067 351.76193
308.0 0.003247 350.47839 351.71140
350.0 0.002857 350.42575 351.69678
332.0 0.003012 350.37280 351.70831
378.0 0.002646 350.31946 351.74130
317.0 0.003155 350.26581 351.79443
346.0 0.002890 350.21179 351.86984
348.0 0.002874 350.15744 351.99631
332.0 0.003012 350.10272 352.14154
356.0 0.002809 350.04770 352.35056
337.0 0.002967 349.99228 352.67380
355.0 0.002817 349.93655 353.20422
377.0 0.002653 349.88046 354.10422
364.0 0.002747 349.82404 355.62994
356.0 0.002809 349.76724 358.13541
339.0 0.002950 349.71011 362.03842
392.0 0.002551 349.65262 367.71844
336.0 0.002976 349.59482 375.35892
366.0 0.002732 349.53665 384.77808
382.0 0.002618 349.47815 395.28674
412.0 0.002427 349.41928 405.67764
355.0 0.002817 349.36008 414.33234
428.0 0.002336 349.30054 419.64948
379.0 0.002639 349.24063 420.88516
366.0 0.002732 349.18039 418.78082
348.0 0.002874 349.11981 415.15344
395.0 0.002532 349.05887 411.80075
402.0 0.002488 348.99762 410.05042
379.0 0.002639 348.93600 410.43344
404.0 0.002475 348.87405 412.75699
374.0 0.002674 348.81177 416.43512
381.0 0.002625 348.74915 420.89590
423.0 0.002364 348.68616 425.60159
443.0 0.002257 348.62286 429.69089
434.0 0.002304 348.55920 431.96725
422.0 0.002370 348.49521 431.28024
415.0 0.002410 348.43091 427.37125
450.0 0.002222 348.36627 421.22571
453.0 0.002208 348.30127 414.37695
393.0 0.002545 348.23596 408.04309
375.0 0.002667 348.17032 402.71494
369.0 0.002710 348.10431 398.13730
351.0 0.002849 348.03802 393.56711
386.0 0.002591 347.97137 388.33447
360.0 0.002778 347.90442 382.33792
394.0 0.002538 347.83713 375.97949
354.0 0.002825 347.76950 369.81848
348.0 0.002874 347.70157 364.33163
358.0 0.002793 347.63330 359.82147
382.0 0.002618 347.56473 356.38031
329.0 0.003040 347.49582 353.92798
337.0 0.002967 347.42657 352.28036
354.0 0.002825 347.35706 351.22009
344.0 0.002907 347.28720 350.55078
367.0 0.002725 347.21707 350.12399
356.0 0.002809 347.14658 349.84546
362.0 0.002762 347.07578 349.65549
357.0 0.002801 347.00470 349.52319
337.0 0.002967 346.93329 349.43445
359.0 0.002786 346.86160 349.38470
359.0 0.002786 346.78958 349.37708
380.0 0.002632 346.71729 349.42380
339.0 0.002950 346.64465 349.55273
342.0 0.002924 346.57175 349.82074
367.0 0.002725 346.49854 350.33380
403.0 0.002481 346.42505 351.27237
333.0 0.003003 346.35126 352.91223
357.0 0.002801 346.27716 355.62335
353.0 0.002833 346.20279 359.82730
365.0 0.002740 346.12811 365.88708
368.0 0.002717 346.05319 373.95728
388.0 0.002577 345.97794 383.80609
405.0 0.002469 345.90244 394.69922
465.0 0.002151 345.82663 405.38889
485.0 0.002062 345.75055 414.22269
504.0 0.001984 345.67422 419.56766
474.0 0.002110 345.59760 420.58990
487.0 0.002053 345.52072 417.86371
471.0 0.002123 345.44354 412.95544
450.0 0.002222 345.36612 407.46869
404.0 0.002475 345.28842 402.40555
405.0 0.002469 345.21045 397.98358
424.0 0.002358 345.13226 393.74756
416.0 0.002404 345.05377 389.00211
437.0 0.002288 344.97504 383.40375
405.0 0.002469 344.89606 377.17294
348.0 0.002874 344.81680 370.85068
388.0 0.002577 344.73730 364.99823
395.0 0.002532 344.65756 360.05106
345.0 0.002899 344.57761 356.28342
353.0 0.002833 344.49738 353.81491
346.0 0.002890 344.41690 352.67593
329.0 0.003040 344.33618 352.87369
351.0 0.002849 344.25525 354.43292
360.0 0.002778 344.17410 357.37628
356.0 0.002809 344.09265 361.65497
403.0 0.002481 344.01102 367.04770
421.0 0.002375 343.92917 373.08646
433.0 0.002309 343.84708 379.03979
447.0 0.002237 343.76477 383.96390
425.0 0.002353 343.68225 386.92914
409.0 0.002445 343.59949 387.44724
472.0 0.002119 343.51654 385.81982
451.0 0.002217 343.43335 382.92172
436.0 0.002294 343.34998 379.66666
423.0 0.002364 343.26642 376.58356
390.0 0.002564 343.18259 373.93994
410.0 0.002439 343.09860 371.43958
368.0 0.002717 343.01440 368.68213
383.0 0.002611 342.93002 365.43726
407.0 0.002457 342.84543 361.74884
406.0 0.002463 342.76062 357.99890
361.0 0.002770 342.67569 354.45276
349.0 0.002865 342.59052 351.34952
322.0 0.003106 342.50519 348.82593
344.0 0.002907 342.41965 346.90466
329.0 0.003040 342.33395 345.52454
348.0 0.002874 342.24808 344.57486
361.0 0.002770 342.16202 343.91180
368.0 0.002717 342.07581 343.47525
292.0 0.003425 341.98938 343.16354
364.0 0.002747 341.90283 342.92468
340.0 0.002941 341.81613 342.72775
336.0 0.002976 341.72922 342.55496
323.0 0.003096 341.64218 342.39734
335.0 0.002985 341.55496 342.25012
342.0 0.002924 341.46762 342.11053
338.0 0.002959 341.38013 341.97708
348.0 0.002874 341.29245 341.84863
356.0 0.002809 341.20468 341.72449
349.0 0.002865 341.11673 341.60535
368.0 0.002717 341.02863 341.48782
369.0 0.002710 340.94043 341.37292
355.0 0.002817 340.85208 341.26041
330.0 0.003030 340.76358 341.14981
339.0 0.002950 340.67496 341.04099
348.0 0.002874 340.58621 340.93375
317.0 0.003155 340.49734 340.82782
365.0 0.002740 340.40836 340.72385
330.0 0.003030 340.31924 340.62030
351.0 0.002849 340.23001 340.51849
342.0 0.002924 340.14069 340.41669
322.0 0.003106 340.05124 340.31573
334.0 0.002994 339.96167 340.21524
335.0 0.002985 339.87201 340.11560
355.0 0.002817 339.78223 340.01642
358.0 0.002793 339.69235 339.91776
304.0 0.003289 339.60242 339.81958
314.0 0.003185 339.51233 339.72220
330.0 0.003030 339.42218 339.62491
322.0 0.003106 339.33194 339.52777
336.0 0.002976 339.24158 339.38516
340.0 0.002941 339.15118 339.28796
343.0 0.002915 339.06067 339.19299
345.0 0.002899 338.97012 339.09827
314.0 0.003185 338.87946 339.00366
372.0 0.002688 338.78873 338.90933
302.0 0.003311 338.69791 338.81506
334.0 0.002994 338.60706 338.69791
341.0 0.002933 338.51611 338.60361
361.0 0.002770 338.42511 338.51041
349.0 0.002865 338.33405 338.41736
318.0 0.003145 338.24292 338.32452
318.0 0.003145 338.15173 338.23166
314.0 0.003185 338.06052 338.13895
359.0 0.002786 337.96924 338.04636
369.0 0.002710 337.87790 337.95389
320.0 0.003125 337.78653 337.86157
348.0 0.002874 337.69510 337.76935
355.0 0.002817 337.60364 337.67728
317.0 0.003155 337.51215 337.58533
351.0 0.002849 337.42059 337.49362
327.0 0.003058 337.32904 337.40210
315.0 0.003175 337.23743 337.31079
343.0 0.002915 337.14584 337.21976
342.0 0.002924 337.05417 337.12918
323.0 0.003096 336.96246 337.01105
326.0 0.003067 336.87079 336.92279
347.0 0.002882 336.77908 336.83618
318.0 0.003145 336.68735 336.75238
325.0 0.003077 336.59561 336.67316
343.0 0.002915 336.50385 336.60101
353.0 0.002833 336.41208 336.53906
332.0 0.003012 336.32031 336.47614
315.0 0.003175 336.22858 336.44305
320.0 0.003125 336.13678 336.42532
330.0 0.003030 336.04501 336.41992
313.0 0.003195 335.95325 336.42010
342.0 0.002924 335.86148 336.41568
327.0 0.003058 335.76974 336.39441
334.0 0.002994 335.67798 336.34512
327.0 0.003058 335.58624 336.26413
314.0 0.003185 335.49454 336.15808
321.0 0.003115 335.40283 336.04080
334.0 0.002994 335.31116 335.92764
336.0 0.002976 335.21951 335.83127
313.0 0.003195 335.12787 335.76147
325.0 0.003077 335.03629 335.72522
324.0 0.003086 334.94470 335.72806
295.0 0.003390 334.85315 335.77545
342.0 0.002924 334.76166 335.87140
357.0 0.002801 334.67017 336.01321
321.0 0.003115 334.57874 336.18698
345.0 0.002899 334.48734 336.37936
339.0 0.002950 334.39600 336.52670
322.0 0.003106 334.30466 336.60315
371.0 0.002695 334.21338 336.58569
345.0 0.002899 334.12216 336.48438
343.0 0.002915 334.03101 336.33905
320.0 0.003125 333.93991 336.19629
319.0 0.003135 333.84882 336.08881
315.0 0.003175 333.75781 336.03268
341.0 0.002933 333.66690 335.99866
336.0 0.002976 333.57599 335.95764
346.0 0.002890 333.48517 335.86942
352.0 0.002841 333.39441 335.72858
324.0 0.003086 333.30371 335.48581
362.0 0.002762 333.21307 335.18384
371.0 0.002695 333.12250 334.86093
336.0 0.002976 333.03204 334.54398
366.0 0.002732 332.94162 334.25873
352.0 0.002841 332.85129 334.01227
331.0 0.003021 332.76105 333.79822
354.0 0.002825 332.67087 333.60153
342.0 0.002924 332.58075 333.41986
330.0 0.003030 332.49072 333.22363
312.0 0.003205 332.40079 333.02789
343.0 0.002915 332.31094 332.83463
337.0 0.002967 332.22119 332.65152
326.0 0.003067 332.13150 332.48309
334.0 0.002994 332.04193 332.33139
323.0 0.003096 331.95242 332.19614
339.0 0.002950 331.86304 332.07529
354.0 0.002825 331.77374 331.96588
293.0 0.003413 331.68454 331.86487
340.0 0.002941 331.59540 331.76962
320.0 0.003125 331.50638 331.67804
322.0 0.003106 331.41751 331.58899
313.0 0.003195 331.32867 331.50165
329.0 0.003040 331.23999 331.41553
332.0 0.003012 331.15137 331.33029
339.0 0.002950 331.06287 331.24606
349.0 0.002865 330.97452 331.16263
315.0 0.003175 330.88620 331.08005
351.0 0.002849 330.79807 330.99829
338.0 0.002959 330.70999 330.91745
335.0 0.002985 330.62201 330.83749
358.0 0.002793 330.53421 330.75861
363.0 0.002755 330.44647 330.68066
303.0 0.003300 330.35889 330.60379
303.0 0.003300 330.27139 330.52826
320.0 0.003125 330.18402 330.45410
290.0 0.003448 330.09677 330.38135
309.0 0.003236 330.00961 330.31027
305.0 0.003279 329.92261 330.24109
337.0 0.002967 329.83569 330.17392
303.0 0.003300 329.74893 330.10919
336.0 0.002976 329.66226 330.04706
325.0 0.003077 329.57574 329.98816
357.0 0.002801 329.48935 329.93298
333.0 0.003003 329.40305 329.88205
337.0 0.002967 329.31689 329.83682
317.0 0.003155 329.23087 329.79901
325.0 0.003077 329.14493 329.77206
317.0 0.003155 329.05917 329.76251
325.0 0.003077 328.97351 329.78204
316.0 0.003165 328.88800 329.85120
333.0 0.003003 328.80258 330.00436
347.0 0.002882 328.71735 330.29065
308.0 0.003247 328.63217 330.77884
295.0 0.003390 328.54715 331.54974
340.0 0.002941 328.46228 332.68298
318.0 0.003145 328.37750 334.23257
318.0 0.003145 328.29288 336.20041
339.0 0.002950 328.20837 338.50885
366.0 0.002732 328.12402 340.98941
360.0 0.002778 328.03976 343.38440
323.0 0.003096 327.95569 345.38184
405.0 0.002469 327.87167 346.69446
349.0 0.002865 327.78781 347.20004
357.0 0.002801 327.70410 347.05588
388.0 0.002577 327.62048 346.64764
382.0 0.002618 327.53705 346.43655
400.0 0.002500 327.45367 346.81464
337.0 0.002967 327.37048 348.03360
361.0 0.002770 327.28738 350.15851
339.0 0.002950 327.20441 353.05750
391.0 0.002558 327.12161 356.44547
401.0 0.002494 327.03888 359.95090
346.0 0.002890 326.95633 363.12976
406.0 0.002463 326.87384 365.47952
357.0 0.002801 326.79150 366.53000
383.0 0.002611 326.70932 366.07404
350.0 0.002857 326.62723 364.30630
386.0 0.002591 326.54529 361.71729
350.0 0.002857 326.46344 358.84912
372.0 0.002688 326.38168 356.11560
342.0 0.002924 326.30011 353.70297
332.0 0.003012 326.21863 351.55179
328.0 0.003049 326.13727 349.43579
352.0 0.002841 326.05600 347.12061
316.0 0.003165 325.97488 344.51291
319.0 0.003135 325.89386 341.70642
340.0 0.002941 325.81296 338.81653
325.0 0.003077 325.73218 336.07706
314.0 0.003185 325.65149 333.59900
345.0 0.002899 325.57089 331.50797
327.0 0.003058 325.49045 329.84006
337.0 0.002967 325.41006 328.57401
308.0 0.003247 325.32983 327.65143
327.0 0.003058 325.24969 326.99658
321.0 0.003115 325.16962 326.54752
333.0 0.003003 325.08969 326.21799
304.0 0.003289 325.00983 325.98447
300.0 0.003333 324.93008 325.83246
325.0 0.003077 324.85043 325.67178
304.0 0.003289 324.77084 325.53061
335.0 0.002985 324.69138 325.40198
313.0 0.003195 324.61200 325.28223
322.0 0.003106 324.53271 325.16885
292.0 0.003425 324.45349 325.06088
319.0 0.003135 324.37436 324.95718
322.0 0.003106 324.29532 324.87766
332.0 0.003012 324.21634 324.78177
307.0 0.003257 324.13748 324.68912
345.0 0.002899 324.05862 324.59930
312.0 0.003205 323.97992 324.51254
299.0 0.003344 323.90121 324.42883
337.0 0.002967 323.82260 324.34894
278.0 0.00360 323.74408 324.27396
284.0 0.00352 323.66559 324.20596
317.0 0.003155 323.58719 324.14828
340.0 0.002941 323.50882 324.10522
321.0 0.003115 323.43051 324.08264
295.0 0.003390 323.35223 324.08618
329.0 0.003040 323.27405 324.12070
326.0 0.003067 323.19586 324.18774
342.0 0.002924 323.11774 324.28415
320.0 0.003125 323.03967 324.40033
320.0 0.003125 322.96161 324.51996
321.0 0.003115 322.88364 324.62137
349.0 0.002865 322.80563 324.68069
333.0 0.003003 322.72769 324.67941
315.0 0.003175 322.64975 324.61346
314.0 0.003185 322.57187 324.49619
288.0 0.003472 322.49396 324.35056
327.0 0.003058 322.41611 324.19897
335.0 0.002985 322.33826 324.05612
302.0 0.003311 322.26038 323.92676
332.0 0.003012 322.18256 323.80655
325.0 0.003077 322.10468 323.68628
327.0 0.003058 322.02682 323.55768
311.0 0.003215 321.94901 323.42032
302.0 0.003311 321.87112 323.27802
305.0 0.003279 321.79327 323.12674
321.0 0.003115 321.71536 323.00122
343.0 0.002915 321.63742 322.89468
344.0 0.002907 321.55951 322.81140
332.0 0.003012 321.48154 322.75339
347.0 0.002882 321.40353 322.72131
359.0 0.002786 321.32550 322.71509
349.0 0.002865 321.24741 322.73633
337.0 0.002967 321.16931 322.78250
317.0 0.003155 321.09113 322.87823
320.0 0.003125 321.01291 323.03903
356.0 0.002809 320.93463 323.30539
320.0 0.003125 320.85629 323.74475
346.0 0.002890 320.77789 324.43829
341.0 0.002933 320.69940 325.58133
327.0 0.003058 320.62088 327.33646
332.0 0.003012 320.54224 329.92838
365.0 0.002740 320.46353 333.56009
333.0 0.003003 320.38474 338.37299
328.0 0.003049 320.30585 344.38235
331.0 0.003021 320.22687 351.40991
331.0 0.003021 320.14780 359.08139
367.0 0.002725 320.06860 366.72742
343.0 0.002915 319.98932 373.60770
367.0 0.002725 319.90991 379.02319
381.0 0.002625 319.83038 382.57559
357.0 0.002801 319.75073 384.35095
385.0 0.002597 319.67093 384.90985
370.0 0.002703 319.59106 385.13092
381.0 0.002625 319.51099 385.89719
396.0 0.002525 319.43082 387.77847
376.0 0.002660 319.35049 390.76907
405.0 0.002469 319.26999 394.38245
408.0 0.002451 319.18936 397.72913
447.0 0.002237 319.10855 399.78110
392.0 0.002551 319.02759 399.58859
419.0 0.002387 318.94644 396.71564
439.0 0.002278 318.86514 391.44662
450.0 0.002222 318.78363 384.68277
380.0 0.002632 318.70197 377.50446
379.0 0.002639 318.62009 370.79492
382.0 0.002618 318.53802 365.04095
359.0 0.002786 318.45575 360.31305
375.0 0.002667 318.37329 356.30225
358.0 0.002793 318.29062 352.54340
356.0 0.002809 318.20770 348.65439
337.0 0.002967 318.12460 344.51324
344.0 0.002907 318.04123 340.23822
323.0 0.003096 317.95767 336.05328
305.0 0.003279 317.87384 332.18259
281.0 0.00356 317.78976 328.80225
336.0 0.002976 317.70551 326.00909
348.0 0.002874 317.62094 323.81949
309.0 0.003236 317.53613 322.18207
322.0 0.003106 317.45105 321.00214
306.0 0.003268 317.36575 320.17218
292.0 0.003425 317.28012 319.59048
298.0 0.003356 317.19421 319.17499
334.0 0.002994 317.10806 318.86566
299.0 0.003344 317.02161 318.62247
327.0 0.003058 316.93488 318.42093
321.0 0.003115 316.84781 318.24716
309.0 0.003236 316.76047 318.09433
348.0 0.002874 316.67282 317.95966
327.0 0.003058 316.58484 317.84271
296.0 0.003378 316.49658 317.74683
328.0 0.003049 316.40796 317.67303
319.0 0.003135 316.31900 317.62323
293.0 0.003413 316.22977 317.59760
318.0 0.003145 316.14014 317.59351
323.0 0.003096 316.05020 317.60513
354.0 0.002825 315.95990 317.62289
330.0 0.003030 315.86923 317.63464
284.0 0.00352 315.77826 317.62762
318.0 0.003145 315.68689 317.59122
342.0 0.002924 315.59515 317.52261
333.0 0.003003 315.50305 317.42938
342.0 0.002924 315.41055 317.32550
335.0 0.002985 315.31769 317.22562
313.0 0.003195 315.22443 317.14178
318.0 0.003145 315.13080 317.08371
347.0 0.002882 315.03674 317.06021
327.0 0.003058 314.94229 317.08511
289.0 0.003460 314.84747 317.25504
344.0 0.002907 314.75220 317.48370
311.0 0.003215 314.65656 317.92200
358.0 0.002793 314.56046 318.68945
300.0 0.003333 314.46393 319.93692
343.0 0.002915 314.36700 321.83136
333.0 0.003003 314.26962 324.52740
316.0 0.003165 314.17184 328.11926
352.0 0.002841 314.07358 332.59506
322.0 0.003106 313.97485 337.82300
375.0 0.002667 313.87573 343.39282
408.0 0.002451 313.77612 348.83347
416.0 0.002404 313.67609 353.51544
372.0 0.002688 313.57556 356.81076
389.0 0.002571 313.47458 358.30643
431.0 0.002320 313.37314 358.04025
441.0 0.002268 313.27118 356.48819
390.0 0.002564 313.16879 354.41672
371.0 0.002695 313.06592 352.45721
388.0 0.002577 312.96255 351.01581
376.0 0.002660 312.85867 350.27390
378.0 0.002646 312.75436 350.04504
377.0 0.002653 312.64951 349.95486
380.0 0.002632 312.54419 349.58182
404.0 0.002475 312.43832 348.61752
405.0 0.002469 312.33194 346.90500
406.0 0.002463 312.22513 344.45966
387.0 0.002584 312.11774 341.39343
347.0 0.002882 312.00989 337.96628
374.0 0.002674 311.90146 334.59476
365.0 0.002740 311.79254 331.53290
325.0 0.003077 311.68307 328.95331
277.0 0.00361 311.57312 326.89307
354.0 0.002825 311.46262 325.26599
311.0 0.003215 311.35156 323.90698
306.0 0.003268 311.24002 322.63495
329.0 0.003040 311.12790 321.32413
314.0 0.003185 311.01526 319.92499
318.0 0.003145 310.90207 318.50775
295.0 0.003390 310.78830 317.12265
320.0 0.003125 310.67404 315.83698
298.0 0.003356 310.55923 314.70221
324.0 0.003086 310.44388 313.74808
301.0 0.003322 310.32791 312.97952
289.0 0.003460 310.21143 312.38223
328.0 0.003049 310.09442 311.92941
311.0 0.003215 309.97684 311.59088
289.0 0.003460 309.85870 311.33310
289.0 0.003460 309.73999 311.13284
293.0 0.003413 309.62070 310.97189
324.0 0.003086 309.50092 310.83777
301.0 0.003322 309.38049 310.72284
349.0 0.002865 309.25958 310.62320
307.0 0.003257 309.13806 310.53668
310.0 0.003226 309.01596 310.46304
319.0 0.003135 308.89334 310.40311
322.0 0.003106 308.77014 310.35898
305.0 0.003279 308.64639 310.33420
302.0 0.003311 308.52203 310.33569
328.0 0.003049 308.39713 310.37576
336.0 0.002976 308.27167 310.47708
300.0 0.003333 308.14563 310.67972
278.0 0.00360 308.01904 311.05118
300.0 0.003333 307.89188 311.69922
297.0 0.003367 307.76413 312.78333
301.0 0.003322 307.63586 314.52008
315.0 0.003175 307.50702 317.17728
325.0 0.003077 307.37762 321.03976
296.0 0.003378 307.24762 326.36237
309.0 0.003236 307.11710 333.28177
302.0 0.003311 306.98602 341.73547
328.0 0.003049 306.85434 351.39777
331.0 0.003021 306.72217 361.63315
401.0 0.002494 306.58939 371.52896
388.0 0.002577 306.45605 379.96191
389.0 0.002571 306.32224 385.80518
382.0 0.002618 306.18781 388.30118
374.0 0.002674 306.05286 387.43503
387.0 0.002584 305.91733 383.96933
356.0 0.002809 305.78131 379.04922
324.0 0.003086 305.64471 373.74429
316.0 0.003165 305.50763 368.77310
337.0 0.002967 305.36996 364.41156
348.0 0.002874 305.23175 360.51581
359.0 0.002786 305.09308 356.60632
351.0 0.002849 304.95383 352.21466
361.0 0.002770 304.81409 347.10318
322.0 0.003106 304.67380 341.37872
316.0 0.003165 304.53302 335.36545
318.0 0.003145 304.39172 329.41367
329.0 0.003040 304.24994 323.93918
290.0 0.003448 304.10760 319.15079
347.0 0.002882 303.96478 315.19049
297.0 0.003367 303.82150 312.06189
280.0 0.00357 303.67770 309.70245
302.0 0.003311 303.53345 307.98660
310.0 0.003226 303.38867 306.76852
332.0 0.003012 303.24347 305.91183
320.0 0.003125 303.09775 305.28601
292.0 0.003425 302.95154 304.84512
283.0 0.00353 302.80493 304.51770
282.0 0.00355 302.65784 304.27432
309.0 0.003236 302.51031 304.08972
274.0 0.00365 302.36234 303.99182
312.0 0.003205 302.21387 303.97321
330.0 0.003030 302.06506 304.05609
291.0 0.003436 301.91574 304.21414
318.0 0.003145 301.76608 304.45703
319.0 0.003135 301.61594 304.76157
289.0 0.003460 301.46542 305.09546
293.0 0.003413 301.31451 305.40381
319.0 0.003135 301.16318 305.64398
313.0 0.003195 301.01151 305.75317
293.0 0.003413 300.85941 305.69540
317.0 0.003155 300.70691 305.47925
289.0 0.003460 300.55411 305.12930
312.0 0.003205 300.40091 304.71033
303.0 0.003300 300.24741 304.27338
272.0 0.00368 300.09351 303.85495
314.0 0.003185 299.93927 303.46893
264.0 0.00379 299.78476 303.10791
302.0 0.003311 299.62988 302.74979
305.0 0.003279 299.47473 302.37006
291.0 0.003436 299.31921 301.95535
276.0 0.00362 299.16342 301.50946
299.0 0.003344 299.00739 301.04807
285.0 0.00351 298.85104 300.58987
293.0 0.003413 298.69446 300.15268
316.0 0.003165 298.53754 299.74927
295.0 0.003390 298.38040 299.38751
293.0 0.003413 298.22308 299.06949
317.0 0.003155 298.06546 298.79208
303.0 0.003300 297.90765 298.54980
292.0 0.003425 297.74960 298.33551
272.0 0.00368 297.59134 298.14221
298.0 0.003356 297.43292 297.96426
309.0 0.003236 297.27426 297.79706
302.0 0.003311 297.11551 297.63766
298.0 0.003356 296.95651 297.48434
260.0 0.00385 296.79742 297.33646
290.0 0.003448 296.63812 297.19412
299.0 0.003344 296.47870 297.05896
302.0 0.003311 296.31921 296.93384
287.0 0.003484 296.15955 296.82443
280.0 0.00357 295.99982 296.74036
315.0 0.003175 295.83997 296.69739
298.0 0.003356 295.68005 296.71945
264.0 0.00379 295.52005 296.84015
323.0 0.003096 295.36002 297.10355
285.0 0.00351 295.19989 297.56030
281.0 0.00356 295.03973 298.26187
279.0 0.00358 294.87958 299.17938
278.0 0.00360 294.71939 300.47043
299.0 0.003344 294.55923 302.04041
315.0 0.003175 294.39902 303.81598
289.0 0.003460 294.23889 305.67072
305.0 0.003279 294.07870 307.43002
312.0 0.003205 293.91867 308.88641
288.0 0.003472 293.75861 309.83932
340.0 0.002941 293.59860 310.15884
312.0 0.003205 293.43872 309.81580
323.0 0.003096 293.27890 309.02179
311.0 0.003215 293.11923 307.95001
316.0 0.003165 292.95959 306.79672
284.0 0.00352 292.80011 305.69989
311.0 0.003215 292.64081 304.71915
312.0 0.003205 292.48163 303.83612
306.0 0.003268 292.32263 302.97528
296.0 0.003378 292.16376 302.04407
309.0 0.003236 292.00507 300.98468
358.0 0.002793 291.84665 299.79999
320.0 0.003125 291.68839 298.53970
299.0 0.003344 291.53040 297.27420
297.0 0.003367 291.37256 296.07031
262.0 0.00382 291.21503 294.98242
292.0 0.003425 291.05777 294.04617
293.0 0.003413 290.90076 293.27701
283.0 0.00353 290.74408 292.67480
279.0 0.00358 290.58765 292.22931
298.0 0.003356 290.43149 291.92966
290.0 0.003448 290.27576 291.77197
303.0 0.003300 290.12030 291.76627
275.0 0.00364 289.96524 291.94119
280.0 0.00357 289.81049 292.34454
267.0 0.00375 289.65610 293.03827
298.0 0.003356 289.50217 294.08917
290.0 0.003448 289.34860 295.55338
298.0 0.003356 289.19547 297.45505
317.0 0.003155 289.04272 299.76468
322.0 0.003106 288.89041 302.39590
317.0 0.003155 288.73862 305.17679
357.0 0.002801 288.58722 307.87173
305.0 0.003279 288.43637 310.19333
379.0 0.002639 288.28595 311.85449
336.0 0.002976 288.13605 312.64862
359.0 0.002786 287.98666 312.53937
360.0 0.002778 287.83780 311.67557
325.0 0.003077 287.68951 310.31796
327.0 0.003058 287.54172 308.74689
299.0 0.003344 287.39450 307.18042
346.0 0.002890 287.24789 305.74106
308.0 0.003247 287.10184 304.44250
312.0 0.003205 286.95645 303.20877
331.0 0.003021 286.81158 301.91907
286.0 0.003497 286.66742 300.47629
333.0 0.003003 286.52386 298.85336
346.0 0.002890 286.38098 297.09271
303.0 0.003300 286.23871 295.27841
291.0 0.003436 286.09711 293.50418
301.0 0.003322 285.95624 291.85461
272.0 0.00368 285.81604 290.39178
299.0 0.003344 285.67657 289.14886
293.0 0.003413 285.53778 288.13260
269.0 0.00372 285.39978 287.32678
291.0 0.003436 285.26248 286.70117
267.0 0.00375 285.12598 286.21936
280.0 0.00357 284.99017 285.84531
279.0 0.00358 284.85516 285.54788
312.0 0.003205 284.72098 285.30258
275.0 0.00364 284.58755 285.09143
287.0 0.003484 284.45496 284.90240
287.0 0.003484 284.32318 284.72766
268.0 0.00373 284.19223 284.56247
276.0 0.00362 284.06213 284.40384
275.0 0.00364 283.93283 284.25021
292.0 0.003425 283.80444 284.10086
276.0 0.00362 283.67691 283.95499
319.0 0.003135 283.55029 283.81268
288.0 0.003472 283.42450 283.67368
276.0 0.00362 283.29962 283.53827
267.0 0.00375 283.17569 283.40701
258.0 0.00388 283.05264 283.28027
296.0 0.003378 282.93057 283.15887
276.0 0.00362 282.80939 283.04321
264.0 0.00379 282.68912 282.92313
291.0 0.003436 282.56989 282.82120
273.0 0.00366 282.45157 282.72382
318.0 0.003145 282.33426 282.63049
262.0 0.00382 282.21790 282.53900
335.0 0.002985 282.10251 282.44662
261.0 0.00383 281.98819 282.35019
270.0 0.00370 281.87479 282.24689
259.0 0.00386 281.76245 282.13525
282.0 0.00355 281.65109 282.00833
294.0 0.003401 281.54080 281.88541
298.0 0.003356 281.43152 281.75848
286.0 0.003497 281.32327 281.63126
290.0 0.003448 281.21609 281.50641
292.0 0.003425 281.10995 281.38446
267.0 0.00375 281.00485 281.26529
279.0 0.00358 280.90088 281.14780
296.0 0.003378 280.79791 281.03046
275.0 0.00364 280.69608 280.91257
264.0 0.00379 280.59528 280.79379
272.0 0.00368 280.49557 280.67499
260.0 0.00385 280.39700 280.55692
282.0 0.00355 280.29950 280.44083
281.0 0.00356 280.20309 280.32730
276.0 0.00362 280.10779 280.21716
307.0 0.003257 280.01361 280.11050
312.0 0.003205 279.92056 280.00751
274.0 0.00365 279.82861 279.90784
305.0 0.003279 279.73779 279.81122
291.0 0.003436 279.64807 279.71713
255.0 0.00392 279.55954 279.62543
272.0 0.00368 279.47211 279.53561
292.0 0.003425 279.38577 279.44757
285.0 0.00351 279.30066 279.36111
295.0 0.003390 279.21661 279.27591
255.0 0.00392 279.13373 279.19214
287.0 0.003484 279.05200 279.10968
304.0 0.003289 278.97144 279.02847
252.0 0.00397 278.89200 278.94849
299.0 0.003344 278.81372 278.86987
294.0 0.003401 278.73654 278.79242
267.0 0.00375 278.66055 278.71625
291.0 0.003436 278.58572 278.64136
264.0 0.00379 278.51202 278.56763
272.0 0.00368 278.43948 278.49521
285.0 0.00351 278.36810 278.42404
277.0 0.00361 278.29785 278.35410
274.0 0.00365 278.22876 278.28549
304.0 0.003289 278.16083 278.21808
283.0 0.00353 278.09402 278.13745
276.0 0.00362 278.02835 278.07294
289.0 0.003460 277.96387 278.00790
277.0 0.00361 277.90048 277.94592
286.0 0.003497 277.83826 277.88525
263.0 0.00380 277.77716 277.82584
265.0 0.00377 277.71719 277.76776
265.0 0.00377 277.65839 277.71106
266.0 0.00376 277.60068 277.65558
279.0 0.00358 277.54410 277.59427
261.0 0.00383 277.48865 277.54175
274.0 0.00365 277.43430 277.48975
274.0 0.00365 277.38110 277.44009
307.0 0.003257 277.32895 277.39185
269.0 0.00372 277.27795 277.34525
282.0 0.00355 277.22803 277.30008
298.0 0.003356 277.17923 277.25665
279.0 0.00358 277.13150 277.21487
313.0 0.003195 277.08484 277.17502
314.0 0.003185 277.03928 277.13715
277.0 0.00361 276.99475 277.10147
286.0 0.003497 276.95132 277.06857
264.0 0.00379 276.90894 277.03915
265.0 0.00377 276.86761 277.01453
294.0 0.003401 276.82733 276.99680
260.0 0.00385 276.78809 276.98965
246.0 0.00407 276.74985 276.99863
261.0 0.00383 276.71268 277.03204
280.0 0.00357 276.67648 277.10138
275.0 0.00364 276.64133 277.22137
294.0 0.003401 276.60712 277.40952
249.0 0.00402 276.57391 277.68384
266.0 0.00376 276.54172 278.06009
268.0 0.00373 276.51047 278.54767
279.0 0.00358 276.48019 279.14474
268.0 0.00373 276.45087 279.83487
299.0 0.003344 276.42245 280.58414
284.0 0.00352 276.39502 281.34143
285.0 0.00351 276.36847 282.04181
293.0 0.003413 276.34286 282.61227
316.0 0.003165 276.31815 282.98685
308.0 0.003247 276.29431 283.12683
293.0 0.003413 276.27136 283.03851
294.0 0.003401 276.24927 282.77112
291.0 0.003436 276.22803 282.39615
281.0 0.00356 276.20767 281.98300
294.0 0.003401 276.18811 281.58334
270.0 0.00370 276.16937 281.22449
273.0 0.00366 276.15146 280.90750
285.0 0.00351 276.13434 280.61249
282.0 0.00355 276.11801 280.30731
296.0 0.003378 276.10245 279.96411
270.0 0.00370 276.08762 279.57153
301.0 0.003322 276.07358 279.13718
287.0 0.003484 276.06024 278.68152
292.0 0.003425 276.04764 278.22867
270.0 0.00370 276.03574 277.80093
313.0 0.003195 276.02454 277.41608
260.0 0.00385 276.01404 277.08572
266.0 0.00376 276.00415 276.81409
266.0 0.00376 275.99493 276.59985
289.0 0.003460 275.98636 276.43692
261.0 0.00383 275.97842 276.31689
266.0 0.00376 275.97110 276.23053
289.0 0.003460 275.96436 276.16907
275.0 0.00364 275.95816 276.12546
270.0 0.00370 275.95258 276.09396
245.0 0.00408 275.94751 276.07043
278.0 0.00360 275.94299 276.05225
269.0 0.00372 275.93900 276.03915
273.0 0.00366 275.93549 276.02722
276.0 0.00362 275.93250 276.01706
332.0 0.003012 275.92996 276.00836
276.0 0.00362 275.92789 276.00092
315.0 0.003175 275.92627 275.99442
272.0 0.00368 275.92505 275.98895
260.0 0.00385 275.92426 275.98425
270.0 0.00370 275.92386 275.98041
272.0 0.00368 275.92383 275.97720
259.0 0.00386 275.92419 275.97540
273.0 0.00366 275.92490 275.97339
300.0 0.003333 275.92590 275.97208
282.0 0.00355 275.92725 275.97116
273.0 0.00366 275.92889 275.97083
285.0 0.00351 275.93079 275.97086
268.0 0.00373 275.93298 275.97134
299.0 0.003344 275.93542 275.97226
306.0 0.003268 275.93811 275.97351
255.0 0.00392 275.94098 275.97501
305.0 0.003279 275.94409 275.97693
277.0 0.00361 275.94736 275.97906
274.0 0.00365 275.95084 275.98154
254.0 0.00394 275.95441 275.98419
271.0 0.00369 275.95816 275.98700
275.0 0.00364 275.96201 275.99014
263.0 0.00380 275.96597 275.99329
253.0 0.00395 275.97003 275.99667
256.0 0.00391 275.97418 276.00021
245.0 0.00408 275.97833 276.00378
275.0 0.00364 275.98257 276.00751
291.0 0.003436 275.98682 276.01132
270.0 0.00370 275.99109 276.01517
254.0 0.00394 275.99533 276.01904
251.0 0.00398 275.99954 276.02292
258.0 0.00388 276.00372 276.02682
287.0 0.003484 276.00784 276.03070
275.0 0.00364 276.01190 276.03458
251.0 0.00398 276.01590 276.03848
296.0 0.003378 276.01974 276.04224
269.0 0.00372 276.02350 276.04590
271.0 0.00369 276.02713 276.04953
275.0 0.00364 276.03061 276.05307
287.0 0.003484 276.03391 276.05649
289.0 0.003460 276.03705 276.06897
261.0 0.00383 276.03998 276.07236
254.0 0.00394 276.04269 276.07553
261.0 0.00383 276.04523 276.07858
306.0 0.003268 276.04749 276.08145
285.0 0.00351 276.04953 276.08417
309.0 0.003236 276.05127 276.08673
271.0 0.00369 276.05276 276.08905
273.0 0.00366 276.05392 276.09131
275.0 0.00364 276.05481 276.09326
267.0 0.00375 276.05536 276.09509
272.0 0.00368 276.05560 276.10141
274.0 0.00365 276.05548 276.10306
265.0 0.00377 276.05499 276.10458
270.0 0.00370 276.05414 276.10635
263.0 0.00380 276.05289 276.10825
258.0 0.00388 276.05124 276.11069
273.0 0.00366 276.04922 276.10947
291.0 0.003436 276.04672 276.11472
273.0 0.00366 276.04382 276.12256
266.0 0.00376 276.04047 276.13373
268.0 0.00373 276.03665 276.14966
243.0 0.00412 276.03238 276.17551
269.0 0.00372 276.02762 276.20383
257.0 0.00389 276.02237 276.23914
290.0 0.003448 276.01660 276.28156
296.0 0.003378 276.01035 276.33438
268.0 0.00373 276.00357 276.38702
262.0 0.00382 275.99625 276.44193
249.0 0.00402 275.98840 276.49564
317.0 0.003155 275.97998 276.54541
257.0 0.00389 275.97101 276.58942
267.0 0.00375 275.96146 276.62833
250.0 0.00400 275.95135 276.66730
276.0 0.00362 275.94064 276.70801
274.0 0.00365 275.92932 276.75931
289.0 0.003460 275.91742 276.82849
275.0 0.00364 275.90491 276.92392
270.0 0.00370 275.89178 277.04193
266.0 0.00376 275.87802 277.18372
290.0 0.003448 275.86362 277.34274
264.0 0.00379 275.84857 277.50739
270.0 0.00370 275.83292 277.66220
278.0 0.00360 275.81659 277.78998
283.0 0.00353 275.79959 277.87390
273.0 0.00366 275.78195 277.90186
250.0 0.00400 275.76364 277.87054
304.0 0.003289 275.74463 277.78790
270.0 0.00370 275.72498 277.66925
298.0 0.003356 275.70462 277.53299
300.0 0.003333 275.68359 277.39493
296.0 0.003378 275.66187 277.26559
287.0 0.003484 275.63943 277.14972
326.0 0.003067 275.61633 277.04599
281.0 0.00356 275.59253 276.94833
274.0 0.00365 275.56799 276.84839
269.0 0.00372 275.54279 276.73950
320.0 0.003125 275.51685 276.61874
300.0 0.003333 275.49023 276.48801
303.0 0.003300 275.46286 276.35187
249.0 0.00402 275.43481 276.21582
281.0 0.00356 275.40607 276.08539
274.0 0.00365 275.37659 275.96494
264.0 0.00379 275.34637 275.85727
281.0 0.00356 275.31546 275.76398
280.0 0.00357 275.28384 275.68515
269.0 0.00372 275.25153 275.61969
276.0 0.00362 275.21848 275.56622
279.0 0.00358 275.18472 275.52328
275.0 0.00364 275.15027 275.48953
280.0 0.00357 275.11508 275.46454
276.0 0.00362 275.07922 275.44888
273.0 0.00366 275.04263 275.44507
268.0 0.00373 275.00537 275.45773
294.0 0.003401 274.96741 275.49475
289.0 0.003460 274.92871 275.56750
276.0 0.00362 274.88937 275.69235
264.0 0.00379 274.84930 275.89014
275.0 0.00364 274.80859 276.18549
293.0 0.003413 274.76718 276.60474
310.0 0.003226 274.72507 277.17252
271.0 0.00369 274.68231 277.90649
261.0 0.00383 274.63892 278.81161
309.0 0.003236 274.59482 279.87436
286.0 0.003497 274.55008 281.05859
285.0 0.00351 274.50470 282.30521
275.0 0.00364 274.45868 283.53140
264.0 0.00379 274.41199 284.63834
266.0 0.00376 274.36469 285.52045
312.0 0.003205 274.31677 286.08609
285.0 0.00351 274.26825 286.28687
282.0 0.00355 274.21912 286.13727
317.0 0.003155 274.16934 285.71115
278.0 0.00360 274.11899 285.11334
290.0 0.003448 274.06805 284.44928
288.0 0.003472 274.01654 283.80231
327.0 0.003058 273.96448 283.22598
282.0 0.00355 273.91180 282.73950
285.0 0.00351 273.85861 282.33331
272.0 0.00368 273.80487 281.97876
282.0 0.00355 273.75058 281.64594
284.0 0.00352 273.69577 281.32376
280.0 0.00357 273.64044 281.03009
302.0 0.003311 273.58456 280.80704
278.0 0.00360 273.52823 280.70700
257.0 0.00389 273.47141 280.77747
281.0 0.00356 273.41409 281.05649
291.0 0.003436 273.35629 281.54111
293.0 0.003413 273.29803 282.21716
270.0 0.00370 273.23935 283.03394
282.0 0.00355 273.18021 283.91412
296.0 0.003378 273.12064 284.76263
299.0 0.003344 273.06064 285.48413
302.0 0.003311 273.00021 285.99905
325.0 0.003077 272.93945 286.26828
276.0 0.00362 272.87823 286.24570
298.0 0.003356 272.81671 285.97076
274.0 0.00365 272.75476 285.48056
263.0 0.00380 272.69250 284.85516
303.0 0.003300 272.62985 284.17316
313.0 0.003195 272.56689 283.49084
276.0 0.00362 272.50360 282.83740
258.0 0.00388 272.44000 282.21393
331.0 0.003021 272.37613 281.60367
276.0 0.00362 272.31195 280.97992
271.0 0.00369 272.24750 280.32196
294.0 0.003401 272.18274 279.59747
294.0 0.003401 272.11777 278.81479
271.0 0.00369 272.05255 277.98123
307.0 0.003257 271.98709 277.13177
272.0 0.00368 271.92142 276.30032
284.0 0.00352 271.85550 275.51807
267.0 0.00375 271.78943 274.80774
262.0 0.00382 271.72311 274.18344
275.0 0.00364 271.65668 273.64853
262.0 0.00382 271.59003 273.20267
287.0 0.003484 271.52325 272.83545
271.0 0.00369 271.45630 272.53464
267.0 0.00375 271.38922 272.28720
283.0 0.00353 271.32205 272.08154
290.0 0.003448 271.25473 271.90735
266.0 0.00376 271.18732 271.75702
281.0 0.00356 271.11981 271.62402
284.0 0.00352 271.05219 271.50439
302.0 0.003311 270.98453 271.39520
285.0 0.00351 270.91678 271.29346
264.0 0.00379 270.84900 271.19910
246.0 0.00407 270.78116 271.11017
288.0 0.003472 270.71323 271.02576
254.0 0.00394 270.64532 270.94482
266.0 0.00376 270.57739 270.86697
268.0 0.00373 270.50946 270.79141
299.0 0.003344 270.44150 270.71786
261.0 0.00383 270.37354 270.64584
234.0 0.00427 270.30560 270.57535
257.0 0.00389 270.23767 270.50595
277.0 0.00361 270.16980 270.43784
277.0 0.00361 270.10193 270.37094
274.0 0.00365 270.03409 270.30530
255.0 0.00392 269.96631 270.24115
250.0 0.00400 269.89859 270.17841
277.0 0.00361 269.83093 270.11777
272.0 0.00368 269.76334 270.05838
248.0 0.00403 269.69577 270.00067
251.0 0.00398 269.62833 269.94464
275.0 0.00364 269.56094 269.89020
295.0 0.003390 269.49365 269.83701
254.0 0.00394 269.42645 269.78500
254.0 0.00394 269.35934 269.73355
299.0 0.003344 269.29233 269.68253
281.0 0.00356 269.22540 269.63168
281.0 0.00356 269.15860 269.58093
293.0 0.003413 269.09186 269.53088
262.0 0.00382 269.02527 269.48175
274.0 0.00365 268.95877 269.43481
284.0 0.00352 268.89236 269.39130
260.0 0.00385 268.82611 269.35297
258.0 0.00388 268.75995 269.32184
289.0 0.003460 268.69388 269.30121
275.0 0.00364 268.62796 269.28622
235.0 0.00426 268.56213 269.30200
257.0 0.00389 268.49640 269.34766
314.0 0.003185 268.43079 269.43478
260.0 0.00385 268.36533 269.57779
267.0 0.00375 268.29993 269.79333
232.0 0.00431 268.23465 270.10034
261.0 0.00383 268.16946 270.51715
266.0 0.00376 268.10437 271.06158
262.0 0.00382 268.03937 271.74817
257.0 0.00389 267.97449 272.58307
283.0 0.00353 267.90967 273.58316
282.0 0.00355 267.84494 274.74634
301.0 0.003322 267.78030 276.07263
275.0 0.00364 267.71573 277.55753
279.0 0.00358 267.65121 279.19824
270.0 0.00370 267.58676 280.97986
272.0 0.00368 267.52237 282.90390
261.0 0.00383 267.45804 284.97202
280.0 0.00357 267.39371 287.17392
275.0 0.00364 267.32944 289.46973
282.0 0.00355 267.26517 291.77621
304.0 0.003289 267.20096 293.95605
274.0 0.00365 267.13669 295.84891
296.0 0.003378 267.07245 297.26938
296.0 0.003378 267.00821 298.06058
287.0 0.003484 266.94391 298.16034
333.0 0.003003 266.87961 297.57513
313.0 0.003195 266.81525 296.41681
327.0 0.003058 266.75082 294.85809
305.0 0.003279 266.68637 293.09109
289.0 0.003460 266.62180 291.28326
281.0 0.00356 266.55713 289.54932
281.0 0.00356 266.49237 287.94608
272.0 0.00368 266.42749 286.46347
263.0 0.00380 266.36249 285.04910
308.0 0.003247 266.29733 283.62817
314.0 0.003185 266.23203 282.14899
270.0 0.00370 266.16653 280.57864
276.0 0.00362 266.10083 278.92563
276.0 0.00362 266.03497 277.22885
279.0 0.00358 265.96884 275.54199
264.0 0.00379 265.90253 273.92355
239.0 0.00418 265.83594 272.42273
271.0 0.00369 265.76907 271.07791
283.0 0.00353 265.70197 269.91171
253.0 0.00395 265.63452 268.93018
272.0 0.00368 265.56677 268.13367
257.0 0.00389 265.49869 267.49240
267.0 0.00375 265.43024 266.98938
282.0 0.00355 265.36145 266.59906
236.0 0.00424 265.29227 266.29642
274.0 0.00365 265.22269 266.05954
262.0 0.00382 265.15265 265.87006
282.0 0.00355 265.08221 265.71414
289.0 0.003460 265.01132 265.58160
260.0 0.00385 264.93991 265.46548
238.0 0.00420 264.86807 265.36160
293.0 0.003413 264.79565 265.27032
266.0 0.00376 264.72272 265.18445
244.0 0.00410 264.64926 265.10681
248.0 0.00403 264.57520 265.03735
255.0 0.00392 264.50058 264.97632
240.0 0.00417 264.42532 264.92352
265.0 0.00377 264.34946 264.87830
255.0 0.00392 264.27295 264.83936
279.0 0.00358 264.19574 264.80453
263.0 0.00380 264.11795 264.77087
261.0 0.00383 264.03934 264.73462
242.0 0.00413 263.96008 264.69189
273.0 0.00366 263.88000 264.63861
274.0 0.00365 263.79922 264.57202
279.0 0.00358 263.71771 264.49045
249.0 0.00402 263.63531 264.39520
260.0 0.00385 263.55215 264.28943
250.0 0.00400 263.46811 264.17709
230.0 0.00435 263.38324 264.06210
249.0 0.00402 263.29758 263.94754
273.0 0.00366 263.21094 263.83499
252.0 0.00397 263.12344 263.72531
268.0 0.00373 263.03497 263.61792
274.0 0.00365 262.94559 263.51157
272.0 0.00368 262.85535 263.40454
229.0 0.00437 262.76401 263.29581
252.0 0.00397 262.67175 263.18539
263.0 0.00380 262.57846 263.07471
308.0 0.003247 262.48416 262.96649
281.0 0.00356 262.38892 262.86475
260.0 0.00385 262.29251 262.77448
272.0 0.00368 262.19513 262.70187
255.0 0.00392 262.09659 262.65457
293.0 0.003413 261.99701 262.64111
270.0 0.00370 261.89642 262.67111
284.0 0.00352 261.79459 262.75369
298.0 0.003356 261.69174 262.89688
320.0 0.003125 261.58768 263.10629
255.0 0.00392 261.48248 263.38232
282.0 0.00355 261.37628 263.71942
228.0 0.00439 261.26874 264.10547
279.0 0.00358 261.16013 264.51889
326.0 0.003067 261.05029 264.93225
258.0 0.00388 260.93927 265.31073
282.0 0.00355 260.82721 265.61658
316.0 0.003165 260.71378 265.81476
282.0 0.00355 260.59921 265.87863
277.0 0.00361 260.48340 265.80084
314.0 0.003185 260.36642 265.58929
284.0 0.00352 260.24832 265.28711
248.0 0.00403 260.12888 264.92535
274.0 0.00365 260.00833 264.54056
259.0 0.00386 259.88641 264.15973
241.0 0.00415 259.76340 263.80069
268.0 0.00373 259.63922 263.46808
267.0 0.00375 259.51373 263.15567
280.0 0.00357 259.38712 262.83685
269.0 0.00372 259.25916 262.52039
273.0 0.00366 259.13013 262.16666
281.0 0.00356 258.99994 261.79495
269.0 0.00372 258.86847 261.39471
282.0 0.00355 258.73593 260.97598
265.0 0.00377 258.60208 260.55035
263.0 0.00380 258.46713 260.13089
284.0 0.00352 258.33115 259.72876
232.0 0.00431 258.19388 259.35193
268.0 0.00373 258.05560 259.00668
257.0 0.00389 257.91611 258.68848
248.0 0.00403 257.77554 258.41068
274.0 0.00365 257.63406 258.15976
249.0 0.00402 257.49124 257.94113
259.0 0.00386 257.34760 257.74652
284.0 0.00352 257.20279 257.57175
269.0 0.00372 257.05701 257.41461
227.0 0.00441 256.91040 257.27423
264.0 0.00379 256.76257 257.15134
237.0 0.00422 256.61398 257.04987
253.0 0.00395 256.46436 256.97617
262.0 0.00382 256.31387 256.93933
261.0 0.00383 256.16272 256.95175
210.0 0.00476 256.01047 257.02765
260.0 0.00385 255.85753 257.18246
268.0 0.00373 255.70372 257.43124
250.0 0.00400 255.54921 257.78522
231.0 0.00433 255.39413 258.24945
260.0 0.00385 255.23816 258.82132
276.0 0.00362 255.08163 259.48456
263.0 0.00380 254.92441 260.21243
257.0 0.00389 254.76663 260.96341
234.0 0.00427 254.60849 261.68488
271.0 0.00369 254.44962 262.31827
259.0 0.00386 254.29037 262.79996
254.0 0.00394 254.13060 263.08252
252.0 0.00397 253.97050 263.12439
239.0 0.00418 253.81021 262.93402
261.0 0.00383 253.64941 262.54736
272.0 0.00368 253.48845 262.02319
238.0 0.00420 253.32716 261.42398
263.0 0.00380 253.16577 260.80627
282.0 0.00355 253.00441 260.21097
284.0 0.00352 252.84276 259.65866
250.0 0.00400 252.68120 259.15390
246.0 0.00407 252.51952 258.68140
271.0 0.00369 252.35799 258.21777
269.0 0.00372 252.19673 257.73770
237.0 0.00422 252.03543 257.21484
286.0 0.003497 251.87448 256.64685
238.0 0.00420 251.71367 256.04065
230.0 0.00435 251.55325 255.41418
260.0 0.00385 251.39339 254.78830
263.0 0.00380 251.23373 254.18132
245.0 0.00408 251.07468 253.61101
283.0 0.00353 250.91606 253.08788
263.0 0.00380 250.75816 252.61870
244.0 0.00410 250.60097 252.20375
230.0 0.00435 250.44434 251.83853
266.0 0.00376 250.28864 251.51628
233.0 0.00429 250.13354 251.22751
212.0 0.00472 249.97951 250.96436
257.0 0.00389 249.82649 250.72012
259.0 0.00386 249.67429 250.49001
234.0 0.00427 249.52332 250.27194
242.0 0.00413 249.37332 250.06400
252.0 0.00397 249.22455 249.86552
240.0 0.00417 249.07712 249.67572
254.0 0.00394 248.93082 249.49309
242.0 0.00413 248.78604 249.31668
249.0 0.00402 248.64253 249.14429
250.0 0.00400 248.50053 248.97426
251.0 0.00398 248.36017 248.80508
259.0 0.00386 248.22124 248.63544
296.0 0.003378 248.08411 248.46556
266.0 0.00376 247.94853 248.29585
239.0 0.00418 247.81476 248.12738
259.0 0.00386 247.68294 247.96159
265.0 0.00377 247.55275 247.79442
264.0 0.00379 247.42470 247.63681
230.0 0.00435 247.29845 247.48415
268.0 0.00373 247.17430 247.33720
244.0 0.00410 247.05235 247.19615
241.0 0.00415 246.93237 247.06052
231.0 0.00433 246.81467 246.93036
238.0 0.00420 246.69911 246.80504
247.0 0.00405 246.58588 246.68442
228.0 0.00439 246.47510 246.56798
259.0 0.00386 246.36653 246.45522
283.0 0.00353 246.26047 246.34608
248.0 0.00403 246.15680 246.23784
246.0 0.00407 246.05566 246.13506
272.0 0.00368 245.95718 246.03539
234.0 0.00427 245.86118 245.93855
248.0 0.00403 245.76784 245.84471
243.0 0.00412 245.67709 245.75375
244.0 0.00410 245.58910 245.66571
217.0 0.00461 245.50391 245.58075
258.0 0.00388 245.42136 245.49861
260.0 0.00385 245.34166 245.41957
208.0 0.00481 245.26471 245.34346
251.0 0.00398 245.19063 245.27049
239.0 0.00418 245.11951 245.20073
255.0 0.00392 245.05113 245.13393
251.0 0.00398 244.98573 245.07033
255.0 0.00392 244.92320 245.00995
276.0 0.00362 244.86360 244.95276
248.0 0.00403 244.80704 244.89893
245.0 0.00408 244.75331 244.84828
235.0 0.00426 244.70259 244.80103
243.0 0.00412 244.65482 244.75717
233.0 0.00429 244.60999 244.71680
237.0 0.00422 244.56819 244.67996
229.0 0.00437 244.52927 244.64665
252.0 0.00397 244.49335 244.61717
242.0 0.00413 244.46033 244.59155
254.0 0.00394 244.43024 244.57025
275.0 0.00364 244.40311 244.55371
250.0 0.00400 244.37880 244.54266
241.0 0.00415 244.35741 244.53842
250.0 0.00400 244.33885 244.54286
249.0 0.00402 244.32310 244.55873
247.0 0.00405 244.31017 244.59395
233.0 0.00429 244.29996 244.64618
228.0 0.00439 244.29248 244.72632
240.0 0.00417 244.28766 244.84328
270.0 0.00370 244.28549 245.00726
248.0 0.00403 244.28590 245.22917
221.0 0.00452 244.28886 245.52052
242.0 0.00413 244.29430 245.88995
237.0 0.00422 244.30215 246.34370
229.0 0.00437 244.31239 246.88153
263.0 0.00380 244.32494 247.49594
241.0 0.00415 244.33972 248.17427
238.0 0.00420 244.35667 248.88782
250.0 0.00400 244.37572 249.60834
274.0 0.00365 244.39680 250.29102
263.0 0.00380 244.41980 250.89369
274.0 0.00365 244.44472 251.37451
267.0 0.00375 244.47137 251.69809
248.0 0.00403 244.49974 251.84274
241.0 0.00415 244.52971 251.82820
241.0 0.00415 244.56116 251.67798
251.0 0.00398 244.59407 251.43402
272.0 0.00368 244.62823 251.14096
224.0 0.00446 244.66365 250.83675
247.0 0.00405 244.70018 250.55003
250.0 0.00400 244.73766 250.29428
239.0 0.00418 244.77606 250.07117
237.0 0.00422 244.81522 249.87112
262.0 0.00382 244.85507 249.67557
270.0 0.00370 244.89543 249.46104
263.0 0.00380 244.93619 249.21758
243.0 0.00412 244.97729 248.93433
255.0 0.00392 245.01855 248.61520
262.0 0.00382 245.05991 248.27039
243.0 0.00412 245.10115 247.91481
236.0 0.00424 245.14215 247.56384
236.0 0.00424 245.18288 247.23035
249.0 0.00402 245.22311 246.92619
212.0 0.00472 245.26279 246.65851
256.0 0.00391 245.30168 246.43173
247.0 0.00405 245.33971 246.24684
236.0 0.00424 245.37677 246.10132
274.0 0.00365 245.41267 245.99129
238.0 0.00420 245.44734 245.91209
254.0 0.00394 245.48058 245.85794
247.0 0.00405 245.51224 245.82343
242.0 0.00413 245.54225 245.80588
246.0 0.00407 245.57045 245.79674
284.0 0.00352 245.59671 245.79486
245.0 0.00408 245.62090 245.79767
244.0 0.00410 245.64285 245.80319
233.0 0.00429 245.66249 245.81010
241.0 0.00415 245.67963 245.81728
216.0 0.00463 245.69421 245.82399
242.0 0.00413 245.70607 245.82953
235.0 0.00426 245.71506 245.83374
238.0 0.00420 245.72113 245.83635
244.0 0.00410 245.72411 245.83688
267.0 0.00375 245.72391 245.83545
268.0 0.00373 245.72041 245.83296
222.0 0.00450 245.71353 245.82713
247.0 0.00405 245.70316 245.81894
246.0 0.00407 245.68919 245.80838
226.0 0.00442 245.67154 245.79527
243.0 0.00412 245.65013 245.77946
252.0 0.00397 245.62488 245.76065
272.0 0.00368 245.59570 245.73846
264.0 0.00379 245.56258 245.71259
260.0 0.00385 245.52536 245.68561
278.0 0.00360 245.48407 245.65086
293.0 0.003413 245.43864 245.61104
230.0 0.00435 245.38902 245.56569
251.0 0.00398 245.33522 245.51479
241.0 0.00415 245.27715 245.45827
263.0 0.00380 245.21481 245.39658
250.0 0.00400 245.14828 245.33012
242.0 0.00413 245.07745 245.25932
242.0 0.00413 245.00246 245.18477
260.0 0.00385 244.92317 245.10669
274.0 0.00365 244.83972 245.02547
232.0 0.00431 244.75226 244.94308
231.0 0.00433 244.66055 244.85643
243.0 0.00412 244.56499 244.76775
234.0 0.00427 244.46538 244.67734
261.0 0.00383 244.36197 244.58650
257.0 0.00389 244.25493 244.49677
250.0 0.00400 244.14413 244.41048
274.0 0.00365 244.02991 244.33115
252.0 0.00397 243.91228 244.26320
234.0 0.00427 243.79147 244.21227
230.0 0.00435 243.66777 244.18500
252.0 0.00397 243.54106 244.18892
259.0 0.00386 243.41176 244.23169
241.0 0.00415 243.27995 244.32083
241.0 0.00415 243.14597 244.46198
229.0 0.00437 243.01012 244.65842
225.0 0.00444 242.87236 244.91016
270.0 0.00370 242.73323 245.21162
248.0 0.00403 242.59280 245.55330
228.0 0.00439 242.45155 245.91919
248.0 0.00403 242.30986 246.28886
244.0 0.00410 242.16771 246.63896
225.0 0.00444 242.02574 246.94254
237.0 0.00422 241.88409 247.17508
228.0 0.00439 241.74330 247.31711
268.0 0.00373 241.60384 247.36050
266.0 0.00376 241.46574 247.31136
233.0 0.00429 241.32971 247.18826
245.0 0.00408 241.19598 247.01653
246.0 0.00407 241.06514 246.82175
239.0 0.00418 240.93768 246.62436
236.0 0.00424 240.81380 246.43605
225.0 0.00444 240.69418 246.25993
278.0 0.00360 240.57915 246.08952
239.0 0.00418 240.46931 245.91168
244.0 0.00410 240.36523 245.70941
240.0 0.00417 240.26718 245.46631
245.0 0.00408 240.17584 245.17361
249.0 0.00402 240.09160 244.83081
233.0 0.00429 240.01512 244.44763
260.0 0.00385 239.94691 244.03993
242.0 0.00413 239.88736 243.61934
223.0 0.00448 239.83711 243.21448
236.0 0.00424 239.79663 242.83340
254.0 0.00394 239.76648 242.48663
214.0 0.00467 239.74719 242.17989
233.0 0.00429 239.73921 241.91389
237.0 0.00422 239.74309 241.68756
241.0 0.00415 239.75934 241.49736
236.0 0.00424 239.78841 241.34041
230.0 0.00435 239.83072 241.21515
233.0 0.00429 239.88683 241.12108
257.0 0.00389 239.95705 241.05957
252.0 0.00397 240.04192 241.03049
244.0 0.00410 240.14172 241.04222
267.0 0.00375 240.25673 241.09581
225.0 0.00444 240.38750 241.19540
245.0 0.00408 240.53401 241.34499
206.0 0.00485 240.69684 241.54832
262.0 0.00382 240.87595 241.80780
231.0 0.00433 241.07132 242.12419
235.0 0.00426 241.28362 242.49721
248.0 0.00403 241.51225 242.92232
249.0 0.00402 241.75769 243.39409
282.0 0.00355 242.01956 243.90265
237.0 0.00422 242.29744 244.43576
285.0 0.00351 242.59192 244.98044
250.0 0.00400 242.90173 245.51949
243.0 0.00412 243.22719 246.03798
233.0 0.00429 243.56735 246.52104
267.0 0.00375 243.92134 246.95935
249.0 0.00402 244.28928 247.35127
250.0 0.00400 244.66956 247.70250
267.0 0.00375 245.06172 248.02621
251.0 0.00398 245.46426 248.33859
273.0 0.00366 245.87563 248.65614
258.0 0.00388 246.29541 248.99483
261.0 0.00383 246.72116 249.36586
235.0 0.00426 247.15172 249.77788
265.0 0.00377 247.58473 250.23425
237.0 0.00422 248.01778 250.73434
258.0 0.00388 248.44958 251.27393
269.0 0.00372 248.87672 251.84445
248.0 0.00403 249.29701 252.43739
239.0 0.00418 249.70702 253.04128
245.0 0.00408 250.10324 253.64499
265.0 0.00377 250.48309 254.23761
280.0 0.00357 250.84198 254.80342
267.0 0.00375 251.17633 255.32613
257.0 0.00389 251.48135 255.78586
245.0 0.00408 251.75221 256.16193
255.0 0.00392 251.98445 256.43713
246.0 0.00407 252.17215 256.59824
259.0 0.00386 252.30975 256.64139
259.0 0.00386 252.39091 256.57037
236.0 0.00424 252.40909 256.39600
242.0 0.00413 252.35725 256.12964
256.0 0.00391 252.22795 255.78207
255.0 0.00392 252.01305 255.35860
239.0 0.00418 251.70425 254.86008
247.0 0.00405 251.29300 254.28159
272.0 0.00368 250.76872 253.61028
228.0 0.00439 250.12233 252.83118
260.0 0.00385 249.34222 251.92290
237.0 0.00422 248.41820 250.86537
243.0 0.00412 247.33820 249.63876
229.0 0.00437 246.08797 248.22429
287.0 0.003484 244.65683 246.61220
246.0 0.00407 243.02710 244.78853
229.0 0.00437 241.18782 242.74867
257.0 0.00389 239.12254 240.48291
240.0 0.00417 236.81177 237.97789
228.0 0.00439 234.24297 235.22699
256.0 0.00391 231.39259 232.21075
228.0 0.00439 228.24515 228.91682
241.0 . . .
loop_
_refln_index_h
_refln_index_k
_refln_index_l
_pd_refln_wavelength_id
_refln_observed_status
_refln_F_squared_meas
_refln_F_squared_calc
_refln_phase_calc
_refln_d_spacing
_gsas_i100_meas
0 0 1 1 o 405.290 413.990 0.00 7.40222 32.30
0 0 1 2 o 396.696 413.990 0.00 7.40222 15.75
1 0 1 1 o 161.410 158.592 180.00 4.78059 29.95
1 0 1 2 o 165.610 158.592 180.00 4.78059 15.28
1 1 0 1 o 102.187 87.517 180.00 4.42761 7.58
1 1 0 2 o 96.356 87.517 180.00 4.42761 3.54
1 1 1 1 o 931.711 921.861 0.00 3.79974 100.00
1 1 1 2 o 939.447 921.861 0.00 3.79974 50.14
0 0 2 1 o 658.326 591.693 0.00 3.70111 12.21
0 0 2 2 o 570.249 591.693 0.00 3.70111 5.30
1 0 2 1 o 69.255 61.537 180.00 3.18614 4.39
1 0 2 2 o 77.964 61.537 180.00 3.18614 2.45
2 0 0 1 o 2334.803 2265.543 180.00 3.13079 58.63
2 0 0 2 o 2284.507 2265.543 180.00 3.13079 28.55
2 0 1 1 o 268.545 252.858 180.00 2.88348 19.20
2 0 1 2 o 248.756 252.858 180.00 2.88348 8.89
1 1 2 1 o 368.577 355.120 0.00 2.83966 17.69
1 1 2 2 o 365.454 355.120 0.00 2.83966 8.72
2 1 1 1 o 29.479 35.658 0.00 2.61912 2.89
2 1 1 2 o 24.989 35.658 0.00 2.61912 1.22
0 0 3 1 o 696.805 378.366 0.00 2.46741 5.22
0 0 3 2 o 615.257 378.366 0.00 2.46741 2.30
2 0 2 1 o 221.801 254.302 180.00 2.39029 9.81
2 0 2 2 o 196.825 254.302 180.00 2.39029 4.37
1 0 3 1 o 17.625 12.218 180.00 2.29560 0.51
1 0 3 2 o 30.036 12.218 180.00 2.29560 0.43
2 1 2 1 o 64.955 55.174 0.00 2.23311 4.11
2 1 2 2 o 61.561 55.174 0.00 2.23311 1.94
2 2 0 1 o 813.160 861.148 0.00 2.21380 14.93
2 2 0 2 o 747.579 861.148 0.00 2.21380 6.85
1 1 3 1 o 96.583 124.497 0.00 2.15532 2.66
1 1 3 2 o 86.685 124.497 0.00 2.15532 1.20
2 2 1 1 o 242.359 159.785 0.00 2.12098 8.13
2 2 1 2 o 213.375 159.785 0.00 2.12098 3.58
3 0 1 1 o -0.163 9.728 0.00 2.00886 0.00
3 0 1 2 o -0.163 9.728 0.00 2.00886 0.00
3 1 0 1 o 16.989 0.406 0.00 1.98009 0.31
3 1 0 2 o 11.096 0.406 0.00 1.98009 0.10
2 0 3 1 o 202.818 174.392 180.00 1.93791 4.58
2 0 3 2 o 215.245 174.392 180.00 1.93791 2.41
3 1 1 1 o 127.467 126.922 180.00 1.91283 5.79
3 1 1 2 o 117.175 126.922 180.00 1.91283 2.66
2 2 2 1 o 150.001 122.149 0.00 1.89987 3.46
2 2 2 2 o 140.457 122.149 0.00 1.89987 1.62
2 1 3 1 o 3.817 3.761 0.00 1.85127 0.14
0 0 4 1 o 12.277 11.799 0.00 1.85055 0.06
2 1 3 2 o 4.580 3.761 0.00 1.85127 0.08
0 0 4 2 o 17.538 11.799 0.00 1.85055 0.04
3 0 2 1 o 15.618 40.354 0.00 1.81803 0.39
3 0 2 2 o 8.534 40.354 0.00 1.81803 0.11
1 0 4 1 o 3.535 2.170 180.00 1.77467 0.05
1 0 4 2 o 10.391 2.170 180.00 1.77467 0.08
3 1 2 1 o 97.850 83.121 180.00 1.74593 4.12
3 1 2 2 o 99.685 83.121 180.00 1.74593 2.08
1 1 4 1 o 229.869 225.412 0.00 1.70742 3.42
1 1 4 2 o 239.619 225.412 0.00 1.70742 1.77
3 2 1 1 o 5.097 1.212 180.00 1.69074 0.18
3 2 1 2 o 5.368 1.212 180.00 1.69074 0.09
2 2 3 1 o 73.988 87.340 0.00 1.64778 1.06
2 2 3 2 o 64.697 87.340 0.00 1.64778 0.47
3 0 3 1 o 0.548 1.488 0.00 1.59353 0.01
2 0 4 1 o 1.191 4.268 180.00 1.59307 0.03
3 0 3 2 o 1.168 1.488 0.00 1.59353 0.01
2 0 4 2 o 3.187 4.268 180.00 1.59307 0.03
3 2 2 2 o 24.150 34.951 180.00 1.57218 0.36
3 2 2 1 o 18.330 34.951 180.00 1.57218 0.55
4 0 0 1 o 186.481 209.279 0.00 1.56539 0.96
4 0 0 2 o 150.017 209.279 0.00 1.56539 0.39
3 1 3 1 o 62.817 36.640 180.00 1.54430 1.79
2 1 4 1 o 3.462 2.073 0.00 1.54389 0.08
3 1 3 2 o 58.147 36.640 180.00 1.54430 0.83
2 1 4 2 o 3.148 2.073 0.00 1.54389 0.04
4 0 1 1 o 110.590 51.993 0.00 1.53152 1.35
4 0 1 2 o 98.548 51.993 0.00 1.53152 0.60
4 1 1 1 o -0.015 0.455 180.00 1.48767 0.00
4 1 1 2 o -0.015 0.455 180.00 1.48767 0.00
0 0 5 1 o -2.005 14.439 0.00 1.48044 0.00
0 0 5 2 o 39.693 14.439 0.00 1.48044 0.04
3 3 0 1 o 13.560 2.149 0.00 1.47587 0.10
3 3 0 2 o 14.738 2.149 0.00 1.47587 0.05
3 3 1 1 o 24.455 21.085 0.00 1.44738 0.34
3 3 1 2 o 28.381 21.085 0.00 1.44738 0.19
4 0 2 1 o 35.448 36.842 0.00 1.44174 0.50
1 0 5 1 o 6.949 8.976 180.00 1.44072 0.06
4 0 2 2 o 4.095 36.842 0.00 1.44174 0.05
1 0 5 2 o -0.133 8.976 180.00 1.44072 0.00
3 2 3 1 o -0.014 0.310 180.00 1.42015 0.00
2 2 4 1 o -0.650 1.327 0.00 1.41983 0.00
3 2 3 2 o -0.014 0.310 180.00 1.42015 0.00
2 2 4 2 o -0.650 1.327 0.00 1.41983 0.00
4 1 2 1 o 21.323 22.182 180.00 1.40498 0.50
1 1 5 1 o 53.013 57.042 0.00 1.40404 0.49
4 1 2 2 o 24.870 22.182 180.00 1.40498 0.29
1 1 5 2 o 69.168 57.042 0.00 1.40404 0.31
4 2 0 1 o 118.212 95.283 180.00 1.40013 1.10
4 2 0 2 o 86.110 95.283 180.00 1.40013 0.41
3 0 4 1 o 6.995 1.508 0.00 1.38468 0.07
3 0 4 2 o 6.223 1.508 0.00 1.38468 0.03
4 2 1 1 o 78.993 38.101 180.00 1.37574 1.53
4 2 1 2 o 79.134 38.101 180.00 1.37574 0.76
3 3 2 1 o 49.580 25.055 0.00 1.37089 0.56
3 3 2 2 o 13.245 25.055 0.00 1.37089 0.08
3 1 4 1 o 51.899 78.931 180.00 1.35201 1.00
3 1 4 2 o 50.342 78.931 180.00 1.35201 0.48
2 0 5 1 o 1.822 8.433 180.00 1.33836 0.02
2 0 5 2 o -1.211 8.433 180.00 1.33836 0.00
4 0 3 1 o 15.102 25.757 0.00 1.32182 0.19
4 0 3 2 o 34.601 25.757 0.00 1.32182 0.20
4 2 2 1 o 42.547 20.490 180.00 1.30956 0.83
2 1 5 1 o 6.641 3.198 0.00 1.30879 0.10
4 2 2 2 o 39.760 20.490 180.00 1.30956 0.39
2 1 5 2 o 5.189 3.198 0.00 1.30879 0.04
4 1 3 1 o 1.504 0.245 180.00 1.29332 0.03
4 1 3 2 o 0.499 0.245 180.00 1.29332 0.00
3 3 3 1 o 22.685 12.577 0.00 1.26658 0.20
3 2 4 1 o 2.675 1.415 180.00 1.26635 0.04
3 3 3 2 o 23.047 12.577 0.00 1.26658 0.10
3 2 4 2 o 2.387 1.415 180.00 1.26635 0.02
5 0 1 1 o -0.003 0.046 180.00 1.23477 0.00
4 3 1 1 o -0.002 0.432 180.00 1.23477 0.00
0 0 6 1 o -0.490 1.960 0.00 1.23370 0.00
5 0 1 2 o -0.003 0.046 180.00 1.23477 0.00
4 3 1 2 o -0.002 0.432 180.00 1.23477 0.00
0 0 6 2 o 2.247 1.960 0.00 1.23370 0.00
2 2 5 1 o 6.571 5.055 0.00 1.23063 0.05
5 1 0 1 o 1.014 0.016 0.00 1.22800 0.01
2 2 5 2 o 44.804 5.055 0.00 1.23063 0.15
5 1 0 2 o 0.190 0.016 0.00 1.22800 0.00
4 2 3 1 o 22.371 14.275 180.00 1.21774 0.38
4 2 3 2 o 19.366 14.275 180.00 1.21774 0.16
5 1 1 1 o 12.155 8.215 0.00 1.21144 0.16
1 0 6 1 o 44.258 28.902 0.00 1.21043 0.26
5 1 1 2 o 14.212 8.215 0.00 1.21144 0.09
3 0 5 1 o 2.315 1.322 0.00 1.20753 0.02
1 0 6 2 o 50.891 28.902 0.00 1.21043 0.15
3 0 5 2 o 7.210 1.322 0.00 1.20753 0.02
4 0 4 1 o 1.027 0.031 0.00 1.19515 0.01
4 0 4 2 o 0.023 0.031 0.00 1.19515 0.00
1 1 6 1 o 10.798 24.294 0.00 1.18843 0.07
4 3 2 1 o 14.382 16.272 0.00 1.18625 0.23
5 0 2 1 o 8.869 10.035 180.00 1.18625 0.07
3 1 5 1 o 17.283 18.034 180.00 1.18568 0.24
1 1 6 2 o 23.698 24.294 0.00 1.18843 0.07
5 0 2 2 o 8.228 10.035 180.00 1.18625 0.03
4 3 2 2 o 13.344 16.272 0.00 1.18625 0.11
3 1 5 2 o 11.969 18.034 180.00 1.18568 0.09
4 1 4 1 o -0.020 0.777 180.00 1.17395 0.00
4 1 4 2 o 2.091 0.777 180.00 1.17395 0.02
5 1 2 1 o 41.413 7.215 0.00 1.16552 0.62
5 1 2 2 o 27.251 7.215 0.00 1.16552 0.20
3 3 4 1 o 9.323 31.925 0.00 1.15385 0.07
3 3 4 2 o 34.938 31.925 0.00 1.15385 0.11
5 2 1 1 o 0.001 0.130 180.00 1.14866 0.00
2 0 6 1 o -0.348 1.636 180.00 1.14780 0.00
5 2 1 2 o 0.933 0.130 180.00 1.14866 0.01
2 0 6 2 o 28.928 1.636 180.00 1.14780 0.08
2 1 6 1 o 20.262 14.957 180.00 1.12899 0.23
3 2 5 1 o 0.357 0.278 180.00 1.12663 0.00
2 1 6 2 o 18.985 14.957 180.00 1.12899 0.11
3 2 5 2 o 0.946 0.278 180.00 1.12663 0.01
4 3 3 1 o 0.013 0.000 180.00 1.11672 0.00
5 0 3 1 o 7.645 0.148 180.00 1.11672 0.06
4 2 4 1 o 2.144 0.020 0.00 1.11656 0.03
4 3 3 2 o 0.005 0.000 180.00 1.11672 0.00
5 0 3 2 o 2.816 0.148 180.00 1.11672 0.01
4 2 4 2 o 0.762 0.020 0.00 1.11656 0.01
5 2 2 1 o 8.882 9.606 0.00 1.10929 0.12
4 4 0 1 o 7.864 11.771 0.00 1.10690 0.03
5 2 2 2 o 5.345 9.606 0.00 1.10929 0.04
4 4 0 2 o 4.276 11.771 0.00 1.10690 0.01
5 1 3 1 o 16.683 4.314 0.00 1.09937 0.26
5 1 3 2 o 9.227 4.314 0.00 1.09937 0.07
4 4 1 1 o 8.266 12.626 0.00 1.09473 0.07
4 4 1 2 o 16.066 12.626 0.00 1.09473 0.06
