#------------------------------------------------------------------------------
#$Date: 2016-02-14 16:26:36 +0200 (Sun, 14 Feb 2016) $
#$Revision: 176435 $
#$URL: svn://www.crystallography.net/cod/cif/1/51/62/1516204.cif $
#------------------------------------------------------------------------------
#
# This file is available in the Crystallography Open Database (COD),
# http://www.crystallography.net/
#
# All data on this site have been placed in the public domain by the
# contributors.
#
data_1516204
loop_
_publ_author_name
'Migliorati, Valentina'
'Ballirano, Paolo'
'Gontrani, Lorenzo'
'Russina, Olga'
'Caminiti, Ruggero'
_publ_section_title
;
 Crystal polymorphism of propylammonium chloride and structural properties
 of its mixture with water.
;
_journal_issue                   41
_journal_name_full               'The journal of physical chemistry. B'
_journal_page_first              11805
_journal_page_last               11815
_journal_paper_doi               10.1021/jp206831d
_journal_volume                  115
_journal_year                    2011
_chemical_formula_sum            'C3 Cl N'
_chemical_formula_weight         85.49
_chemical_name_systematic        ' ?'
_space_group_IT_number           129
_symmetry_cell_setting           tetragonal
_symmetry_space_group_name_Hall  '-P 4a 2a'
_symmetry_space_group_name_H-M   'P 4/n m m :2'
_audit_creation_date             2011-07-21T08:52
_audit_creation_method           'from EXP file using GSAS2CIF'
_audit_update_record
' 2011-07-21T08:52  Initial CIF as created by GSAS2CIF'
_cell_angle_alpha                90.0
_cell_angle_beta                 90.0
_cell_angle_gamma                90.0
_cell_formula_units_Z            2
_cell_length_a                   6.24356(7)
_cell_length_b                   6.24356
_cell_length_c                   7.38323(18)
_cell_volume                     287.813(8)
_computing_structure_refinement  GSAS
_diffrn_radiation_probe          x-ray
_exptl_absorpt_correction_T_max  0.81792
_exptl_absorpt_correction_T_min  0.81483
_exptl_absorpt_process_details
;   GSAS Absorption/surface roughness correction: function number 0
 Debye-Scherrer absorption correction
Term (= MU.r/wave) =     0.78580E-01
Correction is not refined.
;
_pd_block_id                     2011-07-21T08:52|30|paolo|Bruker_AXS_D8_Advance
_pd_calc_method                  'Rietveld Refinement'
_pd_instr_location               ' ?'
_pd_meas_2theta_range_inc        0.022
_pd_meas_2theta_range_max        89.988
_pd_meas_2theta_range_min        3.0
_pd_meas_number_of_points        3955
_pd_phase_name                   'Propylammonium chloride'
_pd_proc_2theta_range_inc        0.022
_pd_proc_2theta_range_max        89.988
_pd_proc_2theta_range_min        3.0
_pd_proc_info_datetime           2011-07-21T08:52:40
_pd_proc_info_excluded_regions   ' ?'
_pd_proc_ls_background_function
;   GSAS Background function number 1 with 30 terms.
 Shifted Chebyshev function of 1st kind
      1:    516.441     2:   -373.694     3:    64.1415     4:    73.1109    
      5:   -67.9164     6:   -1.16332     7:    67.1398     8:   -76.0979    
      9:    38.5807    10:    10.3445    11:   -29.1248    12:    25.3278    
     13:   -4.66012    14:   -8.47075    15:    3.97670    16:  -0.515422    
     17:   -1.23616    18:  -0.485288    19:    2.02644    20:    1.09741    
     21:   -4.45102    22:    2.78857    23:   0.660484    24:   -1.86507    
     25:    3.38565    26:   -2.91342    27:   -1.90151    28:    3.40290    
     29:   -3.03846    30:   0.176056    
;
_pd_proc_ls_peak_cutoff          0.00100
_pd_proc_ls_profile_function
;
 CW Profile function number 3 with  19 terms
 Pseudovoigt profile coefficients as parameterized in
 P. Thompson, D.E. Cox & J.B. Hastings (1987). J. Appl. Cryst.,20,79-83.
 Asymmetry correction of L.W. Finger, D.E. Cox & A. P. Jephcoat (1994).
 J. Appl. Cryst.,27,892-900.
 Peak tails are ignored  where the intensity is below 0.0010 times the peak
   Aniso. broadening axis   0.0   1.0   0.0
;
_pd_proc_ls_prof_R_factor        0.0451
_pd_proc_ls_prof_wR_expected     0.0413
_pd_proc_ls_prof_wR_factor       0.0611
_pd_proc_number_of_points        3955
_pd_spec_mounting                ' ?'
_refine_ls_goodness_of_fit_all   1.49
_refine_ls_matrix_type           full
_refine_ls_number_parameters     47
_refine_ls_number_restraints     8
_refine_ls_R_Fsqd_factor         0.15648
_refine_ls_shift/su_max          0.05
_refine_ls_shift/su_mean         0.01
_reflns_d_resolution_high        1.092
_reflns_d_resolution_low         7.383
_reflns_limit_h_max              5
_reflns_limit_h_min              0
_reflns_limit_k_max              4
_reflns_limit_k_min              0
_reflns_limit_l_max              6
_reflns_limit_l_min              0
_reflns_number_total             173
_cod_data_source_file            303K.cif
_cod_data_source_block           30_publ
_cod_depositor_comments
;
The following automatic conversions were performed:

'_geom_bond_publ_flag' value 'N' changed to 'n' according to
/usr/data/users/saulius/automatic-downloads/retrospective/ACS/lib/dictionaries/cif_core.dic
dictionary named 'cif_core.dic' version 2.4.2 from 2011-04-26 (24
times).

'_geom_angle_publ_flag' value 'N' changed to 'n' according
to
/usr/data/users/saulius/automatic-downloads/retrospective/ACS/lib/dictionaries/cif_core.dic
dictionary named 'cif_core.dic' version 2.4.2 from 2011-04-26 (68
times).

Automatic conversion script
Id: cif_fix_values 2281 2013-09-26 08:29:07Z andrius 
;
_cod_original_cell_volume        287.814(10)
_cod_original_sg_symbol_H-M      'p 4/n m m'
_cod_original_formula_sum        'C3.00 Cl N'
_cod_database_code               1516204
#BEGIN Tags that were not found in dictionaries:
_gsas_exptl_extinct_corr_t_min   1.00000
_gsas_exptl_extinct_corr_t_max   1.00000
#END Tags that were not found in dictionaries
loop_
_symmetry_equiv_pos_site_id
_symmetry_equiv_pos_as_xyz
1 +x,+y,+z
2 -y+1/2,+x,+z
3 -x+1/2,-y+1/2,+z
4 +y,-x+1/2,+z
5 -x+1/2,+y,+z
6 -y+1/2,-x+1/2,+z
7 +x,-y+1/2,+z
8 +y,+x,+z
-1 -x,-y,-z
-2 +y+1/2,-x,-z
-3 +x+1/2,+y+1/2,-z
-4 -y,+x+1/2,-z
-5 +x+1/2,-y,-z
-6 +y+1/2,+x+1/2,-z
-7 -x,+y+1/2,-z
-8 -y,-x,-z
loop_
_atom_site_type_symbol
_atom_site_label
_atom_site_fract_x
_atom_site_fract_y
_atom_site_fract_z
_atom_site_occupancy
_atom_site_thermal_displace_type
_atom_site_U_iso_or_equiv
_atom_site_symmetry_multiplicity
Cl CL1 0.25 -0.25 0.0 1.0 Uiso 0.1037(9) 2
C C(1) 0.25 0.3345(6) 0.29765(34) 0.25 Uiso 0.0625(16) 8
N N 0.25 0.25 0.11199(30) 1.0 Uiso 0.0625(16) 2
C C(2) 0.25 0.1500(6) 0.43642(29) 0.25 Uiso 0.0625(16) 8
C C(3) 0.25 0.25 0.6289(4) 1.0 Uiso 0.0625(16) 2
loop_
_atom_type_symbol
_atom_type_number_in_cell
_atom_type_scat_dispersion_real
_atom_type_scat_dispersion_imag
_atom_type_scat_Cromer_Mann_a1
_atom_type_scat_Cromer_Mann_a2
_atom_type_scat_Cromer_Mann_a3
_atom_type_scat_Cromer_Mann_a4
_atom_type_scat_Cromer_Mann_b1
_atom_type_scat_Cromer_Mann_b2
_atom_type_scat_Cromer_Mann_b3
_atom_type_scat_Cromer_Mann_b4
_atom_type_scat_Cromer_Mann_c
_atom_type_scat_source
Cl 2.0 0.000 0.000 11.4604 0.01040 7.19640 1.16620 6.25560 18.5194 1.64550
47.7784 -9.5574 International_Tables_Vol_C
C 6.0 0.000 0.000 2.31000 20.8439 1.02000 10.2075 1.58860 0.56870 0.86500
51.6512 0.21560 International_Tables_Vol_C
N 2.0 0.000 0.000 12.2126 0.00570 3.13220 9.89330 2.01250 28.9975 1.16630
0.58260 -11.529 International_Tables_Vol_C
loop_
_diffrn_radiation_wavelength
_diffrn_radiation_wavelength_wt
_diffrn_radiation_type
_diffrn_radiation_wavelength_id
1.540598 1.000 K\a~1~ 1
1.544390 0.500 K\a~2~ 2
loop_
_geom_angle_atom_site_label_1
_geom_angle_atom_site_label_2
_geom_angle_atom_site_label_3
_geom_angle
_geom_angle_site_symmetry_1
_geom_angle_site_symmetry_3
_geom_angle_publ_flag
C(1) C(1) C(1) 45.0 2_555 3_555 n
C(1) C(1) C(1) 90.0 2_555 4_555 n
C(1) C(1) N 75.28(10) 2_555 1_555 n
C(1) C(1) C(2) 58.11(9) 2_555 1_555 n
C(1) C(1) C(2) 92.98(16) 2_555 2_555 n
C(1) C(1) C(2) 93.80(20) 2_555 3_555 n
C(1) C(1) C(2) 51.58(15) 2_555 4_555 n
C(1) C(1) C(1) 45.0 3_555 4_555 n
C(1) C(1) N 68.95(14) 3_555 1_555 n
C(1) C(1) C(2) 41.65(16) 3_555 1_555 n
C(1) C(1) C(2) 66.26(16) 3_555 2_555 n
C(1) C(1) C(2) 95.38(28) 3_555 3_555 n
C(1) C(1) C(2) 66.26(16) 3_555 4_555 n
C(1) C(1) N 75.28(10) 4_555 1_555 n
C(1) C(1) C(2) 58.11(9) 4_555 1_555 n
C(1) C(1) C(2) 51.58(15) 4_555 2_555 n
C(1) C(1) C(2) 93.80(20) 4_555 3_555 n
C(1) C(1) C(2) 92.98(16) 4_555 4_555 n
N C(1) C(2) 110.60(26) 1_555 1_555 n
N C(1) C(2) 125.79(25) 1_555 2_555 n
N C(1) C(2) 164.3(4) 1_555 3_555 n
N C(1) C(2) 125.79(25) 1_555 4_555 n
C(2) C(1) C(2) 34.88(18) 1_555 2_555 n
C(2) C(1) C(2) 53.73(32) 1_555 3_555 n
C(2) C(1) C(2) 34.88(18) 1_555 4_555 n
C(2) C(1) C(2) 42.22(24) 2_555 3_555 n
C(2) C(1) C(2) 56.88(30) 2_555 4_555 n
C(2) C(1) C(2) 42.22(24) 3_555 4_555 n
C(1) N C(1) 29.43(20) 1_555 2_555 n
C(1) N C(1) 42.11(29) 1_555 3_555 n
C(1) N C(1) 29.43(20) 1_555 4_555 n
C(1) N C(1) 29.43(20) 2_555 3_555 n
C(1) N C(1) 42.11(29) 2_555 4_555 n
C(1) N C(1) 29.43(20) 3_555 4_555 n
C(1) C(2) C(1) 28.91(19) 1_555 2_555 n
C(1) C(2) C(1) 42.97(33) 1_555 3_555 n
C(1) C(2) C(1) 28.91(19) 1_555 4_555 n
C(1) C(2) C(2) 58.11(9) 1_555 2_555 n
C(1) C(2) C(2) 41.65(16) 1_555 3_555 n
C(1) C(2) C(2) 58.11(9) 1_555 4_555 n
C(1) C(2) C(3) 107.94(24) 1_555 1_555 n
C(1) C(2) C(1) 34.62(26) 2_555 3_555 n
C(1) C(2) C(1) 47.48(32) 2_555 4_555 n
C(1) C(2) C(2) 87.02(16) 2_555 2_555 n
C(1) C(2) C(2) 61.56(15) 2_555 3_555 n
C(1) C(2) C(2) 51.58(15) 2_555 4_555 n
C(1) C(2) C(3) 121.62(24) 2_555 1_555 n
C(1) C(2) C(1) 34.62(26) 3_555 4_555 n
C(1) C(2) C(2) 86.20(20) 3_555 2_555 n
C(1) C(2) C(2) 84.62(28) 3_555 3_555 n
C(1) C(2) C(2) 86.20(20) 3_555 4_555 n
C(1) C(2) C(3) 150.9(4) 3_555 1_555 n
C(1) C(2) C(2) 51.58(15) 4_555 2_555 n
C(1) C(2) C(2) 61.56(15) 4_555 3_555 n
C(1) C(2) C(2) 87.02(16) 4_555 4_555 n
C(1) C(2) C(3) 121.62(24) 4_555 1_555 n
C(2) C(2) C(2) 45.0 2_555 3_555 n
C(2) C(2) C(2) 90.0 2_555 4_555 n
C(2) C(2) C(3) 73.48(9) 2_555 1_555 n
C(2) C(2) C(2) 45.0 3_555 4_555 n
C(2) C(2) C(3) 66.29(13) 3_555 1_555 n
C(2) C(2) C(3) 73.48(9) 4_555 1_555 n
C(2) C(3) C(2) 33.04(17) 1_555 2_555 n
C(2) C(3) C(2) 47.42(26) 1_555 3_555 n
C(2) C(3) C(2) 33.04(17) 1_555 4_555 n
C(2) C(3) C(2) 33.04(17) 2_555 3_555 n
C(2) C(3) C(2) 47.42(26) 2_555 4_555 n
C(2) C(3) C(2) 33.04(17) 3_555 4_555 n
loop_
_geom_bond_atom_site_label_1
_geom_bond_atom_site_label_2
_geom_bond_distance
_geom_bond_site_symmetry_2
_geom_bond_publ_flag
C(1) C(1) 0.746(5) 2_555 n
C(1) C(1) 1.055(7) 3_555 n
C(1) C(1) 0.746(5) 4_555 n
C(1) N 1.4689(34) 1_555 n
C(1) C(2) 1.542(4) 1_555 n
C(1) C(2) 1.3106(34) 2_555 n
C(1) C(2) 1.0291(33) 3_555 n
C(1) C(2) 1.3106(34) 4_555 n
N C(1) 1.4689(34) 1_555 n
N C(1) 1.4689(34) 2_555 n
N C(1) 1.4689(34) 3_555 n
N C(1) 1.4689(34) 4_555 n
C(2) C(1) 1.542(4) 1_555 n
C(2) C(1) 1.3106(34) 2_555 n
C(2) C(1) 1.0291(33) 3_555 n
C(2) C(1) 1.3106(34) 4_555 n
C(2) C(2) 0.883(5) 2_555 n
C(2) C(2) 1.248(7) 3_555 n
C(2) C(2) 0.883(5) 4_555 n
C(2) C(3) 1.552(4) 1_555 n
C(3) C(2) 1.552(4) 1_555 n
C(3) C(2) 1.552(4) 2_555 n
C(3) C(2) 1.552(4) 3_555 n
C(3) C(2) 1.552(4) 4_555 n
loop_
_pd_meas_counts_total
_pd_proc_ls_weight
_pd_proc_intensity_bkg_calc
_pd_calc_intensity_total
20155.0 . . .
19439.0 . . .
18882.0 . . .
18123.0 . . .
17602.0 . . .
16886.0 . . .
16488.0 . . .
16087.0 . . .
15448.0 . . .
14829.0 . . .
14612.0 . . .
14041.0 . . .
13615.0 . . .
13186.0 . . .
12640.0 . . .
12151.0 . . .
12115.0 . . .
11738.0 . . .
11191.0 . . .
10967.0 . . .
10555.0 . . .
10363.0 . . .
10123.0 . . .
9865.0 . . .
9652.0 . . .
9258.0 . . .
9078.0 . . .
8928.0 . . .
8559.0 . . .
8453.0 . . .
8270.0 . . .
7987.0 . . .
7784.0 . . .
7705.0 . . .
7425.0 . . .
7429.0 . . .
7104.0 . . .
7039.0 . . .
6872.0 . . .
6675.0 . . .
6605.0 . . .
6536.0 . . .
6210.0 . . .
6233.0 . . .
6107.0 . . .
5873.0 . . .
5719.0 . . .
5624.0 . . .
5529.0 . . .
5355.0 . . .
5435.0 . . .
5402.0 . . .
5347.0 . . .
5259.0 . . .
5225.0 . . .
5050.0 . . .
4921.0 . . .
4873.0 . . .
4866.0 . . .
4662.0 . . .
4846.0 . . .
4603.0 . . .
4590.0 . . .
4409.0 . . .
4375.0 . . .
4370.0 . . .
4327.0 . . .
4323.0 . . .
4243.0 . . .
4209.0 . . .
4260.0 . . .
4148.0 . . .
3940.0 . . .
4053.0 . . .
3957.0 . . .
3902.0 . . .
3732.0 . . .
3864.0 . . .
3741.0 . . .
3752.0 . . .
3654.0 . . .
3644.0 . . .
3599.0 . . .
3555.0 . . .
3477.0 . . .
3344.0 . . .
3501.0 . . .
3426.0 . . .
3439.0 . . .
3357.0 . . .
3336.0 . . .
3347.0 . . .
3428.0 . . .
3332.0 . . .
3322.0 . . .
3268.0 . . .
3260.0 . . .
3217.0 . . .
3082.0 . . .
3087.0 . . .
3143.0 . . .
2981.0 . . .
3126.0 . . .
3024.0 . . .
3016.0 . . .
2962.0 . . .
2890.0 . . .
2895.0 . . .
2892.0 . . .
2822.0 . . .
2798.0 . . .
2773.0 . . .
2771.0 . . .
2791.0 . . .
2826.0 . . .
2815.0 . . .
2740.0 . . .
2653.0 . . .
2664.0 . . .
2673.0 . . .
2607.0 . . .
2598.0 . . .
2601.0 . . .
2559.0 . . .
2497.0 . . .
2602.0 . . .
2539.0 . . .
2381.0 . . .
2433.0 . . .
2401.0 . . .
2418.0 . . .
2434.0 . . .
2368.0 . . .
2490.0 . . .
2401.0 . . .
2289.0 . . .
2294.0 . . .
2391.0 . . .
2328.0 . . .
2357.0 . . .
2279.0 . . .
2320.0 . . .
2301.0 . . .
2262.0 . . .
2243.0 . . .
2209.0 . . .
2298.0 . . .
2186.0 . . .
2193.0 . . .
2168.0 . . .
2127.0 . . .
2065.0 . . .
2072.0 . . .
2017.0 . . .
2099.0 . . .
2078.0 . . .
2053.0 . . .
2098.0 . . .
2066.0 . . .
2080.0 . . .
2029.0 . . .
2037.0 . . .
1958.0 . . .
1931.0 . . .
1941.0 . . .
1973.0 . . .
1983.0 . . .
1958.0 . . .
1828.0 . . .
1929.0 . . .
1910.0 . . .
1881.0 . . .
1876.0 . . .
1898.0 . . .
1753.0 . . .
1745.0 . . .
1795.0 . . .
1865.0 . . .
1876.0 . . .
1785.0 . . .
1762.0 . . .
1691.0 . . .
1766.0 . . .
1751.0 . . .
1746.0 . . .
1687.0 . . .
1681.0 . . .
1584.0 . . .
1679.0 . . .
1638.0 . . .
1669.0 . . .
1577.0 . . .
1594.0 . . .
1660.0 . . .
1530.0 . . .
1682.0 . . .
1608.0 . . .
1643.0 . . .
1624.0 . . .
1558.0 . . .
1606.0 . . .
1591.0 . . .
1555.0 . . .
1582.0 . . .
1510.0 . . .
1524.0 . . .
1544.0 . . .
1609.0 . . .
1555.0 . . .
1535.0 . . .
1419.0 . . .
1533.0 . . .
1536.0 . . .
1446.0 . . .
1481.0 . . .
1427.0 . . .
1440.0 . . .
1337.0 . . .
1448.0 . . .
1404.0 . . .
1331.0 . . .
1338.0 . . .
1386.0 . . .
1395.0 . . .
1397.0 . . .
1389.0 . . .
1341.0 . . .
1336.0 . . .
1364.0 . . .
1337.0 . . .
1317.0 . . .
1268.0 . . .
1266.0 . . .
1287.0 . . .
1272.0 . . .
1248.0 . . .
1226.0 . . .
1287.0 . . .
1186.0 . . .
1229.0 . . .
1192.0 . . .
1204.0 . . .
1172.0 . . .
1197.0 . . .
1125.0 . . .
1142.0 . . .
1204.0 . . .
1161.0 . . .
1167.0 . . .
1145.0 . . .
1159.0 . . .
1104.0 . . .
1124.0 . . .
1066.0 . . .
1097.0 . . .
1100.0 . . .
1126.0 . . .
1083.0 . . .
1116.0 . . .
1112.0 . . .
1070.0 . . .
1078.0 . . .
1055.0 . . .
1034.0 . . .
1088.0 . . .
1076.0 . . .
1041.0 . . .
1086.0 . . .
1048.0 . . .
1058.0 . . .
988.0 . . .
1108.0 . . .
1038.0 . . .
1031.0 . . .
956.0 . . .
1044.0 . . .
1039.0 . . .
1037.0 . . .
1036.0 . . .
994.0 . . .
988.0 . . .
1000.0 . . .
1010.0 . . .
1037.0 . . .
1043.0 . . .
982.0 . . .
1006.0 . . .
976.0 . . .
986.0 . . .
990.0 . . .
1011.0 . . .
1048.0 . . .
994.0 . . .
950.0 . . .
988.0 . . .
972.0 . . .
1023.0 . . .
1000.0 . . .
966.0 . . .
1004.0 . . .
997.0 . . .
951.0 . . .
952.0 . . .
969.0 . . .
958.0 . . .
959.0 . . .
1011.0 . . .
968.0 . . .
962.0 . . .
947.0 . . .
983.0 . . .
929.0 . . .
957.0 . . .
960.0 . . .
951.0 . . .
968.0 . . .
948.0 . . .
955.0 . . .
897.0 0.001115 932.98083 932.97949
918.0 0.001089 933.81219 933.81079
941.0 0.001063 934.36969 934.36829
970.0 0.001031 934.67621 934.67480
986.0 0.001014 934.75317 934.75183
943.0 0.001060 934.62067 934.61951
932.0 0.001073 934.29773 934.29669
956.0 0.001046 933.80176 933.80090
917.0 0.001091 933.14935 933.14874
944.0 0.001059 932.35590 932.35553
908.0 0.001101 931.43573 931.43561
967.0 0.001034 930.40228 930.40240
877.0 0.001140 929.26782 929.26819
952.0 0.001050 928.04401 928.04468
902.0 0.001109 926.74158 926.74249
915.0 0.001093 925.37030 925.37146
914.0 0.001094 923.93939 923.94080
939.0 0.001065 922.45740 922.45905
946.0 0.001057 920.93182 920.93365
990.0 0.001010 919.37006 919.37213
897.0 0.001115 917.77844 917.78070
885.0 0.001130 916.16321 916.16565
982.0 0.001018 914.52948 914.53204
906.0 0.001104 912.88220 912.88495
911.0 0.001098 911.22620 911.22906
813.0 0.001230 909.56506 909.56799
910.0 0.001099 907.90283 907.90582
885.0 0.001130 906.24249 906.24554
922.0 0.001085 904.58691 904.58997
900.0 0.001111 902.93872 902.94171
902.0 0.001109 901.29993 901.30298
933.0 0.001072 899.67279 899.67578
865.0 0.001156 898.05878 898.06165
882.0 0.001134 896.45917 896.46198
881.0 0.001135 894.87543 894.87811
867.0 0.001153 893.30829 893.31085
815.0 0.001227 891.75873 891.76105
873.0 0.001145 890.22699 890.22919
895.0 0.001117 888.71362 888.71564
897.0 0.001115 887.21906 887.22083
885.0 0.001130 885.74304 885.74457
863.0 0.001159 884.28601 884.28729
925.0 0.001081 882.84747 882.84851
874.0 0.001144 881.42731 881.42804
913.0 0.001095 880.02521 880.02557
882.0 0.001134 878.64069 878.64081
914.0 0.001094 877.27338 877.27313
867.0 0.001153 875.92267 875.92212
893.0 0.001120 874.58777 874.58691
886.0 0.001129 873.26837 873.26715
890.0 0.001124 871.96356 874.69470
910.0 0.001099 870.67273 873.54211
850.0 0.001176 869.39490 873.81732
867.0 0.001153 868.12952 872.78546
860.0 0.001163 866.87567 871.78424
909.0 0.001100 865.63251 870.81500
810.0 0.001235 864.39948 869.87946
825.0 0.001212 863.17554 868.97949
838.0 0.001193 861.95984 868.11761
914.0 0.001094 860.75171 867.29681
862.0 0.001160 859.55035 866.52051
892.0 0.001121 858.35498 865.79340
886.0 0.001129 857.16479 865.12048
832.0 0.001202 855.97894 864.50806
852.0 0.001174 854.79688 863.96405
903.0 0.001107 853.61786 863.49792
874.0 0.001144 852.44116 863.12109
846.0 0.001182 851.26624 862.84784
865.0 0.001156 850.09235 862.69580
874.0 0.001144 848.91895 862.68671
862.0 0.001160 847.74542 862.84814
920.0 0.001087 846.57141 863.21484
876.0 0.001142 845.39624 863.83167
906.0 0.001104 844.21948 864.75665
901.0 0.001110 843.04077 866.06622
899.0 0.001112 841.85968 867.86310
899.0 0.001112 840.67578 870.28729
912.0 0.001096 839.48889 873.53552
907.0 0.001103 838.29852 877.89185
909.0 0.001100 837.10461 883.79419
953.0 0.001049 835.90674 892.04492
1019.0 0.000981 834.70477 904.54456
912.0 0.001096 833.49872 926.24408
1092.0 0.000916 832.28821 968.17975
1094.0 0.000914 831.07330 1048.80200
1261.0 0.000793 829.85376 1189.22852
1440.0 0.000694 828.62976 1407.74927
1647.0 0.000607 827.40112 1722.44153
1985.0 0.000504 826.16791 2169.26221
2861.0 0.0003495 824.93030 2816.49243
3673.0 0.0002723 823.68811 3715.62695
4739.0 0.0002110 822.44171 4718.01367
5304.0 0.0001885 821.19110 5297.76563
4543.0 0.0002201 819.93634 4866.99854
3428.0 0.0002917 818.67786 3642.26538
2326.0 0.000430 817.41553 2369.90112
1489.0 0.000672 816.14990 1546.48999
1053.0 0.000950 814.88098 1160.08252
963.0 0.001038 813.60907 1008.64044
858.0 0.001166 812.33453 946.07129
852.0 0.001174 811.05756 912.42230
860.0 0.001163 809.77856 890.02637
857.0 0.001167 808.49780 873.69336
876.0 0.001142 807.21552 861.24219
867.0 0.001153 805.93231 851.43970
791.0 0.001264 804.64838 843.50812
863.0 0.001159 803.36420 836.93719
775.0 0.001290 802.07996 831.37872
807.0 0.001239 800.79620 826.58966
809.0 0.001236 799.51343 822.39655
874.0 0.001144 798.23181 818.67163
790.0 0.001266 796.95203 815.32086
814.0 0.001229 795.67438 812.27228
795.0 0.001258 794.39923 809.47089
802.0 0.001247 793.12708 806.87408
826.0 0.001211 791.85834 804.44818
770.0 0.001299 790.59351 802.16669
757.0 0.001321 789.33301 800.00793
823.0 0.001215 788.07721 797.95465
822.0 0.001217 786.82660 795.99292
762.0 0.001312 785.58160 794.11096
793.0 0.001261 784.34265 792.29926
807.0 0.001239 783.11029 790.55011
847.0 0.001181 781.88477 788.85651
766.0 0.001305 780.66669 787.21326
757.0 0.001321 779.45624 785.61542
763.0 0.001311 778.25409 784.05933
758.0 0.001319 777.06055 782.54150
762.0 0.001312 775.87592 781.05914
760.0 0.001316 774.70074 779.60980
814.0 0.001229 773.53534 778.19159
777.0 0.001287 772.38019 776.80255
787.0 0.001271 771.23560 775.44141
757.0 0.001321 770.10181 771.48645
784.0 0.001276 768.97937 770.29803
776.0 0.001289 767.86859 767.86194
799.0 0.001252 766.76971 766.76337
809.0 0.001236 765.68323 765.67725
799.0 0.001252 764.60931 764.60364
776.0 0.001289 763.54834 763.54297
755.0 0.001325 762.50049 762.49542
817.0 0.001224 761.46625 761.46155
803.0 0.001245 760.44580 760.44141
722.0 0.001385 759.43933 759.43524
747.0 0.001339 758.44720 758.44342
750.0 0.001333 757.46960 757.46619
727.0 0.001376 756.50677 756.50366
748.0 0.001337 755.55902 755.55621
750.0 0.001333 754.62628 754.62384
760.0 0.001316 753.70905 753.70691
718.0 0.001393 752.80731 752.80542
752.0 0.001330 751.92139 751.91980
766.0 0.001305 751.05133 751.05005
777.0 0.001287 750.19727 750.19635
735.0 0.001361 749.35944 749.35876
757.0 0.001321 748.53778 748.53741
737.0 0.001357 747.73260 747.73248
714.0 0.001401 746.94391 746.94409
759.0 0.001318 746.17175 746.17218
740.0 0.001351 745.41626 745.41699
720.0 0.001389 744.67743 744.67841
714.0 0.001401 743.95544 743.95667
713.0 0.001403 743.25012 743.25165
736.0 0.001359 742.56171 742.56342
739.0 0.001353 741.89014 741.89209
772.0 0.001295 741.23529 741.23749
738.0 0.001355 740.59729 740.59973
776.0 0.001289 739.97620 739.97888
752.0 0.001330 739.37183 739.37469
721.0 0.001387 738.78418 738.78729
758.0 0.001319 738.21326 738.21655
758.0 0.001319 737.65894 737.66241
725.0 0.001379 737.12122 737.12488
772.0 0.001295 736.59991 736.60376
776.0 0.001289 736.09509 736.09912
747.0 0.001339 735.60657 735.61078
723.0 0.001383 735.13422 735.13861
807.0 0.001239 734.67804 734.68250
769.0 0.001300 734.23773 734.24237
739.0 0.001353 733.81335 733.81818
713.0 0.001403 733.40466 733.40955
774.0 0.001292 733.01154 733.01654
702.0 0.001425 732.63385 732.63898
748.0 0.001337 732.27142 732.27667
738.0 0.001355 731.92413 731.92944
764.0 0.001309 731.59174 731.59717
762.0 0.001312 731.27411 731.27960
681.0 0.001468 730.97107 730.97668
729.0 0.001372 730.68243 730.68811
712.0 0.001404 730.40802 730.41376
735.0 0.001361 730.14764 730.15344
735.0 0.001361 729.90106 729.90692
751.0 0.001332 729.66815 729.67401
778.0 0.001285 729.44861 729.45447
779.0 0.001284 729.24231 729.24823
778.0 0.001285 729.04895 729.05487
709.0 0.001410 728.86841 728.87433
774.0 0.001292 728.70038 728.70636
712.0 0.001404 728.54474 728.55066
718.0 0.001393 728.40118 728.40717
701.0 0.001427 728.26953 728.27545
779.0 0.001284 728.14960 728.15546
747.0 0.001339 728.04102 728.04688
740.0 0.001351 727.94373 727.94952
733.0 0.001364 727.85742 727.86316
752.0 0.001330 727.78180 727.78754
758.0 0.001319 727.71674 727.72241
764.0 0.001309 727.66199 727.66760
714.0 0.001401 727.61731 727.62286
709.0 0.001410 727.58246 727.58795
704.0 0.001420 727.55725 727.56262
713.0 0.001403 727.54138 727.54669
753.0 0.001328 727.53467 727.53992
689.0 0.001451 727.53693 727.54205
738.0 0.001355 727.54791 727.55292
765.0 0.001307 727.56738 727.57227
719.0 0.001391 727.59503 727.59991
698.0 0.001433 727.63086 727.63556
778.0 0.001285 727.67450 727.67908
743.0 0.001346 727.72571 727.73016
740.0 0.001351 727.78442 727.78876
692.0 0.001445 727.85028 727.85455
676.0 0.001479 727.92322 727.92731
696.0 0.001437 728.00293 728.00690
718.0 0.001393 728.08923 728.09308
687.0 0.001456 728.18207 728.18573
705.0 0.001418 728.28107 728.28461
743.0 0.001346 728.38611 728.38947
707.0 0.001414 728.49707 728.50031
714.0 0.001401 728.61365 728.61676
760.0 0.001316 728.73578 728.73877
718.0 0.001393 728.86328 728.86609
712.0 0.001404 728.99597 728.99860
754.0 0.001326 729.13373 729.13623
724.0 0.001381 729.27631 729.27863
701.0 0.001427 729.42365 729.42584
755.0 0.001325 729.57562 729.57758
757.0 0.001321 729.73199 729.73383
738.0 0.001355 729.89264 729.89435
712.0 0.001404 730.05750 730.05902
747.0 0.001339 730.22644 730.22778
719.0 0.001391 730.39929 730.40045
782.0 0.001279 730.57593 730.57697
718.0 0.001393 730.75635 730.75720
741.0 0.001350 730.94037 730.94104
717.0 0.001395 731.12787 731.12842
703.0 0.001422 731.31879 731.31915
717.0 0.001395 731.51306 731.51324
692.0 0.001445 731.71063 731.71063
731.0 0.001368 731.91132 731.91119
719.0 0.001391 732.11517 732.11487
713.0 0.001403 732.32196 732.32153
731.0 0.001368 732.53180 732.53119
719.0 0.001391 732.74457 732.74384
746.0 0.001340 732.96021 732.95929
679.0 0.001473 733.17871 733.17761
700.0 0.001429 733.39996 733.39874
705.0 0.001418 733.62396 733.62262
761.0 0.001314 733.85077 733.84924
751.0 0.001332 734.08020 734.07855
749.0 0.001335 734.31238 734.31061
699.0 0.001431 734.54724 734.54535
761.0 0.001314 734.78479 734.78271
706.0 0.001416 735.02502 735.02283
738.0 0.001355 735.26794 735.26563
746.0 0.001340 735.51355 735.51111
777.0 0.001287 735.76184 735.75928
757.0 0.001321 736.01288 736.01013
702.0 0.001425 736.26666 736.26379
754.0 0.001326 736.52319 736.52026
704.0 0.001420 736.78259 736.77948
691.0 0.001447 737.04474 737.04156
802.0 0.001247 737.30981 737.30658
729.0 0.001372 737.57788 737.57452
681.0 0.001468 737.84888 737.84540
798.0 0.001253 738.12299 738.11938
675.0 0.001481 738.40015 738.39648
731.0 0.001368 738.68042 738.67670
733.0 0.001364 738.96399 738.96021
723.0 0.001383 739.25085 739.24695
747.0 0.001339 739.54108 739.53711
754.0 0.001326 739.83478 739.83075
760.0 0.001316 740.13196 740.12787
733.0 0.001364 740.43280 740.42865
770.0 0.001299 740.73737 740.73315
736.0 0.001359 741.04572 741.04144
769.0 0.001300 741.35797 741.35364
745.0 0.001342 741.67419 741.66986
746.0 0.001340 741.99457 741.99017
732.0 0.001366 742.31915 742.31470
710.0 0.001408 742.64801 742.64355
709.0 0.001410 742.98132 742.97681
740.0 0.001351 743.31909 743.31458
746.0 0.001340 743.66156 743.65704
732.0 0.001366 744.00879 744.00421
727.0 0.001376 744.36084 744.35632
715.0 0.001399 744.71796 744.71344
715.0 0.001399 745.08020 745.07562
767.0 0.001304 745.44763 745.44312
734.0 0.001362 745.82037 745.81592
722.0 0.001385 746.19873 746.19427
734.0 0.001362 746.58264 746.57819
747.0 0.001339 746.97235 746.96790
793.0 0.001261 747.36792 747.36353
762.0 0.001312 747.76947 747.76508
761.0 0.001314 748.17719 748.17285
755.0 0.001325 748.59119 748.58685
744.0 0.001344 749.01160 749.00732
741.0 0.001350 749.43848 749.43433
775.0 0.001290 749.87213 749.86798
728.0 0.001374 750.31256 750.30847
762.0 0.001312 750.75989 750.75586
787.0 0.001271 751.21429 751.21039
693.0 0.001443 751.67596 751.67206
798.0 0.001253 752.14490 752.14111
724.0 0.001381 752.62140 752.61774
768.0 0.001302 753.10547 753.10187
709.0 0.001410 753.59729 753.59375
774.0 0.001292 754.09698 754.09357
754.0 0.001326 754.60468 754.60132
733.0 0.001364 755.12054 755.11731
762.0 0.001312 755.64459 755.64148
761.0 0.001314 756.17706 756.17407
773.0 0.001294 756.71814 756.71521
746.0 0.001340 757.26776 757.26495
797.0 0.001255 757.82617 757.82349
773.0 0.001294 758.39343 758.39087
785.0 0.001274 758.96973 758.96729
742.0 0.001348 759.55518 759.55286
744.0 0.001344 760.14984 760.14764
808.0 0.001238 760.75385 760.75177
765.0 0.001307 761.36731 761.36542
786.0 0.001272 761.99036 761.98859
807.0 0.001239 762.62317 762.62152
762.0 0.001312 763.26575 763.26422
755.0 0.001325 763.91821 763.91681
779.0 0.001284 764.58063 764.57941
722.0 0.001385 765.25317 765.25208
745.0 0.001342 765.93597 765.93506
697.0 0.001435 766.62897 766.62823
741.0 0.001350 767.33240 767.33185
802.0 0.001247 768.04626 768.04584
742.0 0.001348 768.77063 768.77039
798.0 0.001253 769.50568 769.50555
782.0 0.001279 770.25146 770.25153
756.0 0.001323 771.00800 771.00824
787.0 0.001271 771.77539 771.77582
780.0 0.001282 772.55371 772.55426
747.0 0.001339 773.34308 773.34381
766.0 0.001305 774.14343 774.14435
839.0 0.001192 774.95502 774.95605
798.0 0.001253 775.77765 778.17902
790.0 0.001266 776.61151 779.13330
764.0 0.001309 777.45673 781.29639
768.0 0.001302 778.31323 782.35205
829.0 0.001206 779.18115 783.43500
800.0 0.001250 780.06036 784.54688
806.0 0.001241 780.95099 785.68988
837.0 0.001195 781.85321 786.86621
793.0 0.001261 782.76685 788.07861
827.0 0.001209 783.69196 789.32996
738.0 0.001355 784.62860 790.62384
769.0 0.001300 785.57678 791.96436
783.0 0.001277 786.53662 793.35645
796.0 0.001256 787.50793 794.80536
774.0 0.001292 788.49097 796.31799
794.0 0.001259 789.48541 797.90210
856.0 0.001168 790.49146 799.56702
844.0 0.001185 791.50916 801.32440
812.0 0.001232 792.53827 803.18744
871.0 0.001148 793.57904 805.17352
837.0 0.001195 794.63123 807.30286
859.0 0.001164 795.69489 809.60156
843.0 0.001186 796.77008 812.10229
844.0 0.001185 797.85663 814.84601
820.0 0.001220 798.95459 817.88629
846.0 0.001182 800.06390 821.29236
835.0 0.001198 801.18463 825.15704
876.0 0.001142 802.31653 829.60486
865.0 0.001156 803.45959 834.80737
864.0 0.001157 804.61395 841.00726
877.0 0.001140 805.77924 848.55444
881.0 0.001135 806.95563 857.97754
861.0 0.001161 808.14307 870.14954
879.0 0.001138 809.34131 886.84521
918.0 0.001089 810.55048 912.66602
988.0 0.001012 811.77032 959.89948
1119.0 0.000894 813.00073 1056.65698
1308.0 0.000765 814.24188 1255.17908
1668.0 0.000600 815.49347 1633.63733
2538.0 0.000394 816.75537 2283.39600
3266.0 0.0003062 818.02759 3226.32153
4078.0 0.0002452 819.31018 4248.01709
4643.0 0.0002154 820.60266 4823.08984
4617.0 0.0002166 821.90515 4536.24121
3922.0 0.0002550 823.21765 3678.74780
2732.0 0.000366 824.53979 2663.67725
1918.0 0.000521 825.87164 1819.50684
1276.0 0.000784 827.21307 1311.86023
1006.0 0.000994 828.56378 1073.80981
934.0 0.001071 829.92389 977.60107
873.0 0.001145 831.29297 936.31610
855.0 0.001170 832.67114 913.84955
882.0 0.001134 834.05823 899.19543
890.0 0.001124 835.45398 888.93958
878.0 0.001139 836.85828 881.57050
814.0 0.001229 838.27118 876.20966
823.0 0.001215 839.69226 872.29095
869.0 0.001151 841.12146 869.43555
896.0 0.001116 842.55865 867.38257
818.0 0.001222 844.00372 865.94653
818.0 0.001222 845.45642 864.99316
862.0 0.001160 846.91663 864.42322
869.0 0.001151 848.38428 864.16205
887.0 0.001127 849.85901 864.15253
844.0 0.001185 851.34082 864.35046
838.0 0.001193 852.82935 864.72095
847.0 0.001181 854.32452 865.23663
815.0 0.001227 855.82635 865.87524
816.0 0.001225 857.33429 867.12567
834.0 0.001199 858.84839 867.98468
913.0 0.001095 860.36853 868.92407
861.0 0.001161 861.89435 870.19470
835.0 0.001198 863.42566 871.27936
804.0 0.001244 864.96240 872.42023
883.0 0.001133 866.50439 873.61176
902.0 0.001109 868.05133 874.84906
854.0 0.001171 869.60297 876.12836
871.0 0.001148 871.15942 877.44641
849.0 0.001178 872.72009 878.80054
892.0 0.001121 874.28516 880.18878
881.0 0.001135 875.85406 881.60919
869.0 0.001151 877.42676 883.06110
828.0 0.001208 879.00323 884.54364
872.0 0.001147 880.58295 883.66876
875.0 0.001143 882.16595 885.32330
861.0 0.001161 883.75189 885.80792
919.0 0.001088 885.34058 887.56805
896.0 0.001116 886.93182 889.35327
940.0 0.001064 888.52545 891.16754
818.0 0.001222 890.12134 893.01587
890.0 0.001124 891.71912 894.90436
867.0 0.001153 893.31854 896.84088
885.0 0.001130 894.91968 898.83600
863.0 0.001159 896.52197 900.90271
886.0 0.001129 898.12555 903.05902
885.0 0.001130 899.72986 905.32855
840.0 0.001190 901.33484 907.74396
898.0 0.001114 902.94043 910.35114
880.0 0.001136 904.54614 913.21503
910.0 0.001099 906.15204 916.43262
858.0 0.001166 907.75763 920.15527
892.0 0.001121 909.36285 924.65839
945.0 0.001058 910.96747 930.58801
937.0 0.001067 912.57141 939.71869
948.0 0.001055 914.17419 956.61829
1013.0 0.000987 915.77582 991.09589
1174.0 0.000852 917.37598 1060.07422
1344.0 0.000744 918.97461 1184.96399
1708.0 0.000585 920.57123 1376.17212
2030.0 0.000493 922.16595 1598.93201
2364.0 0.000423 923.75830 1752.01282
2306.0 0.000434 925.34808 1733.67090
2124.0 0.000471 926.93536 1582.31335
1765.0 0.000567 928.51965 1384.35791
1369.0 0.000730 930.10095 1196.31384
1172.0 0.000853 931.67877 1067.27222
1026.0 0.000975 933.25317 1000.11505
974.0 0.001027 934.82379 972.02240
909.0 0.001100 936.39069 961.29974
888.0 0.001126 937.95337 956.72485
919.0 0.001088 939.51172 954.41339
905.0 0.001105 941.06555 953.21942
860.0 0.001163 942.61487 952.72150
862.0 0.001160 944.15918 952.69696
933.0 0.001072 945.69855 953.00726
953.0 0.001049 947.23248 953.56042
955.0 0.001047 948.76093 954.29352
896.0 0.001116 950.28381 955.16248
924.0 0.001082 951.80121 956.13550
872.0 0.001147 953.31207 957.18866
934.0 0.001071 954.81702 958.30481
934.0 0.001071 956.31537 959.47015
915.0 0.001093 957.80725 960.67468
916.0 0.001092 959.29279 961.91046
947.0 0.001056 960.77081 963.17004
937.0 0.001067 962.24225 964.44928
933.0 0.001072 963.70593 965.74304
949.0 0.001054 965.16266 967.04865
947.0 0.001056 966.61188 968.36304
920.0 0.001087 968.05298 969.68329
967.0 0.001034 969.48645 971.00793
929.0 0.001076 970.91162 972.33490
956.0 0.001046 972.32867 973.66290
959.0 0.001043 973.73767 974.99091
968.0 0.001033 975.13776 976.31714
939.0 0.001065 976.52936 977.64124
931.0 0.001074 977.91193 978.96198
941.0 0.001063 979.28564 980.27881
942.0 0.001062 980.65063 981.59137
921.0 0.001086 982.00574 982.89807
993.0 0.001007 983.35199 984.19952
937.0 0.001067 984.68829 984.97748
988.0 0.001012 986.01514 986.28986
965.0 0.001036 987.33240 987.59375
974.0 0.001027 988.63940 988.63989
1039.0 0.000962 989.93665 989.93695
995.0 0.001005 991.22351 991.22357
992.0 0.001008 992.50018 992.50006
1094.0 0.000914 993.76685 993.76648
991.0 0.001009 995.02252 995.02197
1085.0 0.000922 996.26782 996.26709
1036.0 0.000965 997.50220 997.50128
1017.0 0.000983 998.72589 998.72473
1032.0 0.000969 999.93896 999.93756
971.0 0.001030 1001.14044 1001.13885
1018.0 0.000982 1002.33124 1002.32947
1003.0 0.000997 1003.51056 1003.50854
988.0 0.001012 1004.67859 1004.67645
1031.0 0.000970 1005.83551 1005.83313
1052.0 0.000951 1006.98065 1006.97803
994.0 0.001006 1008.11444 1008.11163
1040.0 0.000962 1009.23633 1009.23334
1034.0 0.000967 1010.34668 1010.34344
978.0 0.001022 1011.44543 1011.44208
942.0 0.001062 1012.53204 1012.52844
1011.0 0.000989 1013.60687 1013.60309
941.0 0.001063 1014.66949 1014.66553
1001.0 0.000999 1015.72021 1015.71600
922.0 0.001085 1016.75903 1016.75464
999.0 0.001001 1017.78528 1017.78070
940.0 0.001064 1018.79962 1018.79486
945.0 0.001058 1019.80145 1019.79645
960.0 0.001042 1020.79102 1020.78583
1042.0 0.000960 1021.76843 1021.76306
934.0 0.001071 1022.73309 1022.72754
948.0 0.001055 1023.68555 1023.67981
951.0 0.001052 1024.62537 1024.61938
930.0 0.001075 1025.55273 1025.54651
1011.0 0.000989 1026.46765 1026.46143
1049.0 0.000953 1027.36987 1027.36340
1041.0 0.000961 1028.25952 1028.25281
1029.0 0.000972 1029.13647 1029.12952
1023.0 0.000978 1030.00073 1029.99365
998.0 0.001002 1030.85254 1030.84546
953.0 0.001049 1031.69141 1031.68408
1030.0 0.000971 1032.51782 1032.51025
1039.0 0.000962 1033.33130 1033.32361
967.0 0.001034 1034.13220 1034.12439
1019.0 0.000981 1034.92053 1034.91248
992.0 0.001008 1035.69580 1035.68762
1065.0 0.000939 1036.45874 1036.45032
985.0 0.001015 1037.20850 1037.20007
966.0 0.001035 1037.94580 1037.93713
1005.0 0.000995 1038.67065 1038.66174
1006.0 0.000994 1039.38245 1039.37341
977.0 0.001024 1040.08179 1040.07263
1061.0 0.000943 1040.76819 1040.75891
1017.0 0.000983 1041.44214 1041.43274
986.0 0.001014 1042.10364 1042.09412
1028.0 0.000973 1042.75232 1042.74255
1066.0 0.000938 1043.38843 1043.37866
1039.0 0.000962 1044.01196 1044.00208
1072.0 0.000933 1044.62305 1044.61304
1067.0 0.000937 1045.22180 1045.21155
1053.0 0.000950 1045.80786 1045.79749
1071.0 0.000934 1046.38171 1046.37122
1036.0 0.000965 1046.94299 1046.93237
1062.0 0.000942 1047.49194 1047.48132
1057.0 0.000946 1048.02881 1048.01807
1085.0 0.000922 1048.55334 1048.54236
1044.0 0.000958 1049.06567 1049.05457
1066.0 0.000938 1049.56567 1058.23413
1096.0 0.000912 1050.05383 1059.15381
1108.0 0.000903 1050.52991 1060.09473
1044.0 0.000958 1050.99390 1065.44849
1022.0 0.000978 1051.44592 1066.66235
1102.0 0.000907 1051.88611 1067.92590
1107.0 0.000903 1052.31445 1069.24646
1054.0 0.000949 1052.73108 1070.63208
1160.0 0.000862 1053.13599 1072.09143
1121.0 0.000892 1053.52942 1073.63525
1092.0 0.000916 1053.91101 1075.27527
1119.0 0.000894 1054.28125 1077.02612
1108.0 0.000903 1054.64014 1078.90405
1161.0 0.000861 1054.98767 1080.92773
1132.0 0.000883 1055.32385 1083.12036
1207.0 0.000829 1055.64880 1085.50830
1140.0 0.000877 1055.96265 1088.12402
1175.0 0.000851 1056.26550 1091.00623
1114.0 0.000898 1056.55725 1094.19983
1189.0 0.000841 1056.83826 1097.76331
1202.0 0.000832 1057.10828 1101.76453
1214.0 0.000824 1057.36768 1106.29077
1145.0 0.000873 1057.61646 1111.45056
1242.0 0.000805 1057.85461 1117.37744
1225.0 0.000816 1058.08240 1124.24927
1200.0 0.000833 1058.29956 1132.28894
1240.0 0.000806 1058.50659 1141.79712
1215.0 0.000823 1058.70349 1153.17358
1262.0 0.000792 1058.89001 1166.95398
1265.0 0.000791 1059.06665 1184.86157
1291.0 0.000775 1059.23340 1206.08496
1257.0 0.000796 1059.39014 1233.12024
1358.0 0.000736 1059.53735 1268.88477
1375.0 0.000727 1059.67468 1316.64832
1506.0 0.000664 1059.80249 1386.38538
1594.0 0.000627 1059.92078 1504.44092
1820.0 0.000549 1060.02979 1744.41125
2374.0 0.000421 1060.12952 2282.03149
3472.0 0.0002880 1060.21997 3443.70703
5317.0 0.0001881 1060.30139 5622.75195
8187.0 0.0001221 1060.37378 8889.93652
12051.0 0.0000830 1060.43726 12433.76465
14716.0 0.0000680 1060.49207 14517.00586
14433.0 0.0000693 1060.53809 13931.31152
12493.0 0.0000800 1060.57544 11696.17480
9015.0 0.0001109 1060.60437 8926.23730
5998.0 0.0001667 1060.62488 6059.20996
3863.0 0.0002589 1060.63708 3798.90649
2333.0 0.000429 1060.64111 2443.50659
1660.0 0.000602 1060.63708 1794.88135
1413.0 0.000708 1060.62500 1522.13586
1306.0 0.000766 1060.60510 1398.44519
1306.0 0.000766 1060.57727 1327.72998
1220.0 0.000820 1060.54187 1279.62964
1214.0 0.000824 1060.49878 1244.45496
1145.0 0.000873 1060.44824 1217.97949
1151.0 0.000869 1060.39026 1197.73206
1162.0 0.000861 1060.32495 1182.14160
1182.0 0.000846 1060.25256 1170.19409
1213.0 0.000824 1060.17297 1161.23584
1147.0 0.000872 1060.08655 1154.91016
1156.0 0.000865 1059.99304 1151.12158
1191.0 0.000840 1059.89282 1150.16797
1133.0 0.000883 1059.78589 1153.31311
1158.0 0.000864 1059.67236 1164.68103
1260.0 0.000794 1059.55237 1195.68481
1305.0 0.000766 1059.42603 1271.75769
1597.0 0.000626 1059.29321 1434.25085
1849.0 0.000541 1059.15430 1718.06714
2474.0 0.000404 1059.00928 2096.56494
2621.0 0.000382 1058.85815 2433.81909
2540.0 0.000394 1058.70117 2538.61743
2477.0 0.000404 1058.53833 2382.74438
2299.0 0.000435 1058.36975 2119.06567
1832.0 0.000546 1058.19556 1816.87097
1526.0 0.000655 1058.01575 1526.11572
1417.0 0.000706 1057.83057 1315.27979
1229.0 0.000814 1057.63989 1196.59729
1139.0 0.000878 1057.44409 1141.83997
1106.0 0.000904 1057.24304 1118.07202
1074.0 0.000931 1057.03687 1106.02417
1049.0 0.000953 1056.82568 1098.28235
1017.0 0.000983 1056.60950 1092.56689
1113.0 0.000898 1056.38867 1079.28760
1112.0 0.000899 1056.16296 1076.08643
1096.0 0.000912 1055.93262 1073.47998
1029.0 0.000972 1055.69763 1066.99854
1086.0 0.000921 1055.45813 1065.35950
1035.0 0.000966 1055.21423 1063.96155
980.0 0.001020 1054.96606 1062.75024
1085.0 0.000922 1054.71362 1061.68555
1059.0 0.000944 1054.45691 1060.73767
1028.0 0.000973 1054.19604 1059.88342
1031.0 0.000970 1053.93127 1059.10583
1011.0 0.000989 1053.66248 1058.39063
1076.0 0.000929 1053.38989 1057.72693
1022.0 0.000978 1053.11340 1057.10583
1061.0 0.000943 1052.83313 1056.52051
1061.0 0.000943 1052.54919 1055.96533
1072.0 0.000933 1052.26172 1055.43518
1079.0 0.000927 1051.97070 1054.92688
1048.0 0.000954 1051.67627 1054.43640
1019.0 0.000981 1051.37830 1053.96118
1074.0 0.000931 1051.07703 1053.49951
1028.0 0.000973 1050.77246 1053.04883
1047.0 0.000955 1050.46484 1052.60791
977.0 0.001024 1050.15405 1052.17517
1060.0 0.000943 1049.83997 1051.74927
931.0 0.001074 1049.52295 1051.32947
1066.0 0.000938 1049.20300 1050.91479
1004.0 0.000996 1048.88013 1050.50452
1082.0 0.000924 1048.55432 1050.09778
999.0 0.001001 1048.22571 1048.75378
1023.0 0.000978 1047.89429 1048.39624
1035.0 0.000966 1047.56018 1048.03772
1025.0 0.000976 1047.22351 1047.21643
989.0 0.001011 1046.88416 1046.87720
1071.0 0.000934 1046.54211 1046.53540
1091.0 0.000917 1046.19763 1046.19104
977.0 0.001024 1045.85071 1045.84412
1048.0 0.000954 1045.50134 1045.49487
1032.0 0.000969 1045.14954 1045.14319
999.0 0.001001 1044.79529 1044.78906
1066.0 0.000938 1044.43884 1044.43274
993.0 0.001007 1044.07996 1044.07397
1052.0 0.000951 1043.71887 1043.71301
986.0 0.001014 1043.35559 1043.34985
1087.0 0.000920 1042.99011 1042.98438
1004.0 0.000996 1042.62244 1042.61694
1089.0 0.000918 1042.25269 1042.24731
1041.0 0.000961 1041.88086 1041.87549
1038.0 0.000963 1041.50684 1041.50171
1081.0 0.000925 1041.13074 1041.12573
1021.0 0.000979 1040.75281 1040.74780
1042.0 0.000960 1040.37268 1040.36780
1020.0 0.000980 1039.99072 1039.98596
1020.0 0.000980 1039.60669 1039.60205
956.0 0.001046 1039.22070 1039.21606
1037.0 0.000964 1038.83276 1038.82837
1017.0 0.000983 1038.44299 1038.43860
1023.0 0.000978 1038.05127 1038.04712
1017.0 0.000983 1037.65771 1037.65356
1003.0 0.000997 1037.26208 1037.25806
1111.0 0.000900 1036.86487 1036.86084
1032.0 0.000969 1036.46558 1036.46179
1103.0 0.000907 1036.06458 1036.06079
1032.0 0.000969 1035.66162 1035.65796
1101.0 0.000908 1035.25684 1035.25330
988.0 0.001012 1034.85034 1034.84680
1024.0 0.000977 1034.44177 1034.43848
1014.0 0.000986 1034.03162 1034.02832
1058.0 0.000945 1033.61951 1033.61633
1056.0 0.000947 1033.20557 1033.20239
979.0 0.001021 1032.78979 1032.78674
1009.0 0.000991 1032.37219 1032.36926
1095.0 0.000913 1031.95276 1031.94995
1093.0 0.000915 1031.53149 1031.52869
1003.0 0.000997 1031.10815 1031.10547
1025.0 0.000976 1030.68311 1030.68054
1053.0 0.000950 1030.25623 1030.25366
1042.0 0.000960 1029.82739 1029.82495
1049.0 0.000953 1029.39673 1029.39441
1036.0 0.000965 1028.96399 1028.96167
1044.0 0.000958 1028.52942 1028.52722
1006.0 0.000994 1028.09290 1028.09070
1046.0 0.000956 1027.65454 1027.65234
1043.0 0.000959 1027.21399 1027.21204
1031.0 0.000970 1026.77148 1026.76953
1036.0 0.000965 1026.32703 1026.32507
1049.0 0.000953 1025.88049 1025.87866
933.0 0.001072 1025.43188 1025.43018
1063.0 0.000941 1024.98120 1024.97949
998.0 0.001002 1024.52832 1024.52673
1017.0 0.000983 1024.07349 1024.07190
981.0 0.001019 1023.61633 1023.61481
1024.0 0.000977 1023.15710 1023.15564
1004.0 0.000996 1022.69562 1022.69421
1003.0 0.000997 1022.23181 1022.23041
981.0 0.001019 1021.76587 1021.76453
1024.0 0.000977 1021.29749 1021.29620
994.0 0.001006 1020.82690 1020.82568
982.0 0.001018 1020.35394 1020.35272
1024.0 0.000977 1019.87842 1019.87726
999.0 0.001001 1019.40070 1019.39960
975.0 0.001026 1018.92035 1018.91931
1014.0 0.000986 1018.43762 1018.43658
966.0 0.001035 1017.95233 1017.95129
1062.0 0.000942 1017.46436 1017.46332
967.0 0.001034 1016.97388 1016.97290
904.0 0.001106 1016.48065 1016.47974
990.0 0.001010 1015.98486 1015.98395
975.0 0.001026 1015.48639 1015.48547
1094.0 0.000914 1014.98492 1014.98407
967.0 0.001034 1014.48090 1014.48004
946.0 0.001057 1013.97382 1013.97302
963.0 0.001038 1013.46405 1013.46326
967.0 0.001034 1012.95129 1012.95050
963.0 0.001038 1012.43555 1012.43475
948.0 0.001055 1011.91681 1011.91608
926.0 0.001080 1011.39496 1011.39423
966.0 0.001035 1010.87012 1010.86938
1006.0 0.000994 1010.34216 1010.34137
1011.0 0.000989 1009.81079 1009.81006
966.0 0.001035 1009.27643 1009.27563
990.0 0.001010 1008.73865 1008.73785
970.0 0.001031 1008.19763 1008.19690
990.0 0.001010 1007.65326 1007.65253
1057.0 0.000946 1007.10535 1007.10461
1064.0 0.000940 1006.55420 1006.55347
1027.0 0.000974 1005.99933 1006.33844
993.0 0.001007 1005.44110 1005.79706
982.0 0.001018 1004.87915 1005.25323
940.0 0.001064 1004.31354 1004.70715
1019.0 0.000981 1003.74438 1004.33484
996.0 0.001004 1003.17133 1003.79346
1042.0 0.000960 1002.59467 1003.25110
977.0 0.001024 1002.01404 1002.70789
987.0 0.001013 1001.42944 1002.16376
998.0 0.001002 1000.84106 1001.61963
1029.0 0.000972 1000.24866 1001.07550
925.0 0.001081 999.65228 1000.53210
1002.0 0.000998 999.05188 999.98993
989.0 0.001011 998.44714 999.44940
1004.0 0.000996 997.83850 998.91187
1043.0 0.000959 997.22540 998.37756
996.0 0.001004 996.60828 997.84833
1050.0 0.000952 995.98676 997.32513
1002.0 0.000998 995.36078 996.80981
1040.0 0.000962 994.73053 996.30438
998.0 0.001002 994.09570 995.81134
1063.0 0.000941 993.45654 995.33405
984.0 0.001016 992.81281 994.87616
1009.0 0.000991 992.16425 994.44269
1039.0 0.000962 991.51129 999.23114
1070.0 0.000935 990.85358 999.12921
989.0 0.001011 990.19122 999.09747
1067.0 0.000937 989.52405 1001.70178
1004.0 0.000996 988.85193 1001.99280
1042.0 0.000960 988.17511 1002.43164
1010.0 0.000990 987.49329 1003.06085
1020.0 0.000980 986.80664 1003.93964
1077.0 0.000929 986.11493 1005.15814
1022.0 0.000978 985.41809 1006.86798
1017.0 0.000983 984.71631 1009.39893
1064.0 0.000940 984.00928 1013.67767
1066.0 0.000938 983.29730 1022.38672
1060.0 0.000943 982.57996 1042.18164
1222.0 0.000818 981.85724 1085.44214
1228.0 0.000814 981.12952 1166.07263
1285.0 0.000778 980.39630 1284.03894
1434.0 0.000697 979.65784 1407.57947
1559.0 0.000641 978.91388 1478.47839
1494.0 0.000669 978.16431 1463.38159
1430.0 0.000699 977.40955 1399.90271
1358.0 0.000736 976.64911 1325.91345
1310.0 0.000763 975.88324 1242.50745
1247.0 0.000802 975.11176 1159.40515
1218.0 0.000821 974.33453 1096.86243
1077.0 0.000929 973.55182 1061.41479
1108.0 0.000903 972.76318 1047.13538
1097.0 0.000912 971.96912 1044.91040
1051.0 0.000951 971.16913 1048.69238
1096.0 0.000912 970.36316 1056.16479
1140.0 0.000877 969.55170 1067.08960
1084.0 0.000923 968.73425 1082.22412
1168.0 0.000856 967.91101 1103.16614
1177.0 0.000850 967.08179 1133.38037
1237.0 0.000808 966.24646 1182.29785
1385.0 0.000722 965.40540 1277.96240
1533.0 0.000652 964.55829 1495.02393
1937.0 0.000516 963.70526 1987.33838
3065.0 0.0003263 962.84613 2966.15625
4537.0 0.0002204 961.98077 4527.22314
6540.0 0.0001529 961.10956 6370.63330
7710.0 0.0001297 960.23199 7732.42188
7536.0 0.0001327 959.34863 7894.69482
7376.0 0.0001356 958.45886 7101.29834
6253.0 0.0001599 957.56287 6051.66455
4395.0 0.0002275 956.66089 4886.16016
3294.0 0.0003036 955.75262 3612.56006
2582.0 0.000387 954.83820 2514.68799
1761.0 0.000568 953.91748 1782.69385
1333.0 0.000750 952.99030 1392.58289
1140.0 0.000877 952.05713 1215.69385
1115.0 0.000897 951.11755 1136.44702
1058.0 0.000945 950.17188 1094.26428
1023.0 0.000978 949.21973 1066.53369
1028.0 0.000973 948.26105 1046.03906
964.0 0.001037 947.29645 1030.12598
1026.0 0.000975 946.32520 1017.41510
956.0 0.001046 945.34796 1007.04736
990.0 0.001010 944.36407 998.42969
997.0 0.001003 943.37378 990.79907
1003.0 0.000997 942.37738 984.57349
989.0 0.001011 941.37445 979.16364
943.0 0.001060 940.36536 974.40692
1003.0 0.000997 939.34973 970.00964
983.0 0.001017 938.32751 966.21613
938.0 0.001066 937.29932 962.77759
917.0 0.001091 936.26459 959.63214
969.0 0.001032 935.22363 956.73309
937.0 0.001067 934.17621 954.04095
918.0 0.001089 933.12219 951.52380
875.0 0.001143 932.06226 949.15723
998.0 0.001002 930.99567 946.91833
927.0 0.001079 929.92297 944.79016
907.0 0.001103 928.84381 942.75714
930.0 0.001075 927.75824 940.80658
885.0 0.001130 926.66663 938.92834
915.0 0.001093 925.56848 937.11267
952.0 0.001050 924.46429 935.35211
917.0 0.001091 923.35370 933.63959
947.0 0.001056 922.23657 931.96906
952.0 0.001050 921.11359 930.33630
910.0 0.001099 919.98425 928.73608
913.0 0.001095 918.84882 927.16498
899.0 0.001112 917.70715 920.62225
954.0 0.001048 916.55902 919.32874
892.0 0.001121 915.40521 918.04010
900.0 0.001111 914.24493 914.23663
951.0 0.001052 913.07880 913.07050
873.0 0.001145 911.90656 911.89813
890.0 0.001124 910.72797 910.71948
875.0 0.001143 909.54370 909.53510
911.0 0.001098 908.35321 908.34460
875.0 0.001143 907.15698 907.14832
886.0 0.001129 905.95471 905.94592
907.0 0.001103 904.74622 904.73737
930.0 0.001075 903.53223 903.52332
887.0 0.001127 902.31219 902.30322
909.0 0.001100 901.08655 901.07745
876.0 0.001142 899.85504 899.84589
911.0 0.001098 898.61737 898.60822
924.0 0.001082 897.37463 897.36536
912.0 0.001096 896.12573 896.11639
823.0 0.001215 894.87152 894.86212
840.0 0.001190 893.61163 893.60217
900.0 0.001111 892.34589 892.33643
878.0 0.001139 891.07495 891.06543
932.0 0.001073 889.79840 889.78876
867.0 0.001153 888.51654 888.50684
905.0 0.001105 887.22925 887.21948
881.0 0.001135 885.93622 885.92639
872.0 0.001147 884.63831 884.62842
887.0 0.001127 883.33490 883.32501
891.0 0.001122 882.02655 882.01660
923.0 0.001083 880.71289 880.70288
883.0 0.001133 879.39374 881.09656
885.0 0.001130 878.07013 879.85907
908.0 0.001101 876.74103 878.62286
828.0 0.001208 875.40729 878.21844
861.0 0.001161 874.06848 877.02930
901.0 0.001110 872.72461 875.84729
945.0 0.001058 871.37622 874.67426
881.0 0.001135 870.02277 873.51147
878.0 0.001139 868.66504 872.36127
882.0 0.001134 867.30243 871.22528
892.0 0.001121 865.93481 870.10590
869.0 0.001151 864.56323 869.00659
925.0 0.001081 863.18683 867.93018
896.0 0.001116 861.80627 866.88092
876.0 0.001142 860.42126 865.86310
914.0 0.001094 859.03149 864.88202
897.0 0.001115 857.63806 863.94482
866.0 0.001155 856.24011 863.05884
859.0 0.001164 854.83832 862.23389
908.0 0.001101 853.43231 861.48102
873.0 0.001145 852.02209 860.81476
891.0 0.001122 850.60828 860.25269
883.0 0.001133 849.19019 861.47516
878.0 0.001139 847.76886 861.27686
840.0 0.001190 846.34344 861.27502
836.0 0.001196 844.91400 862.31793
853.0 0.001172 843.48145 862.90607
880.0 0.001136 842.04510 863.88733
892.0 0.001121 840.60553 865.37567
832.0 0.001202 839.16235 867.53040
882.0 0.001134 837.71552 870.57947
884.0 0.001131 836.26593 874.86133
892.0 0.001121 834.81281 880.95081
926.0 0.001080 833.35687 890.07721
910.0 0.001099 831.89771 905.67828
1005.0 0.000995 830.43524 937.86285
1028.0 0.000973 828.97028 1012.25513
1153.0 0.000867 827.50208 1178.34253
1581.0 0.000633 826.03162 1497.30701
2142.0 0.000467 824.55817 1986.85107
2574.0 0.000389 823.08167 2544.24341
2802.0 0.000357 821.60315 2940.35571
2779.0 0.000360 820.12189 2978.29639
2877.0 0.0003476 818.63843 2743.92749
2625.0 0.000381 817.15253 2449.24438
2024.0 0.000494 815.66394 2138.59546
1710.0 0.000585 814.17371 1779.22119
1461.0 0.000684 812.68109 1429.21252
1153.0 0.000867 811.18665 1165.58801
999.0 0.001001 809.69012 1007.80109
919.0 0.001088 808.19147 930.34259
888.0 0.001126 806.69135 896.83063
860.0 0.001163 805.18909 882.48792
866.0 0.001155 803.68567 876.27344
937.0 0.001067 802.18030 874.69257
906.0 0.001104 800.67328 877.46198
915.0 0.001093 799.16522 886.87195
917.0 0.001091 797.65552 911.03552
1001.0 0.000999 796.14478 971.65900
1083.0 0.000923 794.63275 1112.65637
1410.0 0.000709 793.11914 1392.86975
1873.0 0.000534 791.60504 1839.49756
2645.0 0.000378 790.08966 2374.86060
2928.0 0.0003415 788.57367 2794.27637
2745.0 0.000364 787.05676 2887.84302
2900.0 0.0003448 785.53864 2689.66040
2804.0 0.000357 784.02057 2409.66895
2105.0 0.000475 782.50134 2122.35205
1685.0 0.000593 780.98212 1789.27661
1503.0 0.000665 779.46210 1443.45337
1228.0 0.000814 777.94159 1164.63757
985.0 0.001015 776.42120 986.27313
863.0 0.001159 774.90033 892.44934
867.0 0.001153 773.37958 848.61835
851.0 0.001175 771.85864 827.36121
772.0 0.001295 770.33740 814.87042
790.0 0.001266 768.81671 805.96997
801.0 0.001248 767.29596 798.93469
783.0 0.001277 765.77576 793.10864
780.0 0.001282 764.25574 788.14484
806.0 0.001241 762.73578 783.82196
755.0 0.001325 761.21692 779.98926
752.0 0.001330 759.69824 776.53491
735.0 0.001361 758.18030 771.72894
773.0 0.001294 756.66309 768.88947
756.0 0.001323 755.14642 766.23859
786.0 0.001272 753.63092 762.89880
754.0 0.001326 752.11627 760.57001
768.0 0.001302 750.60266 758.34540
742.0 0.001348 749.09015 756.20801
730.0 0.001370 747.57855 754.14417
764.0 0.001309 746.06866 752.14423
724.0 0.001381 744.55957 750.19788
705.0 0.001418 743.05243 748.29919
758.0 0.001319 741.54645 746.44104
756.0 0.001323 740.04144 744.61810
718.0 0.001393 738.53888 742.82776
764.0 0.001309 737.03741 741.06482
727.0 0.001376 735.53821 739.32727
703.0 0.001422 734.04059 737.61188
737.0 0.001357 732.54431 735.91602
736.0 0.001359 731.05078 734.23920
749.0 0.001335 729.55872 732.57843
726.0 0.001377 728.06927 730.93335
738.0 0.001355 726.58173 729.30182
719.0 0.001391 725.09613 726.05725
707.0 0.001414 723.61310 724.52545
701.0 0.001427 722.13220 722.99939
720.0 0.001389 720.65417 720.64606
712.0 0.001404 719.17847 719.17035
672.0 0.001488 717.70502 717.69702
729.0 0.001372 716.23444 716.22650
674.0 0.001484 714.76654 714.75873
756.0 0.001323 713.30145 713.29364
733.0 0.001364 711.83911 711.83142
708.0 0.001412 710.37946 710.37183
686.0 0.001458 708.92297 708.91541
689.0 0.001451 707.46948 707.46204
721.0 0.001387 706.01904 706.01166
709.0 0.001410 704.57178 704.56445
656.0 0.001524 703.12738 703.12018
718.0 0.001393 701.68677 701.67963
669.0 0.001495 700.24896 700.24188
700.0 0.001429 698.81506 698.80804
666.0 0.001502 697.38403 697.37708
699.0 0.001431 695.95648 695.94965
685.0 0.001460 694.53296 694.52618
692.0 0.001445 693.11255 693.10590
702.0 0.001425 691.69629 691.68970
697.0 0.001435 690.28345 690.27692
650.0 0.001538 688.87390 688.86743
696.0 0.001437 687.46887 687.46252
675.0 0.001481 686.06720 686.06091
702.0 0.001425 684.66998 684.66376
726.0 0.001377 683.27643 683.27032
675.0 0.001481 681.88641 681.88037
647.0 0.001546 680.50122 680.49530
654.0 0.001529 679.11963 679.11377
692.0 0.001445 677.74268 677.73688
656.0 0.001524 676.36975 676.36401
695.0 0.001439 675.00079 674.99512
666.0 0.001502 673.63635 673.63080
668.0 0.001497 672.27631 672.27081
677.0 0.001477 670.92059 670.91522
703.0 0.001422 669.56940 669.56403
640.0 0.001563 668.22241 668.21716
698.0 0.001433 666.88013 666.87500
656.0 0.001524 665.54248 665.85254
626.0 0.001597 664.20941 664.53540
654.0 0.001529 662.88098 663.22418
664.0 0.001506 661.55701 662.06848
620.0 0.001613 660.23828 660.77722
677.0 0.001477 658.92377 659.49243
674.0 0.001484 657.61432 658.21533
642.0 0.001558 656.30969 656.94568
670.0 0.001493 655.00970 655.68378
668.0 0.001497 653.71515 654.43079
645.0 0.001550 652.42505 653.18622
639.0 0.001565 651.14032 651.95154
621.0 0.001610 649.86041 650.72675
607.0 0.001647 648.58508 649.51227
648.0 0.001543 647.31555 648.31012
646.0 0.001548 646.05060 647.12018
648.0 0.001543 644.79132 645.94464
683.0 0.001464 643.53687 644.78430
643.0 0.001555 642.28723 643.64056
684.0 0.001462 641.04346 642.51672
651.0 0.001536 639.80450 641.41443
621.0 0.001610 638.57123 640.33759
661.0 0.001513 637.34308 639.28986
620.0 0.001613 636.12000 638.27631
638.0 0.001567 634.90247 637.30402
689.0 0.001451 633.69031 636.38153
596.0 0.001678 632.48358 635.51990
604.0 0.001656 631.28217 634.73468
657.0 0.001522 630.08606 634.04663
605.0 0.001653 628.89557 633.48474
660.0 0.001515 627.71057 633.09143
659.0 0.001517 626.53101 632.93182
628.0 0.001592 625.35699 633.12994
617.0 0.001621 624.18829 633.99402
659.0 0.001517 623.02551 636.41840
655.0 0.001527 621.86792 642.85376
597.0 0.001675 620.71606 658.75049
730.0 0.001370 619.56976 692.93256
761.0 0.001314 618.42889 753.59174
867.0 0.001153 617.29401 838.41095
915.0 0.001093 616.16437 925.39001
876.0 0.001142 615.04071 977.29346
839.0 0.001192 613.92255 971.61462
870.0 0.001149 612.80957 930.01306
826.0 0.001211 611.70288 884.32910
802.0 0.001247 610.60144 839.34784
663.0 0.001508 609.50610 785.96533
731.0 0.001368 608.41620 728.45526
692.0 0.001445 607.33160 679.64819
625.0 0.001600 606.25323 646.29645
604.0 0.001656 605.18024 627.27972
578.0 0.001730 604.11328 617.58929
618.0 0.001618 603.05182 612.52643
593.0 0.001686 601.99591 609.38098
663.0 0.001508 600.94586 607.00854
631.0 0.001585 599.90131 605.00427
603.0 0.001658 598.86285 603.22491
617.0 0.001621 597.82990 601.60309
599.0 0.001669 596.80249 600.09912
588.0 0.001701 595.78094 598.68652
575.0 0.001739 594.76501 597.34558
637.0 0.001570 593.75488 596.06226
564.0 0.001773 592.75037 594.82593
596.0 0.001678 591.75140 593.62848
606.0 0.001650 590.75830 592.46429
553.0 0.001808 589.77081 591.32813
572.0 0.001748 588.78900 590.21631
601.0 0.001664 587.81287 589.12585
578.0 0.001730 586.84222 588.05414
572.0 0.001748 585.87756 586.99963
588.0 0.001701 584.91815 585.96008
545.0 0.001835 583.96472 584.93481
604.0 0.001656 583.01672 583.92212
587.0 0.001704 582.07404 582.92108
618.0 0.001618 581.13739 581.93152
556.0 0.001799 580.20605 580.95209
523.0 0.001912 579.28052 579.98273
599.0 0.001669 578.36041 579.02258
607.0 0.001647 577.44556 578.07098
603.0 0.001658 576.53668 577.12836
592.0 0.001689 575.63300 576.19354
553.0 0.001808 574.73511 575.26697
557.0 0.001795 573.84259 574.03357
538.0 0.001859 572.95532 573.13647
571.0 0.001751 572.07367 572.24573
602.0 0.001661 571.19733 571.36084
550.0 0.001818 570.32666 570.32635
577.0 0.001733 569.46124 569.46100
584.0 0.001712 568.60107 568.60077
577.0 0.001733 567.74640 567.74615
614.0 0.001629 566.89703 566.89679
554.0 0.001805 566.05298 566.05280
574.0 0.001742 565.21423 565.21405
602.0 0.001661 564.38068 564.38049
563.0 0.001776 563.55243 563.55231
548.0 0.001825 562.72943 562.72931
544.0 0.001838 561.91168 561.91156
562.0 0.001779 561.09912 561.09900
541.0 0.001848 560.29150 560.56628
583.0 0.001715 559.48938 559.77777
541.0 0.001848 558.69208 558.99518
571.0 0.001751 557.90009 558.21906
549.0 0.001821 557.11298 557.58429
526.0 0.001901 556.33087 556.82733
586.0 0.001706 555.55402 556.07776
602.0 0.001661 554.78192 555.33521
525.0 0.001905 554.01501 554.60040
557.0 0.001795 553.25299 553.87341
536.0 0.001866 552.49554 553.15424
528.0 0.001894 551.74341 552.44397
554.0 0.001805 550.99585 551.74243
561.0 0.001783 550.25342 551.05072
572.0 0.001748 549.51563 550.36896
552.0 0.001812 548.78235 549.69800
536.0 0.001866 548.05420 549.03906
510.0 0.001961 547.33051 548.39288
534.0 0.001873 546.61176 547.76111
540.0 0.001852 545.89752 547.14502
518.0 0.001931 545.18787 546.54663
561.0 0.001783 544.48285 545.96851
548.0 0.001825 543.78241 545.41370
562.0 0.001779 543.08655 544.88599
501.0 0.001996 542.39514 544.39020
525.0 0.001905 541.70813 543.93262
546.0 0.001832 541.02570 543.52142
516.0 0.001938 540.34766 543.16766
556.0 0.001799 539.67401 542.88593
588.0 0.001701 539.00470 542.69629
552.0 0.001812 538.33960 542.62708
588.0 0.001701 537.67902 542.72089
565.0 0.001770 537.02246 543.05054
579.0 0.001727 536.37024 543.77789
559.0 0.001789 535.72223 545.35107
556.0 0.001799 535.07825 549.03027
537.0 0.001862 534.43866 557.86755
599.0 0.001669 533.80292 577.61243
714.0 0.001401 533.17145 615.62347
797.0 0.001255 532.54395 675.75171
1028.0 0.000973 531.92017 750.33392
1091.0 0.000917 531.30072 816.12213
995.0 0.001005 530.68494 844.18628
939.0 0.001065 530.07330 827.52289
1001.0 0.000999 529.46545 790.65930
999.0 0.001001 528.86121 755.06512
825.0 0.001212 528.26111 721.02222
685.0 0.001460 527.66449 678.83099
719.0 0.001391 527.07184 632.49451
612.0 0.001634 526.48285 592.09802
644.0 0.001553 525.89734 563.87109
560.0 0.001786 525.31561 547.04016
555.0 0.001802 524.73749 538.33649
542.0 0.001845 524.16290 533.96136
540.0 0.001852 523.59192 531.48871
543.0 0.001842 523.02429 529.79456
508.0 0.001969 522.46021 528.45605
548.0 0.001825 521.89960 527.32202
583.0 0.001715 521.34241 526.32953
519.0 0.001927 520.78857 525.44379
528.0 0.001894 520.23792 524.64178
527.0 0.001898 519.69080 523.90790
539.0 0.001855 519.14679 523.23047
505.0 0.001980 518.60614 522.60138
514.0 0.001946 518.06860 522.01477
553.0 0.001808 517.53418 521.46643
548.0 0.001825 517.00311 520.95386
518.0 0.001931 516.47498 520.47485
469.0 0.002132 515.95007 520.02917
501.0 0.001996 515.42810 519.61652
511.0 0.001957 514.90900 519.23785
522.0 0.001916 514.39313 518.89490
521.0 0.001919 513.88000 518.59009
522.0 0.001916 513.37000 518.32690
493.0 0.002028 512.86285 518.10974
527.0 0.001898 512.35828 517.94440
570.0 0.001754 511.85684 517.83826
512.0 0.001953 511.35800 517.80042
522.0 0.001916 510.86209 517.84296
444.0 0.002252 510.36887 517.98065
530.0 0.001887 509.87820 518.23291
483.0 0.002070 509.39035 518.62469
551.0 0.001815 508.90500 519.18890
577.0 0.001733 508.42242 519.68939
521.0 0.001919 507.94238 520.75800
538.0 0.001859 507.46478 522.18280
560.0 0.001786 506.98978 524.07947
527.0 0.001898 506.51724 526.48901
511.0 0.001957 506.04721 530.03772
506.0 0.001976 505.57959 535.40784
548.0 0.001825 505.11429 544.93689
557.0 0.001795 504.65146 564.85010
608.0 0.001645 504.19095 608.99030
594.0 0.001684 503.73279 700.54132
827.0 0.001209 503.27692 864.57886
1067.0 0.000937 502.82318 1106.29431
1362.0 0.000734 502.37189 1384.28723
1400.0 0.000714 501.92261 1605.79675
1420.0 0.000704 501.47568 1674.95068
1514.0 0.000661 501.03082 1592.95483
1559.0 0.000641 500.58795 1456.55017
1354.0 0.000739 500.14740 1332.14978
1026.0 0.000975 499.70880 1209.77185
905.0 0.001105 499.27237 1058.82300
880.0 0.001136 498.83792 891.97656
739.0 0.001353 498.40530 745.13776
618.0 0.001618 497.97485 640.03168
570.0 0.001754 497.54626 577.30652
548.0 0.001825 497.11972 544.91309
501.0 0.001996 496.69498 529.20850
524.0 0.001908 496.27209 521.07458
487.0 0.002053 495.85110 516.07349
495.0 0.002020 495.43188 512.45880
508.0 0.001969 495.01462 509.60333
499.0 0.002004 494.59906 507.25012
457.0 0.002188 494.18521 505.26376
523.0 0.001912 493.77316 503.55743
468.0 0.002137 493.36282 502.06815
468.0 0.002137 492.95422 500.75073
468.0 0.002137 492.54727 499.59534
503.0 0.001988 492.14191 498.52786
496.0 0.002016 491.73825 497.55237
497.0 0.002012 491.33621 496.65277
494.0 0.002024 490.93576 495.81689
489.0 0.002045 490.53693 495.04709
451.0 0.002217 490.13953 494.31104
463.0 0.002160 489.74384 493.61438
504.0 0.001984 489.34955 492.95145
488.0 0.002049 488.95685 492.31815
457.0 0.002188 488.56552 491.71042
512.0 0.001953 488.17566 491.12527
444.0 0.002252 487.78735 490.56039
497.0 0.002012 487.40039 490.01315
503.0 0.001988 487.01495 489.48206
454.0 0.002203 486.63083 488.96506
476.0 0.002101 486.24799 488.46094
495.0 0.002020 485.86667 487.96875
482.0 0.002075 485.48660 487.48709
528.0 0.001894 485.10797 487.01541
466.0 0.002146 484.73062 486.55270
471.0 0.002123 484.35443 486.09818
454.0 0.002203 483.97974 485.65164
488.0 0.002049 483.60614 485.21231
492.0 0.002033 483.23398 484.78000
466.0 0.002146 482.86301 484.35419
466.0 0.002146 482.49319 483.93457
460.0 0.002174 482.12466 483.52109
507.0 0.001972 481.75732 483.11356
464.0 0.002155 481.39120 482.71182
484.0 0.002066 481.02628 481.61954
478.0 0.002092 480.66241 481.25574
462.0 0.002165 480.29984 480.89676
482.0 0.002075 479.93835 480.54285
473.0 0.002114 479.57803 480.19461
460.0 0.002174 479.21884 479.51450
473.0 0.002114 478.86072 479.19266
490.0 0.002041 478.50381 478.87906
457.0 0.002188 478.14786 478.57538
475.0 0.002105 477.79309 478.28445
451.0 0.002217 477.43936 478.00998
468.0 0.002137 477.08667 477.75775
525.0 0.001905 476.73520 477.53909
524.0 0.001908 476.38458 477.38107
509.0 0.001965 476.03519 477.35980
470.0 0.002128 475.68674 477.67313
465.0 0.002151 475.33920 478.75290
484.0 0.002066 474.99289 481.31949
487.0 0.002053 474.64746 486.17511
487.0 0.002053 474.30313 493.57571
619.0 0.001616 473.95978 502.43732
600.0 0.001667 473.61731 510.03592
565.0 0.001770 473.27600 513.16840
561.0 0.001783 472.93558 511.25275
537.0 0.001862 472.59619 506.54474
589.0 0.001698 472.25775 501.96649
561.0 0.001783 471.92023 497.87827
519.0 0.001927 471.58374 493.27621
450.0 0.002222 471.24820 487.63583
524.0 0.001908 470.91360 482.05615
482.0 0.002075 470.57993 477.52469
438.0 0.002283 470.24719 474.40897
460.0 0.002174 469.91544 472.51718
499.0 0.002004 469.58463 471.41541
449.0 0.002227 469.25476 470.72278
465.0 0.002151 468.92584 470.21210
481.0 0.002079 468.59778 469.77985
481.0 0.002079 468.27075 469.38669
461.0 0.002169 467.94452 469.01758
478.0 0.002092 467.61929 469.64996
452.0 0.002212 467.29501 469.35220
445.0 0.002247 466.97156 469.06906
529.0 0.001890 466.64917 468.79962
431.0 0.002320 466.32758 468.54303
481.0 0.002079 466.00699 468.79251
461.0 0.002169 465.68726 468.58081
473.0 0.002114 465.36835 468.38330
443.0 0.002257 465.05054 468.20102
462.0 0.002165 464.73352 468.03488
500.0 0.002000 464.41754 467.88641
485.0 0.002062 464.10236 467.75723
459.0 0.002179 463.78806 467.64954
447.0 0.002237 463.47479 467.56616
493.0 0.002028 463.16235 467.51016
471.0 0.002123 462.85092 467.48575
500.0 0.002000 462.54034 467.49771
461.0 0.002169 462.23065 467.55228
438.0 0.002283 461.92194 467.65723
486.0 0.002058 461.61407 467.82230
496.0 0.002016 461.30725 468.06036
454.0 0.002203 461.00128 468.38782
450.0 0.002222 460.69617 468.82697
468.0 0.002137 460.39209 469.40781
491.0 0.002037 460.08890 470.17569
508.0 0.001969 459.78662 471.20758
526.0 0.001901 459.48532 472.67752
483.0 0.002070 459.18488 475.04724
492.0 0.002033 458.88541 479.53232
502.0 0.001992 458.58688 488.92383
531.0 0.001883 458.28931 508.30011
540.0 0.001852 457.99268 544.33026
597.0 0.001675 457.69693 601.57117
711.0 0.001406 457.40225 676.24512
827.0 0.001209 457.10840 751.68176
850.0 0.001176 456.81561 801.49274
802.0 0.001247 456.52374 807.10016
816.0 0.001225 456.23273 778.59930
819.0 0.001221 455.94281 742.28925
809.0 0.001236 455.65378 711.89063
645.0 0.001550 455.36578 683.00354
674.0 0.001484 455.07874 646.94257
614.0 0.001629 454.79257 606.18146
588.0 0.001701 454.50754 570.72485
578.0 0.001730 454.22336 549.39624
584.0 0.001712 453.94028 549.53925
571.0 0.001751 453.65814 581.97894
635.0 0.001575 453.37692 666.76556
701.0 0.001427 453.09680 831.17340
934.0 0.001071 452.81760 1093.08325
1350.0 0.000741 452.53949 1432.61084
1756.0 0.000569 452.26233 1772.14319
1714.0 0.000583 451.98615 1991.57629
1598.0 0.000626 451.71103 2008.65381
1700.0 0.000588 451.43692 1870.49121
1826.0 0.000548 451.16382 1696.12000
1481.0 0.000675 450.89175 1547.64783
1128.0 0.000887 450.62073 1404.95703
983.0 0.001017 450.35068 1226.81299
932.0 0.001073 450.08176 1020.56213
800.0 0.001250 449.81375 827.36523
641.0 0.001560 449.54688 678.36884
592.0 0.001689 449.28104 581.75146
551.0 0.001815 449.01620 527.71399
523.0 0.001912 448.75247 500.35025
467.0 0.002141 448.48978 486.59869
515.0 0.001942 448.22809 478.90787
452.0 0.002212 447.96750 473.83667
489.0 0.002045 447.70798 470.04013
474.0 0.002110 447.44952 467.00732
468.0 0.002137 447.19217 464.50742
512.0 0.001953 446.93579 462.40976
492.0 0.002033 446.68060 460.62598
475.0 0.002105 446.42642 459.09106
487.0 0.002053 446.17340 457.75784
503.0 0.001988 445.92136 456.58936
462.0 0.002165 445.67041 455.55820
459.0 0.002179 445.42065 454.64307
460.0 0.002174 445.17188 453.82681
480.0 0.002083 444.92429 453.09692
450.0 0.002222 444.67773 452.44287
429.0 0.002331 444.43225 451.85733
437.0 0.002288 444.18796 451.33487
489.0 0.002045 443.94470 450.87137
444.0 0.002252 443.70264 450.46503
473.0 0.002114 443.46158 450.11505
468.0 0.002137 443.22162 450.19595
488.0 0.002049 442.98288 449.76498
452.0 0.002212 442.74515 449.62415
485.0 0.002062 442.50861 449.55893
483.0 0.002070 442.27310 449.58145
483.0 0.002070 442.03879 449.89508
446.0 0.002242 441.80557 450.05588
441.0 0.002268 441.57346 450.49747
457.0 0.002188 441.34247 451.18185
458.0 0.002183 441.11255 452.27655
465.0 0.002151 440.88382 454.22638
422.0 0.002370 440.65619 458.18823
457.0 0.002188 440.42969 466.78000
463.0 0.002160 440.20432 484.74976
460.0 0.002174 439.98004 518.45654
515.0 0.001942 439.75687 572.69519
596.0 0.001678 439.53488 645.19104
641.0 0.001560 439.31396 722.00787
650.0 0.001538 439.09418 777.66827
684.0 0.001462 438.87552 792.66144
653.0 0.001531 438.65793 768.71136
668.0 0.001497 438.44156 730.17389
631.0 0.001585 438.22623 695.65234
612.0 0.001634 438.01205 665.32422
527.0 0.001898 437.79898 630.50470
558.0 0.001792 437.58698 587.22821
509.0 0.001965 437.37616 542.57123
494.0 0.002024 437.16638 504.79706
505.0 0.001980 436.95776 478.02466
474.0 0.002110 436.75021 461.82120
459.0 0.002179 436.54376 453.20374
475.0 0.002105 436.33847 448.94647
467.0 0.002141 436.13425 446.81573
440.0 0.002273 435.93112 445.64856
456.0 0.002193 435.72906 444.95145
456.0 0.002193 435.52814 444.54407
494.0 0.002024 435.32825 444.36597
405.0 0.002469 435.12949 444.40240
433.0 0.002309 434.93179 444.66144
440.0 0.002273 434.73514 445.17169
488.0 0.002049 434.53958 445.99194
459.0 0.002179 434.34512 447.24884
480.0 0.002083 434.15170 449.26538
493.0 0.002028 433.95935 452.91022
459.0 0.002179 433.76807 460.36984
512.0 0.001953 433.57776 476.30753
510.0 0.001961 433.38861 508.61240
593.0 0.001686 433.20041 566.88251
684.0 0.001462 433.01328 656.78424
955.0 0.001047 432.82718 771.85675
1160.0 0.000862 432.64206 887.65936
1190.0 0.000840 432.45804 966.13800
1039.0 0.000962 432.27496 978.77112
1100.0 0.000909 432.09296 936.32721
1190.0 0.000840 431.91190 876.65991
1000.0 0.001000 431.73181 824.96790
871.0 0.001148 431.55280 779.77655
809.0 0.001236 431.37469 726.05060
739.0 0.001353 431.19763 659.49390
625.0 0.001600 431.02145 591.04047
555.0 0.001802 430.84625 533.05963
475.0 0.002105 430.67206 491.69193
437.0 0.002288 430.49875 466.34369
434.0 0.002304 430.32645 452.59119
461.0 0.002169 430.15500 445.56390
490.0 0.002041 429.98453 441.83521
435.0 0.002299 429.81494 439.57095
473.0 0.002114 429.64624 437.96570
456.0 0.002193 429.47849 436.70532
437.0 0.002288 429.31155 435.66275
417.0 0.002398 429.14557 434.54474
470.0 0.002128 428.98041 433.78894
473.0 0.002114 428.81613 433.12732
429.0 0.002331 428.65271 432.54117
426.0 0.002347 428.49011 432.01602
411.0 0.002433 428.32834 431.42532
409.0 0.002445 428.16742 430.99603
443.0 0.002257 428.00729 430.60104
382.0 0.002618 427.84796 430.23514
435.0 0.002299 427.68945 429.89380
466.0 0.002146 427.53171 429.57346
475.0 0.002105 427.37476 429.27139
432.0 0.002315 427.21851 428.98502
451.0 0.002217 427.06308 428.71243
426.0 0.002347 426.90836 428.45175
385.0 0.002597 426.75433 428.20175
416.0 0.002404 426.60110 427.96121
411.0 0.002433 426.44852 427.72903
394.0 0.002538 426.29666 427.50433
457.0 0.002188 426.14545 427.28635
424.0 0.002358 425.99493 427.07440
432.0 0.002315 425.84509 426.86798
425.0 0.002353 425.69586 426.66653
408.0 0.002451 425.54733 426.46967
446.0 0.002242 425.39938 426.27682
415.0 0.002410 425.25204 426.08789
415.0 0.002410 425.10532 425.90240
430.0 0.002326 424.95917 425.72009
416.0 0.002404 424.81360 425.54083
400.0 0.002500 424.66858 425.36429
423.0 0.002364 424.52414 425.19028
405.0 0.002469 424.38022 425.01865
414.0 0.002415 424.23682 424.84924
429.0 0.002331 424.09396 424.31451
404.0 0.002475 423.95157 424.16290
446.0 0.002242 423.80966 424.01227
408.0 0.002451 423.66821 423.86264
406.0 0.002463 423.52725 423.71399
402.0 0.002488 423.38675 423.38333
421.0 0.002375 423.24664 423.24323
419.0 0.002387 423.10693 423.10352
391.0 0.002558 422.96771 422.96426
403.0 0.002481 422.82880 422.82538
425.0 0.002353 422.69031 422.68689
454.0 0.002203 422.55215 422.56412
412.0 0.002427 422.41434 422.42688
398.0 0.002513 422.27689 422.29010
438.0 0.002283 422.13974 422.15363
405.0 0.002469 422.00293 422.01755
433.0 0.002309 421.86636 421.88928
411.0 0.002433 421.73007 421.75412
406.0 0.002463 421.59409 421.61938
440.0 0.002273 421.45831 421.48486
419.0 0.002387 421.32281 421.35074
421.0 0.002375 421.18750 421.21686
440.0 0.002273 421.05240 421.08334
414.0 0.002415 420.91751 420.95013
447.0 0.002237 420.78275 420.81720
394.0 0.002538 420.64822 420.68463
378.0 0.002646 420.51379 420.55231
371.0 0.002695 420.37952 420.42032
394.0 0.002538 420.24533 420.28867
408.0 0.002451 420.11127 420.15726
423.0 0.002364 419.97729 420.02625
425.0 0.002353 419.84338 419.89557
434.0 0.002304 419.70956 419.76523
391.0 0.002558 419.57578 419.63531
373.0 0.002681 419.44202 419.50583
384.0 0.002604 419.30829 419.37677
401.0 0.002494 419.17453 419.24826
395.0 0.002532 419.04074 419.12033
395.0 0.002532 418.90698 418.99304
433.0 0.002309 418.77316 418.86652
380.0 0.002632 418.63925 418.74084
409.0 0.002445 418.50531 418.61624
424.0 0.002358 418.37125 418.49356
448.0 0.002232 418.23712 418.37164
421.0 0.002375 418.10284 418.25146
392.0 0.002551 417.96851 418.13351
444.0 0.002252 417.83395 418.01816
447.0 0.002237 417.69922 417.90613
384.0 0.002604 417.56439 417.79871
383.0 0.002611 417.42932 417.69632
406.0 0.002463 417.29413 417.60110
384.0 0.002604 417.15863 417.51596
406.0 0.002463 417.02292 417.44672
398.0 0.002513 416.88699 417.40836
404.0 0.002475 416.75079 417.43832
414.0 0.002415 416.61438 417.62515
391.0 0.002558 416.47760 418.14551
400.0 0.002500 416.34055 419.28177
433.0 0.002309 416.20319 421.36032
445.0 0.002247 416.06552 424.56949
468.0 0.002137 415.92749 428.69516
451.0 0.002217 415.78909 432.94675
452.0 0.002212 415.65036 436.04907
417.0 0.002398 415.51126 436.88821
447.0 0.002237 415.37173 435.53574
450.0 0.002222 415.23184 433.20535
375.0 0.002667 415.09149 431.00549
413.0 0.002421 414.95071 429.21021
399.0 0.002506 414.80954 427.38019
409.0 0.002445 414.66785 425.06946
403.0 0.002481 414.52570 422.40036
390.0 0.002564 414.38309 419.82031
409.0 0.002445 414.23996 417.69751
413.0 0.002421 414.09637 416.17603
352.0 0.002841 413.95221 415.19571
441.0 0.002268 413.80756 414.59610
437.0 0.002288 413.66235 414.21646
412.0 0.002427 413.51654 413.94656
436.0 0.002294 413.37027 413.72647
408.0 0.002451 413.22333 413.52921
415.0 0.002410 413.07587 413.34381
393.0 0.002545 412.92773 413.16580
413.0 0.002421 412.77902 412.99313
417.0 0.002398 412.62973 412.82474
400.0 0.002500 412.47977 412.65997
416.0 0.002404 412.32919 412.49954
404.0 0.002475 412.17792 412.34531
386.0 0.002591 412.02600 412.20291
399.0 0.002506 411.87341 412.08237
391.0 0.002558 411.72015 411.99802
388.0 0.002577 411.56622 412.23358
452.0 0.002212 411.41153 412.26096
464.0 0.002155 411.25613 412.31985
455.0 0.002198 411.10007 412.36325
453.0 0.002208 410.94324 412.33005
431.0 0.002320 410.78568 412.18512
496.0 0.002016 410.62735 412.09247
475.0 0.002105 410.46826 411.84518
521.0 0.001919 410.30844 411.61441
462.0 0.002165 410.14783 411.40002
451.0 0.002217 409.98645 411.17743
431.0 0.002320 409.82425 410.93231
404.0 0.002475 409.66125 410.67664
415.0 0.002410 409.49750 410.43158
404.0 0.002475 409.33289 410.21198
429.0 0.002331 409.16751 410.02249
418.0 0.002392 409.00125 409.85895
408.0 0.002451 408.83414 409.71420
414.0 0.002415 408.66626 409.58167
391.0 0.002558 408.49747 409.45688
420.0 0.002381 408.32791 409.33817
401.0 0.002494 408.15741 409.22482
421.0 0.002375 407.98605 409.11703
432.0 0.002315 407.81387 409.01553
392.0 0.002551 407.64078 408.90564
399.0 0.002506 407.46686 408.81982
415.0 0.002410 407.29199 408.74326
432.0 0.002315 407.11627 408.67746
385.0 0.002597 406.93967 408.62433
383.0 0.002611 406.76212 408.58603
407.0 0.002457 406.58371 408.96390
402.0 0.002488 406.40436 408.98029
407.0 0.002457 406.22412 409.02271
423.0 0.002364 406.04297 409.09634
415.0 0.002410 405.86090 409.20786
429.0 0.002331 405.67792 409.36575
403.0 0.002481 405.49402 409.78571
405.0 0.002469 405.30914 410.08087
421.0 0.002375 405.12338 410.46768
425.0 0.002353 404.93671 410.97467
410.0 0.002439 404.74905 411.64880
405.0 0.002469 404.56052 412.58759
436.0 0.002294 404.37097 414.02707
432.0 0.002315 404.18057 416.55478
413.0 0.002421 403.98920 421.52057
442.0 0.002262 403.79691 431.57886
439.0 0.002278 403.60364 451.19101
482.0 0.002075 403.40942 485.07996
541.0 0.001848 403.21432 536.89667
615.0 0.001626 403.01822 604.74561
758.0 0.001319 402.82126 678.28156
848.0 0.001179 402.62329 739.11041
824.0 0.001214 402.42438 767.69733
763.0 0.001311 402.22458 758.04022
739.0 0.001353 402.02380 724.92352
744.0 0.001344 401.82214 688.45203
685.0 0.001460 401.61951 658.78534
656.0 0.001524 401.41589 633.20697
574.0 0.001742 401.21146 602.90833
526.0 0.001901 401.00601 564.43835
578.0 0.001730 400.79971 522.72644
539.0 0.001855 400.59241 484.77448
452.0 0.002212 400.38425 455.25153
464.0 0.002155 400.17514 435.35931
417.0 0.002398 399.96515 423.58707
375.0 0.002667 399.75424 417.35077
448.0 0.002232 399.54236 414.31158
450.0 0.002222 399.32965 412.93311
419.0 0.002387 399.11603 412.41153
412.0 0.002427 398.90152 412.40936
421.0 0.002375 398.68613 412.83896
427.0 0.002342 398.46982 413.77817
424.0 0.002358 398.25262 415.54099
423.0 0.002364 398.03464 418.96164
462.0 0.002165 397.81570 425.96637
465.0 0.002151 397.59595 440.33093
441.0 0.002268 397.37531 468.11646
471.0 0.002123 397.15381 516.64136
496.0 0.002016 396.93152 591.07092
708.0 0.001412 396.70834 689.26093
866.0 0.001155 396.48441 797.28473
995.0 0.001005 396.25955 889.56927
943.0 0.001060 396.03391 937.35352
860.0 0.001163 395.80750 929.21124
835.0 0.001198 395.58023 883.42621
938.0 0.001066 395.35226 829.45813
846.0 0.001182 395.12341 784.69568
669.0 0.001495 394.89377 748.02734
636.0 0.001572 394.66345 707.30396
611.0 0.001637 394.43231 655.60803
581.0 0.001721 394.20047 599.31403
559.0 0.001789 393.96780 550.84393
524.0 0.001908 393.73447 521.20612
469.0 0.002132 393.50040 516.54645
561.0 0.001783 393.26563 536.61169
614.0 0.001629 393.03012 574.44452
737.0 0.001357 392.79388 617.27820
801.0 0.001248 392.55704 649.09216
751.0 0.001332 392.31949 657.35272
742.0 0.001348 392.08127 642.37988
743.0 0.001346 391.84238 616.30212
709.0 0.001410 391.60287 591.11023
611.0 0.001637 391.36267 571.09937
557.0 0.001795 391.12195 552.73315
534.0 0.001873 390.88052 529.93604
513.0 0.001949 390.63855 502.16003
496.0 0.002016 390.39597 472.95490
488.0 0.002049 390.15280 446.88336
406.0 0.002463 389.90912 426.72003
417.0 0.002398 389.66483 412.88223
412.0 0.002427 389.42004 404.52991
406.0 0.002463 389.17465 399.77383
388.0 0.002577 388.92877 397.08160
397.0 0.002519 388.68246 395.42929
380.0 0.002632 388.43558 394.27020
404.0 0.002475 388.18829 393.35449
384.0 0.002604 387.94046 392.57455
408.0 0.002451 387.69217 391.88434
406.0 0.002463 387.44351 391.26068
357.0 0.002801 387.19437 390.68930
390.0 0.002564 386.94489 390.16049
371.0 0.002695 386.69492 389.66635
399.0 0.002506 386.44461 389.20129
419.0 0.002387 386.19394 388.76065
380.0 0.002632 385.94284 388.34058
331.0 0.003021 385.69153 387.93829
379.0 0.002639 385.43976 387.55112
386.0 0.002591 385.18774 387.17719
359.0 0.002786 384.93542 386.81488
385.0 0.002597 384.68280 386.46265
415.0 0.002410 384.42990 386.11948
369.0 0.002710 384.17676 385.78430
379.0 0.002639 383.92334 385.45636
390.0 0.002564 383.66971 385.13504
395.0 0.002532 383.41589 384.41501
375.0 0.002667 383.16187 384.12042
381.0 0.002625 382.90765 383.83011
397.0 0.002519 382.65323 383.54407
390.0 0.002564 382.39874 383.26212
361.0 0.002770 382.14404 382.77768
354.0 0.002825 381.88928 382.51172
386.0 0.002591 381.63434 382.24951
404.0 0.002475 381.37930 381.99155
355.0 0.002817 381.12430 381.73834
373.0 0.002681 380.86911 381.49060
353.0 0.002833 380.61398 381.24954
389.0 0.002571 380.35873 381.01697
352.0 0.002841 380.10349 380.79718
432.0 0.002315 379.84833 380.59985
372.0 0.002688 379.59308 380.25128
376.0 0.002660 379.33795 380.20685
383.0 0.002611 379.08279 380.43231
359.0 0.002786 378.82776 380.97238
358.0 0.002793 378.57278 382.11615
368.0 0.002717 378.31787 384.06329
354.0 0.002825 378.06317 386.74484
380.0 0.002632 377.80850 390.07111
386.0 0.002591 377.55402 393.30792
404.0 0.002475 377.29968 395.47882
380.0 0.002632 377.04553 395.91614
334.0 0.002994 376.79160 394.72324
386.0 0.002591 376.53784 392.72382
353.0 0.002833 376.28427 390.73883
377.0 0.002653 376.03101 389.09872
396.0 0.002525 375.77795 387.60764
355.0 0.002817 375.52524 385.87280
428.0 0.002336 375.27277 383.75693
362.0 0.002762 375.02057 381.47247
362.0 0.002762 374.76877 379.33426
332.0 0.003012 374.51721 377.56699
344.0 0.002907 374.26611 376.25003
362.0 0.002762 374.01526 375.33533
385.0 0.002597 373.76483 374.71277
362.0 0.002762 373.51486 374.27002
369.0 0.002710 373.26523 373.92456
364.0 0.002747 373.01611 373.62811
351.0 0.002849 372.76736 373.35645
363.0 0.002755 372.51907 373.09921
375.0 0.002667 372.27133 372.85223
390.0 0.002564 372.02402 372.61374
338.0 0.002959 371.77728 372.38330
374.0 0.002674 371.53098 372.16077
366.0 0.002732 371.28522 371.94656
365.0 0.002740 371.04010 371.74152
363.0 0.002755 370.79547 371.54639
371.0 0.002695 370.55151 371.36285
390.0 0.002564 370.30804 371.19284
350.0 0.002857 370.06525 371.03912
375.0 0.002667 369.82306 370.90552
337.0 0.002967 369.58154 370.79770
402.0 0.002488 369.34067 370.72595
374.0 0.002674 369.10043 370.71188
356.0 0.002809 368.86090 370.80716
385.0 0.002597 368.62207 371.13345
367.0 0.002725 368.38397 371.95480
437.0 0.002288 368.14661 373.76630
365.0 0.002740 367.90997 377.34406
358.0 0.002793 367.67407 383.62976
365.0 0.002740 367.43900 393.35007
402.0 0.002488 367.20462 406.42584
398.0 0.002513 366.97110 421.40640
425.0 0.002353 366.73840 435.35709
404.0 0.002475 366.50647 444.49347
404.0 0.002475 366.27545 446.19745
412.0 0.002427 366.04520 441.34113
423.0 0.002364 365.81589 433.52701
440.0 0.002273 365.58740 426.03854
401.0 0.002494 365.35977 420.09259
376.0 0.002660 365.13312 414.79184
376.0 0.002660 364.90732 408.44366
367.0 0.002725 364.68253 400.43497
415.0 0.002410 364.45859 391.64441
374.0 0.002674 364.23560 383.37726
364.0 0.002747 364.01364 376.59460
379.0 0.002639 363.79260 371.66690
353.0 0.002833 363.57260 368.44174
364.0 0.002747 363.35352 366.47369
369.0 0.002710 363.13547 365.30103
359.0 0.002786 362.91846 364.56528
360.0 0.002778 362.70248 364.04626
339.0 0.002950 362.48752 363.63190
386.0 0.002591 362.27359 363.27094
360.0 0.002778 362.06076 362.94141
381.0 0.002625 361.84897 362.63354
363.0 0.002755 361.63831 362.34201
379.0 0.002639 361.42868 362.06369
375.0 0.002667 361.22018 361.79620
338.0 0.002959 361.01276 361.53772
343.0 0.002915 360.80652 361.28702
346.0 0.002890 360.60135 361.04294
347.0 0.002882 360.39734 360.80463
345.0 0.002899 360.19446 360.57147
343.0 0.002915 359.99271 360.34271
359.0 0.002786 359.79221 360.11813
388.0 0.002577 359.59280 359.89713
360.0 0.002778 359.39462 359.67960
391.0 0.002558 359.19757 359.46506
351.0 0.002849 359.00171 359.25339
356.0 0.002809 358.80710 359.04456
346.0 0.002890 358.61368 358.83820
369.0 0.002710 358.42148 358.63425
351.0 0.002849 358.23047 358.43262
358.0 0.002793 358.04071 358.23318
376.0 0.002660 357.85220 358.03598
323.0 0.003096 357.66489 357.84085
351.0 0.002849 357.47888 357.64780
350.0 0.002857 357.29407 357.45679
334.0 0.002994 357.11057 357.26785
335.0 0.002985 356.92828 357.08099
351.0 0.002849 356.74725 356.89642
373.0 0.002681 356.56757 356.71439
384.0 0.002604 356.38910 356.53558
368.0 0.002717 356.21194 356.63907
359.0 0.002786 356.03607 356.48544
376.0 0.002660 355.86148 356.28326
375.0 0.002667 355.68820 356.17648
374.0 0.002674 355.51620 356.11041
334.0 0.002994 355.34549 356.09506
384.0 0.002604 355.17609 356.26553
372.0 0.002688 355.00803 356.33557
359.0 0.002786 354.84125 356.36423
358.0 0.002793 354.67581 356.36533
333.0 0.003003 354.51163 356.26541
329.0 0.003040 354.34885 356.07169
383.0 0.002611 354.18732 355.83261
382.0 0.002618 354.02716 355.59729
372.0 0.002688 353.86826 355.38824
388.0 0.002577 353.71069 355.19821
383.0 0.002611 353.55453 355.00314
332.0 0.003012 353.39960 354.78851
316.0 0.003165 353.24609 354.56219
352.0 0.002841 353.09381 354.34241
356.0 0.002809 352.94290 354.14532
392.0 0.002551 352.79333 353.97998
346.0 0.002890 352.64505 353.84732
347.0 0.002882 352.49814 353.74344
336.0 0.002976 352.35254 353.66248
357.0 0.002801 352.20825 353.59991
359.0 0.002786 352.06531 353.55316
361.0 0.002770 351.92365 353.52158
367.0 0.002725 351.78336 353.50616
369.0 0.002710 351.64435 353.50858
389.0 0.002571 351.50665 353.53152
379.0 0.002639 351.37030 353.57822
361.0 0.002770 351.23526 353.65305
372.0 0.002688 351.10150 353.76108
367.0 0.002725 350.96906 353.90918
380.0 0.002632 350.83792 354.10599
335.0 0.002985 350.70807 354.36264
382.0 0.002618 350.57953 354.69510
353.0 0.002833 350.45230 355.12735
375.0 0.002667 350.32632 355.70444
359.0 0.002786 350.20163 356.52338
380.0 0.002632 350.07828 357.81131
349.0 0.002865 349.95612 360.08511
376.0 0.002660 349.83530 364.41028
394.0 0.002538 349.71570 372.70789
378.0 0.002646 349.59735 387.86746
378.0 0.002646 349.48032 413.29276
415.0 0.002410 349.36447 451.59442
482.0 0.002075 349.24994 502.51559
582.0 0.001718 349.13657 561.16278
681.0 0.001468 349.02444 617.41064
699.0 0.001431 348.91360 657.68469
670.0 0.001493 348.80392 670.94104
641.0 0.001560 348.69550 657.52734
681.0 0.001468 348.58823 629.28711
670.0 0.001493 348.48218 599.48633
624.0 0.001603 348.37735 575.31519
618.0 0.001618 348.27365 556.33221
508.0 0.001969 348.17117 536.06879
482.0 0.002075 348.06982 509.74084
477.0 0.002096 347.96967 477.97488
491.0 0.002037 347.87067 445.11377
455.0 0.002198 347.77280 415.59833
403.0 0.002481 347.67606 392.25656
366.0 0.002732 347.58041 375.93945
407.0 0.002457 347.48593 365.50363
361.0 0.002770 347.39255 359.40005
401.0 0.002494 347.30026 355.98730
351.0 0.002849 347.20905 354.05963
376.0 0.002660 347.11893 352.88367
341.0 0.002933 347.02988 352.07861
357.0 0.002801 346.94189 351.46698
344.0 0.002907 346.85495 350.97009
349.0 0.002865 346.76904 350.55243
361.0 0.002770 346.68417 350.19525
379.0 0.002639 346.60031 349.88687
358.0 0.002793 346.51746 349.61948
362.0 0.002762 346.43561 349.38687
356.0 0.002809 346.35474 349.18460
347.0 0.002882 346.27484 349.00906
332.0 0.003012 346.19589 348.85779
370.0 0.002703 346.11795 348.72897
358.0 0.002793 346.04089 348.62122
376.0 0.002660 345.96481 348.53387
333.0 0.003003 345.88962 348.46939
414.0 0.002415 345.81531 348.42267
335.0 0.002985 345.74194 348.39716
359.0 0.002786 345.66940 348.39413
374.0 0.002674 345.59778 348.41553
340.0 0.002941 345.52698 348.46408
344.0 0.002907 345.45706 348.54324
335.0 0.002985 345.38794 348.65906
369.0 0.002710 345.31964 348.81509
376.0 0.002660 345.25217 349.02075
359.0 0.002786 345.18546 349.28738
352.0 0.002841 345.11954 349.63196
343.0 0.002915 345.05438 350.08423
383.0 0.002611 344.98999 350.70667
355.0 0.002817 344.92633 351.64075
377.0 0.002653 344.86337 353.20969
357.0 0.002801 344.80115 356.09366
366.0 0.002732 344.73965 361.56384
357.0 0.002801 344.67880 371.66159
357.0 0.002801 344.61862 388.77316
384.0 0.002604 344.55911 416.04547
369.0 0.002710 344.50024 454.27475
437.0 0.002288 344.44202 501.45547
563.0 0.001776 344.38437 551.54474
623.0 0.001605 344.32736 594.74060
581.0 0.001721 344.27090 620.15308
534.0 0.001873 344.21503 621.78455
551.0 0.001815 344.15973 604.44177
631.0 0.001585 344.10495 578.97290
570.0 0.001754 344.05075 554.87183
551.0 0.001815 343.99701 535.97565
492.0 0.002033 343.94376 520.17834
445.0 0.002247 343.89102 502.25690
426.0 0.002347 343.83875 479.00122
456.0 0.002193 343.78696 451.74957
450.0 0.002222 343.73557 424.17386
440.0 0.002273 343.68463 399.74893
384.0 0.002604 343.63409 380.56693
358.0 0.002793 343.58395 367.07104
378.0 0.002646 343.53421 358.46729
371.0 0.002695 343.48480 353.39365
368.0 0.002717 343.43576 350.53598
337.0 0.002967 343.38705 348.92209
341.0 0.002933 343.33868 347.96048
352.0 0.002841 343.29062 347.34912
340.0 0.002941 343.24283 346.96011
371.0 0.002695 343.19531 346.75430
355.0 0.002817 343.14807 346.72437
347.0 0.002882 343.10107 346.85751
377.0 0.002653 343.05432 347.11090
326.0 0.003067 343.00775 347.40182
335.0 0.002985 342.96140 347.61453
373.0 0.002681 342.91525 347.63531
365.0 0.002740 342.86926 347.42261
385.0 0.002597 342.82346 347.04382
365.0 0.002740 342.77777 346.61560
318.0 0.003145 342.73221 346.22650
362.0 0.002762 342.68677 345.90329
379.0 0.002639 342.64142 345.61334
363.0 0.002755 342.59616 345.30014
358.0 0.002793 342.55096 344.93542
368.0 0.002717 342.50583 344.53775
367.0 0.002725 342.46072 344.14630
365.0 0.002740 342.41565 343.79587
340.0 0.002941 342.37061 343.50641
371.0 0.002695 342.32553 343.28085
377.0 0.002653 342.28046 343.10959
348.0 0.002874 342.23532 342.97791
386.0 0.002591 342.19016 342.87167
381.0 0.002625 342.14496 342.78058
353.0 0.002833 342.09964 342.79257
336.0 0.002976 342.05426 342.71893
362.0 0.002762 342.00876 342.64877
316.0 0.003165 341.96317 342.58145
337.0 0.002967 341.91742 342.51624
335.0 0.002985 341.87155 342.45303
336.0 0.002976 341.82547 342.39154
363.0 0.002755 341.77927 342.13281
368.0 0.002717 341.73288 342.08545
361.0 0.002770 341.68628 342.03906
331.0 0.003021 341.63947 341.99362
333.0 0.003003 341.59241 341.94913
331.0 0.003021 341.54514 341.90549
315.0 0.003175 341.49759 341.73792
351.0 0.002849 341.44983 341.70093
361.0 0.002770 341.40173 341.66464
350.0 0.002857 341.35336 341.62918
366.0 0.002732 341.30472 341.59464
343.0 0.002915 341.25571 341.56107
348.0 0.002874 341.20642 341.52869
352.0 0.002841 341.15674 341.49756
377.0 0.002653 341.10675 341.46793
349.0 0.002865 341.05637 341.44000
340.0 0.002941 341.00562 341.41397
355.0 0.002817 340.95450 341.39026
336.0 0.002976 340.90295 341.36905
348.0 0.002874 340.85098 341.35098
298.0 0.003356 340.79865 341.33633
339.0 0.002950 340.74582 341.32590
324.0 0.003086 340.69257 341.32040
352.0 0.002841 340.63885 341.32068
327.0 0.003058 340.58469 341.32791
362.0 0.002762 340.53003 341.34344
320.0 0.003125 340.47488 341.36908
363.0 0.002755 340.41922 341.40430
334.0 0.002994 340.36307 341.45740
358.0 0.002793 340.30640 341.52969
333.0 0.003003 340.24921 341.62692
313.0 0.003195 340.19144 341.75992
357.0 0.002801 340.13315 341.95038
340.0 0.002941 340.07431 342.24600
339.0 0.002950 340.01486 342.75708
360.0 0.002778 339.95486 343.70142
327.0 0.003058 339.89429 345.48120
336.0 0.002976 339.83310 348.73245
362.0 0.002762 339.77130 354.29907
355.0 0.002817 339.70889 363.03418
341.0 0.002933 339.64587 375.41287
396.0 0.002525 339.58218 391.06277
382.0 0.002618 339.51791 408.38867
394.0 0.002538 339.45297 424.58582
444.0 0.002252 339.38736 436.12933
440.0 0.002273 339.32111 440.23291
408.0 0.002451 339.25418 436.87268
433.0 0.002309 339.18658 428.91861
410.0 0.002439 339.11829 419.91562
432.0 0.002315 339.04929 412.18835
361.0 0.002770 338.97964 406.17517
373.0 0.002681 338.90924 400.68311
346.0 0.002890 338.83817 394.04794
387.0 0.002584 338.76636 385.60266
361.0 0.002770 338.69385 376.01797
386.0 0.002591 338.62057 366.50760
354.0 0.002825 338.54660 358.13687
348.0 0.002874 338.47186 351.53500
329.0 0.003040 338.39639 346.82178
330.0 0.003030 338.32016 343.74002
338.0 0.002959 338.24319 341.85657
320.0 0.003125 338.16547 340.74301
330.0 0.003030 338.08698 340.07361
303.0 0.003300 338.00772 339.63959
350.0 0.002857 337.92767 339.32541
359.0 0.002786 337.84686 339.07339
327.0 0.003058 337.76529 338.85645
318.0 0.003145 337.68289 338.66217
316.0 0.003165 337.59976 338.48419
338.0 0.002959 337.51578 338.31879
347.0 0.002882 337.43106 338.16348
328.0 0.003049 337.34552 338.01630
310.0 0.003226 337.25919 337.87589
331.0 0.003021 337.17206 337.74091
330.0 0.003030 337.08411 337.61053
323.0 0.003096 336.99539 337.48398
332.0 0.003012 336.90582 337.36185
338.0 0.002959 336.81549 337.24582
329.0 0.003040 336.72430 337.12732
369.0 0.002710 336.63232 337.01059
317.0 0.003155 336.53955 336.89542
332.0 0.003012 336.44592 336.78140
309.0 0.003236 336.35156 336.66837
333.0 0.003003 336.25632 336.55676
346.0 0.002890 336.16028 336.44745
325.0 0.003077 336.06342 336.33633
316.0 0.003165 335.96573 336.22562
325.0 0.003077 335.86728 336.11508
320.0 0.003125 335.76797 336.00464
338.0 0.002959 335.66788 335.89423
346.0 0.002890 335.56696 335.78381
339.0 0.002950 335.46524 335.67331
339.0 0.002950 335.36270 335.56265
318.0 0.003145 335.25937 335.45178
327.0 0.003058 335.15521 335.34064
324.0 0.003086 335.05026 335.22925
326.0 0.003067 334.94452 335.02206
349.0 0.002865 334.83795 334.91364
329.0 0.003040 334.73062 334.80457
345.0 0.002899 334.62244 334.69492
380.0 0.002632 334.51352 334.58466
337.0 0.002967 334.40378 334.47385
346.0 0.002890 334.29330 334.36249
314.0 0.003185 334.18198 334.20343
344.0 0.002907 334.06989 334.09259
341.0 0.002933 333.95706 333.98117
319.0 0.003135 333.84341 333.86905
341.0 0.002933 333.72903 333.75632
372.0 0.002688 333.61386 333.64291
346.0 0.002890 333.49796 333.52896
345.0 0.002899 333.38129 333.41449
335.0 0.002985 333.26385 333.29944
303.0 0.003300 333.14572 333.18387
339.0 0.002950 333.02679 333.06787
365.0 0.002740 332.90717 332.95142
299.0 0.003344 332.78677 332.83466
335.0 0.002985 332.66568 332.76767
314.0 0.003185 332.54388 332.65201
344.0 0.002907 332.42133 332.53622
330.0 0.003030 332.29810 332.42062
312.0 0.003205 332.17416 332.30515
335.0 0.002985 332.04956 332.19009
380.0 0.002632 331.92422 332.07568
297.0 0.003367 331.79825 331.98688
342.0 0.002924 331.67154 331.87540
341.0 0.002933 331.54422 331.76599
321.0 0.003115 331.41620 331.65991
350.0 0.002857 331.28757 331.55984
312.0 0.003205 331.15826 331.47168
308.0 0.003247 331.02832 331.46283
304.0 0.003289 330.89777 331.44751
339.0 0.002950 330.76654 331.51834
318.0 0.003145 330.63480 331.73236
359.0 0.002786 330.50235 332.15945
356.0 0.002809 330.36932 332.86316
330.0 0.003030 330.23575 333.86911
360.0 0.002778 330.10153 335.15857
320.0 0.003125 329.96680 336.53583
360.0 0.002778 329.83145 337.79581
336.0 0.002976 329.69556 338.65970
358.0 0.002793 329.55917 338.91187
337.0 0.002967 329.42218 338.54407
327.0 0.003058 329.28473 337.77069
341.0 0.002933 329.14670 336.87494
329.0 0.003040 329.00815 336.06180
341.0 0.002933 328.86917 335.39630
342.0 0.002924 328.72964 334.80969
314.0 0.003185 328.58969 334.16928
348.0 0.002874 328.44919 333.38712
316.0 0.003165 328.30826 332.48141
328.0 0.003049 328.16690 331.53870
375.0 0.002667 328.02512 330.65344
358.0 0.002793 327.88287 329.89520
329.0 0.003040 327.74017 329.29523
319.0 0.003135 327.59711 328.84933
335.0 0.002985 327.45364 328.53012
291.0 0.003436 327.30978 328.30267
350.0 0.002857 327.16556 328.13571
291.0 0.003436 327.02094 328.00671
315.0 0.003175 326.87598 327.90228
356.0 0.002809 326.73068 327.81561
312.0 0.003205 326.58502 327.74451
337.0 0.002967 326.43906 327.68936
329.0 0.003040 326.29279 327.65274
340.0 0.002941 326.14618 327.63995
317.0 0.003155 325.99936 327.66180
330.0 0.003030 325.85217 327.74094
348.0 0.002874 325.70480 327.92630
325.0 0.003077 325.55713 328.31750
319.0 0.003135 325.40918 329.16467
342.0 0.002924 325.26108 330.65149
309.0 0.003236 325.11267 333.29050
345.0 0.002899 324.96414 337.62256
344.0 0.002907 324.81534 344.14084
337.0 0.002967 324.66638 353.04718
349.0 0.002865 324.51727 363.98959
315.0 0.003175 324.36795 375.93423
364.0 0.002747 324.21857 387.05334
369.0 0.002710 324.06897 395.23709
360.0 0.002778 323.91925 398.75302
373.0 0.002681 323.76944 397.42825
356.0 0.002809 323.61951 392.92462
363.0 0.002755 323.46951 387.67404
342.0 0.002924 323.31940 383.73642
349.0 0.002865 323.16925 382.28726
377.0 0.002653 323.01904 383.52615
356.0 0.002809 322.86877 386.94095
314.0 0.003185 322.71851 391.85995
355.0 0.002817 322.56821 397.78537
402.0 0.002488 322.41788 404.06473
450.0 0.002222 322.26761 409.47726
445.0 0.002247 322.11731 412.30539
382.0 0.002618 321.96704 411.09222
456.0 0.002193 321.81683 405.81137
392.0 0.002551 321.66666 398.10492
398.0 0.002513 321.51660 390.00998
429.0 0.002331 321.36655 383.06097
339.0 0.002950 321.21667 377.69763
354.0 0.002825 321.06683 373.30588
421.0 0.002375 320.91708 368.70013
353.0 0.002833 320.76755 362.98154
359.0 0.002786 320.61807 356.12482
365.0 0.002740 320.46881 348.79214
357.0 0.002801 320.31964 341.74182
347.0 0.002882 320.17065 335.64172
339.0 0.002950 320.02191 330.83218
353.0 0.002833 319.87332 327.34735
319.0 0.003135 319.72498 325.00076
345.0 0.002899 319.57681 323.50290
298.0 0.003356 319.42889 322.56973
306.0 0.003268 319.28122 321.97800
316.0 0.003165 319.13379 321.58401
293.0 0.003413 318.98663 321.29947
305.0 0.003279 318.83975 321.07974
365.0 0.002740 318.69318 320.90405
350.0 0.002857 318.54688 320.76437
329.0 0.003040 318.40091 320.65945
314.0 0.003185 318.25525 320.59406
305.0 0.003279 318.10992 320.58191
329.0 0.003040 317.96494 320.65466
331.0 0.003021 317.82031 320.88062
325.0 0.003077 317.67606 321.39606
331.0 0.003021 317.53217 322.44632
337.0 0.002967 317.38867 324.42688
345.0 0.002899 317.24557 327.88757
299.0 0.003344 317.10291 333.46161
319.0 0.003135 316.96060 341.68958
326.0 0.003067 316.81879 352.73343
357.0 0.002801 316.67737 366.10303
373.0 0.002681 316.53641 380.47189
490.0 0.002041 316.39594 393.73663
464.0 0.002155 316.25589 403.39767
425.0 0.002353 316.11636 407.43652
470.0 0.002128 315.97729 405.57977
450.0 0.002222 315.83871 399.57626
432.0 0.002315 315.70071 391.99475
464.0 0.002155 315.56317 384.88763
428.0 0.002336 315.42618 379.16446
396.0 0.002525 315.28970 374.50760
393.0 0.002545 315.15378 369.79169
428.0 0.002336 315.01840 363.95117
400.0 0.002500 314.88361 356.75378
393.0 0.002545 314.74939 348.73355
397.0 0.002519 314.61572 340.86139
330.0 0.003030 314.48267 333.86954
345.0 0.002899 314.35022 328.26807
323.0 0.003096 314.21835 324.25687
345.0 0.002899 314.08713 321.81430
307.0 0.003257 313.95651 320.83752
273.0 0.00366 313.82651 321.25626
302.0 0.003311 313.69714 323.18964
307.0 0.003257 313.56845 326.75369
339.0 0.002950 313.44040 332.02094
369.0 0.002710 313.31302 338.82117
362.0 0.002762 313.18628 346.58728
445.0 0.002247 313.06024 354.26346
412.0 0.002427 312.93488 360.63602
438.0 0.002283 312.81021 364.33035
414.0 0.002415 312.68622 364.67807
389.0 0.002571 312.56290 362.15332
403.0 0.002481 312.44037 358.05728
393.0 0.002545 312.31848 353.72467
422.0 0.002370 312.19739 349.96921
388.0 0.002577 312.07697 347.00760
354.0 0.002825 311.95728 344.38239
340.0 0.002941 311.83835 341.41928
357.0 0.002801 311.72015 337.70306
372.0 0.002688 311.60272 333.32938
364.0 0.002747 311.48602 328.71588
338.0 0.002959 311.37006 324.33600
323.0 0.003096 311.25494 320.55597
311.0 0.003215 311.14050 317.56418
330.0 0.003030 311.02692 315.37500
321.0 0.003115 310.91406 313.87326
330.0 0.003030 310.80200 312.88785
315.0 0.003175 310.69073 312.24924
319.0 0.003135 310.58026 311.82272
315.0 0.003175 310.47058 311.51694
305.0 0.003279 310.36166 311.27701
309.0 0.003236 310.25360 311.07309
306.0 0.003268 310.14630 310.88998
296.0 0.003378 310.03986 310.72046
334.0 0.002994 309.93417 310.56067
334.0 0.002994 309.82935 310.40857
300.0 0.003333 309.72531 310.26334
298.0 0.003356 309.62210 310.12323
357.0 0.002801 309.51971 309.98792
321.0 0.003115 309.41818 309.85675
291.0 0.003436 309.31744 309.72940
286.0 0.003497 309.21753 309.60535
336.0 0.002976 309.11847 309.48438
291.0 0.003436 309.02020 309.36618
311.0 0.003215 308.92282 309.25067
314.0 0.003185 308.82623 309.13733
301.0 0.003322 308.73047 309.02615
308.0 0.003247 308.63559 308.85397
327.0 0.003058 308.54150 308.74866
315.0 0.003175 308.44830 308.64511
331.0 0.003021 308.35593 308.54315
294.0 0.003401 308.26434 308.44458
308.0 0.003247 308.17368 308.34576
303.0 0.003300 308.08377 308.24826
299.0 0.003344 307.99475 308.12100
333.0 0.003003 307.90656 308.02667
260.0 0.00385 307.81921 307.93405
307.0 0.003257 307.73270 307.84274
303.0 0.003300 307.64700 307.75256
263.0 0.00380 307.56216 307.66449
291.0 0.003436 307.47812 307.57654
281.0 0.00356 307.39496 307.48978
304.0 0.003289 307.31259 307.40567
303.0 0.003300 307.23108 307.32108
307.0 0.003257 307.15039 307.23758
329.0 0.003040 307.07053 307.15494
280.0 0.00357 306.99149 307.07336
287.0 0.003484 306.91327 306.99283
297.0 0.003367 306.83585 306.91330
295.0 0.003390 306.75928 306.83475
325.0 0.003077 306.68350 306.75800
268.0 0.00373 306.60852 306.68134
309.0 0.003236 306.53439 306.56885
273.0 0.00366 306.46103 306.49530
306.0 0.003268 306.38849 306.42270
288.0 0.003472 306.31674 306.35083
277.0 0.00361 306.24576 306.27997
298.0 0.003356 306.17560 306.20999
290.0 0.003448 306.10620 306.14087
302.0 0.003311 306.03763 306.07269
267.0 0.00375 305.96979 305.98746
280.0 0.00357 305.90271 305.92163
313.0 0.003195 305.83646 305.85678
311.0 0.003215 305.77094 305.79285
320.0 0.003125 305.70618 305.72995
305.0 0.003279 305.64218 305.66815
300.0 0.003333 305.57892 305.60760
315.0 0.003175 305.51639 305.54880
294.0 0.003401 305.45462 305.49252
291.0 0.003436 305.39359 305.44016
310.0 0.003226 305.33325 305.39383
294.0 0.003401 305.27368 305.35666
293.0 0.003413 305.21478 305.33237
304.0 0.003289 305.15662 305.32437
325.0 0.003077 305.09915 305.33444
302.0 0.003311 305.04239 305.36154
336.0 0.002976 304.98630 305.39981
322.0 0.003106 304.93091 305.43906
310.0 0.003226 304.87619 305.46576
300.0 0.003333 304.82214 305.46613
295.0 0.003390 304.76874 305.43231
305.0 0.003279 304.71600 305.36853
278.0 0.00360 304.66394 305.28989
307.0 0.003257 304.61252 305.21536
311.0 0.003215 304.56171 305.16315
303.0 0.003300 304.51151 305.14825
284.0 0.00352 304.46194 305.18228
299.0 0.003344 304.41299 305.27344
291.0 0.003436 304.36465 305.42697
293.0 0.003413 304.31693 305.64261
261.0 0.00383 304.26974 305.90936
301.0 0.003322 304.22318 306.19949
295.0 0.003390 304.17715 306.46857
288.0 0.003472 304.13168 306.66324
301.0 0.003322 304.08682 306.73990
281.0 0.00356 304.04245 306.69250
318.0 0.003145 303.99866 306.56409
321.0 0.003115 303.95535 306.42456
314.0 0.003185 303.91260 306.33923
287.0 0.003484 303.87036 306.34708
282.0 0.00355 303.82858 306.45020
319.0 0.003135 303.78732 306.61310
328.0 0.003049 303.74655 306.77521
338.0 0.002959 303.70624 306.87302
317.0 0.003155 303.66641 306.85773
337.0 0.002967 303.62701 306.72455
325.0 0.003077 303.58807 306.45206
291.0 0.003436 303.54959 306.10855
314.0 0.003185 303.51151 305.75641
333.0 0.003003 303.47385 305.44397
337.0 0.002967 303.43658 305.19254
335.0 0.002985 303.39975 304.99619
313.0 0.003195 303.36328 304.82864
324.0 0.003086 303.32718 304.66699
334.0 0.002994 303.29147 304.47440
337.0 0.002967 303.25607 304.26004
332.0 0.003012 303.22107 304.03766
309.0 0.003236 303.18640 303.82401
328.0 0.003049 303.15204 303.66257
279.0 0.00358 303.11801 303.50702
307.0 0.003257 303.08426 303.38058
308.0 0.003247 303.05081 303.28351
322.0 0.003106 303.01767 303.20975
284.0 0.00352 302.98480 303.15256
321.0 0.003115 302.95218 303.10626
282.0 0.00355 302.91983 303.06686
292.0 0.003425 302.88770 303.04614
260.0 0.00385 302.85583 303.01550
264.0 0.00379 302.82416 302.98483
291.0 0.003436 302.79272 302.95544
301.0 0.003322 302.76147 302.92703
328.0 0.003049 302.73041 302.89966
277.0 0.00361 302.69952 302.87314
302.0 0.003311 302.66879 302.84741
277.0 0.00361 302.63824 302.82266
318.0 0.003145 302.60785 302.79880
295.0 0.003390 302.57758 302.77585
293.0 0.003413 302.54742 302.75391
319.0 0.003135 302.51740 302.73285
299.0 0.003344 302.48746 302.71301
287.0 0.003484 302.45761 302.69431
293.0 0.003413 302.42786 302.67691
265.0 0.00377 302.39819 302.66086
297.0 0.003367 302.36853 302.64590
290.0 0.003448 302.33899 302.63324
290.0 0.003448 302.30942 302.62247
283.0 0.00353 302.27994 302.61389
288.0 0.003472 302.25043 302.60791
311.0 0.003215 302.22095 302.60489
299.0 0.003344 302.19144 302.60538
287.0 0.003484 302.16196 302.60980
291.0 0.003436 302.13242 302.61978
281.0 0.00356 302.10284 302.63693
287.0 0.003484 302.07321 302.66461
305.0 0.003279 302.04355 302.70984
257.0 0.00389 302.01379 302.78619
270.0 0.00370 301.98398 302.91913
318.0 0.003145 301.95404 303.15085
310.0 0.003226 301.92401 303.55569
300.0 0.003333 301.89389 304.23138
276.0 0.00362 301.86362 305.30142
301.0 0.003322 301.83325 306.89026
309.0 0.003236 301.80270 309.08362
311.0 0.003215 301.77203 311.88055
339.0 0.002950 301.74118 315.14474
320.0 0.003125 301.71014 318.58923
379.0 0.002639 301.67892 321.79425
337.0 0.002967 301.64752 324.27557
355.0 0.002817 301.61591 325.64386
385.0 0.002597 301.58408 325.82095
341.0 0.002933 301.55203 325.15161
374.0 0.002674 301.51974 324.25751
346.0 0.002890 301.48721 323.79578
329.0 0.003040 301.45441 324.28793
337.0 0.002967 301.42136 326.02032
325.0 0.003077 301.38803 328.99228
358.0 0.002793 301.35440 332.92230
313.0 0.003195 301.32050 337.33615
369.0 0.002710 301.28629 341.65500
363.0 0.002755 301.25174 345.22214
340.0 0.002941 301.21689 347.35455
347.0 0.002882 301.18170 347.54581
295.0 0.003390 301.14618 345.77664
355.0 0.002817 301.11026 342.58881
396.0 0.002525 301.07404 338.80728
364.0 0.002747 301.03741 335.17233
335.0 0.002985 301.00040 332.11978
330.0 0.003030 300.96304 329.70224
309.0 0.003236 300.92523 327.63742
306.0 0.003268 300.88705 325.49026
317.0 0.003155 300.84845 322.92804
316.0 0.003165 300.80942 319.89340
321.0 0.003115 300.76996 316.56723
322.0 0.003106 300.73004 313.23083
323.0 0.003096 300.68970 310.15714
320.0 0.003125 300.64890 307.53925
317.0 0.003155 300.60760 305.46744
259.0 0.00386 300.56586 303.93420
279.0 0.00358 300.52365 302.86292
303.0 0.003300 300.48093 302.14700
312.0 0.003205 300.43768 301.67944
319.0 0.003135 300.39395 301.37228
312.0 0.003205 300.34973 301.16193
281.0 0.00356 300.30496 301.00717
332.0 0.003012 300.25967 300.88361
304.0 0.003289 300.21384 300.80511
289.0 0.003460 300.16748 300.74338
306.0 0.003268 300.12054 300.65753
312.0 0.003205 300.07306 300.57700
307.0 0.003257 300.02505 300.50052
285.0 0.00351 299.97641 300.42734
282.0 0.00355 299.92725 300.35709
313.0 0.003195 299.87747 300.28928
318.0 0.003145 299.82709 300.23691
273.0 0.00366 299.77612 300.17349
301.0 0.003322 299.72455 300.12842
275.0 0.00364 299.67236 300.06955
295.0 0.003390 299.61957 300.06439
297.0 0.003367 299.56613 300.01340
314.0 0.003185 299.51208 299.96841
292.0 0.003425 299.45740 299.93369
311.0 0.003215 299.40210 299.91534
297.0 0.003367 299.34610 299.92261
300.0 0.003333 299.28949 299.96677
308.0 0.003247 299.23221 300.05936
300.0 0.003333 299.17426 300.23438
301.0 0.003322 299.11566 300.44370
320.0 0.003125 299.05640 300.70132
298.0 0.003356 298.99640 300.98303
317.0 0.003155 298.93579 301.25159
292.0 0.003425 298.87445 301.46149
299.0 0.003344 298.81241 301.55182
273.0 0.00366 298.74973 301.53720
315.0 0.003175 298.68631 301.41122
281.0 0.00356 298.62219 301.21399
299.0 0.003344 298.55737 300.99249
292.0 0.003425 298.49182 300.78329
312.0 0.003205 298.42557 300.60376
300.0 0.003333 298.35858 300.45056
309.0 0.003236 298.29089 300.29660
266.0 0.00376 298.22247 300.13821
301.0 0.003322 298.15332 299.95398
299.0 0.003344 298.08344 299.74728
294.0 0.003401 298.01282 299.53198
292.0 0.003425 297.94147 299.29562
323.0 0.003096 297.86935 299.10791
321.0 0.003115 297.79651 298.95609
292.0 0.003425 297.72290 298.84061
300.0 0.003333 297.64856 298.76099
321.0 0.003115 297.57349 298.71405
293.0 0.003413 297.49762 298.69595
283.0 0.00353 297.42099 298.70471
306.0 0.003268 297.34363 298.72739
286.0 0.003497 297.26550 298.80032
294.0 0.003401 297.18661 298.93283
282.0 0.00355 297.10693 299.16467
279.0 0.00358 297.02652 299.57013
321.0 0.003115 296.94534 300.27475
313.0 0.003195 296.86337 301.47003
299.0 0.003344 296.78064 303.41837
318.0 0.003145 296.69714 306.43790
303.0 0.003300 296.61285 310.84952
298.0 0.003356 296.52783 316.88614
288.0 0.003472 296.44199 324.58490
272.0 0.00368 296.35544 333.66833
290.0 0.003448 296.26807 343.49905
323.0 0.003096 296.17990 353.09027
359.0 0.002786 296.09100 361.25723
361.0 0.002770 296.00128 366.93219
354.0 0.002825 295.91083 369.58755
340.0 0.002941 295.81958 369.57004
386.0 0.002591 295.72757 368.04208
352.0 0.002841 295.63477 366.53534
347.0 0.002882 295.54123 366.38400
327.0 0.003058 295.44687 368.31418
313.0 0.003195 295.35175 372.24957
368.0 0.002717 295.25589 377.33670
399.0 0.002506 295.15921 382.20200
402.0 0.002488 295.06180 385.40591
432.0 0.002315 294.96359 385.65759
423.0 0.002364 294.86462 382.45355
421.0 0.002375 294.76489 376.15207
465.0 0.002151 294.66440 367.92157
405.0 0.002469 294.56311 359.21835
387.0 0.002584 294.46109 351.26248
377.0 0.002653 294.35831 344.73044
393.0 0.002545 294.25476 339.69870
355.0 0.002817 294.15048 335.75308
340.0 0.002941 294.04541 332.13699
327.0 0.003058 293.93961 328.24911
331.0 0.003021 293.83304 323.84824
312.0 0.003205 293.72571 319.01971
342.0 0.002924 293.61768 314.10788
285.0 0.00351 293.50885 309.46860
321.0 0.003115 293.39935 305.39221
326.0 0.003067 293.28903 302.04395
308.0 0.003247 293.17801 299.46402
326.0 0.003067 293.06628 297.58212
292.0 0.003425 292.95380 296.26678
300.0 0.003333 292.84064 295.38031
272.0 0.00368 292.72668 294.76959
278.0 0.00360 292.61203 294.34027
317.0 0.003155 292.49670 294.01993
313.0 0.003195 292.38062 293.76306
300.0 0.003333 292.26385 293.54449
306.0 0.003268 292.14636 293.34940
327.0 0.003058 292.02817 293.17065
275.0 0.00364 291.90930 293.00577
293.0 0.003413 291.78970 292.85397
288.0 0.003472 291.66946 292.71609
269.0 0.00372 291.54849 292.59326
318.0 0.003145 291.42685 292.48669
296.0 0.003378 291.30457 292.39642
282.0 0.00355 291.18158 292.32040
302.0 0.003311 291.05795 292.25467
286.0 0.003497 290.93362 292.19250
285.0 0.00351 290.80862 292.12598
241.0 0.00415 290.68301 292.04666
295.0 0.003390 290.55673 291.94934
333.0 0.003003 290.42984 291.83432
300.0 0.003333 290.30228 291.70795
288.0 0.003472 290.17407 291.57993
267.0 0.00375 290.04526 291.45917
290.0 0.003448 289.91580 291.35287
272.0 0.00368 289.78577 291.26572
313.0 0.003195 289.65506 291.20270
302.0 0.003311 289.52374 291.17276
289.0 0.003460 289.39188 291.19742
294.0 0.003401 289.25937 291.32086
270.0 0.00370 289.12631 291.62140
288.0 0.003472 288.99265 292.22336
293.0 0.003413 288.85840 293.27618
277.0 0.00361 288.72357 295.02332
277.0 0.00361 288.58813 297.74698
316.0 0.003165 288.45221 301.62076
277.0 0.00361 288.31567 306.74390
282.0 0.00355 288.17865 313.01971
295.0 0.003390 288.04102 320.09546
389.0 0.002571 287.90289 327.35565
426.0 0.002347 287.76419 333.94849
431.0 0.002320 287.62500 339.07529
393.0 0.002545 287.48526 341.79016
359.0 0.002786 287.34497 342.00055
393.0 0.002545 287.20425 340.12924
392.0 0.002551 287.06299 337.24393
417.0 0.002398 286.92126 334.32129
390.0 0.002564 286.77899 332.14371
337.0 0.002967 286.63629 331.08185
349.0 0.002865 286.49307 331.04648
375.0 0.002667 286.34943 331.60120
334.0 0.002994 286.20529 331.98669
374.0 0.002674 286.06067 331.62323
377.0 0.002653 285.91568 330.20468
372.0 0.002688 285.77017 327.59222
368.0 0.002717 285.62430 323.91083
333.0 0.003003 285.47794 319.52631
343.0 0.002915 285.33115 314.96246
342.0 0.002924 285.18399 310.71970
335.0 0.002985 285.03641 307.13205
301.0 0.003322 284.88846 304.32159
314.0 0.003185 284.74005 302.20490
316.0 0.003165 284.59128 300.55106
321.0 0.003115 284.44217 299.06891
346.0 0.002890 284.29263 297.52057
302.0 0.003311 284.14279 295.80594
317.0 0.003155 283.99252 293.95612
293.0 0.003413 283.84192 292.07614
272.0 0.00368 283.69104 290.28613
281.0 0.00356 283.53973 288.68570
291.0 0.003436 283.38818 287.33746
279.0 0.00358 283.23627 286.25955
295.0 0.003390 283.08401 285.43436
294.0 0.003401 282.93152 284.82092
284.0 0.00352 282.77869 284.36932
296.0 0.003378 282.62558 284.03290
318.0 0.003145 282.47217 283.77325
293.0 0.003413 282.31848 283.56790
282.0 0.00355 282.16458 283.38974
271.0 0.00369 282.01035 283.23276
238.0 0.00420 281.85593 283.09125
279.0 0.00358 281.70120 282.96274
287.0 0.003484 281.54626 282.84601
276.0 0.00362 281.39111 282.74231
291.0 0.003436 281.23572 282.65259
281.0 0.00356 281.08014 282.57959
284.0 0.00352 280.92432 282.53055
271.0 0.00369 280.76828 282.51038
289.0 0.003460 280.61212 282.53964
287.0 0.003484 280.45572 282.65317
279.0 0.00358 280.29919 282.91412
285.0 0.00351 280.14246 283.43228
270.0 0.00370 279.98557 284.38235
271.0 0.00369 279.82855 286.02155
288.0 0.003472 279.67136 288.69308
283.0 0.00353 279.51407 292.79791
283.0 0.00353 279.35660 298.73288
268.0 0.00373 279.19907 306.77643
293.0 0.003413 279.04135 316.95370
260.0 0.00385 278.88361 328.92041
314.0 0.003185 278.72571 341.87628
332.0 0.003012 278.56772 354.60361
375.0 0.002667 278.40970 365.57498
360.0 0.002778 278.25153 373.24146
378.0 0.002646 278.09338 376.52264
360.0 0.002778 277.93512 375.27927
349.0 0.002865 277.77682 370.59830
391.0 0.002558 277.61847 364.00967
329.0 0.003040 277.46014 357.03979
342.0 0.002924 277.30170 350.74216
336.0 0.002976 277.14325 345.53265
328.0 0.003049 276.98486 341.18515
339.0 0.002950 276.82639 337.02402
311.0 0.003215 276.66800 332.28482
299.0 0.003344 276.50955 326.49731
317.0 0.003155 276.35120 319.76379
327.0 0.003058 276.19281 312.47488
266.0 0.00376 276.03445 305.18100
288.0 0.003472 275.87619 298.37650
275.0 0.00364 275.71793 292.47498
285.0 0.00351 275.55978 287.65802
281.0 0.00356 275.40164 283.94696
298.0 0.003356 275.24359 281.23172
283.0 0.00353 275.08569 279.32666
305.0 0.003279 274.92780 278.04431
307.0 0.003257 274.77005 277.16339
266.0 0.00376 274.61240 276.54767
286.0 0.003497 274.45483 276.11725
227.0 0.00441 274.29745 275.80161
265.0 0.00377 274.14014 275.57068
270.0 0.00370 273.98300 275.41663
265.0 0.00377 273.82599 275.34613
281.0 0.00356 273.66913 275.37372
237.0 0.00422 273.51248 275.52414
271.0 0.00369 273.35593 275.78751
270.0 0.00370 273.19962 276.16687
286.0 0.003497 273.04343 276.63586
261.0 0.00383 272.88745 277.14505
266.0 0.00376 272.73172 277.62442
272.0 0.00368 272.57614 277.99225
264.0 0.00379 272.42081 278.17120
323.0 0.003096 272.26566 278.11526
272.0 0.00368 272.11075 277.83353
256.0 0.00391 271.95615 277.38702
288.0 0.003472 271.80170 276.85904
259.0 0.00386 271.64758 276.32547
268.0 0.00373 271.49365 275.83542
262.0 0.00382 271.34000 275.40482
242.0 0.00413 271.18671 275.01779
249.0 0.00402 271.03360 274.63864
265.0 0.00377 270.88086 274.22559
283.0 0.00353 270.72833 273.75903
262.0 0.00382 270.57614 273.24399
259.0 0.00386 270.42432 272.70297
239.0 0.00418 270.27277 272.16431
279.0 0.00358 270.12158 271.65451
260.0 0.00385 269.97070 271.19299
255.0 0.00392 269.82016 270.79904
282.0 0.00355 269.66998 270.45697
272.0 0.00368 269.52011 270.16840
249.0 0.00402 269.37070 269.95035
250.0 0.00400 269.22159 269.74118
273.0 0.00366 269.07291 269.55649
275.0 0.00364 268.92453 269.38837
267.0 0.00375 268.77664 269.23151
248.0 0.00403 268.62909 269.08252
278.0 0.00360 268.48199 268.93921
255.0 0.00392 268.33527 268.71359
268.0 0.00373 268.18893 268.58258
259.0 0.00386 268.04312 268.45700
246.0 0.00407 267.89767 268.33823
259.0 0.00386 267.75272 268.22989
270.0 0.00370 267.60818 268.13815
267.0 0.00375 267.46414 268.07468
243.0 0.00412 267.32050 268.05905
270.0 0.00370 267.17740 268.12241
279.0 0.00358 267.03473 268.26740
281.0 0.00356 266.89255 268.64380
287.0 0.003484 266.75089 269.28070
263.0 0.00380 266.60968 270.25504
293.0 0.003413 266.46902 271.62766
256.0 0.00391 266.32883 273.42249
285.0 0.00351 266.18918 275.60074
270.0 0.00370 266.05008 278.04504
279.0 0.00358 265.91150 280.55820
301.0 0.003322 265.77347 282.87335
309.0 0.003236 265.63593 284.69434
298.0 0.003356 265.49896 285.75833
281.0 0.00356 265.36261 285.93600
289.0 0.003460 265.22678 285.29971
293.0 0.003413 265.09155 284.09280
286.0 0.003497 264.95682 282.61963
259.0 0.00386 264.82272 281.14539
307.0 0.003257 264.68927 279.83731
279.0 0.00358 264.55634 278.74194
262.0 0.00382 264.42407 277.79626
289.0 0.003460 264.29236 276.86359
296.0 0.003378 264.16125 275.80499
325.0 0.003077 264.03082 274.54724
295.0 0.003390 263.90100 273.10626
268.0 0.00373 263.77185 271.56305
284.0 0.00352 263.64328 270.02045
278.0 0.00360 263.51535 268.57608
245.0 0.00408 263.38812 267.30389
259.0 0.00386 263.26154 266.24063
278.0 0.00360 263.13562 265.40671
254.0 0.00394 263.01038 264.78333
256.0 0.00391 262.88577 264.34503
246.0 0.00407 262.76190 264.06686
268.0 0.00373 262.63867 263.93561
274.0 0.00365 262.51617 263.95926
259.0 0.00386 262.39435 264.17203
304.0 0.003289 262.27322 264.63654
245.0 0.00408 262.15283 265.43744
256.0 0.00391 262.03314 266.67953
243.0 0.00412 261.91422 268.45093
270.0 0.00370 261.79596 270.80542
251.0 0.00398 261.67844 273.72562
257.0 0.00389 261.56171 277.09583
277.0 0.00361 261.44565 280.69336
294.0 0.003401 261.33041 284.19077
324.0 0.003086 261.21585 287.19650
334.0 0.002994 261.10211 289.31796
340.0 0.002941 260.98911 290.27835
349.0 0.002865 260.87689 290.03598
305.0 0.003279 260.76541 288.81036
341.0 0.002933 260.65472 286.98230
330.0 0.003030 260.54483 284.95032
302.0 0.003311 260.43570 283.02234
291.0 0.003436 260.32742 281.35855
294.0 0.003401 260.21985 279.96103
277.0 0.00361 260.11316 278.69891
255.0 0.00392 260.00723 277.37845
262.0 0.00382 259.90213 275.83859
272.0 0.00368 259.79782 274.02240
271.0 0.00369 259.69434 271.98489
293.0 0.003413 259.59171 269.84631
273.0 0.00366 259.48987 267.74628
269.0 0.00372 259.38889 265.80923
275.0 0.00364 259.28873 264.12253
275.0 0.00364 259.18942 262.73105
246.0 0.00407 259.09091 261.63629
266.0 0.00376 258.99326 260.80920
243.0 0.00412 258.89651 260.20248
236.0 0.00424 258.80057 259.76312
277.0 0.00361 258.70551 259.44302
260.0 0.00385 258.61130 259.20273
269.0 0.00372 258.51791 259.01352
248.0 0.00403 258.42548 258.85602
256.0 0.00391 258.33386 258.71774
261.0 0.00383 258.24313 258.57199
237.0 0.00422 258.15329 258.45410
259.0 0.00386 258.06427 258.34164
245.0 0.00408 257.97620 258.23343
267.0 0.00375 257.88898 258.12878
292.0 0.003425 257.80270 258.02728
241.0 0.00415 257.71725 257.92896
252.0 0.00397 257.63272 257.83380
271.0 0.00369 257.54910 257.74228
241.0 0.00415 257.46634 257.65500
281.0 0.00356 257.38452 257.56342
216.0 0.00463 257.30359 257.48773
244.0 0.00410 257.22357 257.41934
257.0 0.00389 257.14447 257.35907
273.0 0.00366 257.06625 257.30716
263.0 0.00380 256.98895 257.26288
268.0 0.00373 256.91257 257.22415
273.0 0.00366 256.83710 257.18805
236.0 0.00424 256.76257 257.15021
258.0 0.00388 256.68893 257.10593
260.0 0.00385 256.61621 257.05106
251.0 0.00398 256.54443 256.98306
283.0 0.00353 256.47354 256.90253
276.0 0.00362 256.40363 256.81284
276.0 0.00362 256.33459 256.71878
280.0 0.00357 256.26651 256.62457
274.0 0.00365 256.19931 256.53354
276.0 0.00362 256.13309 256.45264
264.0 0.00379 256.06778 256.37076
284.0 0.00352 256.00339 256.29074
231.0 0.00433 255.93993 256.21069
272.0 0.00368 255.87737 256.12875
224.0 0.00446 255.81578 256.04462
251.0 0.00398 255.75510 255.95897
268.0 0.00373 255.69533 255.87337
281.0 0.00356 255.63652 255.78937
266.0 0.00376 255.57861 255.70837
271.0 0.00369 255.52165 255.63422
257.0 0.00389 255.46559 255.56206
249.0 0.00402 255.41049 255.49416
246.0 0.00407 255.35629 255.43042
251.0 0.00398 255.30302 255.37024
255.0 0.00392 255.25066 255.31300
266.0 0.00376 255.19922 255.25818
255.0 0.00392 255.14873 255.20523
252.0 0.00397 255.09914 255.15393
274.0 0.00365 255.05046 255.10399
259.0 0.00386 255.00270 255.05521
284.0 0.00352 254.95586 255.00755
246.0 0.00407 254.90991 254.96103
223.0 0.00448 254.86490 254.91385
249.0 0.00402 254.82079 254.86934
242.0 0.00413 254.77757 254.82582
250.0 0.00400 254.73526 254.78331
251.0 0.00398 254.69383 254.74181
239.0 0.00418 254.65334 254.70128
241.0 0.00415 254.61371 254.66171
268.0 0.00373 254.57498 254.62315
236.0 0.00424 254.53714 254.57669
252.0 0.00397 254.50017 254.52570
244.0 0.00410 254.46411 254.49060
255.0 0.00392 254.42891 254.45648
232.0 0.00431 254.39459 254.42329
258.0 0.00388 254.36115 254.39108
256.0 0.00391 254.32855 254.35985
258.0 0.00388 254.29683 254.32953
274.0 0.00365 254.26598 254.30025
270.0 0.00370 254.23598 254.27194
244.0 0.00410 254.20682 254.24461
284.0 0.00352 254.17851 254.21829
259.0 0.00386 254.15105 254.19299
288.0 0.003472 254.12440 254.16870
241.0 0.00415 254.09860 254.14548
254.0 0.00394 254.07362 254.12335
275.0 0.00364 254.04947 254.10229
217.0 0.00461 254.02614 254.08237
253.0 0.00395 254.00360 254.06357
255.0 0.00392 253.98189 254.04605
250.0 0.00400 253.96095 254.02975
246.0 0.00407 253.94083 254.01479
252.0 0.00397 253.92149 254.00125
256.0 0.00391 253.90292 253.98926
253.0 0.00395 253.88513 253.97899
273.0 0.00366 253.86812 253.97075
253.0 0.00395 253.85187 253.96504
256.0 0.00391 253.83636 253.96284
243.0 0.00412 253.82161 253.96584
270.0 0.00370 253.80759 253.97702
254.0 0.00394 253.79431 254.00148
252.0 0.00397 253.78177 254.04736
258.0 0.00388 253.76994 254.12692
230.0 0.00435 253.75883 254.25735
258.0 0.00388 253.74841 254.46074
240.0 0.00417 253.73869 254.76277
249.0 0.00402 253.72968 255.18951
249.0 0.00402 253.72134 255.76154
257.0 0.00389 253.71367 256.48743
267.0 0.00375 253.70668 257.35693
277.0 0.00361 253.70032 258.33429
302.0 0.003311 253.69463 259.35849
253.0 0.00395 253.68958 260.34439
281.0 0.00356 253.68517 261.19345
263.0 0.00380 253.68137 261.80777
281.0 0.00356 253.67818 262.11746
264.0 0.00379 253.67560 262.10818
267.0 0.00375 253.67361 261.82947
250.0 0.00400 253.67223 261.37421
252.0 0.00397 253.67140 260.84509
253.0 0.00395 253.67116 260.32700
253.0 0.00395 253.67148 259.87167
264.0 0.00379 253.67233 259.49319
269.0 0.00372 253.67374 259.17023
246.0 0.00407 253.67566 258.85800
280.0 0.00357 253.67812 258.50812
269.0 0.00372 253.68109 258.08939
272.0 0.00368 253.68454 257.59955
283.0 0.00353 253.68849 257.05969
269.0 0.00372 253.69292 256.50311
236.0 0.00424 253.69783 255.96468
278.0 0.00360 253.70319 255.47386
269.0 0.00372 253.70900 255.05142
244.0 0.00410 253.71523 254.70714
233.0 0.00429 253.72191 254.44116
264.0 0.00379 253.72899 254.24594
274.0 0.00365 253.73648 254.10953
228.0 0.00439 253.74437 254.01875
240.0 0.00417 253.75264 253.96114
271.0 0.00369 253.76128 253.92638
274.0 0.00365 253.77028 253.90666
264.0 0.00379 253.77963 253.89656
254.0 0.00394 253.78932 253.89241
279.0 0.00358 253.79935 253.89209
261.0 0.00383 253.80966 253.89447
253.0 0.00395 253.82030 253.89827
253.0 0.00395 253.83124 253.90375
254.0 0.00394 253.84244 253.90982
222.0 0.00450 253.85393 253.91673
256.0 0.00391 253.86566 253.92438
227.0 0.00441 253.87764 253.93266
241.0 0.00415 253.88985 253.94156
247.0 0.00405 253.90228 253.95100
226.0 0.00442 253.91495 253.96089
260.0 0.00385 253.92780 253.97136
259.0 0.00386 253.94081 253.98209
251.0 0.00398 253.95403 253.99338
258.0 0.00388 253.96739 254.00674
240.0 0.00417 253.98091 254.01855
250.0 0.00400 253.99458 254.03061
267.0 0.00375 254.00836 254.04294
269.0 0.00372 254.02225 254.05545
264.0 0.00379 254.03625 254.06822
266.0 0.00376 254.05035 254.08118
256.0 0.00391 254.06453 254.09430
243.0 0.00412 254.07877 254.10754
227.0 0.00441 254.09305 254.12091
263.0 0.00380 254.10738 254.13548
267.0 0.00375 254.12175 254.14914
249.0 0.00402 254.13614 254.16286
257.0 0.00389 254.15053 254.17662
253.0 0.00395 254.16490 254.19043
249.0 0.00402 254.17926 254.20427
235.0 0.00426 254.19360 254.21812
251.0 0.00398 254.20790 254.23201
246.0 0.00407 254.22215 254.24593
261.0 0.00383 254.23633 254.25977
274.0 0.00365 254.25041 254.27362
274.0 0.00365 254.26443 254.28741
226.0 0.00442 254.27835 254.30115
265.0 0.00377 254.29216 254.31480
262.0 0.00382 254.30583 254.32835
249.0 0.00402 254.31938 254.34189
273.0 0.00366 254.33278 254.35524
233.0 0.00429 254.34601 254.36850
250.0 0.00400 254.35907 254.38165
255.0 0.00392 254.37198 254.39465
256.0 0.00391 254.38467 254.40753
260.0 0.00385 254.39717 254.42027
237.0 0.00422 254.40945 254.43285
235.0 0.00426 254.42151 254.43956
270.0 0.00370 254.43335 254.45149
243.0 0.00412 254.44493 254.46373
240.0 0.00417 254.45625 254.47574
261.0 0.00383 254.46732 254.48763
243.0 0.00412 254.47809 254.49927
281.0 0.00356 254.48860 254.51076
276.0 0.00362 254.49879 254.52202
252.0 0.00397 254.50868 254.53314
250.0 0.00400 254.51826 254.54413
280.0 0.00357 254.52751 254.55214
245.0 0.00408 254.53642 254.56284
256.0 0.00391 254.54498 254.58591
240.0 0.00417 254.55321 254.59749
241.0 0.00415 254.56105 254.60970
247.0 0.00405 254.56853 254.62314
252.0 0.00397 254.57561 254.63864
247.0 0.00405 254.58231 254.65752
248.0 0.00403 254.58861 254.68132
245.0 0.00408 254.59451 254.71214
248.0 0.00403 254.59999 254.75230
251.0 0.00398 254.60503 254.80409
223.0 0.00448 254.60963 254.86940
232.0 0.00431 254.61382 254.95534
263.0 0.00380 254.61755 255.04950
274.0 0.00365 254.62082 255.15562
252.0 0.00397 254.62364 255.26971
267.0 0.00375 254.62596 255.38629
230.0 0.00435 254.62784 255.49934
266.0 0.00376 254.62921 255.60362
281.0 0.00356 254.63010 255.69666
226.0 0.00442 254.63049 255.78055
256.0 0.00391 254.63039 255.86235
277.0 0.00361 254.62975 255.95360
246.0 0.00407 254.62862 256.06757
245.0 0.00408 254.62697 256.22131
246.0 0.00407 254.62479 256.40860
231.0 0.00433 254.62207 256.63959
244.0 0.00410 254.61882 256.88681
245.0 0.00408 254.61504 257.13654
234.0 0.00427 254.61070 257.36111
240.0 0.00417 254.60582 257.53174
249.0 0.00402 254.60039 257.62399
252.0 0.00397 254.59438 257.62589
264.0 0.00379 254.58783 257.54263
245.0 0.00408 254.58072 257.39807
266.0 0.00376 254.57303 257.21490
280.0 0.00357 254.56477 257.02396
272.0 0.00368 254.55595 256.85046
292.0 0.003425 254.54654 256.69757
256.0 0.00391 254.53656 256.57025
270.0 0.00370 254.52599 256.46017
295.0 0.003390 254.51485 256.35345
261.0 0.00383 254.50313 256.23575
246.0 0.00407 254.49081 256.09833
264.0 0.00379 254.47792 255.94032
272.0 0.00368 254.46443 255.76740
271.0 0.00369 254.45036 255.58888
251.0 0.00398 254.43570 255.41469
220.0 0.00455 254.42046 255.25301
259.0 0.00386 254.40463 255.11002
256.0 0.00391 254.38820 254.98868
250.0 0.00400 254.37120 254.88922
251.0 0.00398 254.35361 254.80971
281.0 0.00356 254.33543 254.74712
259.0 0.00386 254.31668 254.69836
242.0 0.00413 254.29732 254.66080
254.0 0.00394 254.27740 254.63251
246.0 0.00407 254.25691 254.61281
270.0 0.00370 254.23584 254.60223
237.0 0.00422 254.21420 254.60330
249.0 0.00402 254.19199 254.62080
249.0 0.00402 254.16919 254.66328
258.0 0.00388 254.14584 254.74408
247.0 0.00405 254.12195 254.88263
266.0 0.00376 254.09749 255.10545
260.0 0.00385 254.07246 255.44640
232.0 0.00431 254.04692 255.94394
277.0 0.00361 254.02080 256.63773
250.0 0.00400 253.99416 257.56061
256.0 0.00391 253.96698 258.72974
263.0 0.00380 253.93927 260.13785
259.0 0.00386 253.91104 261.74298
261.0 0.00383 253.88228 263.46774
240.0 0.00417 253.85301 265.19818
301.0 0.003322 253.82326 266.79303
303.0 0.003300 253.79298 268.10123
265.0 0.00377 253.76222 268.98602
262.0 0.00382 253.73097 269.36499
263.0 0.00380 253.69923 269.24097
281.0 0.00356 253.66704 268.70511
282.0 0.00355 253.63437 267.90274
262.0 0.00382 253.60124 266.98929
262.0 0.00382 253.56767 266.09540
282.0 0.00355 253.53363 265.30780
258.0 0.00388 253.49918 264.66327
279.0 0.00358 253.46429 264.15063
275.0 0.00364 253.42900 263.72672
263.0 0.00380 253.39330 263.34009
258.0 0.00388 253.35718 262.96130
289.0 0.003460 253.32068 262.60321
256.0 0.00391 253.28378 262.32013
244.0 0.00410 253.24654 262.18930
263.0 0.00380 253.20891 262.28842
273.0 0.00366 253.17094 262.67496
259.0 0.00386 253.13260 263.36938
294.0 0.003401 253.09395 264.34723
273.0 0.00366 253.05496 265.53119
275.0 0.00364 253.01566 266.80176
264.0 0.00379 252.97606 268.00684
285.0 0.00351 252.93616 268.98950
298.0 0.003356 252.89598 269.61969
306.0 0.003268 252.85551 269.82278
293.0 0.003413 252.81479 269.59741
285.0 0.00351 252.77382 269.01260
294.0 0.003401 252.73259 268.18695
269.0 0.00372 252.69115 267.25305
245.0 0.00408 252.64946 266.33023
279.0 0.00358 252.60759 265.47760
265.0 0.00377 252.56551 264.72797
268.0 0.00373 252.52325 264.05737
280.0 0.00357 252.48080 263.41193
276.0 0.00362 252.43822 262.72879
285.0 0.00351 252.39543 261.95621
253.0 0.00395 252.35252 261.07089
222.0 0.00450 252.30951 260.08292
262.0 0.00382 252.26636 259.02911
263.0 0.00380 252.22310 257.97586
240.0 0.00417 252.17972 256.96097
262.0 0.00382 252.13628 256.01425
272.0 0.00368 252.09276 255.18074
253.0 0.00395 252.04918 254.47545
270.0 0.00370 252.00555 253.89949
244.0 0.00410 251.96188 253.44220
242.0 0.00413 251.91815 253.08594
256.0 0.00391 251.87444 252.81042
240.0 0.00417 251.83070 252.59605
242.0 0.00413 251.78699 252.42627
279.0 0.00358 251.74327 252.29517
252.0 0.00397 251.69955 252.18568
239.0 0.00418 251.65591 252.08585
252.0 0.00397 251.61230 251.99763
243.0 0.00412 251.56877 251.91840
258.0 0.00388 251.52528 251.84631
254.0 0.00394 251.48186 251.78012
270.0 0.00370 251.43855 251.71883
237.0 0.00422 251.39532 251.66153
269.0 0.00372 251.35222 251.60748
258.0 0.00388 251.30922 251.55614
274.0 0.00365 251.26634 251.50688
263.0 0.00380 251.22362 251.45940
253.0 0.00395 251.18102 251.41344
245.0 0.00408 251.13858 251.36888
244.0 0.00410 251.09631 251.32579
284.0 0.00352 251.05420 251.28409
243.0 0.00412 251.01228 251.24416
234.0 0.00427 250.97054 251.20622
247.0 0.00405 250.92900 251.17073
256.0 0.00391 250.88766 251.13812
270.0 0.00370 250.84654 251.10881
265.0 0.00377 250.80563 251.08319
246.0 0.00407 250.76494 251.06148
228.0 0.00439 250.72449 251.04352
237.0 0.00422 250.68428 251.01657
266.0 0.00376 250.64430 251.00453
258.0 0.00388 250.60458 250.99361
281.0 0.00356 250.56512 250.98215
234.0 0.00427 250.52591 250.96849
243.0 0.00412 250.48697 250.95134
263.0 0.00380 250.44829 250.92979
261.0 0.00383 250.40990 250.90396
262.0 0.00382 250.37178 250.87524
262.0 0.00382 250.33394 250.84555
242.0 0.00413 250.29636 250.81766
262.0 0.00382 250.25909 250.78778
270.0 0.00370 250.22212 250.77121
260.0 0.00385 250.18544 250.76521
247.0 0.00405 250.14905 250.77417
234.0 0.00427 250.11295 250.80415
226.0 0.00442 250.07713 250.86366
255.0 0.00392 250.04163 250.96423
268.0 0.00373 250.00641 251.12082
246.0 0.00407 249.97150 251.35107
257.0 0.00389 249.93687 251.67447
223.0 0.00448 249.90254 252.10950
231.0 0.00433 249.86850 252.67181
253.0 0.00395 249.83476 253.36600
237.0 0.00422 249.80132 254.20824
243.0 0.00412 249.76814 255.18459
269.0 0.00372 249.73526 256.30640
261.0 0.00383 249.70265 257.56302
251.0 0.00398 249.67032 258.95770
237.0 0.00422 249.63826 260.50217
255.0 0.00392 249.60646 262.22467
265.0 0.00377 249.57494 264.16815
268.0 0.00373 249.54366 266.38156
272.0 0.00368 249.51260 268.89484
254.0 0.00394 249.48183 271.69824
247.0 0.00405 249.45126 274.70767
248.0 0.00403 249.42094 277.76178
263.0 0.00380 249.39084 280.64487
267.0 0.00375 249.36093 283.08929
274.0 0.00365 249.33124 284.83221
280.0 0.00357 249.30173 285.67725
275.0 0.00364 249.27240 285.55261
285.0 0.00351 249.24326 284.54068
330.0 0.003030 249.21423 282.85092
318.0 0.003145 249.18541 280.76523
284.0 0.00352 249.15669 278.53839
248.0 0.00403 249.12811 276.39142
298.0 0.003356 249.09964 274.45325
259.0 0.00386 249.07127 272.75864
249.0 0.00402 249.04298 271.25888
276.0 0.00362 249.01476 269.84631
266.0 0.00376 248.98659 268.39886
273.0 0.00366 248.95848 266.82260
275.0 0.00364 248.93039 265.07910
272.0 0.00368 248.90231 263.19070
306.0 0.003268 248.87421 261.22409
263.0 0.00380 248.84610 259.25662
268.0 0.00373 248.81796 257.37662
269.0 0.00372 248.78975 255.65511
271.0 0.00369 248.76147 254.14383
242.0 0.00413 248.73308 252.86876
250.0 0.00400 248.70459 251.83337
234.0 0.00427 248.67598 251.02191
261.0 0.00383 248.64722 250.40515
228.0 0.00439 248.61829 249.94855
250.0 0.00400 248.58914 249.61633
246.0 0.00407 248.55980 249.37640
245.0 0.00408 248.53021 249.20210
233.0 0.00429 248.50038 249.07260
233.0 0.00429 248.47031 248.97311
262.0 0.00382 248.43988 248.89308
220.0 0.00455 248.40918 248.82617
232.0 0.00431 248.37810 248.76819
247.0 0.00405 248.34666 248.71709
250.0 0.00400 248.31487 248.67184
234.0 0.00427 248.28262 248.63206
262.0 0.00382 248.24997 248.59769
217.0 0.00461 248.21683 248.56888
249.0 0.00402 248.18321 248.54544
228.0 0.00439 248.14912 248.52704
228.0 0.00439 248.11447 248.51244
253.0 0.00395 248.07927 248.50021
237.0 0.00422 248.04346 248.48846
265.0 0.00377 248.00706 248.47467
243.0 0.00412 247.97009 248.45627
230.0 0.00435 247.93237 248.43086
252.0 0.00397 247.89403 248.39685
266.0 0.00376 247.85493 248.35385
268.0 0.00373 247.81512 248.30299
258.0 0.00388 247.77460 248.24640
254.0 0.00394 247.73323 248.19678
261.0 0.00383 247.69107 248.13611
249.0 0.00402 247.64807 248.07611
235.0 0.00426 247.60419 248.01805
290.0 0.003448 247.55949 247.96202
264.0 0.00379 247.51381 247.90730
232.0 0.00431 247.46722 247.85327
273.0 0.00366 247.41963 247.79860
244.0 0.00410 247.37108 247.74300
227.0 0.00441 247.32155 247.68668
242.0 0.00413 247.27092 247.63095
280.0 0.00357 247.21925 247.57857
256.0 0.00391 247.16647 247.53853
234.0 0.00427 247.11258 247.50604
224.0 0.00446 247.05762 247.49362
245.0 0.00408 247.00140 247.51097
243.0 0.00412 246.94405 247.56458
255.0 0.00392 246.88544 247.68085
246.0 0.00407 246.82562 247.86951
236.0 0.00424 246.76460 248.14586
262.0 0.00382 246.70224 248.52316
254.0 0.00394 246.63863 249.00731
230.0 0.00435 246.57359 249.59642
253.0 0.00395 246.50729 250.27480
281.0 0.00356 246.43964 251.01454
243.0 0.00412 246.37054 251.75822
295.0 0.003390 246.30011 252.46819
271.0 0.00369 246.22815 253.09372
288.0 0.003472 246.15482 253.56715
248.0 0.00403 246.08005 253.83804
262.0 0.00382 246.00374 253.88445
278.0 0.00360 245.92599 253.71721
270.0 0.00370 245.84665 253.37790
273.0 0.00366 245.76582 252.92603
275.0 0.00364 245.68349 252.42320
273.0 0.00366 245.59952 251.91997
258.0 0.00388 245.51405 251.44589
266.0 0.00376 245.42694 251.02228
282.0 0.00355 245.33821 250.65184
257.0 0.00389 245.24800 250.30797
209.0 0.00478 245.15601 249.96072
223.0 0.00448 245.06250 249.58293
276.0 0.00362 244.96725 249.15605
259.0 0.00386 244.87039 248.67764
252.0 0.00397 244.77199 248.15834
239.0 0.00418 244.67174 247.61516
279.0 0.00358 244.56996 247.07048
267.0 0.00375 244.46642 246.54370
238.0 0.00420 244.36121 246.05229
254.0 0.00394 244.25446 245.60846
224.0 0.00446 244.14586 245.21722
261.0 0.00383 244.03566 244.88048
256.0 0.00391 243.92372 244.59439
236.0 0.00424 243.81013 244.35312
233.0 0.00429 243.69498 244.14951
240.0 0.00417 243.57799 243.97610
216.0 0.00463 243.45943 243.82765
250.0 0.00400 243.33911 243.70047
274.0 0.00365 243.21719 243.59415
246.0 0.00407 243.09375 243.51158
222.0 0.00450 242.96851 243.45932
212.0 0.00472 242.84171 243.44839
237.0 0.00422 242.71321 243.49432
230.0 0.00435 242.58316 243.61618
242.0 0.00413 242.45166 243.83556
245.0 0.00408 242.31842 244.17531
225.0 0.00444 242.18370 244.65369
254.0 0.00394 242.04736 245.28339
244.0 0.00410 241.90955 246.06335
222.0 0.00450 241.77037 246.97678
225.0 0.00444 241.62955 247.99051
259.0 0.00386 241.48737 249.04816
229.0 0.00437 241.34364 250.08118
250.0 0.00400 241.19858 251.00555
270.0 0.00370 241.05229 251.73619
266.0 0.00376 240.90446 252.20035
258.0 0.00388 240.75542 252.35085
253.0 0.00395 240.60497 252.18573
262.0 0.00382 240.45334 251.74832
255.0 0.00392 240.30064 251.11487
237.0 0.00422 240.14655 250.37108
279.0 0.00358 239.99141 249.59882
246.0 0.00407 239.83505 248.85815
263.0 0.00380 239.67773 248.18616
222.0 0.00450 239.51944 247.59186
233.0 0.00429 239.36000 247.05815
246.0 0.00407 239.19977 246.55298
224.0 0.00446 239.03841 246.03607
250.0 0.00400 238.87637 245.47643
272.0 0.00368 238.71358 244.86034
249.0 0.00402 238.54984 244.19246
254.0 0.00394 238.38554 243.49484
263.0 0.00380 238.22044 242.79369
237.0 0.00422 238.05476 242.11726
222.0 0.00450 237.88864 241.48856
232.0 0.00431 237.72183 240.92099
241.0 0.00415 237.55475 240.42139
261.0 0.00383 237.38708 239.98514
274.0 0.00365 237.21915 239.60217
249.0 0.00402 237.05104 239.25755
246.0 0.00407 236.88252 238.93575
260.0 0.00385 236.71402 238.62616
205.0 0.00488 236.54524 238.32507
233.0 0.00429 236.37648 238.02650
249.0 0.00402 236.20792 237.74371
241.0 0.00415 236.03912 237.45645
249.0 0.00402 235.87073 237.19005
229.0 0.00437 235.70236 236.93803
257.0 0.00389 235.53433 236.69963
220.0 0.00455 235.36682 236.47163
253.0 0.00395 235.19951 236.24855
240.0 0.00417 235.03276 236.02530
279.0 0.00358 234.86646 235.79694
216.0 0.00463 234.70084 235.56152
233.0 0.00429 234.53606 235.31902
252.0 0.00397 234.37183 235.07120
222.0 0.00450 234.20853 234.81833
228.0 0.00439 234.04599 234.57079
212.0 0.00472 233.88451 234.32861
229.0 0.00437 233.72421 234.09488
239.0 0.00418 233.56482 233.87094
218.0 0.00459 233.40671 233.65826
198.0 0.00505 233.24974 233.45670
243.0 0.00412 233.09416 233.26582
215.0 0.00465 232.94012 233.08482
220.0 0.00455 232.78737 232.91185
238.0 0.00420 232.63625 232.74597
209.0 0.00478 232.48663 232.58571
245.0 0.00408 232.33875 232.43031
226.0 0.00442 232.19278 232.27896
215.0 0.00465 232.04842 232.13074
251.0 0.00398 231.90607 231.98557
214.0 0.00467 231.76558 231.84300
227.0 0.00441 231.62715 231.70306
241.0 0.00415 231.49098 231.56578
229.0 0.00437 231.35678 231.43079
242.0 0.00413 231.22491 231.29836
261.0 0.00383 231.09526 231.16838
229.0 0.00437 230.96800 231.04103
225.0 0.00444 230.84332 230.91649
245.0 0.00408 230.72093 230.79445
217.0 0.00461 230.60120 230.67528
226.0 0.00442 230.48399 230.55885
263.0 0.00380 230.36949 230.44534
247.0 0.00405 230.25784 230.33493
212.0 0.00472 230.14880 230.22745
228.0 0.00439 230.04274 230.12317
231.0 0.00433 229.93942 230.02188
217.0 0.00461 229.83914 229.92393
265.0 0.00377 229.74190 229.82935
248.0 0.00403 229.64758 229.73811
228.0 0.00439 229.55646 229.63989
223.0 0.00448 229.46832 229.55594
256.0 0.00391 229.38347 229.47585
228.0 0.00439 229.30185 229.39958
238.0 0.00420 229.22340 229.32733
220.0 0.00455 229.14830 229.25957
253.0 0.00395 229.07645 229.19661
209.0 0.00478 229.00797 229.13940
225.0 0.00444 228.94290 229.08914
238.0 0.00420 228.88120 229.04774
227.0 0.00441 228.82295 229.01830
206.0 0.00485 228.76810 229.00514
243.0 0.00412 228.71674 229.00929
242.0 0.00413 228.66890 229.04964
235.0 0.00426 228.62447 229.13161
265.0 0.00377 228.58360 229.26790
207.0 0.00483 228.54619 229.47314
256.0 0.00391 228.51230 229.76175
256.0 0.00391 228.48195 230.14632
199.0 0.00503 228.45508 230.63652
264.0 0.00379 228.43172 231.23305
238.0 0.00420 228.41182 231.92928
228.0 0.00439 228.39543 232.70531
247.0 0.00405 228.38251 233.52982
231.0 0.00433 228.37300 234.36116
233.0 0.00429 228.36693 235.14954
243.0 0.00412 228.36426 235.84003
235.0 0.00426 228.36494 236.37915
210.0 0.00476 228.36897 236.73058
249.0 0.00402 228.37628 236.86818
221.0 0.00452 228.38686 236.80600
221.0 0.00452 228.40067 236.58044
222.0 0.00450 228.41762 236.24391
217.0 0.00461 228.43770 235.85225
226.0 0.00442 228.46085 235.45332
259.0 0.00386 228.48700 235.08382
245.0 0.00408 228.51613 234.76172
244.0 0.00410 228.54813 234.49104
233.0 0.00429 228.58293 234.25818
242.0 0.00413 228.62051 234.04085
233.0 0.00429 228.66074 233.81091
215.0 0.00465 228.70361 233.54314
237.0 0.00422 228.74898 233.22842
199.0 0.00503 228.79674 232.86856
229.0 0.00437 228.84691 232.47440
249.0 0.00402 228.89931 232.06436
225.0 0.00444 228.95392 231.65727
214.0 0.00467 229.01057 231.27211
240.0 0.00417 229.06915 230.92410
221.0 0.00452 229.12968 230.62340
215.0 0.00465 229.19194 230.37640
246.0 0.00407 229.25591 230.18469
258.0 0.00388 229.32141 230.04402
260.0 0.00385 229.38828 229.94981
203.0 0.00493 229.45657 229.89503
254.0 0.00394 229.52605 229.87245
219.0 0.00457 229.59665 229.87518
223.0 0.00448 229.66818 229.89709
211.0 0.00474 229.74055 229.93326
218.0 0.00459 229.81374 229.97983
243.0 0.00412 229.88745 230.03380
216.0 0.00463 229.96176 230.09319
241.0 0.00415 230.03633 230.15634
221.0 0.00452 230.11111 230.22231
247.0 0.00405 230.18610 230.29037
212.0 0.00472 230.26096 230.35985
229.0 0.00437 230.33575 230.43051
242.0 0.00413 230.41023 230.50201
221.0 0.00452 230.48425 230.57413
239.0 0.00418 230.55782 230.64691
253.0 0.00395 230.63063 230.72018
212.0 0.00472 230.70274 230.79411
231.0 0.00433 230.77388 230.86858
242.0 0.00413 230.84395 230.94684
216.0 0.00463 230.91293 231.02267
256.0 0.00391 230.98055 231.09889
243.0 0.00412 231.04683 231.17548
214.0 0.00467 231.11156 231.25183
242.0 0.00413 231.17461 231.32739
234.0 0.00427 231.23601 231.40163
233.0 0.00429 231.29547 231.47354
224.0 0.00446 231.35306 231.54233
220.0 0.00455 231.40857 231.60712
234.0 0.00427 231.46185 231.66710
242.0 0.00413 231.51300 231.72202
253.0 0.00395 231.56177 231.77179
260.0 0.00385 231.60817 231.81848
220.0 0.00455 231.65208 231.85953
225.0 0.00444 231.69339 231.89726
231.0 0.00433 231.73216 231.93243
235.0 0.00426 231.76820 231.96558
241.0 0.00415 231.80157 231.99722
230.0 0.00435 231.83218 232.02745
250.0 0.00400 231.85994 232.05632
220.0 0.00455 231.88492 232.08394
224.0 0.00446 231.90704 232.11038
251.0 0.00398 231.92630 232.14003
232.0 0.00431 231.94272 232.16609
227.0 0.00441 231.95627 232.19423
262.0 0.00382 231.96700 232.22748
226.0 0.00442 231.97491 232.26981
259.0 0.00386 231.98006 232.32681
239.0 0.00418 231.98247 232.40530
250.0 0.00400 231.98219 232.51341
239.0 0.00418 231.97934 232.66060
257.0 0.00389 231.97394 232.85603
243.0 0.00412 231.96609 233.10876
232.0 0.00431 231.95592 233.42520
201.0 0.00498 231.94351 233.80992
244.0 0.00410 231.92900 234.25797
237.0 0.00422 231.91251 234.76205
251.0 0.00398 231.89418 235.30815
221.0 0.00452 231.87421 235.87411
205.0 0.00488 231.85274 236.43318
208.0 0.00481 231.82994 236.95662
222.0 0.00450 231.80603 237.41306
246.0 0.00407 231.78117 237.77719
213.0 0.00469 231.75566 238.03227
254.0 0.00394 231.72969 238.17647
247.0 0.00405 231.70346 238.22404
238.0 0.00420 231.67728 238.20050
245.0 0.00408 231.65137 238.13612
245.0 0.00408 231.62604 238.05843
247.0 0.00405 231.60158 237.98705
205.0 0.00488 231.57825 237.93048
237.0 0.00422 231.55638 237.88629
223.0 0.00448 231.53627 237.84084
237.0 0.00422 231.51826 237.77350
258.0 0.00388 231.50267 237.66138
237.0 0.00422 231.48984 237.48561
230.0 0.00435 231.48012 237.23030
229.0 0.00437 231.47386 236.91328
218.0 0.00459 231.47141 236.54175
276.0 0.00362 231.47311 236.13702
244.0 0.00410 231.47934 235.72121
246.0 0.00407 231.49046 235.31648
241.0 0.00415 231.50685 234.93915
214.0 0.00467 231.52884 234.60092
235.0 0.00426 231.55675 234.30699
234.0 0.00427 231.59102 234.05618
251.0 0.00398 231.63190 233.84473
241.0 0.00415 231.67981 233.66647
235.0 0.00426 231.73502 233.51651
210.0 0.00476 231.79774 233.39198
232.0 0.00431 231.86853 233.29262
230.0 0.00435 231.94737 233.22084
263.0 0.00380 232.03473 233.18089
217.0 0.00461 232.13074 233.17877
242.0 0.00413 232.23547 233.22124
224.0 0.00446 232.34941 233.31575
226.0 0.00442 232.47243 233.46939
220.0 0.00455 232.60480 233.68855
239.0 0.00418 232.74646 233.97737
230.0 0.00435 232.89728 234.33704
230.0 0.00435 233.05762 234.76634
237.0 0.00422 233.22705 235.25787
217.0 0.00461 233.40565 235.80112
247.0 0.00405 233.59302 236.37920
235.0 0.00426 233.78873 236.97134
247.0 0.00405 233.99290 237.55510
227.0 0.00441 234.20465 238.10388
282.0 0.00355 234.42377 238.59438
247.0 0.00405 234.64938 239.00627
280.0 0.00357 234.88062 239.32878
231.0 0.00433 235.11717 239.56361
260.0 0.00385 235.35762 239.72334
231.0 0.00433 235.60123 239.83000
248.0 0.00403 235.84653 239.90942
265.0 0.00377 236.09201 239.98741
252.0 0.00397 236.33675 240.08673
244.0 0.00410 236.57860 240.22453
216.0 0.00463 236.81606 240.41214
237.0 0.00422 237.04686 240.65393
221.0 0.00452 237.26868 240.94788
225.0 0.00444 237.47963 241.28775
243.0 0.00412 237.67665 241.66229
261.0 0.00383 237.85721 242.05977
243.0 0.00412 238.01799 242.46776
228.0 0.00439 238.15559 242.87134
234.0 0.00427 238.26677 243.25699
254.0 0.00394 238.34735 243.60556
227.0 0.00441 238.39330 243.89594
213.0 0.00469 238.40004 244.10307
270.0 0.00370 238.36282 244.20174
257.0 0.00389 238.27640 244.16924
217.0 0.00461 238.13542 243.98987
283.0 0.00353 237.93359 243.65833
260.0 0.00385 237.66505 243.18187
252.0 0.00397 237.32303 242.57637
233.0 0.00429 236.89980 241.85791
249.0 0.00402 236.38860 241.04614
231.0 0.00433 235.78021 240.15094
237.0 0.00422 235.06676 239.17868
265.0 . . .
loop_
_refln_index_h
_refln_index_k
_refln_index_l
_pd_refln_wavelength_id
_refln_observed_status
_refln_F_squared_meas
_refln_F_squared_calc
_refln_phase_calc
_refln_d_spacing
_gsas_i100_meas
0 0 1 1 o 403.106 408.470 0.00 7.38323 30.68
0 0 1 2 o 390.933 408.470 0.00 7.38323 14.83
1 0 1 1 o 157.470 154.375 180.00 4.76746 27.89
1 0 1 2 o 155.757 154.375 180.00 4.76746 13.73
1 1 0 1 o 111.153 83.583 180.00 4.41486 7.93
1 1 0 2 o 106.851 83.583 180.00 4.41486 3.78
1 1 1 1 o 976.783 956.881 0.00 3.78912 100.00
1 1 1 2 o 983.448 956.881 0.00 3.78912 50.07
0 0 2 1 o 665.336 597.297 0.00 3.69162 11.79
0 0 2 2 o 608.186 597.297 0.00 3.69162 5.38
1 0 2 1 o 77.619 62.421 180.00 3.17771 4.69
1 0 2 2 o 81.865 62.421 180.00 3.17771 2.46
2 0 0 1 o 2350.764 2325.567 180.00 3.12178 56.36
2 0 0 2 o 2249.243 2325.567 180.00 3.12178 26.85
2 0 1 1 o 277.826 265.525 180.00 2.87532 18.97
2 0 1 2 o 270.256 265.525 180.00 2.87532 9.19
1 1 2 1 o 408.631 386.230 0.00 2.83201 18.68
1 1 2 2 o 398.348 386.230 0.00 2.83201 9.07
2 1 1 1 o 28.781 35.043 0.00 2.61168 2.69
2 1 1 2 o 25.304 35.043 0.00 2.61168 1.18
0 0 3 1 o 717.123 397.488 0.00 2.46108 5.13
0 0 3 2 o 675.708 397.488 0.00 2.46108 2.41
2 0 2 1 o 229.101 267.161 180.00 2.38373 9.69
2 0 2 2 o 223.557 267.161 180.00 2.38373 4.71
1 0 3 1 o 36.537 14.031 180.00 2.28962 1.01
1 0 3 2 o 28.784 14.031 180.00 2.28962 0.40
2 1 2 1 o 66.339 56.774 0.00 2.22694 4.00
2 1 2 2 o 65.129 56.774 0.00 2.22694 1.95
2 2 0 1 o 817.653 911.205 0.00 2.20743 14.35
2 2 0 2 o 818.509 911.205 0.00 2.20743 7.14
1 1 3 1 o 101.752 142.746 0.00 2.14964 2.69
1 1 3 2 o 114.279 142.746 0.00 2.14964 1.48
2 2 1 1 o 248.836 176.109 0.00 2.11493 7.99
2 2 1 2 o 232.501 176.109 0.00 2.11493 3.73
3 0 1 1 o -0.164 9.653 0.00 2.00313 0.00
3 0 1 2 o -0.164 9.653 0.00 2.00313 0.00
3 1 0 1 o 18.467 0.012 0.00 1.97439 0.33
3 1 0 2 o 19.734 0.012 0.00 1.97439 0.17
2 0 3 1 o 233.277 191.786 180.00 1.93271 5.01
2 0 3 2 o 221.626 191.786 180.00 1.93271 2.37
3 1 1 1 o 147.514 144.544 180.00 1.90737 6.38
3 1 1 2 o 137.397 144.544 180.00 1.90737 2.97
2 2 2 1 o 179.104 133.710 0.00 1.89456 3.92
2 2 2 2 o 160.500 133.710 0.00 1.89456 1.76
2 1 3 1 o -0.100 4.549 0.00 1.84627 0.00
0 0 4 1 o -3.363 15.595 0.00 1.84581 0.00
2 1 3 2 o -0.100 4.549 0.00 1.84627 0.00
0 0 4 2 o -3.363 15.595 0.00 1.84581 0.00
3 0 2 1 o 22.913 42.198 0.00 1.81293 0.54
3 0 2 2 o 20.505 42.198 0.00 1.81293 0.24
1 0 4 1 o 4.837 0.995 180.00 1.77008 0.07
1 0 4 2 o 5.177 0.995 180.00 1.77008 0.04
3 1 2 1 o 121.360 100.763 180.00 1.74102 4.86
3 1 2 2 o 127.797 100.763 180.00 1.74102 2.54
1 1 4 1 o 249.789 255.440 0.00 1.70296 3.56
1 1 4 2 o 286.302 255.440 0.00 1.70296 2.01
3 2 1 1 o 4.627 1.185 180.00 1.68590 0.15
3 2 1 2 o 10.070 1.185 180.00 1.68590 0.17
2 2 3 1 o 68.792 100.735 0.00 1.64327 0.96
2 2 3 2 o 55.475 100.735 0.00 1.64327 0.39
3 0 3 1 o 3.731 1.869 0.00 1.58915 0.06
2 0 4 1 o 13.833 6.497 180.00 1.58886 0.19
3 0 3 2 o 3.439 1.869 0.00 1.58915 0.03
2 0 4 2 o 14.563 6.497 180.00 1.58886 0.10
3 2 2 1 o 19.413 37.112 180.00 1.56774 0.56
3 2 2 2 o 22.784 37.112 180.00 1.56774 0.32
4 0 0 1 o 237.396 236.261 0.00 1.56089 1.16
4 0 0 2 o 292.793 236.261 0.00 1.56089 0.70
3 1 3 1 o 68.832 46.230 180.00 1.54005 1.88
2 1 4 1 o 1.663 1.113 0.00 1.53978 0.04
3 1 3 2 o 87.444 46.230 180.00 1.54005 1.17
2 1 4 2 o 2.038 1.113 0.00 1.53978 0.02
4 0 1 1 o 109.149 62.817 0.00 1.52714 1.28
4 0 1 2 o 94.780 62.817 0.00 1.52714 0.55
4 1 1 1 o -0.015 0.448 180.00 1.48341 0.00
4 1 1 2 o -0.015 0.448 180.00 1.48341 0.00
0 0 5 1 o -2.403 16.565 0.00 1.47665 0.00
0 0 5 2 o 36.156 16.565 0.00 1.47665 0.04
3 3 0 1 o 24.653 4.172 0.00 1.47162 0.16
3 3 0 2 o 73.923 4.172 0.00 1.47162 0.24
3 3 1 1 o 34.630 27.379 0.00 1.44323 0.46
3 3 1 2 o 27.800 27.379 0.00 1.44323 0.19
4 0 2 1 o 37.959 43.761 0.00 1.43766 0.52
1 0 5 1 o 7.517 8.499 180.00 1.43700 0.06
4 0 2 2 o 34.005 43.761 0.00 1.43766 0.23
1 0 5 2 o 6.311 8.499 180.00 1.43700 0.03
3 2 3 1 o 0.309 0.449 180.00 1.41622 0.01
2 2 4 1 o 0.706 2.509 0.00 1.41601 0.01
3 2 3 2 o 0.024 0.449 180.00 1.41622 0.00
2 2 4 2 o -0.064 2.509 0.00 1.41601 0.00
4 1 2 1 o 13.922 23.973 180.00 1.40100 0.32
1 1 5 1 o 47.142 73.728 0.00 1.40039 0.43
4 1 2 2 o 24.796 23.973 180.00 1.40100 0.28
1 1 5 2 o 87.151 73.728 0.00 1.40039 0.38
4 2 0 1 o 155.176 111.847 180.00 1.39610 1.38
4 2 0 2 o 174.098 111.847 180.00 1.39610 0.76
3 0 4 1 o -0.020 0.845 0.00 1.38094 0.00
3 0 4 2 o 0.266 0.845 0.00 1.38094 0.00
4 2 1 1 o 83.168 47.492 180.00 1.37179 1.55
4 2 1 2 o 88.003 47.492 180.00 1.37179 0.81
3 3 2 1 o 64.617 33.938 0.00 1.36701 0.70
3 3 2 2 o 68.557 33.938 0.00 1.36701 0.37
3 1 4 1 o 63.945 95.934 180.00 1.34835 1.18
3 1 4 2 o 68.610 95.934 180.00 1.34835 0.62
2 0 5 1 o -1.569 10.751 180.00 1.33485 0.00
2 0 5 2 o -1.569 10.751 180.00 1.33485 0.00
4 0 3 1 o 39.487 32.632 0.00 1.31814 0.44
4 0 3 2 o 52.810 32.632 0.00 1.31814 0.29
2 1 5 1 o 5.606 3.020 0.00 1.30535 0.08
4 2 2 2 o 32.291 25.317 180.00 1.30584 0.31
2 1 5 2 o 3.342 3.020 0.00 1.30535 0.02
4 2 2 1 o 42.430 25.317 180.00 1.30584 0.80
4 1 3 1 o 7.291 0.339 180.00 1.28971 0.14
4 1 3 2 o 8.856 0.339 180.00 1.28971 0.08
3 3 3 1 o 27.121 17.367 0.00 1.26304 0.23
3 2 4 1 o 1.240 0.868 180.00 1.26289 0.02
3 3 3 2 o 37.542 17.367 0.00 1.26304 0.15
3 2 4 2 o 1.917 0.868 180.00 1.26289 0.01
4 3 1 1 o -0.002 0.490 180.00 1.23123 0.00
5 0 1 1 o -0.003 0.045 180.00 1.23123 0.00
0 0 6 1 o -1.035 6.739 0.00 1.23054 0.00
4 3 1 2 o -0.002 0.490 180.00 1.23123 0.00
5 0 1 2 o -0.003 0.045 180.00 1.23123 0.00
0 0 6 2 o -1.035 6.739 0.00 1.23054 0.00
2 2 5 1 o -1.036 7.145 0.00 1.22735 0.00
5 1 0 1 o 2.624 0.322 0.00 1.22446 0.02
2 2 5 2 o 36.346 7.145 0.00 1.22735 0.11
5 1 0 2 o 0.149 0.322 0.00 1.22446 0.00
4 2 3 1 o 22.233 19.044 180.00 1.21432 0.36
4 2 3 2 o 27.220 19.044 180.00 1.21432 0.22
5 1 1 1 o 22.628 11.664 0.00 1.20796 0.28
1 0 6 1 o 64.049 34.112 0.00 1.20731 0.36
5 1 1 2 o 17.509 11.664 0.00 1.20796 0.11
1 0 6 2 o 45.192 34.112 0.00 1.20731 0.13
3 0 5 1 o 1.645 1.253 0.00 1.20430 0.01
3 0 5 2 o 1.169 1.253 0.00 1.20430 0.00
4 0 4 1 o 4.665 0.278 0.00 1.19186 0.04
4 0 4 2 o 0.433 0.278 0.00 1.19186 0.00
1 1 6 1 o 2.737 25.001 0.00 1.18536 0.03
4 3 2 1 o 14.021 18.160 0.00 1.18287 0.22
5 0 2 1 o 8.667 11.229 180.00 1.18287 0.07
3 1 5 1 o 20.546 24.637 180.00 1.18251 0.28
1 1 6 2 o 21.170 25.001 0.00 1.18536 0.06
5 0 2 2 o 12.629 11.229 180.00 1.18287 0.05
4 3 2 2 o 20.421 18.160 0.00 1.18287 0.16
3 1 5 2 o 27.531 24.637 180.00 1.18251 0.18
4 1 4 1 o 2.001 0.455 180.00 1.17072 0.03
4 1 4 2 o 4.728 0.455 180.00 1.17072 0.03
5 1 2 1 o 34.003 11.116 0.00 1.16220 0.49
5 1 2 2 o 26.034 11.116 0.00 1.16220 0.19
3 3 4 1 o 22.982 41.371 0.00 1.15067 0.15
3 3 4 2 o 57.496 41.371 0.00 1.15067 0.18
5 2 1 1 o 0.452 0.151 180.00 1.14536 0.01
2 0 6 1 o 17.657 5.006 180.00 1.14481 0.10
5 2 1 2 o 0.232 0.151 180.00 1.14536 0.00
2 0 6 2 o -0.724 5.006 180.00 1.14481 0.00
3 2 5 1 o 0.255 0.249 180.00 1.12360 0.00
2 1 6 2 o 18.509 17.753 180.00 1.12604 0.10
2 1 6 1 o 31.751 17.753 180.00 1.12604 0.35
3 2 5 2 o -0.002 0.249 180.00 1.12360 0.00
5 0 3 1 o 3.580 0.194 180.00 1.11357 0.03
4 3 3 1 o 0.016 0.001 0.00 1.11357 0.00
4 2 4 1 o 2.095 0.021 180.00 1.11347 0.03
5 0 3 2 o 3.851 0.194 180.00 1.11357 0.01
4 3 3 2 o 0.017 0.001 0.00 1.11357 0.00
4 2 4 2 o 2.273 0.021 180.00 1.11347 0.01
5 2 2 1 o 12.239 10.915 0.00 1.10613 0.16
4 4 0 1 o 20.318 15.780 0.00 1.10372 0.08
5 2 2 2 o 14.884 10.915 0.00 1.10613 0.09
4 4 0 2 o 18.624 15.780 0.00 1.10372 0.03
5 1 3 1 o 15.647 6.598 0.00 1.09627 0.24
5 1 3 2 o 3.857 6.598 0.00 1.09627 0.03
4 4 1 1 o 20.437 17.196 0.00 1.09159 0.15
