#------------------------------------------------------------------------------
#$Date: 2016-02-14 16:26:36 +0200 (Sun, 14 Feb 2016) $
#$Revision: 176435 $
#$URL: svn://www.crystallography.net/cod/cif/1/51/62/1516201.cif $
#------------------------------------------------------------------------------
#
# This file is available in the Crystallography Open Database (COD),
# http://www.crystallography.net/
#
# All data on this site have been placed in the public domain by the
# contributors.
#
data_1516201
loop_
_publ_author_name
'Migliorati, Valentina'
'Ballirano, Paolo'
'Gontrani, Lorenzo'
'Russina, Olga'
'Caminiti, Ruggero'
_publ_section_title
;
 Crystal polymorphism of propylammonium chloride and structural properties
 of its mixture with water.
;
_journal_issue                   41
_journal_name_full               'The journal of physical chemistry. B'
_journal_page_first              11805
_journal_page_last               11815
_journal_paper_doi               10.1021/jp206831d
_journal_volume                  115
_journal_year                    2011
_chemical_formula_sum            'C3 Cl N'
_chemical_formula_weight         85.49
_chemical_name_systematic        ' ?'
_space_group_IT_number           129
_symmetry_cell_setting           tetragonal
_symmetry_space_group_name_Hall  '-P 4a 2a'
_symmetry_space_group_name_H-M   'P 4/n m m :2'
_audit_creation_date             2011-07-21T08:58
_audit_creation_method           'from EXP file using GSAS2CIF'
_audit_update_record
' 2011-07-21T08:58  Initial CIF as created by GSAS2CIF'
_cell_angle_alpha                90.0
_cell_angle_beta                 90.0
_cell_angle_gamma                90.0
_cell_formula_units_Z            2
_cell_length_a                   6.28481(7)
_cell_length_b                   6.28481
_cell_length_c                   7.43083(19)
_cell_volume                     293.509(8)
_computing_structure_refinement  GSAS
_diffrn_radiation_probe          x-ray
_exptl_absorpt_correction_T_max  0.81790
_exptl_absorpt_correction_T_min  0.81483
_exptl_absorpt_process_details
;   GSAS Absorption/surface roughness correction: function number 0
 Debye-Scherrer absorption correction
Term (= MU.r/wave) =     0.78580E-01
Correction is not refined.
;
_pd_block_id
2011-07-21T08:58|115|paolo|Bruker_AXS_D8_Advance
_pd_calc_method                  'Rietveld Refinement'
_pd_instr_location               ' ?'
_pd_meas_2theta_range_inc        0.022
_pd_meas_2theta_range_max        89.988
_pd_meas_2theta_range_min        3.0
_pd_meas_number_of_points        3955
_pd_phase_name                   'Propylammonium chloride'
_pd_proc_2theta_range_inc        0.022
_pd_proc_2theta_range_max        89.988
_pd_proc_2theta_range_min        3.0
_pd_proc_info_datetime           2011-07-21T08:58:46
_pd_proc_info_excluded_regions   ' ?'
_pd_proc_ls_background_function
;   GSAS Background function number 1 with 30 terms.
 Shifted Chebyshev function of 1st kind
      1:    523.067     2:   -329.930     3:    24.7159     4:    85.9284    
      5:   -77.0327     6:   0.468819     7:    71.1089     8:   -77.5057    
      9:    36.7464    10:    10.7351    11:   -29.6484    12:    25.5443    
     13:   -6.51032    14:   -9.11841    15:    4.10339    16:    1.63619    
     17:   -2.60995    18:  -0.747946    19:    2.43044    20:  -0.145227    
     21:   -3.24715    22:    2.48600    23:   0.901198    24:   -2.43041    
     25:    3.63022    26:   -1.65497    27:   0.493144    28:    1.50962    
     29:   -1.01666    30:    1.08331    
;
_pd_proc_ls_peak_cutoff          0.00100
_pd_proc_ls_profile_function
;
 CW Profile function number 3 with  19 terms
 Pseudovoigt profile coefficients as parameterized in
 P. Thompson, D.E. Cox & J.B. Hastings (1987). J. Appl. Cryst.,20,79-83.
 Asymmetry correction of L.W. Finger, D.E. Cox & A. P. Jephcoat (1994).
 J. Appl. Cryst.,27,892-900.
 Peak tails are ignored  where the intensity is below 0.0010 times the peak
   Aniso. broadening axis   0.0   1.0   0.0
;
_pd_proc_ls_prof_R_factor        0.0435
_pd_proc_ls_prof_wR_expected     0.0407
_pd_proc_ls_prof_wR_factor       0.0571
_pd_proc_number_of_points        3955
_pd_spec_mounting                ' ?'
_refine_ls_goodness_of_fit_all   1.42
_refine_ls_matrix_type           full
_refine_ls_number_parameters     47
_refine_ls_number_restraints     8
_refine_ls_R_Fsqd_factor         0.15339
_refine_ls_shift/su_max          0.08
_refine_ls_shift/su_mean         0.01
_reflns_d_resolution_high        1.099
_reflns_d_resolution_low         7.431
_reflns_limit_h_max              5
_reflns_limit_h_min              0
_reflns_limit_k_max              4
_reflns_limit_k_min              0
_reflns_limit_l_max              6
_reflns_limit_l_min              0
_reflns_number_total             174
_cod_data_source_file            388K.cif
_cod_data_source_block           115_publ
_cod_depositor_comments
;
The following automatic conversions were performed:

'_geom_bond_publ_flag' value 'N' changed to 'n' according to
/usr/data/users/saulius/automatic-downloads/retrospective/ACS/lib/dictionaries/cif_core.dic
dictionary named 'cif_core.dic' version 2.4.2 from 2011-04-26 (24
times).

'_geom_angle_publ_flag' value 'N' changed to 'n' according
to
/usr/data/users/saulius/automatic-downloads/retrospective/ACS/lib/dictionaries/cif_core.dic
dictionary named 'cif_core.dic' version 2.4.2 from 2011-04-26 (68
times).

Automatic conversion script
Id: cif_fix_values 2281 2013-09-26 08:29:07Z andrius 
;
_cod_original_cell_volume        293.509(10)
_cod_original_sg_symbol_H-M      'p 4/n m m'
_cod_original_formula_sum        'C3.00 Cl N'
_cod_database_code               1516201
#BEGIN Tags that were not found in dictionaries:
_gsas_exptl_extinct_corr_t_min   1.00000
_gsas_exptl_extinct_corr_t_max   1.00000
#END Tags that were not found in dictionaries
loop_
_symmetry_equiv_pos_site_id
_symmetry_equiv_pos_as_xyz
1 +x,+y,+z
2 -y+1/2,+x,+z
3 -x+1/2,-y+1/2,+z
4 +y,-x+1/2,+z
5 -x+1/2,+y,+z
6 -y+1/2,-x+1/2,+z
7 +x,-y+1/2,+z
8 +y,+x,+z
-1 -x,-y,-z
-2 +y+1/2,-x,-z
-3 +x+1/2,+y+1/2,-z
-4 -y,+x+1/2,-z
-5 +x+1/2,-y,-z
-6 +y+1/2,+x+1/2,-z
-7 -x,+y+1/2,-z
-8 -y,-x,-z
loop_
_atom_site_type_symbol
_atom_site_label
_atom_site_fract_x
_atom_site_fract_y
_atom_site_fract_z
_atom_site_occupancy
_atom_site_thermal_displace_type
_atom_site_U_iso_or_equiv
_atom_site_symmetry_multiplicity
Cl CL1 0.25 -0.25 0.0 1.0 Uiso 0.1226(9) 2
C C(1) 0.25 0.3320(6) 0.28865(32) 0.25 Uiso 0.0820(17) 8
N N 0.25 0.25 0.10407(28) 1.0 Uiso 0.0820(17) 2
C C(2) 0.25 0.1481(5) 0.42598(28) 0.25 Uiso 0.0820(17) 8
C C(3) 0.25 0.25 0.6165(4) 1.0 Uiso 0.0820(17) 2
loop_
_atom_type_symbol
_atom_type_number_in_cell
_atom_type_scat_dispersion_real
_atom_type_scat_dispersion_imag
_atom_type_scat_Cromer_Mann_a1
_atom_type_scat_Cromer_Mann_a2
_atom_type_scat_Cromer_Mann_a3
_atom_type_scat_Cromer_Mann_a4
_atom_type_scat_Cromer_Mann_b1
_atom_type_scat_Cromer_Mann_b2
_atom_type_scat_Cromer_Mann_b3
_atom_type_scat_Cromer_Mann_b4
_atom_type_scat_Cromer_Mann_c
_atom_type_scat_source
Cl 2.0 0.000 0.000 11.4604 0.01040 7.19640 1.16620 6.25560 18.5194 1.64550
47.7784 -9.5574 International_Tables_Vol_C
C 6.0 0.000 0.000 2.31000 20.8439 1.02000 10.2075 1.58860 0.56870 0.86500
51.6512 0.21560 International_Tables_Vol_C
N 2.0 0.000 0.000 12.2126 0.00570 3.13220 9.89330 2.01250 28.9975 1.16630
0.58260 -11.529 International_Tables_Vol_C
loop_
_diffrn_radiation_wavelength
_diffrn_radiation_wavelength_wt
_diffrn_radiation_type
_diffrn_radiation_wavelength_id
1.540598 1.000 K\a~1~ 1
1.544390 0.500 K\a~2~ 2
loop_
_geom_angle_atom_site_label_1
_geom_angle_atom_site_label_2
_geom_angle_atom_site_label_3
_geom_angle
_geom_angle_site_symmetry_1
_geom_angle_site_symmetry_3
_geom_angle_publ_flag
C(1) C(1) C(1) 45.0 2_555 3_555 n
C(1) C(1) C(1) 90.0 2_555 4_555 n
C(1) C(1) N 75.60(9) 2_555 1_555 n
C(1) C(1) C(2) 57.99(8) 2_555 1_555 n
C(1) C(1) C(2) 93.87(15) 2_555 2_555 n
C(1) C(1) C(2) 94.94(19) 2_555 3_555 n
C(1) C(1) C(2) 51.41(15) 2_555 4_555 n
C(1) C(1) C(1) 45.0 3_555 4_555 n
C(1) C(1) N 69.40(14) 3_555 1_555 n
C(1) C(1) C(2) 41.43(15) 3_555 1_555 n
C(1) C(1) C(2) 66.84(16) 3_555 2_555 n
C(1) C(1) C(2) 96.99(27) 3_555 3_555 n
C(1) C(1) C(2) 66.84(16) 3_555 4_555 n
C(1) C(1) N 75.60(9) 4_555 1_555 n
C(1) C(1) C(2) 57.99(8) 4_555 1_555 n
C(1) C(1) C(2) 51.41(15) 4_555 2_555 n
C(1) C(1) C(2) 94.94(19) 4_555 3_555 n
C(1) C(1) C(2) 93.87(15) 4_555 4_555 n
N C(1) C(2) 110.84(25) 1_555 1_555 n
N C(1) C(2) 126.19(23) 1_555 2_555 n
N C(1) C(2) 166.4(4) 1_555 3_555 n
N C(1) C(2) 126.19(23) 1_555 4_555 n
C(2) C(1) C(2) 35.89(17) 1_555 2_555 n
C(2) C(1) C(2) 55.56(31) 1_555 3_555 n
C(2) C(1) C(2) 35.89(17) 1_555 4_555 n
C(2) C(1) C(2) 43.53(23) 2_555 3_555 n
C(2) C(1) C(2) 58.53(29) 2_555 4_555 n
C(2) C(1) C(2) 43.53(23) 3_555 4_555 n
C(1) N C(1) 28.81(19) 1_555 2_555 n
C(1) N C(1) 41.19(28) 1_555 3_555 n
C(1) N C(1) 28.81(19) 1_555 4_555 n
C(1) N C(1) 28.81(19) 2_555 3_555 n
C(1) N C(1) 41.19(28) 2_555 4_555 n
C(1) N C(1) 28.81(19) 3_555 4_555 n
C(1) C(2) C(1) 28.14(18) 1_555 2_555 n
C(1) C(2) C(1) 41.57(31) 1_555 3_555 n
C(1) C(2) C(1) 28.14(18) 1_555 4_555 n
C(1) C(2) C(2) 57.99(8) 1_555 2_555 n
C(1) C(2) C(2) 41.43(15) 1_555 3_555 n
C(1) C(2) C(2) 57.99(8) 1_555 4_555 n
C(1) C(2) C(3) 107.09(23) 1_555 1_555 n
C(1) C(2) C(1) 33.65(25) 2_555 3_555 n
C(1) C(2) C(1) 46.32(31) 2_555 4_555 n
C(1) C(2) C(2) 86.13(15) 2_555 2_555 n
C(1) C(2) C(2) 60.73(14) 2_555 3_555 n
C(1) C(2) C(2) 51.41(15) 2_555 4_555 n
C(1) C(2) C(3) 120.52(23) 2_555 1_555 n
C(1) C(2) C(1) 33.65(25) 3_555 4_555 n
C(1) C(2) C(2) 85.06(19) 3_555 2_555 n
C(1) C(2) C(2) 83.01(27) 3_555 3_555 n
C(1) C(2) C(2) 85.06(19) 3_555 4_555 n
C(1) C(2) C(3) 148.7(4) 3_555 1_555 n
C(1) C(2) C(2) 51.41(15) 4_555 2_555 n
C(1) C(2) C(2) 60.73(14) 4_555 3_555 n
C(1) C(2) C(2) 86.13(15) 4_555 4_555 n
C(1) C(2) C(3) 120.52(23) 4_555 1_555 n
C(2) C(2) C(2) 45.0 2_555 3_555 n
C(2) C(2) C(2) 90.0 2_555 4_555 n
C(2) C(2) C(3) 73.05(8) 2_555 1_555 n
C(2) C(2) C(2) 45.0 3_555 4_555 n
C(2) C(2) C(3) 65.65(12) 3_555 1_555 n
C(2) C(2) C(3) 73.05(8) 4_555 1_555 n
C(2) C(3) C(2) 33.90(16) 1_555 2_555 n
C(2) C(3) C(2) 48.69(24) 1_555 3_555 n
C(2) C(3) C(2) 33.90(16) 1_555 4_555 n
C(2) C(3) C(2) 33.90(16) 2_555 3_555 n
C(2) C(3) C(2) 48.69(24) 2_555 4_555 n
C(2) C(3) C(2) 33.90(16) 3_555 4_555 n
loop_
_geom_bond_atom_site_label_1
_geom_bond_atom_site_label_2
_geom_bond_distance
_geom_bond_site_symmetry_2
_geom_bond_publ_flag
C(1) C(1) 0.729(5) 2_555 n
C(1) C(1) 1.031(7) 3_555 n
C(1) C(1) 0.729(5) 4_555 n
C(1) N 1.4653(32) 1_555 n
C(1) C(2) 1.542(4) 1_555 n
C(1) C(2) 1.3105(33) 2_555 n
C(1) C(2) 1.0281(32) 3_555 n
C(1) C(2) 1.3105(33) 4_555 n
N C(1) 1.4653(32) 1_555 n
N C(1) 1.4653(32) 2_555 n
N C(1) 1.4653(32) 3_555 n
N C(1) 1.4653(32) 4_555 n
C(2) C(1) 1.542(4) 1_555 n
C(2) C(1) 1.3105(33) 2_555 n
C(2) C(1) 1.0281(32) 3_555 n
C(2) C(1) 1.3105(33) 4_555 n
C(2) C(2) 0.906(5) 2_555 n
C(2) C(2) 1.281(7) 3_555 n
C(2) C(2) 0.906(5) 4_555 n
C(2) C(3) 1.5541(34) 1_555 n
C(3) C(2) 1.5541(34) 1_555 n
C(3) C(2) 1.5541(34) 2_555 n
C(3) C(2) 1.5541(34) 3_555 n
C(3) C(2) 1.5541(34) 4_555 n
loop_
_pd_meas_counts_total
_pd_proc_ls_weight
_pd_proc_intensity_bkg_calc
_pd_calc_intensity_total
21479.0 0.0 -18025354.00000 .
20833.0 0.0 -17558716.00000 .
19871.0 0.0 -17103344.00000 .
19558.0 0.0 -16658965.00000 .
18604.0 0.0 -16225343.00000 .
18245.0 0.0 -15802230.00000 .
17483.0 0.0 -15389406.00000 .
16990.0 0.0 -14986620.00000 .
16247.0 0.0 -14593650.00000 .
15959.0 0.0 -14210280.00000 .
15286.0 0.0 -13836286.00000 .
14553.0 0.0 -13471449.00000 .
14211.0 0.0 -13115571.00000 .
13753.0 0.0 -12768450.00000 .
13535.0 0.0 -12429867.00000 .
13160.0 0.0 -12099644.00000 .
12643.0 0.0 -11777578.00000 .
12196.0 0.0 -11463504.00000 .
11851.0 0.0 -11157212.00000 .
11438.0 0.0 -10858533.00000 .
11027.0 0.0 -10567289.00000 .
10896.0 0.0 -10283309.00000 .
10519.0 0.0 -10006428.00000 .
10376.0 0.0 -9736474.00000 .
9998.0 0.0 -9473293.00000 .
9672.0 0.0 -9216729.00000 .
9522.0 0.0 -8966614.00000 .
9250.0 0.0 -8722811.00000 .
8831.0 0.0 -8485171.00000 .
8643.0 0.0 -8253544.50000 .
8484.0 0.0 -8027792.50000 .
8197.0 0.0 -7807771.50000 .
8272.0 0.0 -7593358.00000 .
7836.0 0.0 -7384411.00000 .
7730.0 0.0 -7180802.50000 .
7853.0 0.0 -6982408.00000 .
7176.0 0.0 -6789099.50000 .
7238.0 0.0 -6600759.50000 .
7213.0 0.0 -6417270.00000 .
6970.0 0.0 -6238513.50000 .
6746.0 0.0 -6064374.00000 .
6613.0 0.0 -5894747.00000 .
6442.0 0.0 -5729521.50000 .
6248.0 0.0 -5568590.00000 .
6129.0 0.0 -5411855.00000 .
6144.0 0.0 -5259206.50000 .
5973.0 0.0 -5110553.50000 .
5783.0 0.0 -4965794.50000 .
5672.0 0.0 -4824834.50000 .
5728.0 0.0 -4687585.00000 .
5667.0 0.0 -4553954.50000 .
5443.0 0.0 -4423850.00000 .
5344.0 0.0 -4297191.00000 .
5337.0 0.0 -4173895.50000 .
5286.0 0.0 -4053873.00000 .
5175.0 0.0 -3937045.00000 .
5116.0 0.0 -3823334.50000 .
4965.0 0.0 -3712670.00000 .
4861.0 0.0 -3604964.00000 .
4856.0 0.0 -3500153.25000 .
4810.0 0.0 -3398161.25000 .
4713.0 0.0 -3298921.50000 .
4615.0 0.0 -3202360.75000 .
4650.0 0.0 -3108415.00000 .
4502.0 0.0 -3017018.50000 .
4392.0 0.0 -2928108.75000 .
4334.0 0.0 -2841619.00000 .
4313.0 0.0 -2757492.50000 .
4306.0 0.0 -2675666.75000 .
4128.0 0.0 -2596088.25000 .
4270.0 0.0 -2518692.25000 .
4231.0 0.0 -2443429.75000 .
3954.0 0.0 -2370245.50000 .
4078.0 0.0 -2299087.25000 .
3836.0 0.0 -2229901.00000 .
3922.0 0.0 -2162635.75000 .
3810.0 0.0 -2097244.50000 .
3864.0 0.0 -2033678.62500 .
3821.0 0.0 -1971889.12500 .
3774.0 0.0 -1911833.25000 .
3649.0 0.0 -1853464.62500 .
3727.0 0.0 -1796739.25000 .
3730.0 0.0 -1741616.12500 .
3557.0 0.0 -1688051.00000 .
3413.0 0.0 -1636005.37500 .
3300.0 0.0 -1585439.37500 .
3534.0 0.0 -1536312.25000 .
3455.0 0.0 -1488589.75000 .
3342.0 0.0 -1442232.50000 .
3287.0 0.0 -1397204.37500 .
3196.0 0.0 -1353470.50000 .
3290.0 0.0 -1310996.50000 .
3273.0 0.0 -1269751.50000 .
3223.0 0.0 -1229700.87500 .
3270.0 0.0 -1190811.62500 .
3177.0 0.0 -1153053.50000 .
3138.0 0.0 -1116398.25000 .
3228.0 0.0 -1080812.87500 .
3212.0 0.0 -1046271.62500 .
3031.0 0.0 -1012746.00000 .
3017.0 0.0 -980206.43750 .
3069.0 0.0 -948628.25000 .
2967.0 0.0 -917983.18750 .
3050.0 0.0 -888249.43750 .
2921.0 0.0 -859401.18750 .
2887.0 0.0 -831410.31250 .
2977.0 0.0 -804258.18750 .
2832.0 0.0 -777918.37500 .
2804.0 0.0 -752370.87500 .
2814.0 0.0 -727593.68750 .
2802.0 0.0 -703563.81250 .
2697.0 0.0 -680262.75000 .
2799.0 0.0 -657667.56250 .
2681.0 0.0 -635761.06250 .
2672.0 0.0 -614524.25000 .
2778.0 0.0 -593935.37500 .
2697.0 0.0 -573979.56250 .
2633.0 0.0 -554636.50000 .
2605.0 0.0 -535891.00000 .
2630.0 0.0 -517726.00000 .
2659.0 0.0 -500122.53125 .
2586.0 0.0 -483067.71875 .
2596.0 0.0 -466544.21875 .
2527.0 0.0 -450537.43750 .
2470.0 0.0 -435033.21875 .
2446.0 0.0 -420015.31250 .
2424.0 0.0 -405472.00000 .
2434.0 0.0 -391387.50000 .
2390.0 0.0 -377749.87500 .
2400.0 0.0 -364546.81250 .
2337.0 0.0 -351763.56250 .
2361.0 0.0 -339390.03125 .
2364.0 0.0 -327412.31250 .
2367.0 0.0 -315820.34375 .
2292.0 0.0 -304602.93750 .
2361.0 0.0 -293747.59375 .
2312.0 0.0 -283244.93750 .
2355.0 0.0 -273083.59375 .
2200.0 0.0 -263254.18750 .
2183.0 0.0 -253747.10938 .
2289.0 0.0 -244551.48438 .
2147.0 0.0 -235659.17188 .
2192.0 0.0 -227059.87500 .
2136.0 0.0 -218745.96875 .
2220.0 0.0 -210708.96875 .
2177.0 0.0 -202939.17188 .
2146.0 0.0 -195429.89063 .
2153.0 0.0 -188172.01563 .
2076.0 0.0 -181158.46875 .
2109.0 0.0 -174382.31250 .
2087.0 0.0 -167834.96875 .
2077.0 0.0 -161510.60938 .
1961.0 0.0 -155401.37500 .
1975.0 0.0 -149501.45313 .
2085.0 0.0 -143804.17188 .
1898.0 0.0 -138302.50000 .
2014.0 0.0 -132991.10938 .
1949.0 0.0 -127863.58594 .
1994.0 0.0 -122914.60938 .
1901.0 0.0 -118138.39844 .
1978.0 0.0 -113529.09375 .
1966.0 0.0 -109081.91406 .
1828.0 0.0 -104791.30469 .
1875.0 0.0 -100652.46094 .
1883.0 0.0 -96660.85938 .
1864.0 0.0 -92811.00781 .
1830.0 0.0 -89099.06250 .
1812.0 0.0 -85520.00000 .
1704.0 0.0 -82069.83594 .
1856.0 0.0 -78744.57813 .
1846.0 0.0 -75539.68750 .
1843.0 0.0 -72451.51563 .
1700.0 0.0 -69476.01563 .
1736.0 0.0 -66609.71094 .
1690.0 0.0 -63849.01172 .
1764.0 0.0 -61190.07422 .
1722.0 0.0 -58629.80469 .
1736.0 0.0 -56164.81641 .
1689.0 0.0 -53791.88672 .
1697.0 0.0 -51508.15625 .
1626.0 0.0 -49310.16797 .
1701.0 0.0 -47195.45313 .
1693.0 0.0 -45160.82422 .
1613.0 0.0 -43203.79688 .
1676.0 0.0 -41321.75000 .
1674.0 0.0 -39511.81250 .
1617.0 0.0 -37771.83203 .
1599.0 0.0 -36099.08594 .
1567.0 0.0 -34491.50391 .
1553.0 0.0 -32946.71875 .
1651.0 0.0 -31462.41602 .
1485.0 0.0 -30036.61523 .
1592.0 0.0 -28667.15430 .
1529.0 0.0 -27352.15430 .
1500.0 0.0 -26089.66602 .
1563.0 0.0 -24877.65039 .
1562.0 0.0 -23714.47461 .
1497.0 0.0 -22598.25586 .
1475.0 0.0 -21527.41016 .
1484.0 0.0 -20500.32227 .
1451.0 0.0 -19515.22266 .
1463.0 0.0 -18570.74023 .
1428.0 0.0 -17665.27539 .
1419.0 0.0 -16797.43945 .
1505.0 0.0 -15965.90430 .
1432.0 0.0 -15169.19727 .
1460.0 0.0 -14406.12500 .
1360.0 0.0 -13675.33887 .
1432.0 0.0 -12975.68848 .
1395.0 0.0 -12306.00488 .
1370.0 0.0 -11665.05957 .
1388.0 0.0 -11051.85156 .
1372.0 0.0 -10465.27246 .
1395.0 0.0 -9904.30566 .
1366.0 0.0 -9367.98730 .
1428.0 0.0 -8855.31152 .
1323.0 0.0 -8365.40430 .
1340.0 0.0 -7897.31641 .
1298.0 0.0 -7450.24072 .
1314.0 0.0 -7023.35449 .
1277.0 0.0 -6615.78955 .
1283.0 0.0 -6226.83740 .
1293.0 0.0 -5855.70996 .
1326.0 0.0 -5501.70654 .
1317.0 0.0 -5164.14111 .
1210.0 0.0 -4842.32080 .
1243.0 0.0 -4535.61719 .
1244.0 0.0 -4243.38672 .
1193.0 0.0 -3965.05591 .
1180.0 0.0 -3700.06079 .
1122.0 0.0 -3447.78369 .
1191.0 0.0 -3207.74854 .
1182.0 0.0 -2979.40015 .
1218.0 0.0 -2762.25586 .
1176.0 0.0 -2555.85352 .
1092.0 0.0 -2359.68970 .
1149.0 0.0 -2173.36011 .
1148.0 0.0 -1996.40784 .
1120.0 0.0 -1828.44958 .
1100.0 0.0 -1669.07581 .
1144.0 0.0 -1517.90271 .
1079.0 0.0 -1374.57629 .
1100.0 0.0 -1238.72412 .
1087.0 0.0 -1110.03186 .
1068.0 0.0 -988.17291 .
1060.0 0.0 -872.81451 .
982.0 0.0 -763.67926 .
1113.0 0.0 -660.46759 .
1042.0 0.0 -562.90698 .
1015.0 0.0 -470.73544 .
1056.0 0.0 -383.69333 .
1005.0 0.0 -301.54260 .
1012.0 0.0 -224.03952 .
1044.0 0.0 -150.97090 .
984.0 0.0 -82.11842 .
956.0 0.0 -17.27056 .
964.0 0.0 43.76566 .
1009.0 0.0 101.18116 .
968.0 0.0 155.15477 .
964.0 0.0 205.85725 .
984.0 0.0 253.46452 .
961.0 0.0 298.12604 .
995.0 0.0 339.99823 .
935.0 0.0 379.22610 .
916.0 0.0 415.94531 .
920.0 0.0 450.29230 .
928.0 0.0 482.39127 .
952.0 0.0 512.36652 .
951.0 0.0 540.32947 .
941.0 0.0 566.39185 .
909.0 0.0 590.66071 .
906.0 0.0 613.23529 .
897.0 0.0 634.21082 .
882.0 0.0 653.67834 .
928.0 0.0 671.72369 .
897.0 0.0 688.43274 .
963.0 0.0 703.88074 .
931.0 0.0 718.14459 .
967.0 0.0 731.29480 .
891.0 0.0 743.39868 .
944.0 0.0 754.52112 .
887.0 0.0 764.72253 .
891.0 0.0 774.06195 .
891.0 0.0 782.59308 .
911.0 0.0 790.36780 .
910.0 0.0 797.43695 .
890.0 0.0 803.84601 .
869.0 0.0 809.63995 .
869.0 0.0 814.86041 .
875.0 0.0 819.54645 .
895.0 0.0 823.73663 .
864.0 0.0 827.46521 .
913.0 0.0 830.76605 .
861.0 0.0 833.67047 .
909.0 0.0 836.20789 .
886.0 0.0 838.40637 .
912.0 0.0 840.29199 .
884.0 0.0 841.88965 .
853.0 0.0 843.22217 .
899.0 0.0 844.31134 .
885.0 0.0 845.17767 .
847.0 0.0 845.84003 .
885.0 0.0 846.31641 .
936.0 0.0 846.62335 .
824.0 0.0 846.77649 .
881.0 0.0 846.79022 .
902.0 0.0 846.67810 .
878.0 0.0 846.45264 .
847.0 0.0 846.12555 .
889.0 0.0 845.70752 .
787.0 0.0 845.20868 .
835.0 0.0 844.63818 .
872.0 0.0 844.00446 .
853.0 0.0 843.31549 .
883.0 0.0 842.57849 .
851.0 0.0 841.79980 .
837.0 0.0 840.98572 .
839.0 0.0 840.14160 .
814.0 0.001229 839.27234 839.27209
798.0 0.001253 838.38263 838.38251
940.0 0.001064 837.47638 837.47638
928.0 0.001078 836.55743 836.55743
807.0 0.001239 835.62872 835.62885
807.0 0.001239 834.69348 834.69366
876.0 0.001142 833.75415 833.75439
827.0 0.001209 832.81293 832.81323
787.0 0.001271 831.87177 831.87213
814.0 0.001229 830.93243 830.93280
859.0 0.001164 829.99622 829.99664
840.0 0.001190 829.06451 829.06494
781.0 0.001280 828.13806 828.13849
809.0 0.001236 827.21783 827.21826
858.0 0.001166 826.30432 826.30475
846.0 0.001182 825.39795 825.39838
802.0 0.001247 824.49902 824.49951
827.0 0.001209 823.60773 823.60815
837.0 0.001195 822.72400 822.72443
838.0 0.001193 821.84778 821.84814
873.0 0.001145 820.97876 820.97919
761.0 0.001314 820.11682 820.11719
811.0 0.001233 819.26141 819.26178
836.0 0.001196 818.41211 818.41241
826.0 0.001211 817.56848 817.56879
771.0 0.001297 816.72986 816.73010
806.0 0.001241 815.89575 815.89600
745.0 0.001342 815.06537 815.06561
756.0 0.001323 814.23810 814.23834
825.0 0.001212 813.41327 813.41345
840.0 0.001190 812.58997 812.59015
817.0 0.001224 811.76770 811.76782
745.0 0.001342 810.94556 810.94562
840.0 0.001190 810.12268 810.12280
789.0 0.001267 809.29858 809.29865
800.0 0.001250 808.47235 808.47235
868.0 0.001152 807.64325 807.64325
841.0 0.001189 806.81055 806.81055
797.0 0.001255 805.97351 805.97345
784.0 0.001276 805.13153 805.13147
773.0 0.001294 804.28375 804.28369
781.0 0.001280 803.42981 803.42969
850.0 0.001176 802.56879 802.56866
803.0 0.001245 801.70026 801.70007
815.0 0.001227 800.82355 800.82336
768.0 0.001302 799.93817 799.93793
791.0 0.001264 799.04358 799.04340
822.0 0.001217 798.13940 801.27417
775.0 0.001290 797.22491 802.05627
827.0 0.001209 796.30005 801.38556
809.0 0.001236 795.36426 800.72455
878.0 0.001139 794.41724 800.07526
778.0 0.001285 793.45856 799.43994
824.0 0.001214 792.48810 798.82141
810.0 0.001235 791.50562 798.22296
831.0 0.001203 790.51074 797.64832
785.0 0.001274 789.50354 797.10211
787.0 0.001271 788.48376 796.58972
807.0 0.001239 787.45123 796.11731
784.0 0.001276 786.40601 795.69257
794.0 0.001259 785.34802 795.32458
791.0 0.001264 784.27734 795.02423
788.0 0.001269 783.19397 794.80444
835.0 0.001198 782.09778 794.68103
773.0 0.001294 780.98920 794.67358
813.0 0.001230 779.86810 794.80615
810.0 0.001235 778.73474 795.10840
843.0 0.001186 777.58936 795.61841
814.0 0.001229 776.43207 796.38391
816.0 0.001225 775.26312 797.46704
864.0 0.001157 774.08282 798.94910
868.0 0.001152 772.89142 800.93866
837.0 0.001195 771.68933 803.58380
858.0 0.001166 770.47668 807.09070
878.0 0.001139 769.25403 811.75549
861.0 0.001161 768.02167 818.02155
870.0 0.001149 766.78003 826.61694
915.0 0.001093 765.52954 839.05939
932.0 0.001073 764.27039 859.37964
962.0 0.001040 763.00342 897.78284
1004.0 0.000996 761.72876 973.81165
1093.0 0.000915 760.44702 1111.74036
1272.0 0.000786 759.15875 1331.85535
1468.0 0.000681 757.86432 1648.67529
1929.0 0.000518 756.56433 2090.19312
2647.0 0.000378 755.25922 2723.99731
3697.0 0.0002705 753.94958 3651.81470
4592.0 0.0002178 752.63593 4840.76855
5681.0 0.0001760 751.31873 5778.68213
5482.0 0.0001824 749.99866 5560.99023
4030.0 0.0002481 748.67615 4185.53076
2536.0 0.000394 747.35193 2620.62939
1499.0 0.000667 746.02631 1601.31067
1059.0 0.000944 744.70001 1142.47107
956.0 0.001046 743.37360 970.53204
895.0 0.001117 742.04749 899.10327
805.0 0.001242 740.72247 859.34558
827.0 0.001209 739.39899 832.68311
751.0 0.001332 738.07751 813.41595
738.0 0.001355 736.75873 798.89398
780.0 0.001282 735.44299 787.57751
766.0 0.001305 734.13110 778.50812
772.0 0.001295 732.82355 771.06042
769.0 0.001300 731.52063 764.81323
734.0 0.001362 730.22314 759.47552
736.0 0.001359 728.93152 754.83893
689.0 0.001451 727.64630 750.75336
752.0 0.001330 726.36792 747.10645
712.0 0.001404 725.09686 743.81427
748.0 0.001337 723.83380 740.81256
691.0 0.001447 722.57892 738.05109
713.0 0.001403 721.33307 735.49103
700.0 0.001429 720.09644 733.10126
726.0 0.001377 718.86951 730.85669
735.0 0.001361 717.65277 728.73761
696.0 0.001437 716.44659 726.72742
740.0 0.001351 715.25153 724.81287
700.0 0.001429 714.06787 722.98291
749.0 0.001335 712.89600 721.22815
709.0 0.001410 711.73639 719.54114
722.0 0.001385 710.58936 717.91522
701.0 0.001427 709.45520 716.34509
710.0 0.001408 708.33441 714.82617
769.0 0.001300 707.22717 713.35443
752.0 0.001330 706.13397 711.92651
739.0 0.001353 705.05487 710.53943
711.0 0.001406 703.99042 709.19098
725.0 0.001379 702.94073 707.87878
673.0 0.001486 701.90613 706.60114
735.0 0.001361 700.88678 702.43781
664.0 0.001506 699.88306 701.35980
719.0 0.001391 698.89520 698.89532
671.0 0.001490 697.92334 697.92346
657.0 0.001522 696.96753 696.96765
702.0 0.001425 696.02826 696.02838
674.0 0.001484 695.10547 695.10565
672.0 0.001488 694.19946 694.19958
706.0 0.001416 693.31036 693.31055
719.0 0.001391 692.43823 692.43835
715.0 0.001399 691.58319 691.58337
728.0 0.001374 690.74536 690.74554
707.0 0.001414 689.92493 689.92511
701.0 0.001427 689.12195 689.12213
735.0 0.001361 688.33636 688.33655
673.0 0.001486 687.56836 687.56854
692.0 0.001445 686.81793 686.81812
688.0 0.001453 686.08514 686.08533
683.0 0.001464 685.37006 685.37024
686.0 0.001458 684.67255 684.67273
703.0 0.001422 683.99274 683.99292
714.0 0.001401 683.33057 683.33075
659.0 0.001517 682.68604 682.68628
704.0 0.001420 682.05920 682.05939
706.0 0.001416 681.44983 681.45007
691.0 0.001447 680.85803 680.85822
673.0 0.001486 680.28363 680.28387
637.0 0.001570 679.72668 679.72693
776.0 0.001289 679.18707 679.18732
750.0 0.001333 678.66461 678.66486
713.0 0.001403 678.15936 678.15955
631.0 0.001585 677.67108 677.67133
688.0 0.001453 677.19977 677.20001
749.0 0.001335 676.74524 676.74542
675.0 0.001481 676.30737 676.30762
655.0 0.001527 675.88611 675.88629
698.0 0.001433 675.48114 675.48138
680.0 0.001471 675.09247 675.09271
690.0 0.001449 674.71997 674.72021
657.0 0.001522 674.36340 674.36359
738.0 0.001355 674.02258 674.02283
659.0 0.001517 673.69739 673.69763
656.0 0.001524 673.38763 673.38788
650.0 0.001538 673.09320 673.09338
682.0 0.001466 672.81372 672.81396
703.0 0.001422 672.54926 672.54944
654.0 0.001529 672.29944 672.29962
702.0 0.001425 672.06415 672.06433
658.0 0.001520 671.84314 671.84332
659.0 0.001517 671.63623 671.63647
690.0 0.001449 671.44324 671.44348
661.0 0.001513 671.26392 671.26416
682.0 0.001466 671.09814 671.09833
719.0 0.001391 670.94562 670.94586
675.0 0.001481 670.80615 670.80634
697.0 0.001435 670.67950 670.67975
669.0 0.001495 670.56555 670.56573
720.0 0.001389 670.46393 670.46417
652.0 0.001534 670.37457 670.37476
675.0 0.001481 670.29718 670.29736
687.0 0.001456 670.23151 670.23175
645.0 0.001550 670.17743 670.17767
637.0 0.001570 670.13470 670.13489
667.0 0.001499 670.10303 670.10321
664.0 0.001506 670.08228 670.08246
680.0 0.001471 670.07214 670.07239
674.0 0.001484 670.07257 670.07275
648.0 0.001543 670.08313 670.08337
648.0 0.001543 670.10382 670.10400
702.0 0.001425 670.13428 670.13446
637.0 0.001570 670.17438 670.17456
678.0 0.001475 670.22388 670.22406
699.0 0.001431 670.28259 670.28278
690.0 0.001449 670.35028 670.35046
679.0 0.001473 670.42676 670.42694
659.0 0.001517 670.51190 670.51208
656.0 0.001524 670.60535 670.60553
650.0 0.001538 670.70709 670.70728
652.0 0.001534 670.81683 670.81702
637.0 0.001570 670.93445 670.93463
702.0 0.001425 671.05969 671.05988
644.0 0.001553 671.19244 671.19263
696.0 0.001437 671.33246 671.33264
668.0 0.001497 671.47968 671.47986
665.0 0.001504 671.63379 671.63397
674.0 0.001484 671.79474 671.79492
690.0 0.001449 671.96234 671.96252
643.0 0.001555 672.13641 672.13660
657.0 0.001522 672.31683 672.31702
638.0 0.001567 672.50348 672.50366
725.0 0.001379 672.69611 672.69629
659.0 0.001517 672.89471 672.89490
669.0 0.001495 673.09906 673.09924
639.0 0.001565 673.30908 673.30927
733.0 0.001364 673.52460 673.52478
639.0 0.001565 673.74548 673.74567
690.0 0.001449 673.97174 673.97192
726.0 0.001377 674.20313 674.20331
706.0 0.001416 674.43958 674.43976
681.0 0.001468 674.68103 674.68121
696.0 0.001437 674.92731 674.92749
699.0 0.001431 675.17841 675.17859
684.0 0.001462 675.43420 675.43439
683.0 0.001464 675.69458 675.69476
675.0 0.001481 675.95953 675.95972
676.0 0.001479 676.22894 676.22906
705.0 0.001418 676.50275 676.50287
656.0 0.001524 676.78088 676.78101
690.0 0.001449 677.06329 677.06342
705.0 0.001418 677.34991 677.35004
653.0 0.001531 677.64069 677.64087
684.0 0.001462 677.93567 677.93579
720.0 0.001389 678.23462 678.23480
699.0 0.001431 678.53772 678.53790
688.0 0.001453 678.84485 678.84503
655.0 0.001527 679.15601 679.15613
674.0 0.001484 679.47107 679.47125
639.0 0.001565 679.79016 679.79028
615.0 0.001626 680.11316 680.11328
683.0 0.001464 680.44012 680.44031
647.0 0.001546 680.77106 680.77118
668.0 0.001497 681.10596 681.10614
669.0 0.001495 681.44476 681.44495
701.0 0.001427 681.78754 681.78772
662.0 0.001511 682.13434 682.13446
659.0 0.001517 682.48511 682.48523
686.0 0.001458 682.83990 682.84003
674.0 0.001484 683.19873 683.19885
694.0 0.001441 683.56158 683.56177
694.0 0.001441 683.92865 683.92877
696.0 0.001437 684.29974 684.29993
683.0 0.001464 684.67511 684.67523
669.0 0.001495 685.05469 685.05481
706.0 0.001416 685.43854 685.43866
641.0 0.001560 685.82672 685.82684
676.0 0.001479 686.21924 686.21942
625.0 0.001600 686.61627 686.61639
668.0 0.001497 687.01776 687.01788
660.0 0.001515 687.42377 687.42395
640.0 0.001563 687.83447 687.83466
687.0 0.001456 688.24988 688.25000
651.0 0.001536 688.66998 688.67017
718.0 0.001393 689.09497 689.09509
707.0 0.001414 689.52484 689.52496
709.0 0.001410 689.95978 689.95990
643.0 0.001555 690.39972 690.39990
690.0 0.001449 690.84491 690.84503
667.0 0.001499 691.29523 691.29541
681.0 0.001468 691.75092 691.75104
668.0 0.001497 692.21210 692.21222
697.0 0.001435 692.67871 692.67883
683.0 0.001464 693.15094 693.15106
668.0 0.001497 693.62885 693.62897
680.0 0.001471 694.11255 694.11267
699.0 0.001431 694.60211 694.60223
668.0 0.001497 695.09766 695.09778
681.0 0.001468 695.59930 695.59949
695.0 0.001439 696.10712 696.10724
669.0 0.001495 696.62122 696.62134
670.0 0.001493 697.14172 697.14185
729.0 0.001372 697.66864 697.66876
687.0 0.001456 698.20221 698.20233
689.0 0.001451 698.74243 698.74255
685.0 0.001460 699.28937 699.28949
709.0 0.001410 699.84326 699.84338
724.0 0.001381 700.40411 700.40430
702.0 0.001425 700.97211 700.97223
705.0 0.001418 701.54730 701.54742
663.0 0.001508 702.12976 702.12988
700.0 0.001429 702.71960 702.71973
685.0 0.001460 703.31696 703.31708
662.0 0.001511 703.92194 703.92212
741.0 0.001350 704.53467 704.53479
707.0 0.001414 705.15515 705.15527
694.0 0.001441 705.78357 705.78369
729.0 0.001372 706.41992 706.42010
699.0 0.001431 707.06451 707.06464
739.0 0.001353 707.71722 707.71735
713.0 0.001403 708.37823 708.37836
722.0 0.001385 709.04767 709.04779
678.0 0.001475 709.72552 709.72571
719.0 0.001391 710.41205 710.41217
706.0 0.001416 711.10718 711.10730
756.0 0.001323 711.81104 711.81122
745.0 0.001342 712.52380 712.52393
767.0 0.001304 713.24548 713.24561
675.0 0.001481 713.97626 713.97638
759.0 0.001318 714.71606 714.71619
758.0 0.001319 715.46503 715.46515
799.0 0.001252 716.22333 716.22345
694.0 0.001441 716.99091 716.99103
762.0 0.001312 717.76801 717.76813
790.0 0.001266 718.55450 718.55463
689.0 0.001451 719.35052 719.35065
718.0 0.001393 720.15631 720.15643
702.0 0.001425 720.97162 720.97174
743.0 0.001346 721.79688 721.79700
750.0 0.001333 722.63177 722.63190
727.0 0.001376 723.47662 723.47675
675.0 0.001481 724.33142 724.33154
716.0 0.001397 725.19623 725.19635
736.0 0.001359 726.07104 726.07117
717.0 0.001395 726.95593 726.95605
756.0 0.001323 727.85095 727.85107
733.0 0.001364 728.75623 728.75635
715.0 0.001399 729.67163 729.67175
707.0 0.001414 730.59741 730.59753
741.0 0.001350 731.53339 731.53351
716.0 0.001397 732.47968 732.47980
715.0 0.001399 733.43646 733.43658
721.0 0.001387 734.40344 734.40356
736.0 0.001359 735.38098 735.38110
717.0 0.001395 736.36890 736.36896
717.0 0.001395 737.36719 737.36731
757.0 0.001321 738.37598 738.37604
740.0 0.001351 739.39526 739.39539
750.0 0.001333 740.42499 743.36865
771.0 0.001297 741.46521 744.55554
771.0 0.001297 742.51587 747.22321
715.0 0.001399 743.57715 748.52747
787.0 0.001271 744.64874 749.86133
720.0 0.001389 745.73096 751.22723
759.0 0.001318 746.82349 752.62732
789.0 0.001267 747.92657 754.06451
775.0 0.001290 749.04010 755.54187
775.0 0.001290 750.16394 757.06287
736.0 0.001359 751.29828 758.63202
805.0 0.001242 752.44287 760.25385
769.0 0.001300 753.59784 761.93414
730.0 0.001370 754.76312 763.67987
788.0 0.001269 755.93866 765.49866
793.0 0.001261 757.12433 767.39984
779.0 0.001284 758.32025 769.39490
779.0 0.001284 759.52625 771.49713
839.0 0.001192 760.74243 773.72321
817.0 0.001224 761.96863 776.09290
754.0 0.001326 763.20483 778.63098
829.0 0.001206 764.45087 781.36798
856.0 0.001168 765.70679 784.34259
811.0 0.001233 766.97266 787.60382
795.0 0.001258 768.24805 791.21436
795.0 0.001258 769.53326 795.25647
806.0 0.001241 770.82794 799.83813
819.0 0.001221 772.13214 805.10547
872.0 0.001147 773.44586 811.25903
859.0 0.001164 774.76886 818.57898
889.0 0.001125 776.10114 827.47052
802.0 0.001247 777.44250 838.53894
914.0 0.001094 778.79321 852.77747
876.0 0.001142 780.15271 872.16498
945.0 0.001058 781.52112 901.60785
1019.0 0.000981 782.89844 953.76849
1100.0 0.000909 784.28436 1057.22595
1231.0 0.000812 785.67889 1265.42688
1731.0 0.000578 787.08203 1659.24231
2507.0 0.000399 788.49341 2333.31323
3306.0 0.0003025 789.91321 3320.88330
4213.0 0.0002374 791.34100 4436.70020
4959.0 0.0002017 792.77686 5175.98682
5254.0 0.0001903 794.22076 5030.19043
4581.0 0.0002183 795.67236 4176.67090
3369.0 0.0002968 797.13165 3074.16772
2296.0 0.000436 798.59845 2090.74829
1541.0 0.000649 800.07281 1456.82385
1137.0 0.000880 801.55438 1137.08484
1014.0 0.000986 803.04309 999.87683
880.0 0.001136 804.53894 940.88141
857.0 0.001167 806.04156 910.18036
871.0 0.001148 807.55096 890.70752
830.0 0.001205 809.06708 877.14771
847.0 0.001181 810.58954 867.37006
806.0 0.001241 812.11847 860.19995
854.0 0.001171 813.65344 854.89557
835.0 0.001198 815.19446 850.96155
814.0 0.001229 816.74152 848.05707
848.0 0.001179 818.29413 845.94183
799.0 0.001252 819.85236 844.44153
826.0 0.001211 821.41614 843.42847
853.0 0.001172 822.98505 842.80591
811.0 0.001233 824.55908 842.50049
830.0 0.001205 826.13812 842.45551
804.0 0.001244 827.72205 842.62659
824.0 0.001214 829.31049 842.97827
799.0 0.001252 830.90338 843.48242
809.0 0.001236 832.50073 844.68933
857.0 0.001167 834.10217 845.46265
837.0 0.001195 835.70764 846.61548
792.0 0.001263 837.31683 847.58575
814.0 0.001229 838.92969 848.63184
850.0 0.001176 840.54614 849.74530
840.0 0.001190 842.16577 850.91901
824.0 0.001214 843.78857 852.14685
846.0 0.001182 845.41449 853.42407
848.0 0.001179 847.04303 854.74664
869.0 0.001151 848.67426 856.11096
865.0 0.001156 850.30792 857.51471
839.0 0.001192 851.94403 858.95575
845.0 0.001183 853.58209 860.43262
851.0 0.001175 855.22211 861.94440
834.0 0.001199 856.86407 860.51434
832.0 0.001202 858.50745 862.23456
813.0 0.001230 860.15240 862.49341
839.0 0.001192 861.79846 864.33862
840.0 0.001190 863.44562 866.21155
838.0 0.001193 865.09375 868.11707
844.0 0.001185 866.74255 870.06104
858.0 0.001166 868.39197 872.05103
823.0 0.001215 870.04169 874.09674
820.0 0.001220 871.69159 876.21069
830.0 0.001205 873.34155 878.40961
880.0 0.001136 874.99133 880.71503
870.0 0.001149 876.64093 883.15686
906.0 0.001104 878.28992 885.77545
886.0 0.001129 879.93823 888.62830
850.0 0.001176 881.58582 891.79865
874.0 0.001144 883.23230 895.41125
884.0 0.001131 884.87775 899.67706
890.0 0.001124 886.52167 905.03052
935.0 0.001070 888.16412 912.57416
947.0 0.001056 889.80505 925.15210
951.0 0.001052 891.44391 949.20123
1030.0 0.000971 893.08093 996.88049
1184.0 0.000845 894.71564 1085.99585
1391.0 0.000719 896.34796 1233.07739
1649.0 0.000606 897.97778 1432.06018
1976.0 0.000506 899.60504 1626.99438
2080.0 0.000481 901.22931 1716.45300
2098.0 0.000477 902.85059 1646.63721
1917.0 0.000522 904.46875 1482.65613
1607.0 0.000622 906.08362 1290.70581
1268.0 0.000789 907.69495 1126.68689
1060.0 0.000943 909.30273 1022.51013
989.0 0.001011 910.90656 970.07697
883.0 0.001133 912.50647 947.84100
950.0 0.001053 914.10236 938.81097
912.0 0.001096 915.69391 934.68225
943.0 0.001060 917.28119 932.52295
915.0 0.001093 918.86371 931.39850
888.0 0.001126 920.44159 930.93518
857.0 0.001167 922.01453 930.92865
891.0 0.001122 923.58270 931.24951
934.0 0.001071 925.14551 931.80988
880.0 0.001136 926.70306 932.54999
841.0 0.001189 928.25519 933.42645
874.0 0.001144 929.80194 934.40826
909.0 0.001100 931.34277 935.47217
885.0 0.001130 932.87793 936.60095
899.0 0.001112 934.40698 937.78076
909.0 0.001100 935.92993 939.00159
950.0 0.001053 937.44666 940.25494
949.0 0.001054 938.95746 941.53485
902.0 0.001109 940.46118 942.83514
950.0 0.001053 941.95856 944.15228
871.0 0.001148 943.44897 945.48218
915.0 0.001093 944.93262 946.82239
974.0 0.001027 946.40973 948.17065
895.0 0.001117 947.87909 949.52399
916.0 0.001092 949.34174 950.88171
859.0 0.001164 950.79651 952.24133
906.0 0.001104 952.24432 953.60248
909.0 0.001100 953.68469 954.96375
893.0 0.001120 955.11700 956.32373
901.0 0.001110 956.54181 957.68213
922.0 0.001085 957.95856 959.03784
915.0 0.001093 959.36743 960.39044
901.0 0.001110 960.76862 961.73969
998.0 0.001002 962.16113 963.08411
973.0 0.001028 963.54572 963.85974
942.0 0.001062 964.92169 965.22034
916.0 0.001092 966.28931 966.28937
936.0 0.001068 967.64874 967.64880
946.0 0.001057 968.99902 968.99908
993.0 0.001007 970.34106 970.34113
1006.0 0.000994 971.67401 971.67407
1028.0 0.000973 972.99817 972.99823
1043.0 0.000959 974.31366 974.31372
995.0 0.001005 975.61975 975.61981
1013.0 0.000987 976.91699 976.91705
956.0 0.001046 978.20490 978.20496
1014.0 0.000986 979.48364 979.48370
964.0 0.001037 980.75342 980.75348
987.0 0.001013 982.01343 982.01349
1021.0 0.000979 983.26416 983.26422
983.0 0.001017 984.50525 984.50531
1011.0 0.000989 985.73688 985.73694
982.0 0.001018 986.95929 986.95929
1009.0 0.000991 988.17139 988.17145
949.0 0.001054 989.37427 989.37433
933.0 0.001072 990.56708 990.56714
904.0 0.001106 991.75018 991.75018
983.0 0.001017 992.92365 992.92365
923.0 0.001083 994.08685 994.08685
922.0 0.001085 995.24036 995.24036
947.0 0.001056 996.38367 996.38367
909.0 0.001100 997.51703 997.51703
972.0 0.001029 998.64063 998.64063
990.0 0.001010 999.75372 999.75378
987.0 0.001013 1000.85693 1000.85699
993.0 0.001007 1001.94977 1001.94983
1042.0 0.000960 1003.03253 1003.03259
976.0 0.001025 1004.10535 1004.10541
1016.0 0.000984 1005.16748 1005.16748
986.0 0.001014 1006.21973 1006.21973
1005.0 0.000995 1007.26141 1007.26141
1009.0 0.000991 1008.29291 1008.29291
978.0 0.001022 1009.31421 1009.31421
988.0 0.001012 1010.32495 1010.32495
1003.0 0.000997 1011.32556 1011.32556
995.0 0.001005 1012.31561 1012.31561
943.0 0.001060 1013.29541 1013.29541
998.0 0.001002 1014.26508 1014.26508
989.0 0.001011 1015.22400 1015.22400
1063.0 0.000941 1016.17273 1016.17273
979.0 0.001021 1017.11096 1017.11096
996.0 0.001004 1018.03882 1018.03882
1001.0 0.000999 1018.95660 1018.95660
979.0 0.001021 1019.86365 1019.86365
991.0 0.001009 1020.76056 1020.76056
997.0 0.001003 1021.64691 1021.64691
996.0 0.001004 1022.52295 1022.52295
947.0 0.001056 1023.38885 1023.38885
1030.0 0.000971 1024.24414 1024.24414
989.0 0.001011 1025.08936 1025.08936
980.0 0.001020 1025.92407 1025.92395
1034.0 0.000967 1026.74854 1026.74841
1023.0 0.000978 1027.56287 1027.56287
1048.0 0.000954 1028.36682 1034.68201
1018.0 0.000982 1029.16064 1035.72925
1084.0 0.000923 1029.94409 1039.84778
1073.0 0.000932 1030.71741 1041.02832
1076.0 0.000929 1031.48083 1042.22473
1046.0 0.000956 1032.23376 1043.43848
1034.0 0.000967 1032.97681 1044.67273
1020.0 0.000980 1033.70959 1045.92957
1110.0 0.000901 1034.43237 1047.21265
1076.0 0.000929 1035.14539 1048.52527
1089.0 0.000918 1035.84814 1049.87073
1048.0 0.000954 1036.54114 1051.25415
1118.0 0.000894 1037.22400 1052.67957
1154.0 0.000867 1037.89709 1054.15295
1040.0 0.000962 1038.56055 1055.68079
1066.0 0.000938 1039.21387 1057.26917
1047.0 0.000955 1039.85767 1058.92676
1076.0 0.000929 1040.49158 1060.66211
1073.0 0.000932 1041.11584 1062.48645
1104.0 0.000906 1041.73071 1064.41199
1049.0 0.000953 1042.33582 1066.45166
1178.0 0.000849 1042.93140 1068.62292
1142.0 0.000876 1043.51733 1070.94373
1146.0 0.000873 1044.09387 1073.43762
1145.0 0.000873 1044.66113 1076.13110
1152.0 0.000868 1045.21899 1079.05408
1169.0 0.000855 1045.76758 1082.24597
1173.0 0.000853 1046.30676 1085.75000
1180.0 0.000847 1046.83679 1090.37476
1175.0 0.000851 1047.35791 1094.71301
1152.0 0.000868 1047.86963 1099.56921
1191.0 0.000840 1048.37244 1105.42639
1183.0 0.000845 1048.86609 1111.66992
1189.0 0.000841 1049.35095 1118.82910
1215.0 0.000823 1049.82703 1127.11536
1243.0 0.000805 1050.29407 1136.79749
1274.0 0.000785 1050.75244 1148.24268
1294.0 0.000773 1051.20203 1161.93140
1207.0 0.000829 1051.64294 1178.53259
1316.0 0.000760 1052.07532 1198.98022
1309.0 0.000764 1052.49902 1224.59888
1284.0 0.000779 1052.91443 1257.40723
1390.0 0.000719 1053.32129 1300.73035
1431.0 0.000699 1053.71973 1361.41772
1490.0 0.000671 1054.10999 1456.81030
1743.0 0.000574 1054.49182 1632.88452
2083.0 0.000480 1054.86560 1999.57349
2762.0 0.000362 1055.23120 2771.47021
4105.0 0.0002436 1055.58875 4253.88916
6260.0 0.0001597 1055.93835 6652.26074
9049.0 0.0001105 1056.27991 9712.28223
11901.0 0.0000840 1056.61353 12435.83203
13333.0 0.0000750 1056.93933 13435.66016
13101.0 0.0000763 1057.25745 12348.63574
10764.0 0.0000929 1057.56787 10167.25000
7493.0 0.0001335 1057.87061 7571.04736
5186.0 0.0001928 1058.16565 5107.37891
3251.0 0.0003076 1058.45325 3312.93213
2156.0 0.000464 1058.73340 2262.81348
1620.0 0.000617 1059.00623 1746.22192
1394.0 0.000717 1059.27161 1512.90527
1289.0 0.000776 1059.52979 1399.05603
1307.0 0.000765 1059.78064 1331.78625
1327.0 0.000754 1060.02441 1285.55713
1309.0 0.000764 1060.26111 1251.56262
1183.0 0.000845 1060.49072 1225.90820
1165.0 0.000858 1060.71326 1206.32825
1136.0 0.000880 1060.92908 1191.39941
1187.0 0.000842 1061.13794 1180.19556
1193.0 0.000838 1061.33997 1172.16309
1188.0 0.000842 1061.53528 1167.06494
1189.0 0.000841 1061.72400 1165.04041
1089.0 0.000918 1061.90601 1167.03296
1173.0 0.000853 1062.08154 1176.11804
1222.0 0.000818 1062.25049 1200.63916
1344.0 0.000744 1062.41309 1259.19250
1543.0 0.000648 1062.56921 1383.84973
1732.0 0.000577 1062.71899 1609.43799
2318.0 0.000431 1062.86255 1938.72888
2649.0 0.000378 1063.00000 2299.52124
2813.0 0.000355 1063.13110 2539.45361
2610.0 0.000383 1063.25623 2531.16064
2459.0 0.000407 1063.37524 2329.58545
2000.0 0.000500 1063.48828 2047.76379
1688.0 0.000592 1063.59534 1740.08142
1451.0 0.000689 1063.69653 1475.87256
1237.0 0.000808 1063.79187 1297.93066
1201.0 0.000833 1063.88147 1199.43457
1162.0 0.000861 1063.96533 1152.11633
1146.0 0.000873 1064.04346 1129.88867
1133.0 0.000883 1064.11597 1117.88062
1049.0 0.000953 1064.18298 1110.00391
1099.0 0.000910 1064.24438 1104.18286
1066.0 0.000938 1064.30029 1099.64148
1044.0 0.000958 1064.35083 1095.99524
1091.0 0.000917 1064.39587 1093.00720
1108.0 0.000903 1064.43579 1090.51379
1053.0 0.000950 1064.47021 1088.40247
1060.0 0.000943 1064.49939 1086.59045
1105.0 0.000905 1064.52344 1085.01709
1111.0 0.000900 1064.54236 1083.63745
1137.0 0.000880 1064.55603 1082.41602
1059.0 0.000944 1064.56482 1081.32593
1073.0 0.000932 1064.56836 1074.13379
1081.0 0.000925 1064.56702 1073.47913
1069.0 0.000935 1064.56079 1072.89050
1086.0 0.000921 1064.54956 1069.30701
1081.0 0.000925 1064.53345 1068.93457
1034.0 0.000967 1064.51245 1068.59583
1077.0 0.000929 1064.48682 1068.28564
1048.0 0.000954 1064.45630 1067.99927
1146.0 0.000873 1064.42102 1067.73328
1071.0 0.000934 1064.38110 1067.48462
1058.0 0.000945 1064.33655 1067.25024
1018.0 0.000982 1064.28735 1067.02808
1093.0 0.000915 1064.23364 1066.81653
1068.0 0.000936 1064.17517 1066.61353
975.0 0.001026 1064.11230 1066.41785
1055.0 0.000948 1064.04492 1066.22803
1043.0 0.000959 1063.97314 1066.04358
1046.0 0.000956 1063.89685 1065.86304
1067.0 0.000937 1063.81604 1065.68567
1028.0 0.000973 1063.73096 1065.51086
1070.0 0.000935 1063.64148 1065.33826
987.0 0.001013 1063.54761 1065.16675
1054.0 0.000949 1063.44958 1064.99622
1032.0 0.000969 1063.34717 1064.82617
1031.0 0.000970 1063.24048 1064.65625
983.0 0.001017 1063.12952 1064.48596
1038.0 0.000963 1063.01428 1064.31506
1010.0 0.000990 1062.89490 1064.14331
1037.0 0.000964 1062.77136 1063.97058
1051.0 0.000951 1062.64368 1063.05457
1050.0 0.000952 1062.51184 1062.90662
1062.0 0.000942 1062.37573 1062.37561
1056.0 0.000947 1062.23560 1062.23547
1008.0 0.000992 1062.09131 1062.09131
1002.0 0.000998 1061.94299 1061.94299
1008.0 0.000992 1061.79065 1061.79053
1079.0 0.000927 1061.63403 1061.63403
1042.0 0.000960 1061.47351 1061.47351
1055.0 0.000948 1061.30896 1061.30884
1020.0 0.000980 1061.14038 1061.14026
1021.0 0.000979 1060.96777 1060.96765
1057.0 0.000946 1060.79102 1060.79089
1040.0 0.000962 1060.61035 1060.61035
1026.0 0.000975 1060.42566 1060.42566
1045.0 0.000957 1060.23706 1060.23706
1039.0 0.000962 1060.04443 1060.04431
1066.0 0.000938 1059.84778 1059.84766
1045.0 0.000957 1059.64709 1059.64709
1044.0 0.000958 1059.44250 1059.44250
1095.0 0.000913 1059.23389 1059.23389
1075.0 0.000930 1059.02136 1059.02136
1014.0 0.000986 1058.80481 1058.80481
1048.0 0.000954 1058.58435 1058.58423
1089.0 0.000918 1058.35986 1058.35974
1066.0 0.000938 1058.13147 1058.13135
1081.0 0.000925 1057.89893 1057.89893
1095.0 0.000913 1057.66248 1057.66248
1065.0 0.000939 1057.42212 1057.42212
1067.0 0.000937 1057.17773 1057.17773
1047.0 0.000955 1056.92932 1056.92932
1053.0 0.000950 1056.67700 1056.67688
1086.0 0.000921 1056.42053 1056.42053
1070.0 0.000935 1056.16016 1056.16016
1093.0 0.000915 1055.89575 1055.89563
1150.0 0.000870 1055.62732 1055.62732
964.0 0.001037 1055.35486 1055.35474
991.0 0.001009 1055.07825 1055.07825
1016.0 0.000984 1054.79761 1054.79761
1013.0 0.000987 1054.51306 1054.51294
1067.0 0.000937 1054.22424 1054.22424
994.0 0.001006 1053.93152 1053.93152
1015.0 0.000985 1053.63452 1053.63452
1103.0 0.000907 1053.33350 1053.33350
1010.0 0.000990 1053.02832 1053.02832
1001.0 0.000999 1052.71899 1052.71899
1010.0 0.000990 1052.40564 1052.40564
1025.0 0.000976 1052.08789 1052.08789
1056.0 0.000947 1051.76611 1051.76611
1041.0 0.000961 1051.44006 1051.44006
1022.0 0.000978 1051.10986 1051.10986
1044.0 0.000958 1050.77539 1050.77539
1005.0 0.000995 1050.43665 1050.43665
1018.0 0.000982 1050.09375 1050.09375
1065.0 0.000939 1049.74646 1049.74646
1019.0 0.000981 1049.39490 1049.39490
1041.0 0.000961 1049.03906 1049.03906
1021.0 0.000979 1048.67871 1048.67871
1042.0 0.000960 1048.31421 1048.31421
1017.0 0.000983 1047.94519 1047.94519
979.0 0.001021 1047.57190 1047.57190
1053.0 0.000950 1047.19409 1047.19409
1002.0 0.000998 1046.81177 1046.81177
1083.0 0.000923 1046.42517 1046.42517
1026.0 0.000975 1046.03394 1046.03394
1050.0 0.000952 1045.63831 1045.63831
958.0 0.001044 1045.23816 1045.23816
1070.0 0.000935 1044.83325 1044.83337
1025.0 0.000976 1044.42407 1044.42407
1058.0 0.000945 1044.01013 1044.01013
1083.0 0.000923 1043.59155 1043.59167
1010.0 0.000990 1043.16846 1043.16858
1003.0 0.000997 1042.74060 1042.74060
1062.0 0.000942 1042.30811 1042.30811
995.0 0.001005 1041.87085 1041.87085
990.0 0.001010 1041.42883 1041.67517
1029.0 0.000972 1040.98218 1041.23828
982.0 0.001018 1040.53064 1040.79688
1005.0 0.000995 1040.07446 1040.35168
999.0 0.001001 1039.61316 1040.02856
1022.0 0.000978 1039.14722 1039.58020
1045.0 0.000957 1038.67651 1039.12793
1026.0 0.000975 1038.20068 1038.67200
1006.0 0.000994 1037.72009 1038.21252
1050.0 0.000952 1037.23438 1037.74951
1049.0 0.000953 1036.74390 1037.28308
976.0 0.001025 1036.24829 1036.81360
1073.0 0.000932 1035.74756 1036.34070
1044.0 0.000958 1035.24194 1035.86511
1072.0 0.000933 1034.73120 1035.38672
1025.0 0.000976 1034.21545 1034.90576
1013.0 0.000987 1033.69458 1034.42261
1046.0 0.000956 1033.16833 1033.93738
1051.0 0.000951 1032.63721 1033.45081
1038.0 0.000963 1032.10071 1032.96277
1041.0 0.000961 1031.55920 1032.47412
1041.0 0.000961 1031.01233 1031.98535
1064.0 0.000940 1030.46008 1031.49683
1012.0 0.000988 1029.90271 1034.78235
1038.0 0.000963 1029.33997 1034.44604
1041.0 0.000961 1028.77197 1034.12207
1069.0 0.000935 1028.19861 1033.81201
1019.0 0.000981 1027.61975 1035.45227
1070.0 0.000935 1027.03564 1035.25525
1023.0 0.000978 1026.44592 1035.08533
1058.0 0.000945 1025.85095 1034.94666
1116.0 0.000896 1025.25061 1034.84436
1031.0 0.000970 1024.64441 1034.78442
1033.0 0.000968 1024.03308 1034.77405
1025.0 0.000976 1023.41595 1034.82227
1050.0 0.000952 1022.79352 1034.94031
1075.0 0.000930 1022.16541 1035.14185
1110.0 0.000901 1021.53162 1035.44568
1041.0 0.000961 1020.89233 1035.87451
1101.0 0.000908 1020.24731 1036.46008
1083.0 0.000923 1019.59686 1037.24487
1057.0 0.000946 1018.94061 1038.28918
1107.0 0.000903 1018.27856 1039.68396
1121.0 0.000892 1017.61096 1041.58752
1090.0 0.000917 1016.93756 1044.35645
1024.0 0.000977 1016.25861 1048.92603
1108.0 0.000903 1015.57379 1057.71533
1129.0 0.000886 1014.88306 1076.03223
1112.0 0.000899 1014.18671 1112.75549
1245.0 0.000803 1013.48450 1177.34314
1290.0 0.000775 1012.77655 1270.38232
1475.0 0.000678 1012.06274 1373.19885
1520.0 0.000658 1011.34296 1447.62231
1479.0 0.000676 1010.61749 1459.64233
1436.0 0.000696 1009.88605 1419.47534
1444.0 0.000693 1009.14886 1358.41162
1274.0 0.000785 1008.40570 1287.04553
1323.0 0.000756 1007.65643 1213.45886
1197.0 0.000835 1006.90155 1153.51978
1206.0 0.000829 1006.14056 1115.10608
1121.0 0.000892 1005.37372 1096.48303
1115.0 0.000897 1004.60089 1091.60474
1141.0 0.000876 1003.82190 1094.87891
1119.0 0.000894 1003.03723 1103.25281
1200.0 0.000833 1002.24640 1115.95288
1151.0 0.000869 1001.44977 1133.65381
1205.0 0.000830 1000.64709 1158.43359
1236.0 0.000809 999.83826 1195.44348
1371.0 0.000729 999.02362 1258.60352
1497.0 0.000668 998.20270 1384.19604
1664.0 0.000601 997.37610 1651.59668
2234.0 0.000448 996.54333 2193.49365
3236.0 0.0003090 995.70435 3150.16040
4842.0 0.0002065 994.85962 4530.11523
6455.0 0.0001549 994.00873 6055.97070
6739.0 0.0001484 993.15186 7160.79004
6661.0 0.0001501 992.28894 7337.05469
6937.0 0.0001442 991.41974 6726.34082
6022.0 0.0001661 990.54486 5798.09326
4279.0 0.0002337 989.66376 4710.89307
3287.0 0.0003042 988.77673 3561.94922
2626.0 0.000381 987.88367 2580.30859
1942.0 0.000515 986.98438 1898.18335
1465.0 0.000683 986.07928 1500.70276
1275.0 0.000784 985.16791 1298.78650
1114.0 0.000898 984.25092 1201.16406
1064.0 0.000940 983.32758 1149.58789
1062.0 0.000942 982.39819 1117.19690
1032.0 0.000969 981.46301 1093.88501
1042.0 0.000960 980.52173 1075.89978
1042.0 0.000960 979.57452 1061.55493
1061.0 0.000943 978.62128 1049.85620
1025.0 0.000976 977.66187 1040.14270
1001.0 0.000999 976.69678 1031.95410
1013.0 0.000987 975.72559 1024.94861
1083.0 0.000923 974.74860 1018.88074
969.0 0.001032 973.76556 1013.56116
956.0 0.001046 972.77637 1008.84717
997.0 0.001003 971.78174 1004.63080
939.0 0.001065 970.78082 1000.82281
1010.0 0.000990 969.77441 997.35669
1048.0 0.000954 968.76178 994.17566
921.0 0.001086 967.74329 991.23566
983.0 0.001017 966.71918 988.50153
963.0 0.001038 965.68909 985.69501
964.0 0.001037 964.65332 983.29578
939.0 0.001065 963.61169 981.02551
970.0 0.001031 962.56403 978.74298
989.0 0.001011 961.51099 976.68726
887.0 0.001127 960.45203 974.71582
957.0 0.001045 959.38757 972.81897
982.0 0.001018 958.31726 970.98712
958.0 0.001044 957.24109 969.21222
986.0 0.001014 956.15967 967.48859
1024.0 0.000977 955.07227 965.80920
941.0 0.001063 953.97949 964.16992
987.0 0.001013 952.88110 962.56555
934.0 0.001071 951.77698 960.99213
1011.0 0.000989 950.66760 959.44696
938.0 0.001066 949.55255 957.92621
913.0 0.001095 948.43219 956.42780
941.0 0.001063 947.30621 954.94873
917.0 0.001091 946.17462 953.48694
939.0 0.001065 945.03802 952.04114
973.0 0.001028 943.89587 950.60895
927.0 0.001079 942.74854 949.18921
952.0 0.001050 941.59576 947.78040
986.0 0.001014 940.43750 942.58630
885.0 0.001130 939.27448 941.33783
973.0 0.001028 938.10583 940.08875
959.0 0.001043 936.93231 936.93250
931.0 0.001074 935.75360 935.75378
904.0 0.001106 934.56946 934.56964
1000.0 0.001000 933.38062 933.38080
942.0 0.001062 932.18652 932.18671
939.0 0.001065 930.98767 930.98785
894.0 0.001119 929.78369 929.78387
907.0 0.001103 928.57452 929.92023
911.0 0.001098 927.36084 928.76038
939.0 0.001065 926.14209 927.59882
958.0 0.001044 924.91870 927.09204
913.0 0.001095 923.69049 925.95435
932.0 0.001073 922.45715 924.81744
922.0 0.001085 921.21973 923.68262
932.0 0.001073 919.97717 922.54950
938.0 0.001066 918.73029 921.41949
902.0 0.001109 917.47882 920.29315
921.0 0.001086 916.22253 919.17096
933.0 0.001072 914.96204 918.05426
955.0 0.001047 913.69696 916.94379
951.0 0.001052 912.42761 915.84100
914.0 0.001094 911.15387 914.74689
923.0 0.001083 909.87543 913.66278
978.0 0.001022 908.59320 912.59100
883.0 0.001133 907.30652 911.53278
955.0 0.001047 906.01581 910.49084
903.0 0.001107 904.72089 909.46729
914.0 0.001094 903.42157 908.46478
888.0 0.001126 902.11877 907.48749
909.0 0.001100 900.81152 907.68451
949.0 0.001054 899.50067 906.81458
921.0 0.001086 898.18579 905.98584
933.0 0.001072 896.86682 905.20502
943.0 0.001060 895.54437 905.05927
920.0 0.001087 894.21796 904.42236
938.0 0.001066 892.88818 903.86334
928.0 0.001078 891.55457 903.39575
855.0 0.001170 890.21698 903.03638
924.0 0.001082 888.87634 902.80627
866.0 0.001155 887.53198 902.73114
952.0 0.001050 886.18439 902.84369
867.0 0.001153 884.83331 903.18549
929.0 0.001076 883.47852 903.81018
904.0 0.001106 882.12091 904.78796
957.0 0.001045 880.75989 906.21228
959.0 0.001043 879.39587 908.20880
881.0 0.001135 878.02863 910.95264
953.0 0.001049 876.65808 914.69318
962.0 0.001040 875.28485 919.80762
958.0 0.001044 873.90826 926.97290
977.0 0.001024 872.52936 937.69818
929.0 0.001076 871.14728 955.95825
1027.0 0.000974 869.76208 992.00055
1067.0 0.000937 868.37457 1068.31799
1241.0 0.000806 866.98419 1223.16602
1625.0 0.000615 865.59143 1499.34546
2038.0 0.000491 864.19592 1908.82825
2481.0 0.000403 862.79755 2385.68506
2913.0 0.0003433 861.39728 2773.98535
2964.0 0.0003374 859.99426 2905.19556
2926.0 0.0003418 858.58923 2773.48853
2530.0 0.000395 857.18176 2523.24512
2217.0 0.000451 855.77179 2231.28784
1775.0 0.000563 854.35999 1898.81824
1463.0 0.000684 852.94574 1567.07507
1292.0 0.000774 851.52997 1298.65210
1108.0 0.000903 850.11194 1118.06262
1002.0 0.000998 848.69159 1015.01483
983.0 0.001017 847.26984 963.64606
928.0 0.001078 845.84601 939.90460
872.0 0.001147 844.42072 929.27734
884.0 0.001131 842.99353 925.46869
961.0 0.001041 841.56439 927.03064
972.0 0.001029 840.13416 936.03912
938.0 0.001066 838.70209 960.01794
994.0 0.001006 837.26886 1016.45184
1122.0 0.000891 835.83411 1135.94910
1334.0 0.000750 834.39771 1354.45410
1784.0 0.000561 832.96045 1685.44531
2228.0 0.000449 831.52155 2081.55322
2494.0 0.000401 830.08191 2419.48413
2592.0 0.000386 828.64087 2554.40039
2692.0 0.000371 827.19867 2462.29492
2523.0 0.000396 825.75580 2259.36304
2047.0 0.000489 824.31177 2021.39722
1648.0 0.000607 822.86713 1749.18518
1446.0 0.000692 821.42151 1466.98792
1247.0 0.000802 819.97485 1228.20203
1104.0 0.000906 818.52789 1060.29272
928.0 0.001078 817.08008 959.49475
905.0 0.001105 815.63196 905.89612
899.0 0.001112 814.18323 878.40063
796.0 0.001256 812.73364 862.99902
864.0 0.001157 811.28424 852.83099
822.0 0.001217 809.83405 845.13928
821.0 0.001218 808.38403 838.88422
838.0 0.001193 806.93341 833.60236
827.0 0.001209 805.48254 829.03448
821.0 0.001218 804.03198 825.01080
784.0 0.001276 802.58105 821.40717
842.0 0.001188 801.13043 818.13593
827.0 0.001209 799.67975 815.12982
797.0 0.001255 798.22876 812.33795
787.0 0.001271 796.77850 809.72333
745.0 0.001342 795.32831 807.25397
767.0 0.001304 793.87854 804.90710
786.0 0.001272 792.42914 802.66284
797.0 0.001255 790.97968 800.50568
820.0 0.001220 789.53137 798.42407
797.0 0.001255 788.08319 796.40662
767.0 0.001304 786.63574 793.11328
772.0 0.001295 785.18896 791.25098
784.0 0.001276 783.74261 789.42853
773.0 0.001294 782.29730 787.64178
749.0 0.001335 780.85272 785.23456
710.0 0.001408 779.40906 783.53094
765.0 0.001307 777.96637 781.85083
742.0 0.001348 776.52435 780.19128
749.0 0.001335 775.08386 778.55115
745.0 0.001342 773.64398 776.92743
777.0 0.001287 772.20581 775.31970
775.0 0.001290 770.76849 773.72559
758.0 0.001319 769.33197 772.14386
721.0 0.001387 767.89752 770.57465
793.0 0.001261 766.46399 769.01581
778.0 0.001285 765.03223 767.46747
803.0 0.001245 763.60181 765.92816
757.0 0.001321 762.17236 764.39697
750.0 0.001333 760.74524 762.87463
796.0 0.001256 759.31927 761.35950
789.0 0.001267 757.89545 759.85199
786.0 0.001272 756.47314 758.35101
746.0 0.001340 755.05231 755.71106
741.0 0.001350 753.63361 754.26581
787.0 0.001271 752.21649 752.82367
755.0 0.001325 750.80188 751.38544
743.0 0.001346 749.38892 749.38898
735.0 0.001361 747.97778 747.97784
751.0 0.001332 746.56897 746.56903
711.0 0.001406 745.16229 745.16235
713.0 0.001403 743.75781 743.75787
750.0 0.001333 742.35553 742.35559
726.0 0.001377 740.95526 740.95532
756.0 0.001323 739.55762 739.55768
714.0 0.001401 738.16229 738.16235
726.0 0.001377 736.76935 736.76941
772.0 0.001295 735.37897 735.37897
700.0 0.001429 733.99078 733.99084
733.0 0.001364 732.60565 732.60571
773.0 0.001294 731.22266 731.22266
722.0 0.001385 729.84277 729.84283
744.0 0.001344 728.46503 728.46509
705.0 0.001418 727.09015 727.35046
712.0 0.001404 725.71838 725.98901
714.0 0.001401 724.34906 724.63055
723.0 0.001383 722.98303 723.27612
742.0 0.001348 721.61969 722.05499
710.0 0.001408 720.25879 720.71228
728.0 0.001374 718.90161 719.37445
758.0 0.001319 717.54700 718.04053
756.0 0.001323 716.19592 716.71143
711.0 0.001406 714.84772 715.38672
754.0 0.001326 713.50214 714.06628
698.0 0.001433 712.16052 712.75165
703.0 0.001422 710.82166 711.44177
727.0 0.001376 709.48645 710.13770
688.0 0.001453 708.15442 708.83917
756.0 0.001323 706.82544 707.54645
693.0 0.001443 705.50006 706.26019
711.0 0.001406 704.17816 704.98077
712.0 0.001404 702.85962 703.70831
700.0 0.001429 701.54462 702.44354
710.0 0.001408 700.23291 701.18658
644.0 0.001553 698.92499 699.93866
643.0 0.001555 697.62067 698.70013
669.0 0.001495 696.32001 697.47180
682.0 0.001466 695.02295 696.25470
688.0 0.001453 693.72937 695.04974
680.0 0.001471 692.44000 693.85883
717.0 0.001395 691.15387 692.68274
738.0 0.001355 689.87183 691.52393
696.0 0.001437 688.59357 690.38446
721.0 0.001387 687.31891 689.26703
693.0 0.001443 686.04865 688.17535
657.0 0.001522 684.78186 687.11310
664.0 0.001506 683.51941 686.08618
623.0 0.001605 682.26074 685.10059
703.0 0.001422 681.00555 684.16461
701.0 0.001427 679.75513 683.29016
717.0 0.001395 678.50830 682.49084
653.0 0.001531 677.26599 681.78650
707.0 0.001414 676.02759 681.20282
674.0 0.001484 674.79291 680.77618
699.0 0.001431 673.56299 680.56097
742.0 0.001348 672.33685 680.64594
655.0 0.001527 671.11536 681.21558
674.0 0.001484 669.89789 682.73041
728.0 0.001374 668.68445 686.38287
700.0 0.001429 667.47552 694.91406
660.0 0.001515 666.27087 713.43433
712.0 0.001404 665.07062 748.87280
754.0 0.001326 663.87463 806.45044
835.0 0.001198 662.68286 883.10565
901.0 0.001110 661.49567 961.64166
949.0 0.001054 660.31293 1014.02917
974.0 0.001027 659.13458 1019.61249
992.0 0.001008 657.96075 988.56281
916.0 0.001092 656.79114 945.34436
830.0 0.001205 655.62640 898.43524
839.0 0.001192 654.46582 844.76855
743.0 0.001346 653.30994 788.40320
716.0 0.001397 652.15863 739.47632
703.0 0.001422 651.01166 703.64960
638.0 0.001567 649.86969 680.95990
627.0 0.001595 648.73193 668.04248
677.0 0.001477 647.59912 660.89563
637.0 0.001570 646.47076 656.58801
633.0 0.001580 645.34668 653.55042
653.0 0.001531 644.22784 651.10577
615.0 0.001626 643.11328 648.98706
652.0 0.001534 642.00372 647.08386
620.0 0.001613 640.89874 645.33704
592.0 0.001689 639.79810 643.70923
633.0 0.001580 638.70270 642.17590
655.0 0.001527 637.61163 640.71667
652.0 0.001534 636.52576 639.31848
639.0 0.001565 635.44440 637.96973
681.0 0.001468 634.36761 636.66223
661.0 0.001513 633.29584 635.39020
663.0 0.001508 632.22864 634.14783
592.0 0.001689 631.16663 632.93188
625.0 0.001600 630.10919 631.73828
626.0 0.001597 629.05640 630.56451
621.0 0.001610 628.00861 629.40881
613.0 0.001631 626.96558 628.26904
659.0 0.001517 625.92743 627.14392
636.0 0.001572 624.89417 626.03204
624.0 0.001603 623.86554 624.93219
647.0 0.001546 622.84192 623.84393
618.0 0.001618 621.82318 622.76617
611.0 0.001637 620.80927 621.69836
625.0 0.001600 619.80023 620.63989
639.0 0.001565 618.79590 619.59027
612.0 0.001634 617.79681 618.54932
581.0 0.001721 616.80225 617.51617
618.0 0.001618 615.81287 616.49109
597.0 0.001675 614.82819 615.47333
604.0 0.001656 613.84814 614.46252
576.0 0.001736 612.87341 613.45923
666.0 0.001502 611.90326 612.46246
593.0 0.001686 610.93835 611.47272
601.0 0.001664 609.97809 610.71405
607.0 0.001647 609.02246 609.74554
641.0 0.001560 608.07220 608.78455
603.0 0.001658 607.12646 607.82983
635.0 0.001575 606.18597 606.99310
604.0 0.001656 605.25024 605.79419
596.0 0.001678 604.31921 604.87390
643.0 0.001555 603.39319 603.96027
589.0 0.001698 602.47192 603.05280
575.0 0.001739 601.55585 602.02203
562.0 0.001779 600.64447 601.13287
589.0 0.001698 599.73779 600.24994
633.0 0.001580 598.83624 599.37378
586.0 0.001706 597.93945 598.50458
567.0 0.001764 597.04755 597.64221
592.0 0.001689 596.16052 596.78723
576.0 0.001736 595.27820 595.93958
635.0 0.001575 594.40088 595.09985
582.0 0.001718 593.52838 594.26837
580.0 0.001724 592.66071 593.44537
561.0 0.001783 591.79791 592.63141
575.0 0.001739 590.93976 591.82672
616.0 0.001623 590.08673 591.03259
578.0 0.001730 589.23816 590.24896
589.0 0.001698 588.39478 589.47748
561.0 0.001783 587.55585 588.71832
577.0 0.001733 586.72168 587.97314
586.0 0.001706 585.89264 587.24371
619.0 0.001616 585.06805 586.53119
586.0 0.001706 584.24847 585.83813
584.0 0.001712 583.43359 585.16705
553.0 0.001808 582.62311 584.52075
589.0 0.001698 581.81775 583.90405
568.0 0.001761 581.01691 583.32147
588.0 0.001701 580.22101 582.78003
603.0 0.001658 579.42969 582.28772
639.0 0.001565 578.64282 581.85547
624.0 0.001603 577.86102 581.49847
611.0 0.001637 577.08362 581.23608
569.0 0.001757 576.31116 581.09607
581.0 0.001721 575.54315 581.11884
561.0 0.001783 574.77972 581.37238
600.0 0.001667 574.02100 581.99695
592.0 0.001689 573.26691 583.34045
611.0 0.001637 572.51746 586.27820
588.0 0.001701 571.77252 592.78699
639.0 0.001565 571.03204 606.50427
637.0 0.001570 570.29633 632.39423
737.0 0.001357 569.56506 674.47345
911.0 0.001098 568.83838 731.43817
1017.0 0.000983 568.11621 792.53491
1017.0 0.000983 567.39838 838.01563
1012.0 0.000988 566.68536 850.17261
980.0 0.001020 565.97650 831.58759
899.0 0.001112 565.27228 800.86639
882.0 0.001134 564.57251 769.38025
789.0 0.001267 563.87701 733.50977
746.0 0.001340 563.18616 692.53412
746.0 0.001340 562.49951 652.40216
627.0 0.001595 561.81750 620.02692
603.0 0.001658 561.13965 597.01160
628.0 0.001592 560.46600 582.86346
585.0 0.001709 559.79706 574.92615
600.0 0.001667 559.13214 570.51868
584.0 0.001712 558.47180 567.83722
580.0 0.001724 557.81561 565.94672
600.0 0.001667 557.16345 564.44531
560.0 0.001786 556.51593 563.17279
572.0 0.001748 555.87238 562.05798
554.0 0.001805 555.23328 561.06317
568.0 0.001761 554.59833 560.16400
538.0 0.001859 553.96741 559.34332
567.0 0.001764 553.34076 558.58960
587.0 0.001704 552.71826 557.89380
560.0 0.001786 552.09991 557.25006
599.0 0.001669 551.48566 556.65411
564.0 0.001773 550.87537 556.10345
622.0 0.001608 550.26929 555.59686
571.0 0.001751 549.66730 555.13416
577.0 0.001733 549.06934 554.71625
601.0 0.001664 548.47540 554.34528
558.0 0.001792 547.88531 554.02411
535.0 0.001869 547.29950 553.75726
552.0 0.001812 546.71741 553.55035
538.0 0.001859 546.13934 553.41077
527.0 0.001898 545.56525 553.34772
591.0 0.001692 544.99493 553.37305
619.0 0.001616 544.42871 553.50189
568.0 0.001761 543.86615 553.75317
603.0 0.001658 543.30762 554.15118
556.0 0.001799 542.75287 554.72778
591.0 0.001692 542.20172 555.52423
558.0 0.001792 541.65466 556.59509
519.0 0.001927 541.11115 558.01434
560.0 0.001786 540.57159 559.88379
537.0 0.001862 540.03564 562.35291
564.0 0.001773 539.50323 565.66815
565.0 0.001770 538.97485 570.32574
609.0 0.001642 538.44989 577.53308
575.0 0.001739 537.92877 590.30383
632.0 0.001582 537.41119 615.47614
667.0 0.001499 536.89716 665.88275
748.0 0.001337 536.38678 759.79749
887.0 0.001127 535.87994 913.63068
1134.0 0.000882 535.37677 1127.81030
1280.0 0.000781 534.87701 1369.51099
1419.0 0.000705 534.38074 1569.56543
1524.0 0.000656 533.88800 1652.66016
1608.0 0.000622 533.39868 1606.64355
1545.0 0.000647 532.91290 1496.28674
1297.0 0.000771 532.43048 1376.78210
1060.0 0.000943 531.95135 1251.24792
947.0 0.001056 531.47577 1104.51807
879.0 0.001138 531.00348 947.81055
763.0 0.001311 530.53455 808.51477
686.0 0.001458 530.06897 703.30798
605.0 0.001653 529.60657 634.51141
520.0 0.001923 529.14764 594.71216
581.0 0.001721 528.69177 573.31873
551.0 0.001815 528.23932 561.71210
507.0 0.001972 527.78998 554.72986
577.0 0.001733 527.34369 549.90271
533.0 0.001876 526.90076 546.20093
532.0 0.001880 526.46088 543.19446
523.0 0.001912 526.02423 540.67993
491.0 0.002037 525.59070 538.53522
546.0 0.001832 525.16003 536.67755
539.0 0.001855 524.73267 535.04816
556.0 0.001799 524.30823 533.61963
523.0 0.001912 523.88690 532.32202
535.0 0.001869 523.46851 531.14618
495.0 0.002020 523.05310 530.07159
506.0 0.001976 522.64063 529.09143
557.0 0.001795 522.23108 528.17426
495.0 0.002020 521.82458 527.31866
504.0 0.001984 521.42090 526.51569
550.0 0.001818 521.02002 525.75818
525.0 0.001905 520.62207 525.04071
495.0 0.002020 520.22693 524.35803
495.0 0.002020 519.83459 523.70605
518.0 0.001931 519.44507 523.08142
492.0 0.002033 519.05823 522.48096
524.0 0.001908 518.67419 521.90271
517.0 0.001934 518.29291 521.34369
547.0 0.001828 517.91437 520.80286
521.0 0.001919 517.53845 520.27820
484.0 0.002066 517.16516 519.76819
535.0 0.001869 516.79462 519.27197
526.0 0.001901 516.42657 518.78821
534.0 0.001873 516.06128 518.31635
534.0 0.001873 515.69836 517.85535
519.0 0.001927 515.33807 517.40436
497.0 0.002012 514.98041 516.96307
490.0 0.002041 514.62518 516.53076
500.0 0.002000 514.27258 516.10736
495.0 0.002020 513.92236 515.69208
514.0 0.001946 513.57446 515.28467
506.0 0.001976 513.22919 514.88525
492.0 0.002033 512.88623 513.57404
503.0 0.001988 512.54578 513.22449
528.0 0.001894 512.20758 512.88055
500.0 0.002000 511.87167 512.54242
478.0 0.002092 511.53827 512.21088
494.0 0.002024 511.20706 511.43979
523.0 0.001912 510.87823 511.13943
513.0 0.001949 510.55164 510.84674
480.0 0.002083 510.22723 510.56339
509.0 0.001965 509.90512 510.29147
498.0 0.002008 509.58521 510.20258
490.0 0.002041 509.26746 509.97101
488.0 0.002049 508.95190 509.77209
527.0 0.001898 508.63846 509.63565
533.0 0.001876 508.32718 509.63358
494.0 0.002024 508.01801 510.00320
507.0 0.001972 507.71094 510.84277
511.0 0.001957 507.40591 512.57806
515.0 0.001942 507.10291 515.47089
529.0 0.001890 506.80203 519.42096
565.0 0.001770 506.50305 523.71283
556.0 0.001799 506.20612 527.00464
600.0 0.001667 505.91116 527.98950
589.0 0.001698 505.61810 526.64459
577.0 0.001733 505.32709 524.24567
580.0 0.001724 505.03784 521.77319
553.0 0.001808 504.75064 519.25006
509.0 0.001965 504.46524 517.13452
475.0 0.002105 504.18158 513.97723
455.0 0.002198 503.89993 511.05374
522.0 0.001916 503.62000 508.71597
498.0 0.002008 503.34195 507.05957
504.0 0.001984 503.06564 506.38461
499.0 0.002004 502.79099 505.71326
500.0 0.002000 502.51822 505.26675
517.0 0.001934 502.24710 504.93433
506.0 0.001976 501.97775 504.65939
537.0 0.001862 501.71002 504.41724
487.0 0.002053 501.44397 504.19778
510.0 0.001961 501.17957 503.99698
538.0 0.001859 500.91681 503.81274
511.0 0.001957 500.65567 503.64407
497.0 0.002012 500.39609 503.49060
503.0 0.001988 500.13809 503.35236
505.0 0.001980 499.88165 503.22961
526.0 0.001901 499.62677 503.12326
512.0 0.001953 499.37341 503.03412
489.0 0.002045 499.12155 502.96362
480.0 0.002083 498.87112 502.91333
533.0 0.001876 498.62225 502.88538
494.0 0.002024 498.37476 502.88226
492.0 0.002033 498.12872 502.90701
495.0 0.002020 497.88412 502.96326
527.0 0.001898 497.64084 503.05569
552.0 0.001812 497.39905 503.18973
465.0 0.002151 497.15854 503.37234
496.0 0.002016 496.91943 503.61188
515.0 0.001942 496.68161 503.91946
526.0 0.001901 496.44504 504.30896
506.0 0.001976 496.20987 504.79819
492.0 0.002033 495.97592 505.41125
540.0 0.001852 495.74329 506.18100
512.0 0.001953 495.51184 507.15732
526.0 0.001901 495.28156 508.42889
496.0 0.002016 495.05258 510.18704
510.0 0.001961 494.82474 512.89471
575.0 0.001739 494.59814 517.62317
570.0 0.001754 494.37268 526.54712
535.0 0.001869 494.14832 543.24774
575.0 0.001739 493.92508 572.06329
651.0 0.001536 493.70297 615.89807
720.0 0.001389 493.48199 672.71466
727.0 0.001376 493.26208 732.64954
759.0 0.001318 493.04315 778.36224
777.0 0.001287 492.82535 793.98505
774.0 0.001292 492.60855 780.64459
770.0 0.001299 492.39276 755.01019
725.0 0.001379 492.17798 729.55206
668.0 0.001497 491.96414 704.65582
647.0 0.001546 491.75131 675.89453
695.0 0.001439 491.53943 644.13403
636.0 0.001572 491.32849 616.78967
606.0 0.001650 491.11847 601.50067
597.0 0.001675 490.90930 606.16144
633.0 0.001580 490.70111 641.77338
706.0 0.001416 490.49371 723.97668
827.0 0.001209 490.28723 870.01770
1090.0 0.000917 490.08157 1087.00464
1274.0 0.000785 489.87668 1355.91711
1564.0 0.000639 489.67270 1620.18933
1555.0 0.000643 489.46945 1795.40491
1632.0 0.000613 489.26706 1821.77637
1770.0 0.000565 489.06540 1728.47644
1637.0 0.000611 488.86441 1595.56299
1200.0 0.000833 488.66431 1467.19727
1092.0 0.000916 488.46481 1334.22449
995.0 0.001005 488.26614 1175.74878
925.0 0.001081 488.06812 1002.17596
816.0 0.001225 487.87073 842.46191
649.0 0.001541 487.67407 716.73120
611.0 0.001637 487.47803 630.40125
610.0 0.001639 487.28268 577.86346
546.0 0.001832 487.08792 548.52026
539.0 0.001855 486.89377 532.51709
531.0 0.001883 486.70023 523.25702
536.0 0.001866 486.50729 517.21509
533.0 0.001876 486.31491 512.79517
522.0 0.001916 486.12311 509.31769
497.0 0.002012 485.93185 506.47824
508.0 0.001969 485.74109 504.11136
526.0 0.001901 485.55093 502.11218
512.0 0.001953 485.36118 500.40454
533.0 0.001876 485.17197 499.23969
512.0 0.001953 484.98328 497.97232
517.0 0.001934 484.79501 496.86630
489.0 0.002045 484.60721 495.89691
482.0 0.002075 484.41986 495.04413
491.0 0.002037 484.23288 494.44562
507.0 0.001972 484.04639 493.78918
485.0 0.002062 483.86029 493.21365
474.0 0.002110 483.67456 492.71259
475.0 0.002105 483.48926 492.28137
519.0 0.001927 483.30426 491.91763
532.0 0.001880 483.11969 491.62085
509.0 0.001965 482.93539 491.39230
466.0 0.002146 482.75150 491.23593
470.0 0.002128 482.56784 491.15808
504.0 0.001984 482.38452 491.16891
482.0 0.002075 482.20154 491.28265
498.0 0.002008 482.01880 491.52014
526.0 0.001901 481.83640 491.91278
512.0 0.001953 481.65417 492.51279
486.0 0.002058 481.47220 493.42487
547.0 0.001828 481.29053 494.89221
500.0 0.002000 481.10904 497.50076
492.0 0.002033 480.92783 502.54361
512.0 0.001953 480.74677 512.46442
505.0 0.001980 480.56589 530.77216
521.0 0.001919 480.38525 561.75043
581.0 0.001721 480.20471 607.06299
594.0 0.001684 480.02441 663.23853
742.0 0.001348 479.84421 719.26318
717.0 0.001395 479.66418 758.24640
663.0 0.001508 479.48425 766.79694
704.0 0.001420 479.30447 749.03772
625.0 0.001600 479.12479 721.37262
593.0 0.001686 478.94519 694.60168
573.0 0.001745 478.76569 668.25494
572.0 0.001748 478.58627 637.18463
559.0 0.001789 478.40692 601.53082
580.0 0.001724 478.22766 566.90393
543.0 0.001842 478.04840 538.22076
478.0 0.002092 477.86920 517.55591
495.0 0.002020 477.69006 503.62253
448.0 0.002232 477.51086 496.14127
493.0 0.002028 477.33176 492.14404
524.0 0.001908 477.15262 490.03183
497.0 0.002012 476.97345 488.87982
539.0 0.001855 476.79431 487.84570
489.0 0.002045 476.61511 487.56360
541.0 0.001848 476.43591 487.55804
487.0 0.002053 476.25662 487.81995
494.0 0.002024 476.07724 488.37152
499.0 0.002004 475.89792 489.27017
520.0 0.001923 475.71841 490.64285
552.0 0.001812 475.53891 492.78976
483.0 0.002070 475.35928 496.44528
562.0 0.001779 475.17950 503.28293
513.0 0.001949 474.99973 516.61670
489.0 0.002045 474.81976 541.83032
598.0 0.001672 474.63974 585.46844
755.0 0.001325 474.45953 652.20129
913.0 0.001095 474.27921 739.93414
1085.0 0.000922 474.09872 835.44836
1133.0 0.000883 473.91809 913.85864
1197.0 0.000835 473.73734 948.32233
1172.0 0.000853 473.55634 933.18732
1152.0 0.000868 473.37518 890.79773
1059.0 0.000944 473.19391 845.22833
906.0 0.001104 473.01239 803.15466
833.0 0.001200 472.83069 757.16241
742.0 0.001348 472.64877 701.70105
743.0 0.001346 472.46661 642.66968
634.0 0.001577 472.28430 589.56580
509.0 0.001965 472.10172 548.21802
560.0 0.001786 471.91891 519.92657
541.0 0.001848 471.73587 502.59189
542.0 0.001845 471.55255 492.74817
499.0 0.002004 471.36902 487.23889
538.0 0.001859 471.18521 483.94891
499.0 0.002004 471.00116 481.73947
512.0 0.001953 470.81680 480.07965
506.0 0.001976 470.63214 478.74039
491.0 0.002037 470.44727 477.61728
491.0 0.002037 470.26202 476.65363
508.0 0.001969 470.07657 475.81403
449.0 0.002227 469.89072 475.07239
481.0 0.002079 469.70459 474.40994
469.0 0.002132 469.51819 473.81210
497.0 0.002012 469.33142 473.26721
478.0 0.002092 469.14438 472.76648
490.0 0.002041 468.95697 472.30252
449.0 0.002227 468.76923 471.86984
488.0 0.002049 468.58115 471.46362
471.0 0.002123 468.39270 471.07993
503.0 0.001988 468.20395 470.71585
513.0 0.001949 468.01480 470.19397
420.0 0.002381 467.82532 469.86658
480.0 0.002083 467.63544 469.55170
457.0 0.002188 467.44522 469.24765
476.0 0.002101 467.25461 468.86398
482.0 0.002075 467.06363 468.58078
479.0 0.002088 466.87222 468.30490
453.0 0.002208 466.68048 468.03558
466.0 0.002146 466.48834 467.77197
485.0 0.002062 466.29578 467.51352
451.0 0.002217 466.10284 467.25961
431.0 0.002320 465.90945 467.00970
447.0 0.002237 465.71573 466.76352
476.0 0.002101 465.52155 466.52054
441.0 0.002268 465.32700 466.28055
473.0 0.002114 465.13196 466.04312
434.0 0.002304 464.93649 465.80798
466.0 0.002146 464.74069 465.57510
459.0 0.002179 464.54440 465.34399
456.0 0.002193 464.34772 465.12872
448.0 0.002232 464.15054 464.90134
418.0 0.002392 463.95291 464.67532
439.0 0.002278 463.75494 464.45065
479.0 0.002088 463.55643 464.22699
498.0 0.002008 463.35757 464.01138
465.0 0.002151 463.15817 463.78992
469.0 0.002132 462.95837 463.56924
410.0 0.002439 462.75812 463.34933
431.0 0.002320 462.55734 463.13007
448.0 0.002232 462.35620 462.91144
445.0 0.002247 462.15454 462.69327
456.0 0.002193 461.95245 462.47559
453.0 0.002208 461.74991 461.95758
434.0 0.002304 461.54688 461.74997
429.0 0.002331 461.34338 461.54224
413.0 0.002421 461.13943 461.33435
456.0 0.002193 460.93497 461.12634
443.0 0.002257 460.73007 460.76865
433.0 0.002309 460.52469 460.56497
447.0 0.002237 460.31885 460.36099
451.0 0.002217 460.11255 460.15668
462.0 0.002165 459.90570 459.95190
438.0 0.002283 459.69846 459.74692
443.0 0.002257 459.49069 459.54163
459.0 0.002179 459.28250 459.33603
424.0 0.002358 459.07376 459.13016
408.0 0.002451 458.86453 458.92398
429.0 0.002331 458.65491 458.71768
449.0 0.002227 458.44473 458.51111
457.0 0.002188 458.23413 458.30441
449.0 0.002227 458.02298 458.09818
467.0 0.002141 457.81137 457.89124
431.0 0.002320 457.59937 457.68439
446.0 0.002242 457.38675 457.47748
429.0 0.002331 457.17377 457.27075
441.0 0.002268 456.96024 457.06451
502.0 0.001992 456.74622 456.85822
440.0 0.002273 456.53177 456.65240
467.0 0.002141 456.31677 456.44714
444.0 0.002252 456.10141 456.24265
444.0 0.002252 455.88547 456.03900
487.0 0.002053 455.66910 455.83670
439.0 0.002278 455.45224 455.63583
436.0 0.002294 455.23492 455.43701
438.0 0.002283 455.01712 455.24060
490.0 0.002041 454.79880 455.04730
418.0 0.002392 454.58008 454.85800
466.0 0.002146 454.36087 454.67377
476.0 0.002101 454.14117 454.49619
381.0 0.002625 453.92105 454.32739
447.0 0.002237 453.70041 454.17090
450.0 0.002222 453.47931 454.03363
427.0 0.002342 453.25781 453.93121
466.0 0.002146 453.03580 453.90015
400.0 0.002500 452.81332 454.01981
422.0 0.002370 452.59042 454.43924
432.0 0.002315 452.36703 455.38629
440.0 0.002273 452.14328 457.11996
436.0 0.002294 451.91898 459.80154
471.0 0.002123 451.69431 463.30847
460.0 0.002174 451.46912 467.08972
458.0 0.002183 451.24350 470.13165
478.0 0.002092 451.01752 471.31885
449.0 0.002227 450.79102 470.42783
474.0 0.002110 450.56418 468.40714
481.0 0.002079 450.33682 466.28781
440.0 0.002273 450.10904 464.43561
502.0 0.001992 449.88089 462.55960
453.0 0.002208 449.65225 460.27087
449.0 0.002227 449.42328 457.66293
444.0 0.002252 449.19382 455.12076
445.0 0.002247 448.96399 452.95547
443.0 0.002257 448.73376 451.30365
439.0 0.002278 448.50311 450.14420
410.0 0.002439 448.27206 449.36209
424.0 0.002358 448.04059 448.82126
403.0 0.002481 447.80875 448.41479
481.0 0.002079 447.57654 448.07635
454.0 0.002203 447.34393 447.99899
438.0 0.002283 447.11093 447.71985
457.0 0.002188 446.87759 447.45230
424.0 0.002358 446.64380 447.19305
388.0 0.002577 446.40976 446.94061
477.0 0.002096 446.17523 446.80536
440.0 0.002273 445.94040 446.56876
465.0 0.002151 445.70523 446.34067
447.0 0.002237 445.46967 446.12570
473.0 0.002114 445.23383 445.93204
450.0 0.002222 444.99756 445.76974
446.0 0.002242 444.76105 445.64728
506.0 0.001976 444.52414 445.56387
546.0 0.001832 444.28687 445.50330
448.0 0.002232 444.04938 445.43015
560.0 0.001786 443.81149 445.29709
487.0 0.002053 443.57336 445.07709
496.0 0.002016 443.33484 444.79437
476.0 0.002101 443.09604 444.49570
461.0 0.002169 442.85703 444.20831
470.0 0.002128 442.61761 443.92996
463.0 0.002160 442.37799 443.64246
482.0 0.002075 442.13803 443.33942
451.0 0.002217 441.89783 443.03354
496.0 0.002016 441.65735 442.74026
423.0 0.002364 441.41656 442.46899
439.0 0.002278 441.17563 442.22244
464.0 0.002155 440.93433 441.99771
457.0 0.002188 440.69281 441.78986
424.0 0.002358 440.45108 441.91476
462.0 0.002165 440.20911 441.73871
442.0 0.002262 439.96689 441.57089
408.0 0.002451 439.72449 441.41116
448.0 0.002232 439.48178 441.25977
454.0 0.002203 439.23892 441.11768
450.0 0.002222 438.99585 441.14746
470.0 0.002128 438.75259 441.03271
451.0 0.002217 438.50916 440.93158
465.0 0.002151 438.26544 440.84595
459.0 0.002179 438.02167 440.77844
462.0 0.002165 437.77762 440.73172
442.0 0.002262 437.53351 440.70947
441.0 0.002268 437.28912 440.71591
411.0 0.002433 437.04462 440.75650
402.0 0.002488 436.80002 440.83786
444.0 0.002252 436.55518 441.14661
412.0 0.002427 436.31030 441.34305
439.0 0.002278 436.06522 441.59982
470.0 0.002128 435.82001 441.96353
462.0 0.002165 435.57477 442.44501
448.0 0.002232 435.32932 443.08206
500.0 0.002000 435.08389 444.02911
421.0 0.002375 434.83823 445.23697
459.0 0.002179 434.59256 447.11154
435.0 0.002299 434.34680 450.33139
485.0 0.002062 434.10092 456.29938
459.0 0.002179 433.85504 467.45892
449.0 0.002227 433.60901 487.26776
489.0 0.002045 433.36298 519.26129
545.0 0.001835 433.11691 565.04730
642.0 0.001558 432.87079 621.88678
729.0 0.001372 432.62463 680.83795
842.0 0.001188 432.37845 726.91492
782.0 0.001279 432.13220 744.90057
734.0 0.001362 431.88599 733.16138
787.0 0.001271 431.63977 705.78400
746.0 0.001340 431.39355 677.46173
716.0 0.001397 431.14734 653.67273
656.0 0.001524 430.90109 630.57446
579.0 0.001727 430.65497 601.88745
544.0 0.001838 430.40878 567.56537
530.0 0.001887 430.16272 532.82343
499.0 0.002004 429.91660 502.57077
496.0 0.002016 429.67056 479.44855
443.0 0.002257 429.42465 463.77866
475.0 0.002105 429.17871 454.25369
510.0 0.001961 428.93292 448.98199
444.0 0.002252 428.68716 446.28323
442.0 0.002262 428.44147 445.03384
437.0 0.002288 428.19595 444.63004
471.0 0.002123 427.95044 444.82034
466.0 0.002146 427.70514 445.58240
476.0 0.002101 427.45987 447.11078
473.0 0.002114 427.21472 449.96414
445.0 0.002247 426.96979 455.40234
478.0 0.002092 426.72488 465.87027
499.0 0.002004 426.48026 485.30621
471.0 0.002123 426.23566 518.72528
489.0 0.002045 425.99127 570.38245
595.0 0.001681 425.74704 640.68408
722.0 0.001385 425.50302 723.09906
815.0 0.001227 425.25916 802.29401
798.0 0.001253 425.01541 856.05804
815.0 0.001227 424.77194 867.35260
824.0 0.001214 424.52869 841.90887
839.0 0.001192 424.28561 801.76886
807.0 0.001239 424.04276 764.30286
710.0 0.001408 423.80011 733.31158
665.0 0.001504 423.55771 701.51282
602.0 0.001661 423.31558 661.83099
619.0 0.001616 423.07361 617.33282
585.0 0.001709 422.83197 577.33997
535.0 0.001869 422.59058 550.56366
533.0 0.001876 422.34940 542.66309
529.0 0.001890 422.10858 555.03021
575.0 0.001739 421.86798 584.12207
647.0 0.001546 421.62772 621.44110
733.0 0.001364 421.38770 654.36414
664.0 0.001506 421.14795 669.64307
742.0 0.001348 420.90863 662.71716
731.0 0.001368 420.66949 641.92139
694.0 0.001441 420.43082 618.76276
652.0 0.001534 420.19235 599.08636
560.0 0.001786 419.95422 581.56219
570.0 0.001754 419.71655 561.15619
539.0 0.001855 419.47913 535.88458
507.0 0.001972 419.24213 508.72693
503.0 0.001988 419.00543 483.66986
453.0 0.002208 418.76913 463.33658
476.0 0.002101 418.53320 448.60181
429.0 0.002331 418.29767 438.90488
404.0 0.002475 418.06253 432.94736
424.0 0.002358 417.82776 429.36053
433.0 0.002309 417.59341 427.10831
458.0 0.002183 417.35950 425.55420
400.0 0.002500 417.12598 424.36395
392.0 0.002551 416.89288 423.15759
428.0 0.002336 416.66022 422.31326
433.0 0.002309 416.42795 421.56500
413.0 0.002421 416.19620 420.89145
421.0 0.002375 415.96481 420.27786
448.0 0.002232 415.73392 419.60117
456.0 0.002193 415.50351 419.08139
435.0 0.002299 415.27350 418.59610
424.0 0.002358 415.04407 418.13995
411.0 0.002433 414.81503 417.70871
427.0 0.002342 414.58655 417.29901
401.0 0.002494 414.35846 416.90793
405.0 0.002469 414.13089 416.53329
409.0 0.002445 413.90390 416.17307
439.0 0.002278 413.67734 415.82562
428.0 0.002336 413.45135 415.48975
389.0 0.002571 413.22583 415.16397
414.0 0.002415 413.00082 414.84760
458.0 0.002183 412.77643 414.53976
417.0 0.002398 412.55249 414.23978
402.0 0.002488 412.32919 413.94705
400.0 0.002500 412.10632 413.66110
430.0 0.002326 411.88406 413.38162
451.0 0.002217 411.66238 413.15976
435.0 0.002299 411.44119 412.89420
400.0 0.002500 411.22067 412.63477
418.0 0.002392 411.00064 412.38156
399.0 0.002506 410.78125 412.13474
394.0 0.002538 410.56241 411.89474
429.0 0.002331 410.34418 411.36053
393.0 0.002545 410.12653 411.14822
408.0 0.002451 409.90948 410.94724
387.0 0.002584 409.69299 410.76370
418.0 0.002392 409.47717 410.61151
393.0 0.002545 409.26196 410.51990
460.0 0.002174 409.04736 410.38242
425.0 0.002353 408.83337 410.61356
401.0 0.002494 408.62000 411.15829
406.0 0.002463 408.40732 412.11603
408.0 0.002451 408.19519 413.51245
460.0 0.002174 407.98380 415.22873
423.0 0.002364 407.77295 416.95941
369.0 0.002710 407.56277 418.23087
435.0 0.002299 407.35330 418.60400
426.0 0.002347 407.14444 418.03824
434.0 0.002304 406.93631 416.76312
399.0 0.002506 406.72876 415.60013
434.0 0.002304 406.52188 414.58417
421.0 0.002375 406.31573 413.64438
389.0 0.002571 406.11020 412.57834
429.0 0.002331 405.90546 411.30756
362.0 0.002762 405.70129 409.85855
397.0 0.002519 405.49783 408.57614
415.0 0.002410 405.29510 407.48834
362.0 0.002762 405.09302 406.64029
421.0 0.002375 404.89169 406.01624
411.0 0.002433 404.69101 405.56467
403.0 0.002481 404.49106 405.22775
412.0 0.002427 404.29181 404.95883
364.0 0.002747 404.09329 404.72778
414.0 0.002415 403.89548 404.51825
394.0 0.002538 403.69839 404.32239
393.0 0.002545 403.50198 404.13675
385.0 0.002597 403.30634 403.96021
400.0 0.002500 403.11139 403.79239
352.0 0.002841 402.91721 403.63361
402.0 0.002488 402.72372 403.48438
401.0 0.002494 402.53098 403.34583
395.0 0.002532 402.33899 403.21936
394.0 0.002538 402.14771 403.10709
406.0 0.002463 401.95721 403.01166
392.0 0.002551 401.76740 402.93661
375.0 0.002667 401.57834 402.88730
358.0 0.002793 401.39011 402.87201
396.0 0.002525 401.20251 402.90579
439.0 0.002278 401.01578 403.02094
383.0 0.002611 400.82971 403.28839
444.0 0.002252 400.64441 403.85913
383.0 0.002611 400.45993 405.02081
383.0 0.002611 400.27615 407.24557
386.0 0.002591 400.09317 411.16241
392.0 0.002551 399.91092 417.38937
413.0 0.002421 399.72940 426.19885
402.0 0.002488 399.54874 437.09665
422.0 0.002370 399.36877 448.57880
431.0 0.002320 399.18964 458.07159
476.0 0.002101 399.01120 462.71381
393.0 0.002545 398.83359 461.49384
429.0 0.002331 398.65671 456.41782
389.0 0.002571 398.48062 450.42493
437.0 0.002288 398.30530 445.26941
421.0 0.002375 398.13074 440.96454
422.0 0.002370 397.95697 436.31537
430.0 0.002326 397.78400 430.38113
377.0 0.002653 397.61179 423.50055
407.0 0.002457 397.44034 416.67444
406.0 0.002463 397.26968 410.73514
398.0 0.002513 397.09979 406.11749
439.0 0.002278 396.93073 402.86346
369.0 0.002710 396.76236 400.73965
377.0 0.002653 396.59482 399.41016
394.0 0.002538 396.42807 398.56735
412.0 0.002427 396.26205 397.99405
376.0 0.002660 396.09686 397.56210
395.0 0.002532 395.93243 397.20511
433.0 0.002309 395.76880 396.89175
383.0 0.002611 395.60593 396.59866
410.0 0.002439 395.44382 396.33524
381.0 0.002625 395.28253 396.08835
387.0 0.002584 395.12198 395.85486
378.0 0.002646 394.96228 395.63242
414.0 0.002415 394.80328 395.41699
409.0 0.002445 394.64505 395.20966
380.0 0.002632 394.48767 395.01129
393.0 0.002545 394.33102 394.81873
371.0 0.002695 394.17517 394.63135
367.0 0.002725 394.02008 394.44852
420.0 0.002381 393.86575 394.26978
377.0 0.002653 393.71222 394.09479
381.0 0.002625 393.55948 393.92325
385.0 0.002597 393.40747 393.75482
383.0 0.002611 393.25623 393.58932
384.0 0.002604 393.10577 393.42676
421.0 0.002375 392.95609 393.26682
376.0 0.002660 392.80719 393.30508
378.0 0.002646 392.65903 393.15686
416.0 0.002404 392.51166 393.01166
392.0 0.002551 392.36499 392.86951
388.0 0.002577 392.21918 392.73068
368.0 0.002717 392.07407 392.59534
413.0 0.002421 391.92972 392.56039
389.0 0.002571 391.78613 392.43658
383.0 0.002611 391.64328 392.31827
418.0 0.002392 391.50125 392.20718
371.0 0.002695 391.35989 392.10684
439.0 0.002278 391.21936 392.02512
416.0 0.002404 391.07950 391.97812
416.0 0.002404 390.94040 391.99631
383.0 0.002611 390.80209 392.12885
401.0 0.002494 390.66449 392.44110
389.0 0.002571 390.52768 392.99753
420.0 0.002381 390.39154 393.82910
412.0 0.002427 390.25616 394.89249
385.0 0.002597 390.12152 396.04062
434.0 0.002304 389.98761 397.01782
380.0 0.002632 389.85446 397.51978
385.0 0.002597 389.72198 397.39658
414.0 0.002415 389.59027 396.81149
415.0 0.002410 389.45926 396.07718
397.0 0.002519 389.32898 395.36343
395.0 0.002532 389.19943 394.82019
424.0 0.002358 389.07056 394.29175
385.0 0.002597 388.94241 393.64914
357.0 0.002801 388.81500 392.88040
401.0 0.002494 388.68829 392.07764
416.0 0.002404 388.56226 391.31616
393.0 0.002545 388.43695 390.71161
390.0 0.002564 388.31232 390.26013
397.0 0.002519 388.18842 389.94971
384.0 0.002604 388.06519 389.74942
395.0 0.002532 387.94266 389.62576
389.0 0.002571 387.82080 389.55255
419.0 0.002387 387.69962 389.51346
428.0 0.002336 387.57916 389.50043
412.0 0.002427 387.45932 389.51080
391.0 0.002558 387.34024 389.54510
394.0 0.002538 387.22174 389.60577
386.0 0.002591 387.10394 389.69647
394.0 0.002538 386.98685 389.82245
372.0 0.002688 386.87036 389.99030
397.0 0.002519 386.75458 390.20877
382.0 0.002618 386.63940 390.48947
423.0 0.002364 386.52490 390.84845
416.0 0.002404 386.41107 391.31000
396.0 0.002525 386.29785 391.91714
408.0 0.002451 386.18530 392.75613
437.0 0.002288 386.07339 394.01358
383.0 0.002611 385.96210 396.08212
399.0 0.002506 385.85144 399.72223
405.0 0.002469 385.74139 406.23093
408.0 0.002451 385.63202 417.46201
439.0 0.002278 385.52322 435.70383
440.0 0.002273 385.41507 462.09705
507.0 0.001972 385.30753 496.57870
563.0 0.001776 385.20059 536.09351
665.0 0.001504 385.09427 574.18079
657.0 0.001522 384.98856 601.67657
671.0 0.001490 384.88339 610.67896
632.0 0.001582 384.77887 601.56500
646.0 0.001548 384.67496 582.59192
631.0 0.001585 384.57159 562.82104
557.0 0.001795 384.46881 546.67511
532.0 0.001880 384.36664 533.28339
527.0 0.001898 384.26505 518.42865
490.0 0.002041 384.16397 499.11719
495.0 0.002020 384.06354 476.48706
512.0 0.001953 383.96362 453.74915
476.0 0.002101 383.86429 433.68948
445.0 0.002247 383.76553 417.86041
385.0 0.002597 383.66730 406.55560
400.0 0.002500 383.56961 399.15549
378.0 0.002646 383.47247 394.60907
394.0 0.002538 383.37589 391.89093
390.0 0.002564 383.27985 390.22769
399.0 0.002506 383.18433 389.13330
389.0 0.002571 383.08936 388.34341
429.0 0.002331 382.99490 387.72623
419.0 0.002387 382.90094 387.22183
411.0 0.002433 382.80756 386.78781
383.0 0.002611 382.71463 386.42090
395.0 0.002532 382.62228 386.10382
388.0 0.002577 382.53040 385.82825
420.0 0.002381 382.43900 385.58832
415.0 0.002410 382.34814 385.37949
384.0 0.002604 382.25775 385.19662
364.0 0.002747 382.16788 385.04071
388.0 0.002577 382.07846 384.90814
387.0 0.002584 381.98953 384.79770
379.0 0.002639 381.90109 384.70905
383.0 0.002611 381.81311 384.64188
398.0 0.002513 381.72562 384.59686
394.0 0.002538 381.63861 384.57504
370.0 0.002703 381.55203 384.57806
408.0 0.002451 381.46594 384.60843
394.0 0.002538 381.38028 384.66937
391.0 0.002558 381.29510 384.76514
398.0 0.002513 381.21036 384.90152
395.0 0.002532 381.12604 385.08588
361.0 0.002770 381.04218 385.32806
402.0 0.002488 380.95874 385.64175
362.0 0.002762 380.87576 386.04730
415.0 0.002410 380.79318 386.58002
407.0 0.002457 380.71100 387.30902
367.0 0.002725 380.62930 388.38083
397.0 0.002519 380.54800 390.10391
349.0 0.002865 380.46710 393.07889
410.0 0.002439 380.38660 398.35153
416.0 0.002404 380.30652 407.47345
425.0 0.002353 380.22687 422.30936
423.0 0.002364 380.14755 444.45676
486.0 0.002058 380.06870 474.26236
514.0 0.001946 379.99017 509.86160
532.0 0.001880 379.91205 546.49420
563.0 0.001776 379.83432 576.60895
577.0 0.001733 379.75696 592.03082
561.0 0.001783 379.67999 589.59235
504.0 0.001984 379.60336 574.53979
498.0 0.002008 379.52713 555.58368
536.0 0.001866 379.45123 538.83643
474.0 0.002110 379.37570 525.74109
487.0 0.002053 379.30054 513.43176
445.0 0.002247 379.22574 498.35117
471.0 0.002123 379.15128 479.12393
434.0 0.002304 379.07715 457.88007
430.0 0.002326 379.00336 437.52954
410.0 0.002439 378.92990 420.21548
428.0 0.002336 378.85681 406.83765
442.0 0.002262 378.78403 397.56235
411.0 0.002433 378.71158 391.57480
359.0 0.002786 378.63943 387.91208
382.0 0.002618 378.56763 385.71158
387.0 0.002584 378.49612 384.35510
336.0 0.002976 378.42493 383.47504
402.0 0.002488 378.35406 382.88553
385.0 0.002597 378.28348 382.56158
424.0 0.002358 378.21323 382.37186
395.0 0.002532 378.14325 382.35062
394.0 0.002538 378.07358 382.46417
410.0 0.002439 378.00418 382.64709
432.0 0.002315 377.93509 382.79868
378.0 0.002646 377.86630 382.80197
378.0 0.002646 377.79776 382.61615
424.0 0.002358 377.72952 382.23251
399.0 0.002506 377.66153 381.78751
355.0 0.002817 377.59381 381.37238
393.0 0.002545 377.52640 381.02057
411.0 0.002433 377.45923 380.70706
403.0 0.002481 377.39233 380.37683
391.0 0.002558 377.32568 379.99829
386.0 0.002591 377.25928 379.58795
409.0 0.002445 377.19315 379.18378
361.0 0.002770 377.12729 378.81769
415.0 0.002410 377.06161 378.50751
430.0 0.002326 376.99622 378.25684
376.0 0.002660 376.93106 378.05814
350.0 0.002857 376.86615 377.89902
373.0 0.002681 376.80145 377.76675
408.0 0.002451 376.73700 377.65161
373.0 0.002681 376.67279 377.54712
356.0 0.002809 376.60880 377.44949
398.0 0.002513 376.54504 377.35681
334.0 0.002994 376.48148 377.26813
387.0 0.002584 376.41812 377.18265
381.0 0.002625 376.35501 377.10025
371.0 0.002695 376.29208 377.02054
372.0 0.002688 376.22940 376.94333
407.0 0.002457 376.16690 376.86850
399.0 0.002506 376.10458 376.79596
413.0 0.002421 376.04251 376.72571
361.0 0.002770 375.98062 376.65750
385.0 0.002597 375.91891 376.59143
410.0 0.002439 375.85742 376.52744
346.0 0.002890 375.79608 376.46561
392.0 0.002551 375.73495 376.40588
385.0 0.002597 375.67401 376.34836
382.0 0.002618 375.61328 376.29312
375.0 0.002667 375.55267 376.24026
342.0 0.002924 375.49228 376.00131
372.0 0.002688 375.43207 375.95941
393.0 0.002545 375.37201 375.92020
344.0 0.002907 375.31213 375.88385
366.0 0.002732 375.25241 375.85065
346.0 0.002890 375.19284 375.82101
374.0 0.002674 375.13348 375.79532
366.0 0.002732 375.07425 375.68188
371.0 0.002695 375.01520 375.66873
381.0 0.002625 374.95627 375.66138
352.0 0.002841 374.89752 375.66071
378.0 0.002646 374.83893 375.66791
347.0 0.002882 374.78046 375.68439
391.0 0.002558 374.72217 375.71182
365.0 0.002740 374.66400 375.75241
305.0 0.003279 374.60599 375.80890
399.0 0.002506 374.54813 375.88489
366.0 0.002732 374.49039 375.98523
375.0 0.002667 374.43280 376.11697
384.0 0.002604 374.37534 376.29233
382.0 0.002618 374.31799 376.53433
378.0 0.002646 374.26080 376.89063
376.0 0.002660 374.20374 377.45978
351.0 0.002849 374.14682 378.43173
373.0 0.002681 374.09000 380.13812
433.0 0.002309 374.03329 383.08017
396.0 0.002525 373.97675 387.88489
413.0 0.002421 373.92029 395.15939
410.0 0.002439 373.86398 405.18011
436.0 0.002294 373.80774 417.58188
421.0 0.002375 373.75165 431.08530
423.0 0.002364 373.69568 443.42737
451.0 0.002217 373.63980 451.71182
413.0 0.002421 373.58405 453.78607
463.0 0.002160 373.52838 450.12482
461.0 0.002169 373.47284 443.46439
452.0 0.002212 373.41739 436.60608
401.0 0.002494 373.36203 431.03549
432.0 0.002315 373.30682 426.67596
376.0 0.002660 373.25168 422.27628
364.0 0.002747 373.19662 416.56311
429.0 0.002331 373.14169 409.40619
432.0 0.002315 373.08682 401.65817
372.0 0.002688 373.03207 394.31845
396.0 0.002525 372.97742 388.08655
370.0 0.002703 372.92282 383.28561
370.0 0.002703 372.86835 379.89444
396.0 0.002525 372.81396 377.66360
401.0 0.002494 372.75967 376.26447
356.0 0.002809 372.70541 375.39551
362.0 0.002762 372.65128 374.83594
414.0 0.002415 372.59723 374.44778
360.0 0.002778 372.54324 374.15756
399.0 0.002506 372.48935 373.91696
388.0 0.002577 372.43552 373.71094
386.0 0.002591 372.38177 373.52972
373.0 0.002681 372.32809 373.36740
398.0 0.002513 372.27451 373.22021
384.0 0.002604 372.22101 373.08563
382.0 0.002618 372.16754 372.96368
375.0 0.002667 372.11417 372.84793
384.0 0.002604 372.06085 372.73947
383.0 0.002611 372.00763 372.63730
380.0 0.002632 371.95444 372.54053
377.0 0.002653 371.90134 372.44833
374.0 0.002674 371.84830 372.36011
357.0 0.002801 371.79532 372.27545
359.0 0.002786 371.74240 372.19385
353.0 0.002833 371.68954 372.11499
382.0 0.002618 371.63675 372.03851
380.0 0.002632 371.58398 371.96417
393.0 0.002545 371.53131 371.89175
365.0 0.002740 371.47870 371.82101
327.0 0.003058 371.42612 371.75186
379.0 0.002639 371.37363 371.68405
358.0 0.002793 371.32114 371.61752
371.0 0.002695 371.26874 371.55212
378.0 0.002646 371.21637 371.48782
380.0 0.002632 371.16409 371.42447
369.0 0.002710 371.11182 371.36200
363.0 0.002755 371.05960 371.30032
381.0 0.002625 371.00748 371.23938
356.0 0.002809 370.95535 371.17923
387.0 0.002584 370.90329 371.11966
375.0 0.002667 370.85126 371.06073
350.0 0.002857 370.79926 371.00235
389.0 0.002571 370.74734 370.94461
373.0 0.002681 370.69543 370.88730
402.0 0.002488 370.64362 370.83054
335.0 0.002985 370.59177 370.77423
330.0 0.003030 370.54001 370.75842
386.0 0.002591 370.48828 370.70404
362.0 0.002762 370.43655 370.65030
372.0 0.002688 370.38492 370.59695
365.0 0.002740 370.33328 370.54419
374.0 0.002674 370.28168 370.49182
373.0 0.002681 370.23010 370.43991
323.0 0.003096 370.17859 370.40845
377.0 0.002653 370.12711 370.35825
371.0 0.002695 370.07562 370.30853
418.0 0.002392 370.02420 370.25952
376.0 0.002660 369.97281 370.21118
336.0 0.002976 369.92142 370.16354
370.0 0.002703 369.87006 370.16165
363.0 0.002755 369.81876 370.11697
391.0 0.002558 369.76746 370.07324
368.0 0.002717 369.71619 370.03070
394.0 0.002538 369.66495 369.98947
386.0 0.002591 369.61371 369.89728
352.0 0.002841 369.56253 369.86072
338.0 0.002959 369.51132 369.84854
370.0 0.002703 369.46017 369.81729
345.0 0.002899 369.40903 369.78915
371.0 0.002695 369.35791 369.76535
362.0 0.002762 369.30682 369.74792
342.0 0.002924 369.25574 369.71506
385.0 0.002597 369.20468 369.72778
360.0 0.002778 369.15363 369.77542
352.0 0.002841 369.10260 369.88528
363.0 0.002755 369.05157 370.09909
338.0 0.002959 369.00055 370.47021
401.0 0.002494 368.94955 371.05246
356.0 0.002809 368.89859 371.87912
380.0 0.002632 368.84763 372.93396
346.0 0.002890 368.79666 374.13034
397.0 0.002519 368.74570 375.29813
349.0 0.002865 368.69476 376.19794
337.0 0.002967 368.64383 376.60001
367.0 0.002725 368.59290 376.43988
389.0 0.002571 368.54199 375.88651
388.0 0.002577 368.49106 375.20355
392.0 0.002551 368.44016 374.58826
384.0 0.002604 368.38925 374.11023
352.0 0.002841 368.33835 373.71497
400.0 0.002500 368.28745 373.27686
346.0 0.002890 368.23651 372.70609
400.0 0.002500 368.18564 372.01825
353.0 0.002833 368.13474 371.29593
382.0 0.002618 368.08383 370.62378
338.0 0.002959 368.03293 370.05869
405.0 0.002469 367.98203 369.62567
361.0 0.002770 367.93112 369.32159
379.0 0.002639 367.88019 369.12512
373.0 0.002681 367.82928 369.06430
361.0 0.002770 367.77835 369.00394
380.0 0.002632 367.72742 368.98050
332.0 0.003012 367.67648 368.98273
379.0 0.002639 367.62552 369.00549
372.0 0.002688 367.57455 369.04745
375.0 0.002667 367.52359 369.10965
362.0 0.002762 367.47260 369.22055
385.0 0.002597 367.42160 369.33981
386.0 0.002591 367.37061 369.49850
354.0 0.002825 367.31958 369.72311
369.0 0.002710 367.26855 370.06183
400.0 0.002500 367.21750 370.60751
374.0 0.002674 367.16644 371.52463
355.0 0.002817 367.11536 373.07376
341.0 0.002933 367.06424 375.60947
393.0 0.002545 367.01312 379.52847
360.0 0.002778 366.96198 385.14206
366.0 0.002732 366.91080 392.49432
359.0 0.002786 366.85962 401.19019
369.0 0.002710 366.80841 410.26926
435.0 0.002299 366.75720 418.22501
364.0 0.002747 366.70593 423.29092
351.0 0.002849 366.65466 424.37738
410.0 0.002439 366.60333 422.06006
383.0 0.002611 366.55200 418.24109
402.0 0.002488 366.50064 414.79474
372.0 0.002688 366.44925 413.02673
378.0 0.002646 366.39783 413.38455
413.0 0.002421 366.34637 415.57599
403.0 0.002481 366.29489 418.97208
417.0 0.002398 366.24338 423.15475
442.0 0.002262 366.19180 427.90170
466.0 0.002146 366.14023 432.57819
465.0 0.002151 366.08862 435.93021
428.0 0.002336 366.03696 436.40155
444.0 0.002252 365.98526 433.30374
433.0 0.002309 365.93350 427.61145
429.0 0.002331 365.88174 421.18149
461.0 0.002169 365.82993 415.51331
417.0 0.002398 365.77811 411.21838
433.0 0.002309 365.72620 407.96930
389.0 0.002571 365.67426 404.78284
399.0 0.002506 365.62225 400.71790
397.0 0.002519 365.57022 395.59171
386.0 0.002591 365.51816 389.92783
351.0 0.002849 365.46603 384.40924
393.0 0.002545 365.41385 379.56659
355.0 0.002817 365.36163 375.68936
383.0 0.002611 365.30936 372.83051
363.0 0.002755 365.25705 370.87076
374.0 0.002674 365.20468 369.60162
339.0 0.002950 365.15225 368.80753
406.0 0.002463 365.09976 368.31369
402.0 0.002488 365.04724 367.99911
386.0 0.002591 364.99463 367.79184
369.0 0.002710 364.94199 367.65271
383.0 0.002611 364.88928 367.56308
377.0 0.002653 364.83652 367.51498
374.0 0.002674 364.78369 367.50635
363.0 0.002755 364.73080 367.53659
375.0 0.002667 364.67786 367.62369
337.0 0.002967 364.62482 367.78302
342.0 0.002924 364.57178 368.05685
339.0 0.002950 364.51862 368.53027
351.0 0.002849 364.46542 369.36020
384.0 0.002604 364.41214 370.80951
357.0 0.002801 364.35880 373.26334
401.0 0.002494 364.30539 377.20920
373.0 0.002681 364.25192 383.12259
412.0 0.002427 364.19836 391.28152
434.0 0.002304 364.14474 401.54385
409.0 0.002445 364.09106 413.13962
454.0 0.002203 364.03729 424.58075
483.0 0.002070 363.98343 433.76230
507.0 0.001972 363.92953 438.54202
500.0 0.002000 363.87552 438.06805
494.0 0.002024 363.82144 433.56686
448.0 0.002232 363.76730 427.38235
449.0 0.002227 363.71307 421.50732
471.0 0.002123 363.65875 416.90289
379.0 0.002639 363.60437 413.39609
438.0 0.002283 363.54987 409.97504
386.0 0.002591 363.49530 405.55179
422.0 0.002370 363.44064 399.81970
417.0 0.002398 363.38593 393.32123
403.0 0.002481 363.33112 386.86334
395.0 0.002532 363.27618 381.11996
405.0 0.002469 363.22119 376.50699
386.0 0.002591 363.16611 373.18381
397.0 0.002519 363.11093 371.13309
402.0 0.002488 363.05566 370.26755
363.0 0.002755 363.00031 370.53833
360.0 0.002778 362.94485 371.98038
376.0 0.002660 362.88928 374.68518
374.0 0.002674 362.83365 378.69659
394.0 0.002538 362.77789 383.88251
457.0 0.002188 362.72205 389.81241
503.0 0.001988 362.66614 395.66003
482.0 0.002075 362.61008 400.40414
454.0 0.002203 362.55396 402.87024
489.0 0.002045 362.49771 402.57388
473.0 0.002114 362.44138 400.12305
460.0 0.002174 362.38492 396.74319
500.0 0.002000 362.32837 393.49927
416.0 0.002404 362.27173 390.90942
451.0 0.002217 362.21494 388.96249
430.0 0.002326 362.15808 387.12872
443.0 0.002257 362.10110 384.80814
388.0 0.002577 362.04404 381.77661
418.0 0.002392 361.98685 378.28006
385.0 0.002597 361.92953 374.69397
376.0 0.002660 361.87210 371.46957
397.0 0.002519 361.81458 368.78766
368.0 0.002717 361.75693 366.72845
357.0 0.002801 361.69919 365.25305
346.0 0.002890 361.64133 364.25015
374.0 0.002674 361.58334 363.58740
338.0 0.002959 361.52524 363.12448
339.0 0.002950 361.46701 362.81796
371.0 0.002695 361.40869 362.58853
334.0 0.002994 361.35022 362.40320
350.0 0.002857 361.29163 362.24426
368.0 0.002717 361.23294 362.10220
375.0 0.002667 361.17413 361.97214
353.0 0.002833 361.11520 361.85141
353.0 0.002833 361.05612 361.73813
355.0 0.002817 360.99692 361.63098
377.0 0.002653 360.93762 361.52905
385.0 0.002597 360.87817 361.43405
359.0 0.002786 360.81863 361.34027
367.0 0.002725 360.75891 361.24976
356.0 0.002809 360.69910 361.16193
319.0 0.003135 360.63916 361.07654
387.0 0.002584 360.57907 360.99323
346.0 0.002890 360.51886 360.91183
328.0 0.003049 360.45850 360.83194
362.0 0.002762 360.39804 360.75485
358.0 0.002793 360.33743 360.67770
368.0 0.002717 360.27670 360.60303
381.0 0.002625 360.21582 360.52802
352.0 0.002841 360.15482 360.45389
376.0 0.002660 360.09366 360.38058
356.0 0.002809 360.03238 360.30795
362.0 0.002762 359.97098 360.23593
327.0 0.003058 359.90942 360.16443
348.0 0.002874 359.84775 360.09351
360.0 0.002778 359.78589 360.02371
379.0 0.002639 359.72394 359.95367
362.0 0.002762 359.66180 359.88391
368.0 0.002717 359.59958 359.81451
362.0 0.002762 359.53717 359.69122
350.0 0.002857 359.47464 359.62372
344.0 0.002907 359.41196 359.55652
350.0 0.002857 359.34912 359.48950
335.0 0.002985 359.28616 359.42261
360.0 0.002778 359.22305 359.35577
365.0 0.002740 359.15979 359.28915
348.0 0.002874 359.09641 359.19791
314.0 0.003185 359.03284 359.12952
370.0 0.002703 358.96915 359.06378
328.0 0.003049 358.90530 358.99820
374.0 0.002674 358.84131 358.93259
327.0 0.003058 358.77719 358.86694
308.0 0.003247 358.71286 358.80148
353.0 0.002833 358.64844 358.73602
356.0 0.002809 358.58383 358.67059
332.0 0.003012 358.51910 358.60526
362.0 0.002762 358.45422 358.53989
348.0 0.002874 358.38916 358.47473
330.0 0.003030 358.32397 358.40961
356.0 0.002809 358.25861 358.34460
342.0 0.002924 358.19312 358.27979
325.0 0.003077 358.12744 358.21506
373.0 0.002681 358.06161 358.15063
335.0 0.002985 357.99567 358.08658
358.0 0.002793 357.92953 357.99371
382.0 0.002618 357.86325 357.93173
360.0 0.002778 357.79681 357.87128
359.0 0.002786 357.73019 357.81339
361.0 0.002770 357.66345 357.75989
330.0 0.003030 357.59656 357.71350
326.0 0.003067 357.52945 357.67755
335.0 0.002985 357.46225 357.64066
363.0 0.002755 357.39484 357.63504
337.0 0.002967 357.32730 357.64532
365.0 0.002740 357.25958 357.66733
371.0 0.002695 357.19168 357.69238
360.0 0.002778 357.12366 357.70724
341.0 0.002933 357.05545 357.69656
348.0 0.002874 356.98712 357.65060
360.0 0.002778 356.91858 357.57306
347.0 0.002882 356.84988 357.48053
365.0 0.002740 356.78104 357.39294
379.0 0.002639 356.71204 357.32785
343.0 0.002915 356.64285 357.29941
363.0 0.002755 356.57349 357.31909
358.0 0.002793 356.50400 357.39764
332.0 0.003012 356.43433 357.54599
361.0 0.002770 356.36447 357.77414
339.0 0.002950 356.29446 358.08154
320.0 0.003125 356.22427 358.44666
313.0 0.003195 356.15393 358.83591
386.0 0.002591 356.08344 359.14682
341.0 0.002933 356.01276 359.31293
379.0 0.002639 355.94189 359.28931
367.0 0.002725 355.87088 359.10904
348.0 0.002874 355.79968 358.86414
382.0 0.002618 355.72833 358.64954
336.0 0.002976 355.65680 358.52536
354.0 0.002825 355.58511 358.51114
381.0 0.002625 355.51324 358.55603
346.0 0.002890 355.44119 358.59634
353.0 0.002833 355.36899 358.55899
365.0 0.002740 355.29657 358.42523
371.0 0.002695 355.22403 358.13455
370.0 0.002703 355.15128 357.74582
332.0 0.003012 355.07837 357.32443
372.0 0.002688 355.00528 356.92505
355.0 0.002817 354.93204 356.58862
390.0 0.002564 354.85861 356.32462
332.0 0.003012 354.78497 356.11676
359.0 0.002786 354.71121 355.93326
376.0 0.002660 354.63727 355.75714
390.0 0.002564 354.56311 355.54858
374.0 0.002674 354.48880 355.32877
338.0 0.002959 354.41428 355.10815
348.0 0.002874 354.33963 354.90121
342.0 0.002924 354.26477 354.71609
349.0 0.002865 354.18973 354.55612
410.0 0.002439 354.11453 354.42026
337.0 0.002967 354.03915 354.30429
357.0 0.002801 353.96356 354.20325
379.0 0.002639 353.88782 354.11243
350.0 0.002857 353.81189 354.02811
376.0 0.002660 353.73578 353.94785
341.0 0.002933 353.65948 353.87000
360.0 0.002778 353.58301 353.79370
369.0 0.002710 353.50635 353.71872
365.0 0.002740 353.42950 353.64450
380.0 0.002632 353.35248 353.57117
334.0 0.002994 353.27527 353.49854
360.0 0.002778 353.19785 353.42670
360.0 0.002778 353.12027 353.35559
339.0 0.002950 353.04248 353.28525
349.0 0.002865 352.96454 353.21564
349.0 0.002865 352.88638 353.14691
362.0 0.002762 352.80804 353.07913
351.0 0.002849 352.72952 353.01230
375.0 0.002667 352.65079 352.94666
292.0 0.003425 352.57190 352.88220
326.0 0.003067 352.49280 352.81912
309.0 0.003236 352.41351 352.75769
341.0 0.002933 352.33405 352.69806
351.0 0.002849 352.25436 352.64038
337.0 0.002967 352.17450 352.58511
338.0 0.002959 352.09445 352.53265
343.0 0.002915 352.01419 352.48343
332.0 0.003012 351.93375 352.43799
359.0 0.002786 351.85312 352.39713
349.0 0.002865 351.77228 352.36191
342.0 0.002924 351.69122 352.33337
362.0 0.002762 351.61002 352.31415
373.0 0.002681 351.52856 352.30801
357.0 0.002801 351.44696 352.32224
343.0 0.002915 351.36511 352.37195
373.0 0.002681 351.28308 352.47955
327.0 0.003058 351.20087 352.68799
362.0 0.002762 351.11841 353.06055
363.0 0.002755 351.03580 353.68292
321.0 0.003115 350.95297 354.65240
309.0 0.003236 350.86990 356.05573
364.0 0.002747 350.78665 357.93228
383.0 0.002611 350.70322 360.23569
354.0 0.002825 350.61954 362.80249
380.0 0.002632 350.53571 365.34067
352.0 0.002841 350.45160 367.45035
378.0 0.002646 350.36734 368.72214
372.0 0.002688 350.28284 368.96851
417.0 0.002398 350.19815 368.41394
403.0 0.002481 350.11322 367.58823
356.0 0.002809 350.02808 367.07498
369.0 0.002710 349.94278 367.32968
367.0 0.002725 349.85721 368.61841
354.0 0.002825 349.77145 370.97922
381.0 0.002625 349.68542 374.22101
376.0 0.002660 349.59924 378.00256
428.0 0.002336 349.51282 381.90842
402.0 0.002488 349.42621 385.41690
398.0 0.002513 349.33932 387.85773
422.0 0.002370 349.25223 388.57565
398.0 0.002513 349.16495 387.36661
410.0 0.002439 349.07739 384.68439
375.0 0.002667 348.98965 381.35562
360.0 0.002778 348.90167 378.14722
393.0 0.002545 348.81348 375.52203
369.0 0.002710 348.72504 373.55002
381.0 0.002625 348.63638 371.94662
362.0 0.002762 348.54752 370.23965
369.0 0.002710 348.45837 368.06839
353.0 0.002833 348.36905 365.38968
377.0 0.002653 348.27945 362.43396
365.0 0.002740 348.18961 359.45184
351.0 0.002849 348.09958 356.73969
382.0 0.002618 348.00928 354.42236
331.0 0.003021 347.91879 352.58743
361.0 0.002770 347.82800 351.21561
357.0 0.002801 347.73697 350.23492
330.0 0.003030 347.64575 349.55096
352.0 0.002841 347.55426 349.08313
315.0 0.003175 347.46255 348.73837
348.0 0.002874 347.37054 348.48508
348.0 0.002874 347.27832 348.31024
363.0 0.002755 347.18588 348.12637
379.0 0.002639 347.09314 347.96088
362.0 0.002762 347.00021 347.80807
336.0 0.002976 346.90698 347.66449
335.0 0.002985 346.81351 347.52811
343.0 0.002915 346.71979 347.39786
393.0 0.002545 346.62579 347.27258
319.0 0.003135 346.53159 347.15179
363.0 0.002755 346.43710 347.05478
342.0 0.002924 346.34232 346.94183
375.0 0.002667 346.24734 346.83209
339.0 0.002950 346.15204 346.72528
343.0 0.002915 346.05655 346.62161
325.0 0.003077 345.96072 346.52103
325.0 0.003077 345.86465 346.42444
338.0 0.002959 345.76834 346.33331
330.0 0.003030 345.67175 346.25021
323.0 0.003096 345.57489 346.17996
323.0 0.003096 345.47775 346.12958
336.0 0.002976 345.38031 346.10837
331.0 0.003021 345.28265 346.12698
328.0 0.003049 345.18469 346.19467
361.0 0.002770 345.08649 346.31567
359.0 0.002786 344.98795 346.48480
365.0 0.002740 344.88919 346.68451
347.0 0.002882 344.79010 346.88290
337.0 0.002967 344.69073 347.03613
360.0 0.002778 344.59113 347.09662
322.0 0.003106 344.49118 347.03601
352.0 0.002841 344.39099 346.86642
350.0 0.002857 344.29050 346.63345
354.0 0.002825 344.18973 346.38791
329.0 0.003040 344.08862 346.16559
355.0 0.002817 343.98727 345.98065
332.0 0.003012 343.88562 345.82547
340.0 0.002941 343.78363 345.67691
359.0 0.002786 343.68140 345.50903
330.0 0.003030 343.57886 345.31232
297.0 0.003367 343.47601 345.09158
361.0 0.002770 343.37286 344.86566
349.0 0.002865 343.26941 344.63757
346.0 0.002890 343.16565 344.44910
324.0 0.003086 343.06161 344.29291
347.0 0.002882 342.95724 344.17084
316.0 0.003165 342.85254 344.08167
326.0 0.003067 342.74759 344.02200
351.0 0.002849 342.64227 343.98947
337.0 0.002967 342.53668 343.98117
360.0 0.002778 342.43076 343.99234
370.0 0.002703 342.32452 344.04483
350.0 0.002857 342.21799 344.14639
337.0 0.002967 342.11111 344.32730
290.0 0.003448 342.00394 344.64078
357.0 0.002801 341.89642 345.14795
347.0 0.002882 341.78857 346.03433
346.0 0.002890 341.68045 347.45908
352.0 0.002841 341.57196 349.61194
407.0 0.002457 341.46320 352.70105
361.0 0.002770 341.35406 356.85657
347.0 0.002882 341.24460 362.06845
347.0 0.002882 341.13483 368.11612
344.0 0.002907 341.02472 374.42584
351.0 0.002849 340.91431 380.30756
385.0 0.002597 340.80350 384.89725
375.0 0.002667 340.69238 387.57013
363.0 0.002755 340.58096 388.25699
375.0 0.002667 340.46918 387.54803
376.0 0.002660 340.35709 386.49994
361.0 0.002770 340.24460 386.22202
388.0 0.002577 340.13181 387.45242
372.0 0.002688 340.01871 390.36044
366.0 0.002732 339.90521 394.49130
468.0 0.002137 339.79141 398.89816
438.0 0.002283 339.67722 402.39911
437.0 0.002288 339.56271 403.84354
389.0 0.002571 339.44788 402.47195
470.0 0.002128 339.33267 398.33923
457.0 0.002188 339.21713 392.38641
410.0 0.002439 339.10123 385.92441
418.0 0.002392 338.98499 380.05334
386.0 0.002591 338.86841 375.37973
410.0 0.002439 338.75143 371.97049
363.0 0.002755 338.63419 369.43234
427.0 0.002342 338.51651 367.09921
371.0 0.002695 338.39850 364.38055
389.0 0.002571 338.28015 361.07581
389.0 0.002571 338.16144 357.36990
373.0 0.002681 338.04239 353.60458
351.0 0.002849 337.92297 350.09195
355.0 0.002817 337.80319 347.05142
379.0 0.002639 337.68304 344.58911
331.0 0.003021 337.56259 342.70718
331.0 0.003021 337.44171 341.33459
343.0 0.002915 337.32050 340.36227
347.0 0.002882 337.19894 339.67770
327.0 0.003058 337.07700 339.18491
374.0 0.002674 336.95474 338.81314
365.0 0.002740 336.83206 338.51544
335.0 0.002985 336.70908 338.26364
369.0 0.002710 336.58569 338.04199
369.0 0.002710 336.46201 337.84268
316.0 0.003165 336.33789 337.66296
319.0 0.003135 336.21341 337.50357
352.0 0.002841 336.08862 337.36649
324.0 0.003086 335.96344 337.26126
319.0 0.003135 335.83792 337.19415
343.0 0.002915 335.71201 337.17236
355.0 0.002817 335.58578 337.20020
293.0 0.003413 335.45914 337.32132
320.0 0.003125 335.33215 337.43411
367.0 0.002725 335.20480 337.56097
349.0 0.002865 335.07709 337.66821
316.0 0.003165 334.94907 337.71814
353.0 0.002833 334.82062 337.67770
315.0 0.003175 334.69183 337.54160
296.0 0.003378 334.56271 337.33783
329.0 0.003040 334.43320 337.10974
366.0 0.002732 334.30334 336.91885
350.0 0.002857 334.17313 336.74338
354.0 0.002825 334.04251 336.61276
343.0 0.002915 333.91162 336.51987
319.0 0.003135 333.78030 336.45193
368.0 0.002717 333.64871 336.40637
349.0 0.002865 333.51669 336.40884
356.0 0.002809 333.38431 336.52179
326.0 0.003067 333.25165 336.84595
318.0 0.003145 333.11859 337.52097
325.0 0.003077 332.98520 338.72043
345.0 0.002899 332.85144 340.63403
373.0 0.002681 332.71732 343.42526
351.0 0.002849 332.58289 347.17191
321.0 0.003115 332.44809 351.80219
368.0 0.002717 332.31299 357.03598
406.0 0.002463 332.17749 362.36514
423.0 0.002364 332.04166 367.06186
403.0 0.002481 331.90552 370.29526
440.0 0.002273 331.76901 371.45059
416.0 0.002404 331.63220 370.53674
385.0 0.002597 331.49500 368.23990
384.0 0.002604 331.35748 365.49936
400.0 0.002500 331.21970 363.17407
372.0 0.002688 331.08148 361.70200
377.0 0.002653 330.94302 361.21088
380.0 0.002632 330.80420 361.39120
377.0 0.002653 330.66504 361.69855
430.0 0.002326 330.52560 361.58530
385.0 0.002597 330.38577 360.71967
390.0 0.002564 330.24570 359.01099
397.0 0.002519 330.10529 356.53119
391.0 0.002558 329.96457 353.45230
401.0 0.002494 329.82352 350.14746
359.0 0.002786 329.68213 346.96649
346.0 0.002890 329.54050 344.29099
340.0 0.002941 329.39853 342.21463
384.0 0.002604 329.25629 340.71524
328.0 0.003049 329.11371 339.63538
316.0 0.003165 328.97089 338.74762
332.0 0.003012 328.82773 337.83139
338.0 0.002959 328.68430 336.76779
346.0 0.002890 328.54056 335.54797
332.0 0.003012 328.39651 334.29675
312.0 0.003205 328.25226 333.08789
360.0 0.002778 328.10770 331.99619
333.0 0.003003 327.96286 331.06577
324.0 0.003086 327.81775 330.31067
360.0 0.002778 327.67239 329.72003
336.0 0.002976 327.52670 329.26688
316.0 0.003165 327.38083 328.91916
322.0 0.003106 327.23465 328.64651
314.0 0.003185 327.08820 328.42456
344.0 0.002907 326.94156 328.23657
300.0 0.003333 326.79462 328.07156
315.0 0.003175 326.64749 327.92319
302.0 0.003311 326.50006 327.78833
311.0 0.003215 326.35242 327.66556
316.0 0.003165 326.20456 327.55481
332.0 0.003012 326.05646 327.45651
328.0 0.003049 325.90817 327.37180
320.0 0.003125 325.75961 327.30234
296.0 0.003378 325.61084 327.25110
306.0 0.003268 325.46188 327.22229
320.0 0.003125 325.31268 327.22354
308.0 0.003247 325.16336 327.26846
310.0 0.003226 325.01373 327.38257
316.0 0.003165 324.86395 327.61179
336.0 0.002976 324.71405 328.03546
329.0 0.003040 324.56387 328.78201
345.0 0.002899 324.41357 330.04095
325.0 0.003077 324.26306 332.06470
320.0 0.003125 324.11237 335.14313
356.0 0.002809 323.96158 339.55447
277.0 0.00361 323.81055 345.48199
362.0 0.002762 323.65942 352.86588
347.0 0.002882 323.50809 361.38248
344.0 0.002907 323.35663 370.33426
372.0 0.002688 323.20508 378.66199
380.0 0.002632 323.05331 385.05328
339.0 0.002950 322.90149 388.29102
365.0 0.002740 322.74948 387.90820
406.0 0.002463 322.59738 384.55234
357.0 0.002801 322.44519 379.60312
350.0 0.002857 322.29285 374.42783
356.0 0.002809 322.14044 369.98196
328.0 0.003049 321.98788 366.64078
327.0 0.003058 321.83527 364.21613
316.0 0.003165 321.68259 362.07532
337.0 0.002967 321.52975 359.44116
341.0 0.002933 321.37692 355.82990
336.0 0.002976 321.22397 351.28473
318.0 0.003145 321.07095 346.22247
337.0 0.002967 320.91794 341.13992
326.0 0.003067 320.76480 336.44492
320.0 0.003125 320.61169 332.40955
308.0 0.003247 320.45847 329.15311
332.0 0.003012 320.30527 326.66830
310.0 0.003226 320.15201 324.85657
320.0 0.003125 319.99875 323.57480
308.0 0.003247 319.84543 322.67755
325.0 0.003077 319.69211 322.04044
333.0 0.003003 319.53885 321.57166
337.0 0.002967 319.38550 321.21078
336.0 0.002976 319.23224 320.92383
342.0 0.002924 319.07895 320.69653
320.0 0.003125 318.92572 320.52966
334.0 0.002994 318.77246 320.43491
325.0 0.003077 318.61929 320.43152
322.0 0.003106 318.46613 320.55865
321.0 0.003115 318.31302 320.80035
308.0 0.003247 318.15997 321.18048
328.0 0.003049 318.00699 321.68005
351.0 0.002849 317.85410 322.25687
330.0 0.003030 317.70123 322.83725
316.0 0.003165 317.54849 323.31903
284.0 0.00352 317.39578 323.58948
328.0 0.003049 317.24319 323.55325
318.0 0.003145 317.09073 323.24457
313.0 0.003195 316.93832 322.72049
324.0 0.003086 316.78610 322.08350
353.0 0.002833 316.63394 321.49573
335.0 0.002985 316.48193 320.99075
307.0 0.003257 316.33008 320.58273
325.0 0.003077 316.17831 320.24078
269.0 0.00372 316.02676 319.90375
321.0 0.003115 315.87534 319.50912
320.0 0.003125 315.72403 319.02847
323.0 0.003096 315.57297 318.47702
340.0 0.002941 315.42203 317.88885
311.0 0.003215 315.27133 317.31436
323.0 0.003096 315.12076 316.78064
336.0 0.002976 314.97040 316.30774
286.0 0.003497 314.82028 315.90335
312.0 0.003205 314.67035 315.56482
294.0 0.003401 314.52066 315.28296
330.0 0.003030 314.37115 315.04553
321.0 0.003115 314.22186 314.84042
325.0 0.003077 314.07291 314.65781
279.0 0.00358 313.92410 314.49020
346.0 0.002890 313.77560 314.33289
305.0 0.003279 313.62732 314.18295
310.0 0.003226 313.47934 314.03900
312.0 0.003205 313.33163 313.90042
302.0 0.003311 313.18420 313.76715
316.0 0.003165 313.03708 313.63986
328.0 0.003049 312.89020 313.51968
287.0 0.003484 312.74362 313.40915
317.0 0.003155 312.59744 313.31277
294.0 0.003401 312.45148 313.23843
304.0 0.003289 312.30591 313.20071
325.0 0.003077 312.16061 313.22266
294.0 0.003401 312.01566 313.33884
328.0 0.003049 311.87109 313.59714
280.0 0.00357 311.72684 314.05548
302.0 0.003311 311.58298 314.77325
330.0 0.003030 311.43942 315.79776
353.0 0.002833 311.29630 317.14273
294.0 0.003401 311.15350 318.76929
316.0 0.003165 311.01108 320.57236
314.0 0.003185 310.86911 322.37158
307.0 0.003257 310.72748 323.92163
316.0 0.003165 310.58630 324.94702
335.0 0.002985 310.44547 325.24271
343.0 0.002915 310.30511 324.79807
314.0 0.003185 310.16516 323.81546
301.0 0.003322 310.02563 322.59323
331.0 0.003021 309.88654 321.39612
345.0 0.002899 309.74783 320.39105
311.0 0.003215 309.60968 319.58292
325.0 0.003077 309.47189 319.00461
303.0 0.003300 309.33463 318.46823
331.0 0.003021 309.19778 317.81427
314.0 0.003185 309.06146 316.95035
325.0 0.003077 308.92557 315.89093
300.0 0.003333 308.79019 314.72400
329.0 0.003040 308.65527 313.55209
331.0 0.003021 308.52084 312.46155
313.0 0.003195 308.38696 311.48856
323.0 0.003096 308.25357 310.70709
318.0 0.003145 308.12070 310.09702
295.0 0.003390 307.98831 309.64246
343.0 0.002915 307.85645 309.31961
314.0 0.003185 307.72516 309.10635
351.0 0.002849 307.59439 308.99036
312.0 0.003205 307.46417 308.97534
301.0 0.003322 307.33444 309.08627
351.0 0.002849 307.20529 309.37238
331.0 0.003021 307.07675 309.90665
298.0 0.003356 306.94873 310.78036
313.0 0.003195 306.82129 312.08759
341.0 0.002933 306.69440 313.90167
300.0 0.003333 306.56805 316.24271
318.0 0.003145 306.44238 319.04599
334.0 0.002994 306.31723 322.14124
369.0 0.002710 306.19272 325.23798
336.0 0.002976 306.06876 327.94116
400.0 0.002500 305.94537 329.80820
337.0 0.002967 305.82266 330.50537
338.0 0.002959 305.70053 329.99506
420.0 0.002381 305.57904 328.56934
331.0 0.003021 305.45813 326.68631
332.0 0.003012 305.33780 324.77826
323.0 0.003096 305.21820 323.13959
329.0 0.003040 305.09915 321.88324
327.0 0.003058 304.98077 320.94427
340.0 0.002941 304.86304 320.11203
330.0 0.003030 304.74588 319.13962
296.0 0.003378 304.62946 317.84952
296.0 0.003378 304.51364 316.22745
318.0 0.003145 304.39850 314.38785
276.0 0.00362 304.28397 312.48923
328.0 0.003049 304.17010 310.67871
312.0 0.003205 304.05695 309.06430
305.0 0.003279 303.94440 307.70544
300.0 0.003333 303.83258 306.61606
316.0 0.003165 303.72137 305.77994
298.0 0.003356 303.61087 305.15421
284.0 0.00352 303.50104 304.69037
303.0 0.003300 303.39188 304.34210
306.0 0.003268 303.28342 304.07205
336.0 0.002976 303.17563 303.85223
290.0 0.003448 303.06854 303.66418
303.0 0.003300 302.96213 303.49609
311.0 0.003215 302.85641 303.34097
316.0 0.003165 302.75137 303.19482
310.0 0.003226 302.64700 303.05518
330.0 0.003030 302.54340 302.92087
288.0 0.003472 302.44043 302.79083
297.0 0.003367 302.33823 302.66464
304.0 0.003289 302.23666 302.54175
295.0 0.003390 302.13583 302.42181
313.0 0.003195 302.03571 302.30466
311.0 0.003215 301.93628 302.19016
306.0 0.003268 301.83755 302.07837
298.0 0.003356 301.73953 301.96924
305.0 0.003279 301.64221 301.86292
306.0 0.003268 301.54559 301.75961
280.0 0.00357 301.44974 301.66553
285.0 0.00351 301.35455 301.56863
285.0 0.00351 301.26010 301.47473
321.0 0.003115 301.16632 301.38315
286.0 0.003497 301.07324 301.29315
303.0 0.003300 300.98093 301.20337
320.0 0.003125 300.88928 301.11252
309.0 0.003236 300.79840 301.01935
297.0 0.003367 300.70819 300.92319
294.0 0.003401 300.61865 300.82718
312.0 0.003205 300.52988 300.72897
320.0 0.003125 300.44180 300.63058
302.0 0.003311 300.35446 300.53394
317.0 0.003155 300.26779 300.43945
313.0 0.003195 300.18182 300.33649
257.0 0.00389 300.09659 300.24609
271.0 0.00369 300.01205 300.15628
279.0 0.00358 299.92822 300.06659
286.0 0.003497 299.84509 299.97662
315.0 0.003175 299.76263 299.88660
288.0 0.003472 299.68094 299.79703
307.0 0.003257 299.59988 299.70837
308.0 0.003247 299.51956 299.62100
250.0 0.00400 299.43991 299.52991
323.0 0.003096 299.36096 299.44589
308.0 0.003247 299.28271 299.36356
304.0 0.003289 299.20514 299.28268
311.0 0.003215 299.12827 299.20325
318.0 0.003145 299.05206 299.12500
287.0 0.003484 298.97653 299.04788
279.0 0.00358 298.90173 298.97168
304.0 0.003289 298.82755 298.89639
252.0 0.00397 298.75409 298.82199
322.0 0.003106 298.68127 298.74838
287.0 0.003484 298.60913 298.67557
280.0 0.00357 298.53769 298.60355
291.0 0.003436 298.46686 298.53223
287.0 0.003484 298.39673 298.46179
292.0 0.003425 298.32721 298.39203
324.0 0.003086 298.25839 298.32303
291.0 0.003436 298.19022 298.25485
324.0 0.003086 298.12265 298.18738
299.0 0.003344 298.05579 298.12064
305.0 0.003279 297.98950 298.05466
332.0 0.003012 297.92389 297.98944
318.0 0.003145 297.85889 297.92496
269.0 0.00372 297.79453 297.86127
294.0 0.003401 297.73080 297.79825
328.0 0.003049 297.66766 297.73608
302.0 0.003311 297.60516 297.65778
264.0 0.00379 297.54327 297.59750
292.0 0.003425 297.48199 297.53644
310.0 0.003226 297.42130 297.47781
301.0 0.003322 297.36124 297.41986
274.0 0.00365 297.30170 297.36267
298.0 0.003356 297.24280 297.30630
295.0 0.003390 297.18448 297.25089
311.0 0.003215 297.12674 297.19626
290.0 0.003448 297.06958 297.13416
280.0 0.00357 297.01297 297.08145
295.0 0.003390 296.95694 297.02908
296.0 0.003378 296.90146 296.97845
313.0 0.003195 296.84656 296.92889
318.0 0.003145 296.79218 296.88046
287.0 0.003484 296.73834 296.83319
325.0 0.003077 296.68506 296.78726
288.0 0.003472 296.63226 296.74277
323.0 0.003096 296.58005 296.69980
297.0 0.003367 296.52832 296.65869
294.0 0.003401 296.47711 296.61954
327.0 0.003058 296.42645 296.58289
325.0 0.003077 296.37625 296.54926
292.0 0.003425 296.32657 296.51971
310.0 0.003226 296.27737 296.49619
310.0 0.003226 296.22867 296.48184
285.0 0.00351 296.18045 296.48224
310.0 0.003226 296.13269 296.50635
321.0 0.003115 296.08542 296.56754
283.0 0.00353 296.03860 296.68448
322.0 0.003106 295.99222 296.88092
282.0 0.00355 295.94632 297.18307
306.0 0.003268 295.90085 297.61545
328.0 0.003049 295.85583 298.19360
304.0 0.003289 295.81122 298.91641
297.0 0.003367 295.76706 299.75839
304.0 0.003289 295.72333 300.66473
297.0 0.003367 295.67996 301.55072
292.0 0.003425 295.63705 302.30478
332.0 0.003012 295.59451 302.80792
317.0 0.003155 295.55237 302.97394
314.0 0.003185 295.51062 302.79721
319.0 0.003135 295.46924 302.36087
280.0 0.00357 295.42825 301.79388
307.0 0.003257 295.38763 301.21780
275.0 0.00364 295.34735 300.71780
338.0 0.002959 295.30746 300.33197
319.0 0.003135 295.26788 300.05081
289.0 0.003460 295.22867 299.82520
317.0 0.003155 295.18979 299.58347
291.0 0.003436 295.15121 299.26309
314.0 0.003185 295.11301 298.83997
280.0 0.00357 295.07507 298.33231
324.0 0.003086 295.03748 297.78201
309.0 0.003236 295.00015 297.23383
290.0 0.003448 294.96313 296.72366
311.0 0.003215 294.92642 296.27649
263.0 0.00380 294.88995 295.90384
299.0 0.003344 294.85379 295.60675
284.0 0.00352 294.81790 295.37775
355.0 0.002817 294.78229 295.20480
303.0 0.003300 294.74689 295.07462
307.0 0.003257 294.71176 294.97498
279.0 0.00358 294.67685 294.89600
336.0 0.002976 294.64221 294.83054
286.0 0.003497 294.60779 294.77359
296.0 0.003378 294.57358 294.72208
272.0 0.00368 294.53958 294.67615
296.0 0.003378 294.50580 294.63068
276.0 0.00362 294.47226 294.58719
327.0 0.003058 294.43887 294.54517
310.0 0.003226 294.40570 294.50433
286.0 0.003497 294.37268 294.46454
286.0 0.003497 294.33984 294.42557
295.0 0.003390 294.30719 294.38751
302.0 0.003311 294.27469 294.35010
309.0 0.003236 294.24237 294.31335
253.0 0.00395 294.21021 294.27716
292.0 0.003425 294.17816 294.24252
280.0 0.00357 294.14627 294.20721
279.0 0.00358 294.11450 294.17245
279.0 0.00358 294.08289 294.13806
294.0 0.003401 294.05136 294.10403
298.0 0.003356 294.01996 294.07034
297.0 0.003367 293.98865 294.03687
311.0 0.003215 293.95746 294.00375
285.0 0.00351 293.92639 293.97079
274.0 0.00365 293.89539 293.93823
262.0 0.00382 293.86447 293.90576
260.0 0.00385 293.83362 293.87354
284.0 0.00352 293.80286 293.84143
305.0 0.003279 293.77219 293.80954
312.0 0.003205 293.74155 293.77789
312.0 0.003205 293.71097 293.74625
273.0 0.00366 293.68045 293.71478
274.0 0.00365 293.64996 293.68347
268.0 0.00373 293.61951 293.65225
297.0 0.003367 293.58911 293.62106
286.0 0.003497 293.55875 293.59003
269.0 0.00372 293.52838 293.55914
313.0 0.003195 293.49805 293.52826
331.0 0.003021 293.46771 293.49741
279.0 0.00358 293.43741 293.46671
305.0 0.003279 293.40710 293.43600
295.0 0.003390 293.37677 293.40546
269.0 0.00372 293.34647 293.37479
294.0 0.003401 293.31610 293.34433
278.0 0.00360 293.28574 293.31378
306.0 0.003268 293.25537 293.28339
288.0 0.003472 293.22498 293.25290
294.0 0.003401 293.19455 293.22250
306.0 0.003268 293.16409 293.19205
277.0 0.00361 293.13354 293.17096
282.0 0.00355 293.10300 293.14081
315.0 0.003175 293.07239 293.11060
280.0 0.00357 293.04172 293.08047
310.0 0.003226 293.01102 293.05042
283.0 0.00353 292.98019 293.02048
314.0 0.003185 292.94937 292.99039
277.0 0.00361 292.91843 292.96039
274.0 0.00365 292.88745 292.93048
327.0 0.003058 292.85635 292.90051
265.0 0.00377 292.82516 292.87524
251.0 0.00398 292.79391 292.84558
275.0 0.00364 292.76257 292.81595
254.0 0.00394 292.73114 292.78650
293.0 0.003413 292.69962 292.75735
299.0 0.003344 292.66797 292.72833
283.0 0.00353 292.63620 292.69986
278.0 0.00360 292.60434 292.66757
285.0 0.00351 292.57239 292.63940
312.0 0.003205 292.54028 292.61441
276.0 0.00362 292.50806 292.59177
281.0 0.00356 292.47574 292.57236
280.0 0.00357 292.44327 292.56177
273.0 0.00366 292.41064 292.55167
309.0 0.003236 292.37793 292.54727
312.0 0.003205 292.34506 292.55240
269.0 0.00372 292.31207 292.55838
287.0 0.003484 292.27890 292.56461
288.0 0.003472 292.24561 292.57458
268.0 0.00373 292.21216 292.58237
272.0 0.00368 292.17856 292.58560
304.0 0.003289 292.14481 292.58356
321.0 0.003115 292.11090 292.58176
305.0 0.003279 292.07681 292.58313
309.0 0.003236 292.04260 292.60049
247.0 0.00405 292.00818 292.64731
292.0 0.003425 291.97363 292.72919
286.0 0.003497 291.93887 292.85501
323.0 0.003096 291.90396 293.02603
273.0 0.00366 291.86887 293.23602
324.0 0.003086 291.83362 293.47046
296.0 0.003378 291.79819 293.70651
306.0 0.003268 291.76254 293.91501
296.0 0.003378 291.72672 294.06314
280.0 0.00357 291.69073 294.12308
245.0 0.00408 291.65454 294.08331
285.0 0.00351 291.61816 293.95737
286.0 0.003497 291.58157 293.77704
265.0 0.00377 291.54480 293.57944
294.0 0.003401 291.50784 293.39429
319.0 0.003135 291.47067 293.23996
307.0 0.003257 291.43332 293.12149
284.0 0.00352 291.39572 293.03125
323.0 0.003096 291.35794 292.95169
319.0 0.003135 291.31998 292.86130
297.0 0.003367 291.28177 292.74332
278.0 0.00360 291.24338 292.59235
324.0 0.003086 291.20474 292.41568
291.0 0.003436 291.16592 292.22635
316.0 0.003165 291.12686 292.03812
303.0 0.003300 291.08762 291.86133
290.0 0.003448 291.04813 291.70361
315.0 0.003175 291.00839 291.56796
294.0 0.003401 290.96848 291.45441
303.0 0.003300 290.92831 291.36069
313.0 0.003195 290.88794 291.28354
293.0 0.003413 290.84735 291.21930
301.0 0.003322 290.80649 291.16528
312.0 0.003205 290.76541 291.11972
294.0 0.003401 290.72412 291.08124
313.0 0.003195 290.68259 291.04935
289.0 0.003460 290.64081 291.02487
290.0 0.003448 290.59879 291.00900
287.0 0.003484 290.55655 291.00531
311.0 0.003215 290.51404 291.01938
299.0 0.003344 290.47131 291.06076
313.0 0.003195 290.42834 291.14383
294.0 0.003401 290.38510 291.28885
304.0 0.003289 290.34164 291.52203
271.0 0.00369 290.29791 291.87369
314.0 0.003185 290.25394 292.37521
269.0 0.00372 290.20972 293.05060
302.0 0.003311 290.16525 293.91037
295.0 0.003390 290.12051 294.94165
308.0 0.003247 290.07553 296.10104
308.0 0.003247 290.03024 297.31213
324.0 0.003086 289.98474 298.46350
290.0 0.003448 289.93900 299.41827
310.0 0.003226 289.89294 300.03616
323.0 0.003096 289.84665 300.22321
297.0 0.003367 289.80005 299.98907
336.0 0.002976 289.75323 299.42667
291.0 0.003436 289.70612 298.69708
272.0 0.00368 289.65872 297.94989
297.0 0.003367 289.61108 297.29504
300.0 0.003333 289.56311 296.79074
288.0 0.003472 289.51492 296.44321
290.0 0.003448 289.46643 296.21173
336.0 0.002976 289.41763 296.03214
302.0 0.003311 289.36859 295.81464
284.0 0.00352 289.31924 295.53217
280.0 0.00357 289.26959 295.19135
290.0 0.003448 289.21967 294.85309
290.0 0.003448 289.16943 294.59808
269.0 0.00372 289.11893 294.49734
296.0 0.003378 289.06812 294.59952
276.0 0.00362 289.01700 294.92270
286.0 0.003497 288.96558 295.44824
311.0 0.003215 288.91385 296.11859
324.0 0.003086 288.86185 296.84473
351.0 0.002849 288.80951 297.50333
334.0 0.002994 288.75687 297.98776
334.0 0.002994 288.70389 298.21341
312.0 0.003205 288.65060 298.15649
310.0 0.003226 288.59702 297.84091
297.0 0.003367 288.54309 297.33392
298.0 0.003356 288.48886 296.73080
300.0 0.003333 288.43430 296.12720
331.0 0.003021 288.37936 295.59213
274.0 0.00365 288.32416 295.15430
313.0 0.003195 288.26859 294.80060
267.0 0.00375 288.21271 294.48904
297.0 0.003367 288.15646 294.16498
315.0 0.003175 288.09985 293.78220
266.0 0.00376 288.04294 293.31314
307.0 0.003257 287.98563 292.75403
332.0 0.003012 287.92801 292.12613
325.0 0.003077 287.87003 291.46802
309.0 0.003236 287.81165 290.82175
273.0 0.00366 287.75296 290.22253
305.0 0.003279 287.69388 289.69281
266.0 0.00376 287.63446 289.24384
318.0 0.003145 287.57462 288.87494
288.0 0.003472 287.51447 288.57822
283.0 0.00353 287.45386 288.33859
298.0 0.003356 287.39291 288.14532
296.0 0.003378 287.33160 287.98364
295.0 0.003390 287.26987 287.84375
315.0 0.003175 287.20776 287.71863
283.0 0.00353 287.14526 287.60440
289.0 0.003460 287.08237 287.49860
269.0 0.00372 287.01904 287.39944
274.0 0.00365 286.95532 287.30606
260.0 0.00385 286.89120 287.21774
307.0 0.003257 286.82666 287.13281
278.0 0.00360 286.76172 287.05341
277.0 0.00361 286.69632 286.97617
274.0 0.00365 286.63052 286.90143
270.0 0.00370 286.56430 286.82849
269.0 0.00372 286.49765 286.75699
271.0 0.00369 286.43057 286.68640
315.0 0.003175 286.36304 286.61682
279.0 0.00358 286.29504 286.54782
287.0 0.003484 286.22662 286.47961
271.0 0.00369 286.15778 286.41220
266.0 0.00376 286.08844 286.34579
291.0 0.003436 286.01868 286.28107
284.0 0.00352 285.94843 286.21768
293.0 0.003413 285.87769 286.15656
308.0 0.003247 285.80655 286.09845
282.0 0.00355 285.73489 286.04410
275.0 0.00364 285.66278 285.99399
292.0 0.003425 285.59015 285.94852
268.0 0.00373 285.51706 285.90756
287.0 0.003484 285.44348 285.87009
302.0 0.003311 285.36942 285.83499
295.0 0.003390 285.29486 285.79971
285.0 0.00351 285.21982 285.76160
299.0 0.003344 285.14423 285.71759
258.0 0.00388 285.06818 285.66547
292.0 0.003425 284.99158 285.60477
283.0 0.00353 284.91452 285.53751
286.0 0.003497 284.83688 285.46719
272.0 0.00368 284.75876 285.39774
277.0 0.00361 284.68011 285.33270
315.0 0.003175 284.60092 285.27512
247.0 0.00405 284.52124 285.22702
284.0 0.00352 284.44098 285.19409
305.0 0.003279 284.36020 285.16461
281.0 0.00356 284.27893 285.16516
272.0 0.00368 284.19705 285.19547
294.0 0.003401 284.11465 285.27008
337.0 0.002967 284.03171 285.40924
283.0 0.00353 283.94818 285.63779
303.0 0.003300 283.86417 285.98291
296.0 0.003378 283.77954 286.47018
281.0 0.00356 283.69440 287.11829
278.0 0.00360 283.60864 287.93488
266.0 0.00376 283.52234 288.91144
281.0 0.00356 283.43552 290.01877
279.0 0.00358 283.34805 291.22070
262.0 0.00382 283.26007 292.45660
290.0 0.003448 283.17151 293.66403
290.0 0.003448 283.08237 294.79529
301.0 0.003322 282.99265 295.84961
267.0 0.00375 282.90234 296.89105
311.0 0.003215 282.81149 298.02182
275.0 0.00364 282.72003 299.32974
301.0 0.003322 282.62802 300.83908
297.0 0.003367 282.53537 302.48672
334.0 0.002994 282.44220 304.11539
322.0 0.003106 282.34839 305.50653
319.0 0.003135 282.25400 306.40414
278.0 0.00360 282.15906 306.60510
313.0 0.003195 282.06351 306.04727
281.0 0.00356 281.96741 304.81561
301.0 0.003322 281.87067 303.12781
306.0 0.003268 281.77338 301.24966
283.0 0.00353 281.67548 299.42010
310.0 0.003226 281.57703 297.80209
258.0 0.00388 281.47794 296.46475
297.0 0.003367 281.37830 295.38507
277.0 0.00361 281.27808 294.47308
285.0 0.00351 281.17722 293.59531
281.0 0.00356 281.07584 292.63141
288.0 0.003472 280.97385 291.52020
297.0 0.003367 280.87134 290.26147
288.0 0.003472 280.76819 288.90732
292.0 0.003425 280.66446 287.53317
290.0 0.003448 280.56018 286.21237
272.0 0.00368 280.45532 285.00208
288.0 0.003472 280.34991 283.93985
293.0 0.003413 280.24390 283.04175
292.0 0.003425 280.13733 282.30634
293.0 0.003413 280.03024 281.72336
254.0 0.00394 279.92255 281.25964
268.0 0.00373 279.81436 280.89444
292.0 0.003425 279.70557 280.60272
304.0 0.003289 279.59622 280.36377
258.0 0.00388 279.48639 280.16104
271.0 0.00369 279.37598 279.98267
269.0 0.00372 279.26508 279.82068
272.0 0.00368 279.15359 279.67004
259.0 0.00386 279.04160 279.52771
292.0 0.003425 278.92914 279.39273
283.0 0.00353 278.81610 279.26758
272.0 0.00368 278.70261 279.14798
248.0 0.00403 278.58859 279.03836
264.0 0.00379 278.47406 278.94049
322.0 0.003106 278.35910 278.85687
290.0 0.003448 278.24359 278.78955
298.0 0.003356 278.12769 278.73898
284.0 0.00352 278.01123 278.70468
265.0 0.00377 277.89432 278.68353
261.0 0.00383 277.77701 278.66986
249.0 0.00402 277.65924 278.65524
299.0 0.003344 277.54105 278.62912
297.0 0.003367 277.42236 278.57941
316.0 0.003165 277.30328 278.49594
275.0 0.00364 277.18384 278.37408
255.0 0.00392 277.06393 278.21780
274.0 0.00365 276.94366 278.03796
259.0 0.00386 276.82297 277.84750
275.0 0.00364 276.70193 277.65826
289.0 0.003460 276.58054 277.47870
275.0 0.00364 276.45877 277.31274
275.0 0.00364 276.33667 277.16031
262.0 0.00382 276.21420 277.01767
279.0 0.00358 276.09143 276.87787
302.0 0.003311 275.96832 276.73422
299.0 0.003344 275.84491 276.58096
302.0 0.003311 275.72131 276.41678
293.0 0.003413 275.59723 276.24414
247.0 0.00405 275.47305 276.06824
297.0 0.003367 275.34848 275.89417
288.0 0.003472 275.22369 275.72775
272.0 0.00368 275.09879 275.57462
299.0 0.003344 274.97351 275.44009
264.0 0.00379 274.84808 275.33051
251.0 0.00398 274.72238 275.25308
262.0 0.00382 274.59653 275.21622
274.0 0.00365 274.47061 275.22891
275.0 0.00364 274.34439 275.29987
283.0 0.00353 274.21808 275.43561
238.0 0.00420 274.09155 275.63812
297.0 0.003367 273.96494 275.90228
315.0 0.003175 273.83835 276.21359
297.0 0.003367 273.71149 276.54822
296.0 0.003378 273.58463 276.87033
295.0 0.003390 273.45761 277.13675
286.0 0.003497 273.33054 277.29932
306.0 0.003268 273.20361 277.31979
299.0 0.003344 273.07642 277.18417
292.0 0.003425 272.94934 276.91272
278.0 0.00360 272.82214 276.55026
306.0 0.003268 272.69501 276.14972
286.0 0.003497 272.56802 275.75729
276.0 0.00362 272.44089 275.40372
277.0 0.00361 272.31393 275.10510
298.0 0.003356 272.18692 274.85971
278.0 0.00360 272.06003 274.65182
299.0 0.003344 271.93338 274.45471
300.0 0.003333 271.80664 274.23822
284.0 0.00352 271.68011 273.98044
269.0 0.00372 271.55362 273.67447
280.0 0.00357 271.42734 273.32935
287.0 0.003484 271.30133 272.96228
292.0 0.003425 271.17532 272.59048
254.0 0.00394 271.04962 272.22495
258.0 0.00388 270.92401 271.88861
310.0 0.003226 270.79865 271.58316
254.0 0.00394 270.67365 271.31174
242.0 0.00413 270.54874 271.07318
257.0 0.00389 270.42416 270.86490
260.0 0.00385 270.29971 270.68146
273.0 0.00366 270.17566 270.51852
257.0 0.00389 270.05197 270.36377
284.0 0.00352 269.92844 270.22864
283.0 0.00353 269.80533 270.09726
267.0 0.00375 269.68240 269.97726
279.0 0.00358 269.55994 269.86905
284.0 0.00352 269.43787 269.77158
278.0 0.00360 269.31601 269.68820
268.0 0.00373 269.19467 269.62564
261.0 0.00383 269.07358 269.59280
260.0 0.00385 268.95294 269.60175
276.0 0.00362 268.83279 269.66711
262.0 0.00382 268.71295 269.80157
267.0 0.00375 268.59363 270.02808
261.0 0.00383 268.47464 270.35187
248.0 0.00403 268.35611 270.78238
263.0 0.00380 268.23816 271.30850
272.0 0.00368 268.12048 271.90912
261.0 0.00383 268.00342 272.54425
267.0 0.00375 267.88672 273.15994
298.0 0.003356 267.77054 273.68585
301.0 0.003322 267.65500 274.05051
287.0 0.003484 267.53973 274.18619
250.0 0.00400 267.42514 274.07175
301.0 0.003322 267.31094 273.73569
264.0 0.00379 267.19727 273.24771
306.0 0.003268 267.08429 272.69162
277.0 0.00361 266.97162 272.14029
282.0 0.00355 266.85959 271.64825
261.0 0.00383 266.74805 271.24274
254.0 0.00394 266.63705 270.92648
271.0 0.00369 266.52670 270.67789
285.0 0.00351 266.41675 270.45682
275.0 0.00364 266.30740 270.21771
231.0 0.00433 266.19855 269.91794
271.0 0.00369 266.09030 269.54245
286.0 0.003497 265.98267 269.09988
241.0 0.00415 265.87549 268.61371
265.0 0.00377 265.76886 268.11417
275.0 0.00364 265.66275 267.62680
249.0 0.00402 265.55722 267.17267
264.0 0.00379 265.45236 266.76495
275.0 0.00364 265.34787 266.40881
289.0 0.003460 265.24399 266.10446
262.0 0.00382 265.14056 265.84631
250.0 0.00400 265.03772 265.62656
262.0 0.00382 264.93552 265.43668
252.0 0.00397 264.83368 265.26813
270.0 0.00370 264.73245 265.11432
300.0 0.003333 264.63162 264.97238
260.0 0.00385 264.53137 264.83884
238.0 0.00420 264.43167 264.71228
253.0 0.00395 264.33237 264.59128
239.0 0.00418 264.23358 264.47513
263.0 0.00380 264.13519 264.36255
272.0 0.00368 264.03732 264.25275
251.0 0.00398 263.94000 264.14468
250.0 0.00400 263.84296 264.03714
275.0 0.00364 263.74643 263.92957
283.0 0.00353 263.65024 263.82111
249.0 0.00402 263.55453 263.71280
272.0 0.00368 263.45926 263.60471
281.0 0.00356 263.36426 263.49710
252.0 0.00397 263.26974 263.39066
231.0 0.00433 263.17542 263.28552
278.0 0.00360 263.08154 263.18210
271.0 0.00369 262.98804 263.08047
232.0 0.00431 262.89471 262.98035
259.0 0.00386 262.80182 262.88181
268.0 0.00373 262.70908 262.78455
241.0 0.00415 262.61664 262.68845
275.0 0.00364 262.52451 262.59341
254.0 0.00394 262.43250 262.49902
259.0 0.00386 262.34079 262.40536
260.0 0.00385 262.24918 262.31213
266.0 0.00376 262.15781 262.21945
250.0 0.00400 262.06662 262.12726
248.0 0.00403 261.97546 262.03516
269.0 0.00372 261.88455 261.94351
255.0 0.00392 261.79361 261.85190
259.0 0.00386 261.70282 261.75766
281.0 0.00356 261.61215 261.66669
285.0 0.00351 261.52136 261.57578
247.0 0.00405 261.43073 261.48517
286.0 0.003497 261.34000 261.39453
279.0 0.00358 261.24927 261.30405
277.0 0.00361 261.15860 261.21384
247.0 0.00405 261.06775 261.12350
290.0 0.003448 260.97687 261.03348
253.0 0.00395 260.88583 260.94321
271.0 0.00369 260.79471 260.85324
262.0 0.00382 260.70352 260.76324
260.0 0.00385 260.61206 260.67175
264.0 0.00379 260.52048 260.58188
270.0 0.00370 260.42862 260.49188
276.0 0.00362 260.33658 260.40204
267.0 0.00375 260.24438 260.31229
284.0 0.00352 260.15182 260.22253
263.0 0.00380 260.05902 260.13287
260.0 0.00385 259.96585 260.04333
250.0 0.00400 259.87244 259.95386
279.0 0.00358 259.77875 259.86472
268.0 0.00373 259.68463 259.77576
247.0 0.00405 259.59018 259.68729
249.0 0.00402 259.49527 259.59930
266.0 0.00376 259.40002 259.51248
247.0 0.00405 259.30444 259.42715
235.0 0.00426 259.20831 259.34402
281.0 0.00356 259.11182 259.26785
256.0 0.00391 259.01480 259.19473
249.0 0.00402 258.91733 259.13083
251.0 0.00398 258.81952 259.08090
243.0 0.00412 258.72107 259.05090
237.0 0.00422 258.62219 259.04840
256.0 0.00391 258.52277 259.08200
264.0 0.00379 258.42285 259.16010
252.0 0.00397 258.32251 259.28998
268.0 0.00373 258.22153 259.47586
226.0 0.00442 258.12009 259.71643
257.0 0.00389 258.01807 260.00546
267.0 0.00375 257.91550 260.32547
283.0 0.00353 257.81256 260.65021
240.0 0.00417 257.70892 260.94907
275.0 0.00364 257.60489 261.18289
276.0 0.00362 257.50018 261.31329
294.0 0.003401 257.39505 261.31256
250.0 0.00400 257.28946 261.17105
272.0 0.00368 257.18326 260.92068
265.0 0.00377 257.07669 260.59695
258.0 0.00388 256.96945 260.24319
266.0 0.00376 256.86188 259.89801
271.0 0.00369 256.75391 259.58838
290.0 0.003448 256.64536 259.32568
248.0 0.00403 256.53653 259.11090
251.0 0.00398 256.42715 258.93118
256.0 0.00391 256.31747 258.76498
249.0 0.00402 256.20749 258.58636
263.0 0.00380 256.09708 258.37332
257.0 0.00389 255.98647 258.11285
255.0 0.00392 255.87546 257.81241
264.0 0.00379 255.76427 257.48218
266.0 0.00376 255.65297 257.13876
230.0 0.00435 255.54132 256.79651
275.0 0.00364 255.42969 256.46878
247.0 0.00405 255.31783 256.16357
248.0 0.00403 255.20596 255.88618
249.0 0.00402 255.09419 255.63800
275.0 0.00364 254.98227 255.41698
251.0 0.00398 254.87057 255.22038
261.0 0.00383 254.75890 255.04378
275.0 0.00364 254.64743 254.88333
259.0 0.00386 254.53633 254.73528
268.0 0.00373 254.42535 254.59639
241.0 0.00415 254.31479 254.46690
256.0 0.00391 254.20457 254.34027
278.0 0.00360 254.09486 254.21765
245.0 0.00408 253.98579 254.09833
230.0 0.00435 253.87718 253.98151
277.0 0.00361 253.76930 253.86708
244.0 0.00410 253.66209 253.75459
248.0 0.00403 253.55573 253.64406
262.0 0.00382 253.45036 253.53543
247.0 0.00405 253.34579 253.42839
277.0 0.00361 253.24234 253.32326
238.0 0.00420 253.13994 253.22005
268.0 0.00373 253.03876 253.11896
236.0 0.00424 252.93898 253.02153
237.0 0.00422 252.84041 252.92545
263.0 0.00380 252.74336 252.83255
264.0 0.00379 252.64780 252.74304
258.0 0.00388 252.55388 252.65730
251.0 0.00398 252.46178 252.57573
244.0 0.00410 252.37135 252.49817
253.0 0.00395 252.28288 252.42461
268.0 0.00373 252.19637 252.35446
239.0 0.00418 252.11197 252.28984
274.0 0.00365 252.02983 252.22417
259.0 0.00386 251.94986 252.15891
251.0 0.00398 251.87231 252.09258
257.0 0.00389 251.79721 252.02422
231.0 0.00433 251.72470 251.95358
266.0 0.00376 251.65492 251.88129
239.0 0.00418 251.58783 251.80875
214.0 0.00467 251.52364 251.73778
251.0 0.00398 251.46237 251.66995
255.0 0.00392 251.40421 251.60661
247.0 0.00405 251.34923 251.54860
270.0 0.00370 251.29745 251.49625
247.0 0.00405 251.24907 251.45094
257.0 0.00389 251.20407 251.40933
250.0 0.00400 251.16264 251.37231
264.0 0.00379 251.12486 251.33922
252.0 0.00397 251.09079 251.30994
253.0 0.00395 251.06053 251.28488
247.0 0.00405 251.03415 251.26541
264.0 0.00379 251.01175 251.25372
287.0 0.003484 250.99341 251.25259
246.0 0.00407 250.97922 251.26598
252.0 0.00397 250.96924 251.29852
264.0 0.00379 250.96353 251.35623
269.0 0.00372 250.96217 251.44594
273.0 0.00366 250.96524 251.57471
262.0 0.00382 250.97281 251.74974
249.0 0.00402 250.98489 251.97600
234.0 0.00427 251.00160 252.25633
232.0 0.00431 251.02292 252.58847
245.0 0.00408 251.04890 252.96472
245.0 0.00408 251.07965 253.37238
272.0 0.00368 251.11510 253.79051
229.0 0.00437 251.15536 254.19427
247.0 0.00405 251.20044 254.55345
259.0 0.00386 251.25023 254.83978
255.0 0.00392 251.30493 255.03528
259.0 0.00386 251.36441 255.13953
259.0 0.00386 251.42874 255.17332
271.0 0.00369 251.49785 255.16980
248.0 0.00403 251.57164 255.16396
239.0 0.00418 251.65028 255.18326
265.0 0.00377 251.73355 255.24388
258.0 0.00388 251.82155 255.34851
242.0 0.00413 251.91411 255.48659
254.0 0.00394 252.01109 255.63585
236.0 0.00424 252.11266 255.76717
280.0 0.00357 252.21852 255.85107
256.0 0.00391 252.32872 255.86765
253.0 0.00395 252.44305 255.81314
275.0 0.00364 252.56129 255.70009
250.0 0.00400 252.68362 255.55109
252.0 0.00397 252.80965 255.39195
237.0 0.00422 252.93938 255.24153
256.0 0.00391 253.07254 255.12268
230.0 0.00435 253.20885 255.04126
245.0 0.00408 253.34845 254.99901
247.0 0.00405 253.49084 254.99168
265.0 0.00377 253.63605 255.01035
272.0 0.00368 253.78369 255.04474
271.0 0.00369 253.93341 255.08643
272.0 0.00368 254.08534 255.13158
254.0 0.00394 254.23891 255.18010
256.0 0.00391 254.39404 255.23473
263.0 0.00380 254.55032 255.29918
251.0 0.00398 254.70731 255.37627
268.0 0.00373 254.86511 255.47368
259.0 0.00386 255.02307 255.59418
251.0 0.00398 255.18105 255.74225
248.0 0.00403 255.33858 255.92220
265.0 0.00377 255.49518 256.13773
237.0 0.00422 255.65086 256.39267
226.0 0.00442 255.80487 256.68835
257.0 0.00389 255.95720 257.02512
246.0 0.00407 256.10706 257.39874
244.0 0.00410 256.25421 257.80185
250.0 0.00400 256.39838 258.22311
263.0 0.00380 256.53885 258.64474
270.0 0.00370 256.67557 259.04620
238.0 0.00420 256.80771 259.40213
277.0 0.00361 256.93497 259.68829
271.0 0.00369 257.05707 259.88696
258.0 0.00388 257.17328 259.99286
269.0 0.00372 257.28345 260.01764
284.0 0.00352 257.38687 259.98499
270.0 0.00370 257.48312 259.92258
255.0 0.00392 257.57187 259.85638
255.0 0.00392 257.65253 259.80737
272.0 0.00368 257.72479 259.78979
266.0 0.00376 257.78812 259.81088
267.0 0.00375 257.84204 259.87115
244.0 0.00410 257.88623 259.96671
270.0 0.00370 257.92023 260.08673
257.0 0.00389 257.94363 260.22125
278.0 0.00360 257.95605 260.36108
278.0 0.00360 257.95715 260.50159
266.0 0.00376 257.94656 260.64240
255.0 0.00392 257.92401 260.78229
242.0 0.00413 257.88916 260.91681
251.0 0.00398 257.84177 261.03534
280.0 0.00357 257.78171 261.12088
266.0 0.00376 257.70862 261.15140
264.0 0.00379 257.62250 261.10483
258.0 0.00388 257.52316 260.96622
241.0 0.00415 257.41061 260.73547
268.0 0.00373 257.28503 260.42880
278.0 0.00360 257.14615 260.07114
290.0 0.003448 256.99438 259.69131
252.0 0.00397 256.82968 259.31226
256.0 0.00391 256.65259 258.95206
254.0 0.00394 256.46356 258.61978
257.0 0.00389 256.26257 258.31580
274.0 0.00365 256.05063 258.03439
276.0 0.00362 255.82806 257.76202
279.0 0.00358 255.59587 257.48224
221.0 0.00452 255.35510 257.17862
252.0 0.00397 255.10616 256.83902
269.0 0.00372 254.85068 256.46143
262.0 0.00382 254.58961 256.05096
239.0 0.00418 254.32463 255.61893
255.0 0.00392 254.05753 255.17770
240.0 0.00417 253.78937 254.73799
262.0 0.00382 253.52266 254.31071
254.0 0.00394 253.25919 253.90289
232.0 0.00431 253.00150 253.52072
249.0 0.00402 252.75233 253.16811
232.0 0.00431 252.51384 252.84628
228.0 0.00439 252.28952 252.55698
256.0 0.00391 252.08235 252.30023
247.0 0.00405 251.89604 252.07695
261.0 0.00383 251.73448 251.88811
280.0 0.00357 251.60138 251.73489
281.0 0.00356 251.50148 251.62007
259.0 0.00386 251.43936 251.54659
277.0 0.00361 251.42018 251.51860
227.0 0.00441 251.44933 251.54062
248.0 0.00403 251.53268 251.61809
236.0 0.00424 251.67635 251.75667
246.0 0.00407 251.88728 251.96320
256.0 0.00391 252.17215 252.24411
274.0 0.00365 252.53851 252.60411
261.0 0.00383 252.99504 253.05748
257.0 0.00389 253.54929 253.60887
246.0 0.00407 254.21149 254.26855
251.0 0.00398 254.99051 255.04521
265.0 . . .
loop_
_refln_index_h
_refln_index_k
_refln_index_l
_pd_refln_wavelength_id
_refln_observed_status
_refln_F_squared_meas
_refln_F_squared_calc
_refln_phase_calc
_refln_d_spacing
_gsas_i100_meas
0 0 1 1 o 422.137 432.435 0.00 7.43083 34.80
0 0 1 2 o 416.258 432.435 0.00 7.43083 17.09
1 0 1 1 o 173.697 168.804 180.00 4.79863 33.38
1 0 1 2 o 177.951 168.804 180.00 4.79863 17.01
1 1 0 1 o 93.658 80.788 180.00 4.44403 7.17
1 1 0 2 o 96.203 80.788 180.00 4.44403 3.67
1 1 1 1 o 899.109 887.153 0.00 3.81400 100.00
1 1 1 2 o 911.224 887.153 0.00 3.81400 50.38
0 0 2 1 o 698.589 616.749 0.00 3.71542 13.40
0 0 2 2 o 596.585 616.749 0.00 3.71542 5.74
1 0 2 1 o 66.080 56.648 180.00 3.19833 4.34
1 0 2 2 o 70.671 56.648 180.00 3.19833 2.30
2 0 0 1 o 2198.766 2177.889 180.00 3.14240 57.25
2 0 0 2 o 2113.824 2177.889 180.00 3.14240 27.40
2 0 1 1 o 278.547 256.316 180.00 2.89425 20.58
2 0 1 2 o 256.589 256.316 180.00 2.89425 9.48
1 1 2 1 o 338.032 324.318 0.00 2.85045 16.83
1 1 2 2 o 326.249 324.318 0.00 2.85045 8.10
2 1 1 1 o 29.270 35.866 0.00 2.62888 2.97
2 1 1 2 o 28.724 35.866 0.00 2.62888 1.45
0 0 3 1 o 635.040 371.917 0.00 2.47694 4.94
0 0 3 2 o 596.481 371.917 0.00 2.47694 2.31
2 0 2 1 o 244.574 263.503 180.00 2.39932 11.14
2 0 2 2 o 215.690 263.503 180.00 2.39932 4.93
1 0 3 1 o 18.063 7.844 180.00 2.30443 0.54
1 0 3 2 o 9.690 7.844 180.00 2.30443 0.15
2 1 2 1 o 52.257 48.914 0.00 2.24153 3.43
2 1 2 2 o 50.176 48.914 0.00 2.24153 1.64
2 2 0 1 o 738.902 796.369 0.00 2.22201 14.08
2 2 0 2 o 696.096 796.369 0.00 2.22201 6.61
1 1 3 1 o 94.419 118.132 0.00 2.16358 2.68
1 1 3 2 o 84.895 118.132 0.00 2.16358 1.21
2 2 1 1 o 240.329 156.042 0.00 2.12887 8.35
2 2 1 2 o 215.529 156.042 0.00 2.12887 3.74
3 0 1 1 o -0.152 9.295 0.00 2.01634 0.00
3 0 1 2 o -0.152 9.295 0.00 2.01634 0.00
3 1 0 1 o 18.595 0.008 0.00 1.98743 0.36
3 1 0 2 o 11.333 0.008 0.00 1.98743 0.11
2 0 3 1 o 207.292 165.344 180.00 1.94528 4.83
2 0 3 2 o 200.788 165.344 180.00 1.94528 2.33
3 1 1 1 o 113.536 118.330 180.00 1.91995 5.37
3 1 1 2 o 114.663 118.330 180.00 1.91995 2.69
2 2 2 1 o 147.728 125.787 0.00 1.90700 3.53
2 2 2 2 o 144.339 125.787 0.00 1.90700 1.72
2 1 3 1 o 2.417 1.967 0.00 1.85830 0.09
0 0 4 1 o 16.220 14.690 0.00 1.85771 0.07
2 1 3 2 o -0.051 1.967 0.00 1.85830 0.00
0 0 4 2 o -2.934 14.690 0.00 1.85771 0.00
3 0 2 1 o 1.339 33.830 0.00 1.82484 0.05
3 0 2 2 o 5.501 33.830 0.00 1.82484 0.07
1 0 4 1 o 15.689 6.024 180.00 1.78151 0.25
1 0 4 2 o 11.813 6.024 180.00 1.78151 0.09
3 1 2 1 o 95.116 70.490 180.00 1.75246 4.13
3 1 2 2 o 95.018 70.490 180.00 1.75246 2.05
1 1 4 1 o 189.081 194.552 0.00 1.71398 2.93
1 1 4 2 o 183.635 194.552 0.00 1.71398 1.42
3 2 1 1 o 5.115 1.120 180.00 1.69703 0.18
3 2 1 2 o 6.786 1.120 180.00 1.69703 0.12
2 2 3 1 o 71.326 79.771 0.00 1.65401 1.06
2 2 3 2 o 68.138 79.771 0.00 1.65401 0.51
3 0 3 1 o -0.023 0.664 0.00 1.59954 0.00
2 0 4 1 o -1.553 6.501 180.00 1.59916 0.00
3 0 3 2 o 0.664 0.664 0.00 1.59954 0.01
2 0 4 2 o 6.584 6.501 180.00 1.59916 0.05
3 2 2 1 o 9.156 27.894 180.00 1.57805 0.29
3 2 2 2 o 21.289 27.894 180.00 1.57805 0.33
4 0 0 1 o 203.722 179.513 0.00 1.57120 1.07
4 0 0 2 o 183.540 179.513 0.00 1.57120 0.48
3 1 3 1 o 52.926 34.394 180.00 1.55013 1.57
2 1 4 1 o 7.024 4.643 0.00 1.54978 0.17
3 1 3 2 o 51.725 34.394 180.00 1.55013 0.76
2 1 4 2 o 6.978 4.643 0.00 1.54978 0.08
4 0 1 1 o 110.405 47.388 0.00 1.53721 1.39
4 0 1 2 o 90.332 47.388 0.00 1.53721 0.57
4 1 1 1 o -0.013 0.411 180.00 1.49320 0.00
4 1 1 2 o -0.013 0.411 180.00 1.49320 0.00
0 0 5 1 o -2.323 21.129 0.00 1.48617 0.00
0 0 5 2 o 17.546 21.129 0.00 1.48617 0.02
3 3 0 1 o 5.764 3.066 0.00 1.48134 0.05
3 3 0 2 o 26.776 3.066 0.00 1.48134 0.09
3 3 1 1 o 17.424 19.978 0.00 1.45276 0.26
3 3 1 2 o 22.243 19.978 0.00 1.45276 0.16
4 0 2 1 o 43.301 36.919 0.00 1.44712 0.63
1 0 5 1 o 7.888 7.111 180.00 1.44628 0.07
4 0 2 2 o 35.217 36.919 0.00 1.44712 0.26
1 0 5 2 o 6.576 7.111 180.00 1.44628 0.03
3 2 3 1 o -0.005 0.066 180.00 1.42550 0.00
2 2 4 1 o -0.820 2.833 0.00 1.42523 0.00
3 2 3 2 o -0.005 0.066 180.00 1.42550 0.00
2 2 4 2 o -0.820 2.833 0.00 1.42523 0.00
4 1 2 1 o 11.487 16.532 180.00 1.41022 0.28
1 1 5 1 o 28.025 40.862 0.00 1.40944 0.28
4 1 2 2 o 18.944 16.532 180.00 1.41022 0.23
1 1 5 2 o 55.135 40.862 0.00 1.40944 0.26
4 2 0 1 o 117.581 79.226 180.00 1.40533 1.13
4 2 0 2 o 153.338 79.226 180.00 1.40533 0.73
3 0 4 1 o -0.065 3.062 0.00 1.38994 0.00
3 0 4 2 o 8.788 3.062 0.00 1.38994 0.04
4 2 1 2 o 64.661 32.952 180.00 1.38085 0.65
3 3 2 1 o 39.961 19.551 0.00 1.37601 0.47
4 2 1 1 o 60.887 32.952 180.00 1.38085 1.23
3 3 2 2 o 23.069 19.551 0.00 1.37601 0.14
3 1 4 1 o 28.280 61.283 180.00 1.35714 0.59
3 1 4 2 o 19.116 61.283 180.00 1.35714 0.21
2 0 5 1 o 11.414 11.297 180.00 1.34349 0.11
2 0 5 2 o 5.361 11.297 180.00 1.34349 0.03
4 0 3 1 o 16.579 22.167 0.00 1.32678 0.21
4 0 3 2 o 39.224 22.167 0.00 1.32678 0.23
4 2 2 1 o 46.660 20.505 180.00 1.31444 0.93
2 1 5 1 o 4.814 2.391 0.00 1.31381 0.08
4 2 2 2 o 21.692 20.505 180.00 1.31444 0.23
2 1 5 2 o 1.936 2.391 0.00 1.31381 0.02
4 1 3 1 o 0.461 0.070 180.00 1.29817 0.01
4 1 3 2 o -0.005 0.070 180.00 1.29817 0.00
3 3 3 1 o 33.725 11.654 0.00 1.27133 0.30
3 2 4 1 o 6.276 2.463 180.00 1.27114 0.09
3 3 3 2 o 23.521 11.654 0.00 1.27133 0.10
3 2 4 2 o 5.051 2.463 180.00 1.27114 0.04
4 3 1 1 o -0.001 0.296 180.00 1.23936 0.00
5 0 1 1 o -0.002 0.043 180.00 1.23936 0.00
0 0 6 1 o -0.169 0.118 0.00 1.23847 0.00
4 3 1 2 o -0.001 0.296 180.00 1.23936 0.00
5 0 1 2 o -0.002 0.043 180.00 1.23936 0.00
0 0 6 2 o -0.169 0.118 0.00 1.23847 0.00
2 2 5 1 o -0.765 6.147 0.00 1.23533 0.00
5 1 0 1 o 2.409 0.208 0.00 1.23255 0.01
2 2 5 2 o 51.805 6.147 0.00 1.23533 0.17
5 1 0 2 o 7.784 0.208 0.00 1.23255 0.02
4 2 3 1 o 23.515 11.806 180.00 1.22230 0.41
4 2 3 2 o 9.085 11.806 180.00 1.22230 0.08
5 1 1 1 o 18.989 7.511 0.00 1.21594 0.26
1 0 6 1 o 36.662 15.119 0.00 1.21510 0.22
5 1 1 2 o 16.827 7.511 0.00 1.21594 0.11
3 0 5 1 o 2.471 0.922 0.00 1.21213 0.02
1 0 6 2 o 40.744 15.119 0.00 1.21510 0.12
3 0 5 2 o 2.824 0.922 0.00 1.21213 0.01
4 0 4 1 o -0.211 0.411 0.00 1.19966 0.00
1 1 6 1 o 11.360 28.805 0.00 1.19301 0.08
4 0 4 2 o 1.170 0.411 0.00 1.19966 0.01
5 0 2 1 o 4.903 6.546 180.00 1.19067 0.04
4 3 2 1 o 8.141 10.865 0.00 1.19067 0.14
3 1 5 1 o 8.994 13.015 180.00 1.19020 0.13
1 1 6 2 o 19.721 28.805 0.00 1.19301 0.07
5 0 2 2 o 3.367 6.546 180.00 1.19067 0.01
4 3 2 2 o 5.593 10.865 0.00 1.19067 0.05
3 1 5 2 o 7.119 13.015 180.00 1.19020 0.05
4 1 4 1 o 2.381 1.358 180.00 1.17838 0.04
4 1 4 2 o 11.383 1.358 180.00 1.17838 0.09
5 1 2 1 o 26.682 5.285 0.00 1.16986 0.41
5 1 2 2 o 22.122 5.285 0.00 1.16986 0.17
3 3 4 1 o 27.597 22.054 0.00 1.15820 0.19
3 3 4 2 o 0.722 22.054 0.00 1.15820 0.01
5 2 1 1 o 0.000 0.078 180.00 1.15293 0.00
2 0 6 1 o -0.152 0.267 180.00 1.15222 0.00
5 2 1 2 o 0.000 0.078 180.00 1.15293 0.00
2 0 6 2 o -0.152 0.267 180.00 1.15222 0.00
2 1 6 1 o 16.888 7.571 180.00 1.13333 0.20
3 2 5 1 o 0.408 0.182 180.00 1.13091 0.00
2 1 6 2 o 16.919 7.571 180.00 1.13333 0.10
3 2 5 2 o 2.129 0.182 180.00 1.13091 0.01
4 3 3 1 o 0.005 0.015 180.00 1.12089 0.00
5 0 3 1 o 0.015 0.055 180.00 1.12089 0.00
4 2 4 1 o -0.100 0.119 180.00 1.12076 0.00
4 3 3 2 o 0.197 0.015 180.00 1.12089 0.00
5 0 3 2 o 0.809 0.055 180.00 1.12089 0.00
4 2 4 2 o 3.248 0.119 180.00 1.12076 0.02
5 2 2 1 o 8.312 5.966 0.00 1.11342 0.11
4 4 0 1 o 8.249 9.135 0.00 1.11101 0.03
5 2 2 2 o 4.893 5.966 0.00 1.11342 0.03
4 4 0 2 o 31.010 9.135 0.00 1.11101 0.06
5 1 3 1 o 4.107 3.819 0.00 1.10348 0.07
5 1 3 2 o 9.630 3.819 0.00 1.10348 0.08
4 4 1 1 o 20.612 9.317 0.00 1.09879 0.16
4 4 1 2 o 2.682 9.317 0.00 1.09879 0.01
