#------------------------------------------------------------------------------
#$Date: 2016-02-18 17:37:37 +0200 (Thu, 18 Feb 2016) $
#$Revision: 176729 $
#$URL: svn://www.crystallography.net/cod/cif/1/51/72/1517241.cif $
#------------------------------------------------------------------------------
#
# This file is available in the Crystallography Open Database (COD),
# http://www.crystallography.net/
#
# All data on this site have been placed in the public domain by the
# contributors.
#
data_1517241
loop_
_publ_author_name
'Pawle, R. H.'
'Haas, T. E.'
'M\"uller, P.'
'Thomas III, S. W.'
_publ_section_title
;
 Twisting and piezochromism of phenylene-ethynylenes with aromatic
 interactions between side chains and main chains
;
_journal_issue                   11
_journal_name_full               'Chem. Sci.'
_journal_page_first              4184
_journal_paper_doi               10.1039/C4SC01466A
_journal_volume                  5
_journal_year                    2014
_chemical_formula_sum            'C40 H20 F10 O6'
_chemical_formula_weight         786.56
_chemical_name_systematic
;
 ?
;
_space_group_crystal_system      triclinic
_space_group_IT_number           2
_space_group_name_Hall           '-P 1'
_space_group_name_H-M_alt        'P -1'
_symmetry_space_group_name_Hall  '-P 1'
_symmetry_space_group_name_H-M   'P -1'
_atom_sites_solution_hydrogens   geom
_audit_creation_method           SHELXL-2013
_cell_angle_alpha                79.881(7)
_cell_angle_beta                 81.961(7)
_cell_angle_gamma                75.475(7)
_cell_formula_units_Z            1
_cell_length_a                   6.816(2)
_cell_length_b                   7.448(3)
_cell_length_c                   16.417(6)
_cell_measurement_temperature    100(2)
_cell_volume                     790.2(5)
_computing_structure_refinement  'SHELXL-2013 (Sheldrick, 2013)'
_diffrn_ambient_temperature      100(2)
_diffrn_measured_fraction_theta_full 0.995
_diffrn_measured_fraction_theta_max 0.996
_diffrn_radiation_type           MoK\a
_diffrn_radiation_wavelength     0.71073
_diffrn_reflns_av_R_equivalents  0.0706
_diffrn_reflns_av_unetI/netI     0.0581
_diffrn_reflns_Laue_measured_fraction_full 0.995
_diffrn_reflns_Laue_measured_fraction_max 0.996
_diffrn_reflns_limit_h_max       8
_diffrn_reflns_limit_h_min       -8
_diffrn_reflns_limit_k_max       9
_diffrn_reflns_limit_k_min       -9
_diffrn_reflns_limit_l_max       20
_diffrn_reflns_limit_l_min       -20
_diffrn_reflns_number            11514
_diffrn_reflns_point_group_measured_fraction_full 0.995
_diffrn_reflns_point_group_measured_fraction_max 0.996
_diffrn_reflns_theta_full        25.242
_diffrn_reflns_theta_max         26.369
_diffrn_reflns_theta_min         2.856
_exptl_absorpt_coefficient_mu    0.150
_exptl_crystal_density_diffrn    1.653
_exptl_crystal_F_000             398
_exptl_crystal_size_max          0.480
_exptl_crystal_size_mid          0.117
_exptl_crystal_size_min          0.101
_refine_diff_density_max         0.555
_refine_diff_density_min         -0.423
_refine_diff_density_rms         0.128
_refine_ls_extinction_method     none
_refine_ls_goodness_of_fit_ref   1.065
_refine_ls_hydrogen_treatment    constr
_refine_ls_matrix_type           full
_refine_ls_number_parameters     254
_refine_ls_number_reflns         3224
_refine_ls_number_restraints     68
_refine_ls_restrained_S_all      1.054
_refine_ls_R_factor_all          0.0908
_refine_ls_R_factor_gt           0.0751
_refine_ls_shift/su_max          0.000
_refine_ls_shift/su_mean         0.000
_refine_ls_structure_factor_coef Fsqd
_refine_ls_weighting_details
'w=1/[\s^2^(Fo^2^)+(0.1469P)^2^+0.3675P] where P=(Fo^2^+2Fc^2^)/3'
_refine_ls_weighting_scheme      calc
_refine_ls_wR_factor_gt          0.2009
_refine_ls_wR_factor_ref         0.2180
_reflns_Friedel_coverage         0.000
_reflns_number_gt                2558
_reflns_number_total             3224
_reflns_threshold_expression     'I > 2\s(I)'
_cod_data_source_file            c4sc01466a1.cif
_cod_data_source_block           RP100913_0m_a_a
_cod_depositor_comments
'Adding full bibliography for 1517239--1517244.cif.'
_cod_database_code               1517241
#BEGIN Tags that were not found in dictionaries:
_shelx_space_group_comment
;
The symmetry employed for this shelxl refinement is uniquely defined
by the following loop, which should always be used as a source of
symmetry information in preference to the above space-group names.
They are only intended as comments.
;
_shelx_estimated_absorpt_t_min   0.932
_shelx_estimated_absorpt_t_max   0.985
_shelxl_version_number           2013-3
_shelx_res_file
;
TITL RP100913_0m in P-1
CELL  0.71073   6.8160   7.4483  16.4170   79.881   81.961   75.475
ZERR    1.00   0.00230   0.00260   0.00580   0.0065   0.0066   0.0065
LATT 1
SFAC C  H  O  F
UNIT 40  20  6  10
REM Solution 1  R1  0.142  Rweak  0.006,  Alpha= 0.0601  in P-1
REM Formula:  C20 O3 F5
L.S. 10
SHEL 999 0.8
ACTA
BOND
FMAP 2
PLAN 20
SIZE 0.101 0.117 0.480
DELU
TEMP -173.150
WGHT    0.146900    0.367500
FVAR       0.60131
F001  4    0.357190    0.124233    1.197028    11.00000    0.03451    0.01242 =
         0.02562   -0.00301   -0.00165   -0.00558
F002  4    0.184140    0.781196    1.185936    11.00000    0.04452    0.01118 =
         0.03593    0.00152   -0.01146   -0.00573
F003  4    0.291157    0.084341    1.365641    11.00000    0.04358    0.02437 =
         0.02440    0.01010   -0.00544   -0.00928
F004  4    0.126580    0.739545    1.353896    11.00000    0.03748    0.02928 =
         0.03826   -0.01876   -0.00375   -0.00327
F005  4    0.177945    0.391276    1.443451    11.00000    0.04189    0.04923 =
         0.01721   -0.00660   -0.00216   -0.01173
O006  3    0.169387    0.376274    1.067572    11.00000    0.02447    0.01987 =
         0.01896   -0.00275   -0.00200   -0.00864
O007  3    0.230583   -0.153867    0.646022    11.00000    0.04089    0.01500 =
         0.01897    0.00255   -0.00018   -0.00702
O008  3    0.415671    0.240673    0.976431    11.00000    0.03046    0.02800 =
         0.03077   -0.00916    0.00613   -0.01525
C009  1    0.250101    0.253135    1.014968    11.00000    0.02603    0.01383 =
         0.01501    0.00318   -0.00287   -0.00609
C00A  1    0.064867   -0.113321    0.935403    11.00000    0.02298    0.01270 =
         0.01519    0.00327   -0.00294   -0.00494
C00B  1    0.138453   -0.217966    0.867286    11.00000    0.02174    0.01655 =
         0.01788    0.00164   -0.00177   -0.00596
C00C  1    0.173594    0.014863    0.947518    11.00000    0.02040    0.01353 =
         0.01559    0.00372   -0.00178   -0.00506
AFIX  43
H00C  2    0.294161    0.024656    0.911950    11.00000   -1.20000
AFIX   0
C00D  1    0.112040    0.127954    1.009400    11.00000    0.02103    0.01168 =
         0.01592    0.00514   -0.00368   -0.00545
C00E  1    0.270683    0.453488    1.186766    11.00000    0.01731    0.01403 =
         0.02068    0.00009   -0.00382   -0.00443
C00F  1    0.293194   -0.616243    0.767005    11.00000    0.02532    0.02011 =
         0.02046   -0.00090   -0.00230   -0.00471
AFIX  43
H00F  2    0.282529   -0.669025    0.824039    11.00000   -1.20000
AFIX   0
C00G  1    0.198899   -0.303815    0.809956    11.00000    0.02120    0.02256 =
         0.02097   -0.00094   -0.00189   -0.00746
C00H  1    0.297067    0.278429    1.234948    11.00000    0.02044    0.01646 =
         0.02194   -0.00297   -0.00163   -0.00621
C00I  1    0.257178   -0.422377    0.746650    11.00000    0.02078    0.02001 =
         0.02305   -0.00316   -0.00198   -0.00480
C00J  1    0.211879    0.607878    1.228744    11.00000    0.02359    0.01465 =
         0.02726   -0.00075   -0.00614   -0.00536
C00K  1    0.207479    0.412416    1.360140    11.00000    0.02332    0.02921 =
         0.01729   -0.00200   -0.00230   -0.00660
C00L  1    0.265233    0.255579    1.320118    11.00000    0.02532    0.01996 =
         0.02202    0.00330   -0.00395   -0.00803
C00M  1    0.306481    0.472286    1.093456    11.00000    0.02728    0.01987 =
         0.01996    0.00061   -0.00285   -0.01325
AFIX  23
H00A  2    0.276660    0.606099    1.068572    11.00000   -1.20000
H00B  2    0.449863    0.413992    1.075759    11.00000   -1.20000
AFIX   0
C00N  1    0.322618   -0.463433    0.601683    11.00000    0.02456    0.02327 =
         0.01829   -0.00249   -0.00127   -0.00553
AFIX  43
H00N  2    0.332024   -0.411390    0.544533    11.00000   -1.20000
AFIX   0
C00O  1    0.181116    0.588634    1.314539    11.00000    0.02050    0.02461 =
         0.02830   -0.01117   -0.00398   -0.00254
C00P  1    0.272109   -0.346131    0.661891    11.00000    0.02292    0.01798 =
         0.02388   -0.00128   -0.00225   -0.00511
C00Q  1    0.343651   -0.734858    0.707964    11.00000    0.02934    0.01802 =
         0.03633   -0.00397   -0.00637   -0.00248
AFIX  43
H00Q  2    0.367059   -0.866838    0.723796    11.00000   -1.20000
AFIX   0
C00R  1    0.359626   -0.656599    0.624226    11.00000    0.03310    0.02172 =
         0.02687   -0.00956   -0.00230   -0.00512
AFIX  43
H00R  2    0.396015   -0.735961    0.582456    11.00000   -1.20000
AFIX   0
C00S  1    0.231363   -0.073592    0.561146    11.00000    0.04057    0.02580 =
         0.02264    0.00352   -0.00275   -0.00743
AFIX 137
H00D  2    0.369347   -0.107991    0.533202    11.00000   -1.50000
H00E  2    0.187421    0.063195    0.556903    11.00000   -1.50000
H00G  2    0.137860   -0.120433    0.534603    11.00000   -1.50000
AFIX   0
HKLF 4

REM  RP100913_0m in P-1
REM R1 =  0.0751 for    2558 Fo > 4sig(Fo)  and  0.0908 for all    3224 data
REM    254 parameters refined using     68 restraints

END

WGHT      0.1473      0.3563

REM Highest difference peak  0.555,  deepest hole -0.423,  1-sigma level  0.128
Q1    1   0.1611  0.1018  1.3547  11.00000  0.05    0.56
Q2    1   0.2738 -0.4625  0.6917  11.00000  0.05    0.54
Q3    1   0.2218 -0.4050  0.6296  11.00000  0.05    0.53
Q4    1   0.2094  0.1509  1.1915  11.00000  0.05    0.53
Q5    1   0.2752 -0.2788  0.8410  11.00000  0.05    0.53
Q6    1   0.0260  0.4148  1.4431  11.00000  0.05    0.51
Q7    1   0.4072  0.2447  1.0236  11.00000  0.05    0.51
Q8    1   0.5543  0.2205  0.9854  11.00000  0.05    0.51
Q9    1   0.2812  0.2529  0.9653  11.00000  0.05    0.50
Q10   1   0.0686 -0.2468  0.8289  11.00000  0.05    0.50
Q11   1  -0.0201  0.7575  1.3534  11.00000  0.05    0.50
Q12   1   0.3149  0.3641  1.0727  11.00000  0.05    0.50
Q13   1   0.3391  0.7451  1.1860  11.00000  0.05    0.48
Q14   1   0.0919 -0.1366  0.6283  11.00000  0.05    0.48
Q15   1   0.1614 -0.1066  0.6812  11.00000  0.05    0.45
Q16   1   0.3602 -0.1533  0.6691  11.00000  0.05    0.45
Q17   1   0.0383  0.4061  1.0672  11.00000  0.05    0.44
Q18   1   0.3278 -0.6589  0.7369  11.00000  0.05    0.44
Q19   1   0.1469  0.2409  0.9929  11.00000  0.05    0.44
Q20   1   0.1183 -0.1728  0.8982  11.00000  0.05    0.44
;
_shelx_res_checksum              86715
_shelx_hkl_file
;
   1   0   0   52.39    5.20
   1   0   0   47.40    5.60
  -2   0   0 9999.00  742.33
  -2   0   0 8262.87  736.13
  -2   0   0 8007.80  690.93
  -3   0   0   92.89    8.20
  -3   0   0  109.89    8.80
  -3   0   0   91.59    8.80
  -4   0   0    0.20    1.80
  -4   0   0   -1.00    1.30
  -4   0   0   -1.10    1.30
  -5   0   0    4.10    2.50
  -5   0   0    2.20    1.80
  -5   0   0    0.60    1.60
  -6   0   0   10.10    2.80
  -6   0   0    6.60    2.60
  -7   0   0    5.00    1.80
  -7   0   0    4.60    3.20
   7   0   0    7.40    4.20
  -8   0   0    5.20    1.80
  -8   0   0    6.00    2.40
   8   0   0    4.30    2.50
  -8   1   0   17.00    2.50
  -8   1   0   16.60    3.20
  -7   1   0    3.80    3.70
  -7   1   0    4.50    1.80
   6  -1   0   35.10    5.00
  -6   1   0   30.50    5.40
   5  -1   0    9.30    2.80
  -5   1   0    8.00    2.00
  -5   1   0    7.60    2.20
   4  -1   0   13.00    2.20
  -4   1   0   10.10    1.80
  -4   1   0   11.00    2.00
  -4   1   0    7.70    1.00
  -4   1   0   10.50    1.20
   3  -1   0   25.00    3.40
  -3   1   0   29.30    2.50
  -3   1   0   35.60    3.90
  -3   1   0   30.50    3.20
  -3   1   0   32.00    2.60
   2  -1   0  261.17   25.10
  -2   1   0  301.57   23.50
  -2   1   0  319.37   21.00
  -2   1   0  298.17   21.00
   1  -1   0  264.67   18.70
  -1   1   0  258.37   18.70
   0  -1   0  886.11   74.09
   0  -1   0  990.30   66.49
  -1  -1   0   52.29    4.40
  -1  -1   0   46.60    3.70
  -1  -1   0   50.09    4.30
   1   1   0   50.99    4.50
   1   1   0   49.40    3.80
  -2  -1   0 4889.11  300.37
  -2  -1   0 3909.81  300.37
  -2  -1   0 3939.01  334.97
  -3  -1   0   -1.10    1.50
  -3  -1   0   -0.20    1.10
  -3  -1   0    0.40    1.20
  -4  -1   0  267.97   24.60
  -4  -1   0  259.67   23.00
  -4  -1   0  330.07   24.60
  -5  -1   0    3.00    2.30
  -5  -1   0    0.00    1.90
  -5  -1   0    1.90    1.50
  -6  -1   0    4.70    2.30
  -7  -1   0   10.20    4.40
  -8  -1   0   -0.10    1.70
   7  -2   0   17.90    2.90
  -7   2   0   14.10    4.40
  -7   2   0   10.50    2.40
   6  -2   0    0.30    3.80
  -6   2   0   -0.40    1.40
  -6   2   0    1.00    2.90
   5  -2   0    6.40    2.90
  -5   2   0    6.80    1.60
  -5   2   0    9.40    1.50
  -5   2   0    5.40    2.30
  -5   2   0    6.50    2.30
   4  -2   0  141.19   13.40
  -4   2   0  143.49   13.60
  -4   2   0  169.88   11.20
  -4   2   0  147.49   11.00
  -4   2   0  150.08   12.50
   3  -2   0   62.09    6.60
  -3   2   0   67.29    5.30
  -3   2   0   73.09    6.90
  -3   2   0   75.99    5.50
   2  -2   0  171.38   16.90
   2  -2   0  209.58   14.30
  -2   2   0  197.88   14.10
  -2   2   0  205.58   14.20
   1  -2   0   94.29    7.50
   1  -2   0   71.59    6.30
  -1   2   0   89.59    7.40
  -1   2   0   72.99    6.20
   0  -2   0  748.43   50.09
   0  -2   0  626.24   59.49
   0   2   0  736.23   50.09
   0   2   0  662.63   55.69
   0   2   0  752.52   50.09
  -1  -2   0   78.99    6.80
  -1  -2   0   88.09    7.50
   1   2   0   71.39    6.20
   1   2   0   86.89    7.30
  -2  -2   0  176.48   14.80
  -2  -2   0  197.78   15.70
  -2  -2   0  188.68   13.30
  -2  -2   0  169.98   13.20
   2   2   0  184.48   13.30
  -3  -2   0   35.10    3.50
  -3  -2   0   28.10    3.50
  -3  -2   0   25.90    2.50
  -3  -2   0   30.20    2.80
   3   2   0   34.40    3.40
  -4  -2   0   -1.20    1.90
  -4  -2   0    0.90    0.80
  -4  -2   0   -0.30    1.10
  -4  -2   0    0.30    0.50
   4   2   0   -0.10    1.50
  -5  -2   0    8.70    1.80
  -5  -2   0   11.60    3.10
   5   2   0    7.40    2.40
  -6  -2   0   42.30    5.00
   6   2   0   37.80    6.20
  -7  -2   0    4.90    1.40
   7   2   0    2.30    4.00
  -8  -2   0    3.80    1.70
   8   2   0    7.50    2.30
   7  -3   0    3.90    3.00
  -6   3   0   -0.60    1.60
  -6   3   0    2.60    2.10
  -6   3   0    0.70    0.60
   5  -3   0   58.19    7.90
  -5   3   0   54.79    6.20
  -5   3   0   58.69    4.70
  -5   3   0   73.59    5.90
   4  -3   0    5.10    2.70
  -4   3   0    6.70    2.20
  -4   3   0    5.20    2.00
  -4   3   0    4.90    1.20
   3  -3   0    3.10    1.70
  -3   3   0    3.50    1.70
  -3   3   0    1.70    0.80
  -3   3   0   -0.10    1.40
   2  -3   0  121.69   11.40
   2  -3   0  127.79    9.80
  -2   3   0  147.79   11.50
  -2   3   0  117.89    9.50
   1  -3   0  143.09   11.30
  -1   3   0  148.59   11.10
  -1   3   0  178.48   13.30
  -1   3   0  132.49   11.30
   0  -3   0    0.90    1.70
   0  -3   0    0.20    1.70
   0   3   0   -1.60    1.10
   0   3   0    0.30    1.10
   0   3   0   -0.50    1.40
  -1  -3   0  162.48   10.90
  -1  -3   0  150.18   13.20
   1   3   0  133.59   12.90
  -2  -3   0  725.23   55.09
  -2  -3   0  832.72   61.49
   2   3   0  768.22   55.19
  -3  -3   0  126.19   10.20
  -3  -3   0  130.69   11.50
  -3  -3   0  146.19   10.40
  -3  -3   0  157.78   12.30
  -4  -3   0   42.10    3.60
  -4  -3   0   42.80    4.50
  -4  -3   0   44.90    5.00
  -4  -3   0   44.80    4.00
   4   3   0   46.50    5.00
  -5  -3   0  407.26   33.60
  -5  -3   0  437.66   35.90
  -5  -3   0  457.05   29.90
  -5  -3   0  423.06   29.80
   5   3   0  365.76   35.90
  -6  -3   0   65.99    6.20
  -6  -3   0   75.09    8.50
   6   3   0   49.90    7.50
  -7  -3   0   15.40    2.70
  -7  -3   0   19.30    4.90
   7   3   0   16.40    4.30
  -8  -3   0   11.60    2.10
   8   3   0   16.50    2.70
   6  -4   0    3.70    2.40
  -6   4   0   -0.90    0.90
  -6   4   0    1.00    3.00
  -6   4   0    3.10    1.80
   5  -4   0   38.40    5.00
  -5   4   0   38.50    4.70
  -5   4   0   39.50    3.40
  -5   4   0   45.80    6.10
   4  -4   0   -1.30    2.70
  -4   4   0    0.10    2.60
   3  -4   0    7.40    2.10
   3  -4   0    4.10    3.30
  -3   4   0    4.60    1.10
  -3   4   0    5.90    1.90
  -3   4   0    4.70    2.40
   2  -4   0    4.90    2.70
   2  -4   0    5.80    1.70
  -2   4   0    2.10    1.00
  -2   4   0    2.90    2.20
  -2   4   0    2.00    1.70
   1  -4   0   29.40    4.10
  -1   4   0   32.00    3.40
  -1   4   0   34.00    3.80
   0  -4   0   97.59    9.40
   0  -4   0  119.69    8.50
   0   4   0  108.19    8.10
   0   4   0   86.79    9.20
   0   4   0  101.09    8.60
  -1  -4   0  345.97   24.10
  -1  -4   0  304.37   28.60
   1   4   0  357.06   24.20
   1   4   0  330.57   26.80
  -2  -4   0   96.49    8.20
  -2  -4   0   88.19    6.70
  -2  -4   0   83.09    7.40
   2   4   0   77.69    7.20
  -3  -4   0   16.90    3.00
  -3  -4   0   12.60    1.80
  -3  -4   0   16.50    2.40
   3   4   0   14.00    2.80
  -4  -4   0   10.90    2.00
  -4  -4   0   12.20    2.50
  -4  -4   0    9.10    1.60
  -4  -4   0   11.80    2.20
  -5  -4   0    3.00    2.80
  -5  -4   0    0.40    1.00
  -5  -4   0   -2.10    1.80
  -5  -4   0    1.10    1.50
  -6  -4   0   -0.40    1.10
  -6  -4   0    2.00    3.80
  -6  -4   0    0.30    1.70
  -6  -4   0    0.70    0.70
   6   4   0    0.10    3.50
  -7  -4   0   27.00    3.50
   7   4   0   41.00    8.00
  -8  -4   0    2.90    2.50
  -8  -4   0   -1.80    1.60
   5  -5   0  302.17   25.50
  -5   5   0  269.57   25.50
  -5   5   0  297.47   21.10
  -4   5   0   21.00    2.70
   3  -5   0  514.35   44.70
  -3   5   0  529.25   37.50
   2  -5   0  140.49   11.70
   2  -5   0  149.19   12.80
  -2   5   0  121.29   11.90
  -2   5   0  144.59   10.90
  -2   5   0  143.29   12.90
   1  -5   0  101.29    8.90
  -1   5   0   91.89    7.90
  -1   5   0   90.19    9.10
   0  -5   0    7.80    2.20
   0  -5   0    6.90    2.20
   0   5   0    9.60    3.00
   0   5   0    7.60    2.40
   0   5   0    6.70    2.10
  -1  -5   0   25.00    3.60
  -1  -5   0   19.60    3.90
   1   5   0   21.10    3.90
   1   5   0   25.10    3.70
   1   5   0   20.80    2.90
  -2  -5   0   34.80    4.30
  -2  -5   0   32.40    3.70
   2   5   0   27.10    4.50
   2   5   0   35.30    5.10
   2   5   0   35.50    4.10
  -3  -5   0  104.79    9.00
  -3  -5   0   82.09    8.20
  -3  -5   0  102.49    8.40
  -3  -5   0   97.69    7.40
   3   5   0   86.99    8.60
  -4  -5   0    5.20    1.70
  -4  -5   0    6.70    1.20
  -4  -5   0    8.30    2.60
  -4  -5   0    7.50    2.40
   4   5   0    3.60    3.60
  -5  -5   0    4.60    2.50
  -5  -5   0    6.60    3.30
  -6  -5   0   37.00    3.00
  -6  -5   0   45.90    7.50
  -6  -5   0   38.50    5.30
  -6  -5   0   26.10    3.80
  -7  -5   0   15.30    2.60
  -7  -5   0   17.40    2.00
  -7  -5   0   15.90    2.50
   7   5   0   26.90    5.90
  -8  -5   0   28.40    4.00
  -8  -5   0   23.60    5.00
   8   5   0   36.00    7.40
  -5   6   0    7.00    1.40
  -5   6   0    1.20    2.10
   4  -6   0   18.10    3.20
  -4   6   0    9.60    1.80
  -4   6   0   11.60    2.40
   3  -6   0    8.30    2.30
  -3   6   0   11.40    1.80
   2  -6   0  105.69    9.70
   2  -6   0   96.19   10.80
  -2   6   0  101.19    8.90
   1  -6   0   24.80    4.30
   1  -6   0   30.80    4.10
  -1   6   0   24.70    3.70
  -1   6   0   29.70    5.50
   0  -6   0  364.86   32.20
   0  -6   0  390.46   27.50
   0   6   0  362.06   30.10
   0   6   0  375.56   32.50
  -1  -6   0    9.30    2.70
  -1  -6   0    8.40    2.70
   1   6   0   10.10    3.10
   1   6   0   10.90    3.30
   1   6   0    7.10    2.50
  -2  -6   0   10.80    2.20
  -2  -6   0   10.40    2.40
   2   6   0   10.10    3.30
   2   6   0    9.20    2.70
   2   6   0    8.40    2.80
  -3  -6   0   -0.70    1.40
  -3  -6   0    0.70    2.00
   3   6   0    1.60    3.60
   3   6   0    0.00    2.10
  -4  -6   0    7.80    3.00
  -4  -6   0    6.50    1.40
  -5  -6   0   -0.60    0.90
  -5  -6   0   -1.60    3.30
  -6  -6   0    2.00    0.90
  -6  -6   0    3.40    1.50
  -7  -6   0   45.30    5.60
  -7  -6   0   38.00    3.40
  -7  -6   0   41.80    4.60
  -7  -6   0   30.30    5.00
   3  -7   0   12.40    2.90
  -3   7   0    8.70    2.40
  -3   7   0   10.70    2.00
   2  -7   0   23.10    4.00
  -2   7   0   17.30    2.40
  -2   7   0   20.20    3.70
   1  -7   0   34.00    5.20
   1  -7   0   30.60    4.50
  -1   7   0   35.00    4.70
   0  -7   0    6.80    2.10
   0  -7   0    6.90    4.00
   0   7   0    5.50    3.90
   0   7   0    5.70    3.00
   0   7   0    5.10    3.60
  -1  -7   0   86.29    8.30
  -1  -7   0   71.89    7.70
   1   7   0   80.79    8.20
   1   7   0   80.69    9.10
   1   7   0   85.19    8.90
  -2  -7   0   63.09    6.40
  -2  -7   0   71.59    7.10
   2   7   0   69.49    9.00
   2   7   0   66.29    7.40
   2   7   0   58.19    7.90
  -3  -7   0    2.90    1.70
  -3  -7   0    3.60    2.50
   3   7   0    3.00    3.00
   3   7   0    0.90    4.70
  -4  -7   0    1.40    1.10
  -4  -7   0    0.30    1.50
   4   7   0   -0.90    1.60
  -5  -7   0   -1.50    1.10
   5   7   0   -3.10    1.60
  -6  -7   0    4.70    2.40
  -6  -7   0    6.10    1.20
   6   7   0    4.60    2.10
   2  -8   0    3.00    2.70
  -2   8   0    8.00    2.60
  -2   8   0    0.40    2.10
   1  -8   0    5.30    2.40
  -1   8   0    1.20    2.10
  -1   8   0    0.40    2.30
   0  -8   0  173.88   15.60
   0  -8   0  143.09   13.10
   0   8   0  117.59   13.10
   0   8   0  164.18   14.00
  -1  -8   0   -0.90    2.00
  -1  -8   0    0.10    3.90
   1   8   0   -0.50    4.70
   1   8   0    1.20    4.60
   1   8   0   -2.30    3.70
  -2  -8   0   26.40    4.90
  -2  -8   0   26.80    3.80
   2   8   0   26.00    4.60
   2   8   0   27.60    6.40
   2   8   0   25.80    5.20
  -3  -8   0    1.00    1.70
  -3  -8   0    4.10    1.70
   3   8   0    3.10    1.80
  -4  -8   0   29.50    3.50
  -4  -8   0   27.50    3.80
   4   8   0   24.90    4.10
  -5  -8   0    7.40    2.00
  -5  -8   0    5.30    1.40
   5   8   0    3.00    2.10
   0  -9   0    6.10    2.50
   0   9   0   -4.70    2.60
   0   9   0   -3.20    2.50
  -1  -9   0   69.29    6.40
   1   9   0   45.90    6.30
   1   9   0   55.49    8.60
   1   9   0   67.09    8.80
  -2  -9   0    9.10    2.30
  -2  -9   0    6.10    2.20
   2   9   0    8.80    2.20
  -3  -9   0    3.40    2.10
  -3  -9   0    6.90    2.00
   3   9   0    1.60    2.10
   3   9  -1    2.10    2.10
  -3  -9   1    4.60    2.10
  -3  -9   1   -0.50    2.00
  -2  -9   1   26.20    3.40
  -2  -9   1   31.30    4.40
   1   9  -1   32.70    7.30
   1   9  -1   25.60    5.50
   1   9  -1   33.30    4.60
  -1  -9   1   27.10    4.50
   5   8  -1   18.60    2.90
  -5  -8   1   19.70    3.80
  -5  -8   1   19.80    3.10
   4   8  -1   -3.10    2.00
  -4  -8   1    0.40    1.80
   3   8  -1   31.10    4.30
  -3  -8   1   31.10    4.30
  -3  -8   1   41.00    4.00
   2   8  -1   16.60    5.70
   2   8  -1   17.70    5.00
   2   8  -1   17.80    4.30
  -2  -8   1   24.00    3.60
  -2  -8   1   15.50    4.40
   1   8  -1   10.90    4.10
   1   8  -1    7.40    5.40
   1   8  -1   13.40    5.30
  -1  -8   1    8.00    2.50
  -1  -8   1   10.50    4.40
   0   8  -1   28.70    4.50
   0   8  -1   30.80    5.70
   0  -8   1   35.30    4.60
   0  -8   1   27.30    6.10
  -1   8  -1    1.20    2.10
  -1   8  -1   -4.50    2.40
   1  -8   1    2.80    2.30
  -2   8  -1   -2.70    2.10
   2  -8   1   -0.40    2.60
  -6  -7   1    9.40    1.40
  -6  -7   1    6.00    2.50
  -5  -7   1   35.30    3.70
  -5  -7   1   46.90    4.70
   4   7  -1    0.60    1.60
  -4  -7   1    2.80    1.10
  -4  -7   1    5.60    1.80
   3   7  -1  105.69   12.10
   3   7  -1   96.39   10.60
  -3  -7   1   96.99    9.20
  -3  -7   1  106.29    8.80
   2   7  -1   75.29    9.30
   2   7  -1   67.99    7.90
   2   7  -1   66.19    8.30
  -2  -7   1   66.79    6.70
  -2  -7   1   68.69    7.40
   1   7  -1    5.30    3.10
   1   7  -1    1.50    3.60
   1   7  -1    5.20    3.60
  -1  -7   1    5.60    2.00
  -1  -7   1    3.90    3.10
   0   7  -1   22.90    4.70
   0   7  -1   19.70    4.30
   0  -7   1   17.00    4.20
   0  -7   1   20.10    3.70
  -1   7  -1    2.10    3.50
   1  -7   1    4.10    4.30
   1  -7   1    1.20    1.90
  -2   7  -1    2.60    1.60
  -2   7  -1    0.30    2.20
   2  -7   1    4.90    2.20
  -3   7  -1    5.60    1.80
   3  -7   1    9.10    2.80
  -7  -6   1    2.90    1.80
  -7  -6   1    2.20    0.90
  -6  -6   1   -0.50    0.90
  -6  -6   1    0.40    1.50
  -5  -6   1   17.30    4.10
  -5  -6   1   22.90    3.00
  -5  -6   1   15.10    2.20
  -4  -6   1    1.10    1.90
  -4  -6   1    1.70    2.80
  -4  -6   1    2.60    1.30
   3   6  -1    6.10    3.40
   3   6  -1    6.10    2.50
   3   6  -1    2.90    3.30
  -3  -6   1    4.90    1.80
  -3  -6   1    7.20    2.50
   2   6  -1   -1.10    2.40
   2   6  -1    3.70    4.50
   2   6  -1    0.50    2.90
  -2  -6   1    1.80    2.00
  -2  -6   1   -1.20    2.10
   1   6  -1    0.90    3.20
   1   6  -1   -0.80    2.40
   1   6  -1   -1.80    2.90
  -1  -6   1    0.60    2.40
  -1  -6   1    3.00    3.30
   0   6  -1  174.28   15.20
   0   6  -1  175.48   16.50
   0   6  -1  201.58   14.50
   0  -6   1  176.98   16.40
  -1   6  -1  130.09   14.40
  -1   6  -1  162.18   12.60
   1  -6   1  186.78   13.90
  -2   6  -1   95.39    7.70
   2  -6   1   79.39    8.00
   2  -6   1   59.69   10.30
  -3   6  -1   90.19    8.40
  -3   6  -1   87.09    7.10
   3  -6   1   81.89    8.60
  -4   6  -1   58.59    6.10
  -4   6  -1   55.59    5.00
   4  -6   1   51.29    6.60
  -5   6  -1    6.10    2.20
  -5   6  -1    4.70    1.50
   5  -6   1    1.10    3.30
   7   5  -1  127.19   13.80
  -7  -5   1  103.49    9.90
  -7  -5   1  119.99    8.40
  -7  -5   1  109.19    9.30
   6   5  -1   61.89    9.10
  -6  -5   1   45.10    5.10
  -6  -5   1   51.19    4.30
  -6  -5   1   67.29    8.60
  -6  -5   1   59.69    6.30
  -5  -5   1   61.69    6.70
  -5  -5   1   57.59    7.90
   4   5  -1   44.00    5.30
  -4  -5   1   38.00    5.80
  -4  -5   1   45.00    4.50
  -4  -5   1   38.20    3.60
  -4  -5   1   44.80    5.80
   3   5  -1    6.00    3.00
   3   5  -1    6.50    2.90
  -3  -5   1    4.70    2.50
  -3  -5   1    7.00    1.70
  -3  -5   1    6.40    1.30
  -3  -5   1    9.50    2.30
   2   5  -1  100.69   10.00
  -2  -5   1  100.89    9.80
  -2  -5   1  118.19    8.40
   1   5  -1   66.79    7.70
   1   5  -1   93.59    7.20
   1   5  -1   81.19    7.20
  -1  -5   1   78.89    7.80
   0   5  -1    1.30    1.90
   0   5  -1    1.40    2.00
   0   5  -1   -0.40    2.00
   0  -5   1    2.50    2.00
   0  -5   1    1.50    2.10
  -1   5  -1   21.70    3.20
  -1   5  -1   14.70    2.90
   1  -5   1   15.60    3.20
   1  -5   1   17.30    3.30
  -2   5  -1  285.77   24.00
  -2   5  -1  308.77   27.90
  -2   5  -1  338.87   23.50
   2  -5   1  320.17   23.90
   2  -5   1  353.76   27.90
  -3   5  -1   28.30    3.40
  -4   5  -1  181.28   16.50
  -4   5  -1  185.28   13.70
   4  -5   1  186.08   16.50
  -5   5  -1    1.90    1.20
  -5   5  -1    2.10    2.00
  -5   5  -1    4.70    1.20
   5  -5   1    8.50    2.60
  -8  -4   1   -3.40    2.60
  -8  -4   1   -0.10    1.60
   7   4  -1    3.50    4.70
  -7  -4   1    1.50    1.30
  -7  -4   1   12.30    5.10
   6   4  -1   44.00    7.70
  -6  -4   1   62.69    8.60
  -6  -4   1   52.59    5.10
  -6  -4   1   54.29    4.10
  -6  -4   1   48.70    5.00
   5   4  -1  296.77   27.20
  -5  -4   1  321.47   22.40
  -5  -4   1  332.07   22.60
  -5  -4   1  312.67   25.30
  -5  -4   1  292.97   27.00
   4   4  -1  480.65   38.60
  -4  -4   1  435.66   38.30
  -4  -4   1  428.66   36.00
  -4  -4   1  477.85   32.30
  -4  -4   1  423.86   32.10
   3   4  -1  156.98   14.20
   3   4  -1  196.18   16.50
  -3  -4   1  194.38   15.30
  -3  -4   1  197.28   16.30
   2   4  -1  598.54   49.70
   2   4  -1  515.25   41.70
  -2  -4   1  615.94   49.40
  -2  -4   1  580.44   41.60
  -2  -4   1  601.14   46.30
   1   4  -1    0.30    1.40
   1   4  -1    0.30    1.70
   1   4  -1    1.40    1.70
  -1  -4   1    0.80    1.90
  -1  -4   1    1.60    1.40
   0   4  -1  159.58   13.10
   0   4  -1  145.89   14.10
   0  -4   1  162.38   14.20
   0  -4   1  175.58   12.10
  -1   4  -1   86.69    7.90
  -1   4  -1  111.99    9.40
   1  -4   1  112.69    9.40
   1  -4   1   98.09    8.40
  -2   4  -1   39.50    4.40
  -2   4  -1   36.30    3.70
  -2   4  -1   36.10    5.10
   2  -4   1   37.70    5.10
   2  -4   1   45.60    4.50
  -3   4  -1    1.90    2.40
  -3   4  -1    0.50    1.60
   3  -4   1    2.20    1.70
   3  -4   1   -0.50    3.00
  -4   4  -1    9.70    2.80
   4  -4   1    7.90    3.00
  -5   4  -1    0.30    1.70
  -5   4  -1    1.00    2.90
  -5   4  -1   -1.00    0.90
   5  -4   1    5.70    2.10
  -6   4  -1   52.49    4.40
  -6   4  -1   51.49    7.20
   6  -4   1   58.89    6.50
   8   3  -1   -3.30    2.20
  -8  -3   1   -2.10    1.50
   7   3  -1   18.20    4.60
  -7  -3   1   29.30    5.10
  -7  -3   1   17.10    2.80
   5   3  -1  114.69   11.90
  -5  -3   1  124.99    9.30
  -5  -3   1  126.99    9.50
  -5  -3   1  145.49   11.10
   4   3  -1   19.20    2.80
  -4  -3   1   21.40    3.80
  -4  -3   1   14.50    2.90
  -4  -3   1   18.40    2.10
  -4  -3   1   17.90    2.80
   3   3  -1   10.00    2.00
   3   3  -1    7.50    2.00
  -3  -3   1   10.50    1.90
  -3  -3   1    7.70    1.40
  -3  -3   1    8.20    1.40
  -3  -3   1    8.70    1.60
   2   3  -1    6.30    1.60
  -2  -3   1    5.40    1.00
  -2  -3   1    4.30    1.20
   1   3  -1  179.18   16.70
  -1  -3   1  187.18   15.60
  -1  -3   1  202.88   16.80
  -1  -3   1  204.58   14.10
   0   3  -1  312.77   30.50
   0   3  -1  385.36   25.60
   0   3  -1  370.16   28.30
   0  -3   1  357.46   30.40
  -1   3  -1   70.59    5.90
  -1   3  -1   63.89    6.30
   1  -3   1   90.09    7.20
   1  -3   1   73.89    6.20
  -2   3  -1  256.87   21.10
  -2   3  -1  229.58   17.60
   2  -3   1  252.57   20.90
   2  -3   1  232.18   17.80
  -3   3  -1   23.80    3.80
  -3   3  -1   33.40    3.70
  -3   3  -1   26.30    2.60
   3  -3   1   27.80    3.70
  -4   3  -1    3.30    2.10
  -4   3  -1    4.20    1.20
  -4   3  -1    5.10    2.00
   4  -3   1    8.80    2.40
  -5   3  -1   12.40    1.70
  -5   3  -1   11.00    2.10
  -5   3  -1   12.60    2.40
   5  -3   1   13.20    3.80
  -6   3  -1    2.90    0.80
  -6   3  -1    1.80    1.70
  -6   3  -1    3.80    2.20
   6  -3   1    8.30    2.30
  -7   3  -1   -0.70    2.00
   7  -3   1    0.60    2.80
   8   2  -1   19.20    3.10
  -8  -2   1   17.30    3.20
  -8  -2   1   20.90    6.10
  -7  -2   1    0.70    4.30
  -7  -2   1    0.80    1.20
   6   2  -1   -0.20    2.90
  -6  -2   1    6.20    3.20
  -6  -2   1    1.30    1.80
   5   2  -1   21.30    3.30
  -5  -2   1   22.90    3.30
  -5  -2   1   29.40    4.10
   4   2  -1   -0.40    1.60
  -4  -2   1    1.70    1.20
  -4  -2   1   -1.10    2.00
  -4  -2   1    1.00    0.60
  -4  -2   1    1.80    0.80
   3   2  -1  163.68   13.10
  -3  -2   1  134.69   12.30
  -3  -2   1  135.69   10.80
  -3  -2   1  166.18   13.00
  -3  -2   1  149.39   10.90
   2   2  -1   75.89    6.30
   2   2  -1   66.49    5.40
  -2  -2   1   76.09    6.20
  -2  -2   1   74.19    6.00
  -2  -2   1   58.89    5.30
  -2  -2   1   63.09    5.20
   1   2  -1   25.30    2.90
   1   2  -1   15.60    2.40
  -1  -2   1   14.90    2.40
  -1  -2   1   22.20    2.40
  -1  -2   1   19.20    2.20
  -1  -2   1   26.30    3.40
   0   2  -1   12.70    2.30
   0   2  -1    9.30    1.30
   0  -2   1    8.70    1.80
   0  -2   1    8.60    1.20
  -1   2  -1   10.00    1.40
  -1   2  -1   16.00    2.50
   1  -2   1    9.20    1.50
   1  -2   1   10.80    1.90
  -2   2  -1  110.99    8.50
  -2   2  -1  133.29   10.20
  -2   2  -1  109.69    8.40
   2  -2   1  113.09    8.60
   2  -2   1  104.09   10.10
  -3   2  -1  112.09   10.40
  -3   2  -1  118.19    8.40
  -3   2  -1  129.39    8.60
   3  -2   1   97.79   10.10
  -4   2  -1  156.58   10.50
  -4   2  -1  142.29   10.30
  -4   2  -1  132.99   12.80
   4  -2   1  130.09   12.60
  -5   2  -1   27.00    4.50
  -5   2  -1   30.90    2.70
  -5   2  -1   34.00    3.40
  -5   2  -1   30.60    4.60
   5  -2   1   25.80    5.40
  -6   2  -1   15.30    3.40
  -6   2  -1   19.50    3.20
   6  -2   1   17.00    4.50
  -7   2  -1   33.20    4.40
  -7   2  -1   41.30    7.20
   7  -2   1   23.10    4.90
   8   1  -1   -1.90    2.40
  -8  -1   1    2.30    1.70
  -7  -1   1    4.60    4.30
  -6  -1   1   -0.10    3.10
  -6  -1   1    0.80    2.60
  -6  -1   1   -2.20    2.10
  -5  -1   1   24.10    4.00
  -5  -1   1   25.20    4.60
  -5  -1   1   24.30    3.40
  -4  -1   1  259.37   20.60
  -4  -1   1  240.68   22.00
  -4  -1   1  262.87   21.80
  -3  -1   1    1.60    1.60
  -3  -1   1    1.00    0.50
  -3  -1   1    0.10    1.40
  -3  -1   1    0.30    1.10
  -3  -1   1    0.40    0.60
   2   1  -1 1046.20   80.69
  -2  -1   1  808.82   75.09
  -2  -1   1 1093.09   79.99
  -2  -1   1  875.71   67.29
  -2  -1   1  926.81   67.29
   1   1  -1   82.19    6.40
   1   1  -1   74.49    5.30
  -1  -1   1   61.09    6.20
  -1  -1   1   72.99    5.90
  -1  -1   1   68.39    5.30
   0   1  -1 1277.37  113.69
   0  -1   1 1520.95   94.89
   0  -1   1 1224.18  105.79
  -1   1  -1  591.14   44.50
  -1   1  -1  504.95   37.10
   1  -1   1  481.65   44.20
   1  -1   1  515.85   37.20
  -2   1  -1   74.49    5.90
  -2   1  -1   79.49    5.90
  -2   1  -1   84.99    7.30
  -3   1  -1    2.10    0.60
  -3   1  -1    2.80    0.80
  -3   1  -1    1.70    1.00
  -3   1  -1    3.30    1.60
   3  -1   1    0.90    1.30
  -4   1  -1  149.59    9.50
  -4   1  -1  120.29   11.80
  -4   1  -1  123.49    9.40
  -4   1  -1  131.19   10.90
   4  -1   1  130.99   11.70
  -5   1  -1    7.90    2.20
  -5   1  -1    9.50    2.20
   5  -1   1   10.10    2.80
  -6   1  -1    1.90    2.60
   6  -1   1    2.50    3.60
  -7   1  -1    7.10    2.00
  -7   1  -1    6.00    3.50
   7  -1   1   12.70    2.50
  -8   1  -1    1.20    2.10
  -8   1  -1    2.60    2.40
   8  -1   1    5.30    2.60
   8   0  -1    4.60    2.40
  -8   0   1    2.20    2.30
  -8   0   1   -0.30    1.80
   7   0  -1   36.60    5.30
  -7   0   1   29.80    4.30
   6   0  -1    6.90    3.10
  -6   0   1    2.80    2.50
  -6   0   1    8.90    2.50
  -5   0   1   18.90    3.10
  -5   0   1   15.30    2.50
  -5   0   1   15.00    2.60
  -4   0   1  130.69   10.70
  -4   0   1  130.89   11.50
  -4   0   1  121.09   11.30
  -3   0   1   67.49    6.50
  -3   0   1   75.39    6.60
  -3   0   1   69.59    5.10
  -3   0   1   66.59    6.10
  -2   0   1  709.53   57.19
  -2   0   1  770.92   51.19
  -2   0   1  684.33   51.19
  -2   0   1  727.03   60.89
  -1   0   1  244.18   17.30
   1   0   1  102.69   10.70
   1   0   1  123.29    9.90
   1   0   1  130.09    8.90
  -2   0  -1    5.10    1.00
  -2   0  -1    4.60    1.50
  -3   0  -1    6.20    1.50
  -3   0  -1    3.60    1.50
  -3   0  -1    3.80    1.10
  -4   0  -1   -0.40    1.30
  -4   0  -1   -0.70    1.70
  -4   0  -1   -0.20    1.30
  -5   0  -1   41.30    4.60
  -5   0  -1   36.20    5.30
  -5   0  -1   33.20    4.50
  -6   0  -1   -0.40    3.20
  -6   0  -1   -0.10    2.30
  -6   0  -1    0.70    2.40
  -7   0  -1    1.80    3.00
  -7   0  -1    0.50    1.70
   7   0   1    0.00    4.00
  -8   0  -1    9.40    2.10
  -8   0  -1   10.40    2.70
   8   0   1   13.50    2.70
   8  -1  -1   -2.90    2.60
  -8   1   1    1.10    2.50
  -8   1   1    4.60    2.10
   7  -1  -1   85.29   10.60
  -7   1   1   92.29    9.70
  -7   1   1   81.29    8.50
   6  -1  -1    3.50    3.10
  -6   1   1    2.10    2.80
   5  -1  -1   28.70    5.10
  -5   1   1   30.10    4.10
  -5   1   1   33.20    4.50
   4  -1  -1   79.19    7.60
  -4   1   1   81.09    5.90
  -4   1   1   75.69    7.50
  -4   1   1   82.29    7.10
  -4   1   1   77.39    5.80
   3  -1  -1   22.80    3.20
  -3   1   1   24.90    2.30
  -3   1   1   24.10    2.20
  -3   1   1   25.40    3.40
  -3   1   1   26.20    2.90
   2  -1  -1    5.50    1.30
  -2   1   1    6.80    0.90
  -2   1   1    6.70    1.20
  -2   1   1    6.20    1.00
  -2   1   1    8.40    1.70
   1  -1  -1  248.78   17.10
   1  -1  -1  229.88   20.40
  -1   1   1  236.38   17.10
  -1   1   1  243.88   19.10
   0  -1  -1   90.79    5.80
   0   1   1   67.59    6.90
  -1  -1  -1    7.00    1.20
  -2  -1  -1 2938.81  200.78
  -2  -1  -1 2736.93  223.98
  -3  -1  -1  359.96   28.90
  -3  -1  -1  361.46   29.10
  -3  -1  -1  294.17   27.10
  -4  -1  -1 1062.89   80.79
  -4  -1  -1  974.80   86.59
  -5  -1  -1   18.80    3.80
  -5  -1  -1   17.80    3.40
  -5  -1  -1   21.40    3.30
  -6  -1  -1  284.27   24.80
  -6  -1  -1  278.87   23.10
  -7  -1  -1    8.20    4.10
  -7  -1  -1    3.80    3.00
  -8  -1  -1   11.40    2.70
  -8  -1  -1    9.40    2.10
  -8  -1  -1   19.30    3.80
   7  -2  -1    3.90    2.30
  -7   2   1   -0.40    4.00
  -7   2   1   -1.90    1.80
   6  -2  -1   50.59    7.90
  -6   2   1   56.69    4.50
  -6   2   1   47.60    5.50
  -6   2   1   51.99    7.00
   5  -2  -1   31.60    4.20
  -5   2   1   27.40    5.00
  -5   2   1   25.40    2.50
  -5   2   1   25.60    4.10
  -5   2   1   29.30    3.40
   4  -2  -1   16.50    2.70
  -4   2   1   12.90    2.10
  -4   2   1   12.90    1.80
  -4   2   1   11.50    1.50
  -4   2   1   13.30    2.50
   3  -2  -1   30.50    4.10
  -3   2   1   34.40    3.60
  -3   2   1   35.60    3.30
  -3   2   1   35.70    4.10
  -3   2   1   37.00    3.10
   2  -2  -1    7.20    1.50
   2  -2  -1    7.20    1.70
  -2   2   1    7.50    1.40
  -2   2   1   10.20    1.90
  -2   2   1    7.40    1.10
  -2   2   1   11.30    1.80
   1  -2  -1  206.98   17.20
   1  -2  -1  200.08   14.50
  -1   2   1  189.48   14.40
  -1   2   1  203.48   16.00
   0  -2  -1  796.52   57.69
   0  -2  -1  703.23   68.59
   0   2   1  866.81   57.79
   0   2   1  792.82   64.29
   0   2   1  909.01   57.79
  -1  -2  -1   47.20    3.50
  -1  -2  -1   51.79    4.60
  -1  -2  -1   37.40    3.50
   1   2   1   41.20    4.00
   1   2   1   36.90    3.50
  -2  -2  -1   93.79    6.80
  -2  -2  -1   97.49    7.80
  -2  -2  -1   86.69    6.70
   2   2   1   87.89    6.80
  -3  -2  -1   58.29    5.30
  -3  -2  -1   52.39    5.10
  -3  -2  -1   54.99    4.30
  -3  -2  -1   46.20    4.10
   3   2   1   63.49    5.20
  -4  -2  -1  145.19   12.10
  -4  -2  -1  156.88   10.50
  -4  -2  -1  135.09   10.50
  -4  -2  -1  147.79   13.10
  -5  -2  -1    9.70    2.80
  -5  -2  -1    6.50    2.30
  -5  -2  -1    5.30    1.60
  -7  -2  -1   48.40    7.60
  -7  -2  -1   33.20    4.00
   7   2   1   44.60    7.40
  -8  -2  -1   56.79    6.00
   8   2   1   49.99    6.00
   7  -3  -1    3.60    2.70
  -7   3   1    1.60    2.00
  -6   3   1    2.90    2.20
  -6   3   1    0.00    1.50
  -6   3   1    0.20    0.70
  -6   3   1    0.20    3.50
   5  -3  -1    1.90    3.60
  -5   3   1    0.20    0.70
  -5   3   1    3.90    1.40
  -5   3   1    1.40    2.70
  -5   3   1    3.10    2.10
   4  -3  -1   18.80    3.50
  -4   3   1   20.90    3.80
  -4   3   1   20.00    2.60
  -4   3   1   21.20    3.70
  -4   3   1   18.00    2.40
   3  -3  -1   55.79    6.20
  -3   3   1   59.49    4.70
  -3   3   1   64.39    5.90
  -3   3   1   59.89    5.30
   2  -3  -1  135.39   10.80
   2  -3  -1  139.19   12.40
  -2   3   1  158.68   12.50
  -2   3   1  131.29   10.40
   1  -3  -1   11.50    1.80
  -1   3   1   11.60    2.00
  -1   3   1   10.20    1.70
  -1   3   1   17.10    2.40
   0  -3  -1 1499.75  125.39
   0  -3  -1 1568.54  105.49
   0   3   1 1428.66  117.49
   0   3   1 1371.36  126.19
   0   3   1 1571.04  105.49
  -1  -3  -1   78.19    7.60
  -1  -3  -1   79.29    6.20
   1   3   1   85.39    6.30
   1   3   1   77.99    6.90
  -2  -3  -1   66.79    6.00
  -2  -3  -1   73.99    5.30
   2   3   1   63.19    5.60
  -3  -3  -1   27.10    3.20
  -3  -3  -1   29.70    3.40
  -3  -3  -1   24.20    2.90
  -3  -3  -1   22.00    2.30
  -4  -3  -1  117.89   10.20
  -4  -3  -1  129.89    9.00
  -4  -3  -1  117.79   10.80
  -4  -3  -1  115.29    8.80
  -5  -3  -1   65.49    6.00
  -5  -3  -1   64.19    5.00
  -5  -3  -1   57.19    4.70
  -5  -3  -1   69.29    7.10
   5   3   1   55.49    6.50
  -6  -3  -1   10.80    2.20
   6   3   1   12.60    3.30
  -7  -3  -1    1.80    4.10
  -7  -3  -1   -0.70    1.30
   7   3   1    0.10    3.70
  -8  -3  -1    2.80    1.60
  -8  -3  -1    0.40    2.50
   8   3   1    3.60    2.30
   6  -4  -1   36.10    5.00
  -6   4   1   37.10    4.80
  -6   4   1   42.00    6.60
  -6   4   1   46.80    3.50
  -5   4   1   79.49    6.30
  -5   4   1   76.09    7.90
  -5   4   1   92.79    8.10
   4  -4  -1   14.70    3.70
  -4   4   1   13.30    3.00
   3  -4  -1   20.60    3.50
   3  -4  -1   20.60    3.20
  -3   4   1   20.60    3.30
  -3   4   1   18.80    2.90
  -3   4   1   18.80    2.30
   2  -4  -1    7.50    2.00
   2  -4  -1    8.00    2.70
  -2   4   1    7.30    1.30
  -2   4   1    4.50    2.20
  -2   4   1    6.40    1.90
   1  -4  -1   72.89    6.30
   1  -4  -1   62.29    5.90
  -1   4   1   64.19    5.90
  -1   4   1   53.59    5.30
  -1   4   1   65.19    6.30
   0  -4  -1  133.59    9.30
   0  -4  -1  109.19   10.30
   0   4   1  115.29    8.80
   0   4   1  103.69   10.30
   0   4   1  113.99    9.60
  -1  -4  -1  140.69   10.30
  -1  -4  -1  128.99   12.30
   1   4   1  138.49   11.40
   1   4   1  140.89   10.50
  -2  -4  -1  671.03   50.69
  -2  -4  -1  717.63   60.19
   2   4   1  754.62   50.79
   2   4   1  703.53   56.49
  -3  -4  -1   57.09    4.40
  -3  -4  -1   46.50    4.90
  -3  -4  -1   57.29    5.10
   3   4   1   57.89    5.60
  -4  -4  -1   18.40    2.90
  -4  -4  -1   26.30    3.90
  -4  -4  -1   17.00    2.10
  -4  -4  -1   19.30    3.30
  -5  -4  -1    7.10    1.20
  -5  -4  -1    9.90    2.30
  -5  -4  -1    9.60    2.80
  -5  -4  -1    8.50    1.90
  -6  -4  -1   12.10    1.90
  -6  -4  -1    8.60    1.90
  -6  -4  -1   15.80    3.90
  -7  -4  -1   50.09    5.20
  -7  -4  -1   61.49    9.00
   7   4   1   45.00    8.50
  -8  -4  -1   -0.30    1.50
  -8  -4  -1   -0.90    2.40
   8   4   1    0.10    5.60
  -5   5   1   24.10    2.60
  -5   5   1   22.40    3.90
   4  -5  -1  187.28   16.40
  -4   5   1  186.88   13.60
  -4   5   1  174.98   16.40
   3  -5  -1   38.60    5.60
  -3   5   1   35.20    3.80
   2  -5  -1   30.20    4.30
  -2   5   1   20.90    3.30
  -2   5   1   17.80    3.60
  -2   5   1   22.50    4.20
   1  -5  -1   16.30    3.00
   1  -5  -1   17.30    3.20
  -1   5   1   15.90    2.50
  -1   5   1   14.80    2.50
  -1   5   1   19.90    3.10
   0  -5  -1   49.10    5.40
   0  -5  -1   49.60    5.50
   0   5   1   49.40    5.90
   0   5   1   53.49    5.50
   0   5   1   62.89    6.10
  -1  -5  -1    1.50    2.10
  -1  -5  -1    0.70    2.10
   1   5   1    1.20    2.10
   1   5   1    0.10    1.60
   1   5   1   -2.80    2.10
  -2  -5  -1   48.80    5.60
  -2  -5  -1   51.29    4.70
   2   5   1   54.89    5.20
   2   5   1   49.70    5.70
  -3  -5  -1  139.69   11.00
  -3  -5  -1  159.78   13.20
   3   5   1  146.19   11.80
  -4  -5  -1   13.80    2.70
  -4  -5  -1   17.50    2.80
  -4  -5  -1   21.70    3.90
  -4  -5  -1   13.60    2.00
   4   5   1   17.50    4.00
  -5  -5  -1   30.00    4.30
  -5  -5  -1   28.40    4.70
  -5  -5  -1   24.30    3.90
  -6  -5  -1   41.90    7.20
  -6  -5  -1   30.10    3.70
  -6  -5  -1   28.40    2.70
  -6  -5  -1   31.00    5.10
  -7  -5  -1   13.70    1.90
  -7  -5  -1   17.20    3.10
  -7  -5  -1   19.60    3.00
  -7  -5  -1   15.00    2.60
  -8  -5  -1   13.00    3.10
   5  -6  -1    0.40    3.20
  -5   6   1   -1.70    2.10
   4  -6  -1    5.40    2.80
  -4   6   1    8.30    2.10
  -4   6   1    6.90    1.50
   3  -6  -1   28.20    4.30
  -3   6   1   23.20    3.20
  -3   6   1   26.70    4.00
   2  -6  -1  190.08   16.60
   2  -6  -1  201.48   18.00
  -2   6   1  213.68   15.40
  -2   6   1  193.28   18.40
   1  -6  -1  264.47   21.90
   1  -6  -1  251.67   19.30
  -1   6   1  254.07   18.90
  -1   6   1  229.68   22.30
   0  -6  -1  327.57   24.10
   0  -6  -1  320.77   28.00
   0   6   1  319.47   28.30
   0   6   1  346.07   24.10
   0   6   1  305.17   26.20
  -1  -6  -1  489.25   33.50
  -1  -6  -1  426.56   39.50
   1   6   1  465.55   37.00
   1   6   1  490.15   33.70
   1   6   1  437.86   39.70
  -2  -6  -1  173.28   12.00
  -2  -6  -1  126.89   13.30
   2   6   1  159.48   13.00
   2   6   1  139.09   12.70
  -3  -6  -1   34.10    4.00
  -3  -6  -1   35.30    4.40
   3   6   1   35.70    4.90
   3   6   1   28.50    4.60
  -4  -6  -1    8.20    2.70
  -4  -6  -1    8.10    1.50
   4   6   1    5.60    2.20
  -5  -6  -1   15.50    2.00
  -5  -6  -1   12.70    3.70
   5   6   1   12.00    2.20
  -6  -6  -1    7.00    2.30
  -6  -6  -1    7.70    1.20
  -7  -6  -1   11.00    2.70
  -7  -6  -1   18.40    3.00
  -7  -6  -1    4.60    3.20
   3  -7  -1    7.10    2.50
  -3   7   1    4.40    1.80
  -3   7   1    1.90    2.10
   2  -7  -1   -2.20    2.00
  -2   7   1    1.20    2.00
  -2   7   1   -0.90    1.70
   1  -7  -1   -3.00    4.50
   1  -7  -1    0.40    1.90
  -1   7   1   -2.00    3.30
   0  -7  -1    6.20    2.00
   0  -7  -1    7.80    3.90
   0   7   1    5.60    2.90
   0   7   1    3.60    3.80
   0   7   1    6.20    4.00
  -1  -7  -1   12.80    2.50
  -1  -7  -1   10.20    3.30
   1   7   1   11.00    4.00
   1   7   1   11.50    3.40
   1   7   1   11.30    3.90
  -2  -7  -1   52.79    6.50
  -2  -7  -1   45.10    5.20
   2   7   1   48.60    8.30
   2   7   1   51.59    6.40
  -3  -7  -1   74.09    6.80
  -3  -7  -1   58.09    6.40
   3   7   1   74.49    7.80
   3   7   1   64.89    9.80
  -4  -7  -1   73.69    6.30
  -4  -7  -1   81.69    7.40
   4   7   1   77.59    7.20
  -5  -7  -1    4.70    1.20
   5   7   1    1.40    1.70
  -6  -7  -1   -1.00    2.20
  -6  -7  -1    0.90    1.00
   6   7   1    0.70    1.80
  -7  -7  -1   27.10    4.80
  -7  -7  -1   17.80    2.50
   7   7   1   16.40    3.00
   2  -8  -1    9.10    2.90
  -2   8   1    9.50    2.40
  -2   8   1    6.70    2.30
   1  -8  -1   27.80    4.70
  -1   8   1   27.50    4.30
   0  -8  -1   85.99   11.50
   0  -8  -1  101.99    9.10
   0   8   1   77.29    9.90
   0   8   1  109.69   10.90
  -1  -8  -1   20.80    4.60
  -1  -8  -1   13.80    2.70
   1   8   1   14.10    5.30
   1   8   1   13.90    4.10
   1   8   1   21.70    5.00
  -2  -8  -1   58.79    6.70
  -2  -8  -1   79.69    8.60
   2   8   1   69.19    9.10
   2   8   1   69.69    8.30
   2   8   1   74.59   11.00
  -3  -8  -1    1.40    1.70
  -3  -8  -1   -0.80    1.30
   3   8   1    1.20    1.60
  -4  -8  -1   -0.20    1.70
  -4  -8  -1    3.80    1.40
   4   8   1   -2.90    1.90
  -5  -8  -1    3.80    1.30
  -5  -8  -1    2.10    1.70
   5   8   1   -2.50    1.90
  -6  -8  -1    9.00    2.50
  -6  -8  -1    8.60    1.50
   6   8   1    7.50    2.50
   0  -9  -1   22.30    3.50
   0   9   1   19.50    3.20
  -1  -9  -1    5.70    6.00
  -1  -9  -1   10.80    2.40
   1   9   1   10.40    6.30
   2   9   1    6.70    2.10
   2   9   1    1.80    5.60
  -4  -9  -1    3.60    1.90
  -4  -9  -1    5.90    1.70
   4   9   1    2.80    2.10
   2   9  -2   20.70    4.20
   1   9  -2    2.10    5.10
   1   9  -2   -2.60    2.60
   1   9  -2   -2.70    7.40
  -1  -9   2   -1.10    2.40
   5   8  -2    9.90    2.50
  -5  -8   2   14.30    2.40
  -5  -8   2   13.60    1.80
   4   8  -2   -0.70    2.10
  -4  -8   2    2.50    1.90
  -4  -8   2    0.40    1.40
   3   8  -2   14.10    4.90
   3   8  -2   13.10    2.40
   2   8  -2   32.80    5.90
   2   8  -2   27.80    5.20
   2   8  -2   30.90    6.10
  -2  -8   2   41.50    4.60
   1   8  -2    2.20    4.00
   1   8  -2    3.70    7.20
  -1  -8   2    7.00    2.40
  -1  -8   2    5.60    4.30
   0   8  -2    3.90    2.40
   0   8  -2    0.40    4.60
   0  -8   2    6.80    4.80
   0  -8   2    6.90    2.40
  -1   8  -2   14.80    2.30
   1  -8   2   12.80    3.00
  -2   8  -2   16.70    2.70
   2  -8   2   17.40    3.20
  -6  -7   2   17.30    2.40
  -6  -7   2   10.60    2.80
  -5  -7   2    6.50    1.70
  -5  -7   2    1.60    1.10
  -4  -7   2    0.80    1.70
  -4  -7   2    1.90    1.20
   3   7  -2    1.30    3.20
   3   7  -2    2.50    4.00
  -3  -7   2    2.40    1.70
  -3  -7   2    0.50    2.50
   2   7  -2   -0.50    3.80
   2   7  -2    0.80    3.30
   2   7  -2    2.10    3.50
  -2  -7   2    1.50    2.80
   1   7  -2    0.70    3.70
   1   7  -2   -0.30    3.00
   1   7  -2    1.60    4.10
  -1  -7   2   -0.30    1.90
  -1  -7   2    0.90    3.30
   0   7  -2   33.60    6.70
   0   7  -2   45.10    6.40
   0  -7   2   29.60    4.70
   0  -7   2   27.10    4.30
  -1   7  -2   -1.00    3.60
  -1   7  -2    1.90    2.00
   1  -7   2    5.30    2.20
   1  -7   2    4.40    4.20
  -2   7  -2   -3.80    2.10
  -2   7  -2    3.00    1.70
   2  -7   2    0.90    2.10
  -3   7  -2    2.90    1.70
  -3   7  -2    5.50    2.30
   3  -7   2    0.80    2.40
  -7  -6   2    5.70    1.20
  -7  -6   2    6.90    1.90
  -7  -6   2   13.30    2.80
   6   6  -2   -0.70    5.40
  -6  -6   2    0.20    1.40
  -6  -6   2   -0.70    0.90
  -5  -6   2    2.30    3.60
  -5  -6   2    0.20    1.30
  -5  -6   2    0.60    0.90
   4   6  -2   19.80    4.70
  -4  -6   2   16.20    3.10
  -4  -6   2   16.40    3.50
   3   6  -2   12.20    4.00
   3   6  -2   13.60    3.80
  -3  -6   2   13.00    3.10
  -3  -6   2    8.90    2.70
  -3  -6   2   10.50    2.10
   2   6  -2   -0.50    3.20
   2   6  -2   -1.10    3.30
   2   6  -2    0.70    2.50
  -2  -6   2   -3.00    2.30
  -2  -6   2    0.90    2.20
   1   6  -2    7.00    2.90
   1   6  -2    4.00    2.90
  -1  -6   2    6.80    2.70
  -1  -6   2   10.60    2.60
   0   6  -2   23.70    4.10
   0   6  -2   27.50    3.90
   0  -6   2   34.10    5.00
   0  -6   2   29.90    5.10
  -1   6  -2   -2.10    2.80
  -1   6  -2   -2.00    3.00
   1  -6   2    0.10    3.00
  -2   6  -2   -0.40    2.40
   2  -6   2    2.30    2.00
  -3   6  -2   -4.00    2.10
  -3   6  -2    1.00    1.20
   3  -6   2   -2.00    2.10
  -4   6  -2   16.90    2.20
   4  -6   2   24.30    3.80
  -7  -5   2   14.50    2.90
  -7  -5   2   14.60    1.80
   6   5  -2    4.30    4.80
  -6  -5   2    0.50    1.20
  -6  -5   2    2.80    2.70
  -6  -5   2   14.90    4.40
   5   5  -2    5.00    3.90
  -5  -5   2    4.10    1.20
  -5  -5   2    2.10    0.90
  -5  -5   2    4.50    3.50
  -5  -5   2    1.40    3.00
   4   5  -2    7.80    4.00
   4   5  -2    6.70    3.50
  -4  -5   2    3.00    2.90
  -4  -5   2    2.70    1.20
  -4  -5   2    5.90    1.50
  -4  -5   2    6.30    2.80
   3   5  -2   60.19    7.10
   3   5  -2   66.09    7.10
  -3  -5   2   49.60    4.90
  -3  -5   2   49.60    6.70
  -3  -5   2   63.09    6.40
   2   5  -2   43.80    5.80
   2   5  -2   32.70    5.30
  -2  -5   2   34.10    4.90
  -2  -5   2   46.60    4.20
  -2  -5   2   35.90    4.60
   1   5  -2    8.20    2.60
   1   5  -2    9.00    2.20
   1   5  -2   12.40    3.70
  -1  -5   2   10.50    2.50
  -1  -5   2   11.60    2.80
   0   5  -2    2.30    2.20
   0   5  -2    0.40    2.00
   0   5  -2    0.20    1.90
   0  -5   2    1.70    1.90
   0  -5   2    3.50    2.00
  -1   5  -2    1.30    2.20
  -1   5  -2    1.00    1.90
   1  -5   2   -0.60    2.40
   1  -5   2    1.30    2.20
  -2   5  -2   13.40    3.90
  -2   5  -2   16.60    2.40
  -2   5  -2   21.60    3.70
   2  -5   2   20.00    3.60
   2  -5   2   23.40    3.80
  -4   5  -2   17.60    2.50
   4  -5   2   21.60    4.00
  -5   5  -2   19.50    2.60
   5  -5   2   14.00    3.40
   8   4  -2   -4.50    2.50
  -8  -4   2    1.70    1.60
   7   4  -2    1.00    4.70
  -7  -4   2    2.20    1.50
  -7  -4   2    7.10    5.10
  -7  -4   2    0.10    1.30
   6   4  -2    3.10    3.80
   5   4  -2  223.28   18.40
  -5  -4   2  193.38   16.80
  -5  -4   2  205.98   15.20
  -5  -4   2  191.18   14.80
  -4  -4   2   12.90    2.20
  -4  -4   2   13.80    1.80
  -4  -4   2   10.80    2.50
  -4  -4   2   13.00    2.70
   3   4  -2   14.90    2.90
  -3  -4   2   15.90    2.50
  -3  -4   2    9.60    1.70
  -3  -4   2   10.30    1.40
   2   4  -2   12.30    2.50
   2   4  -2    8.40    2.30
  -2  -4   2   12.80    2.30
  -2  -4   2    6.50    2.10
  -2  -4   2   11.90    2.20
   1   4  -2   86.29    6.40
   1   4  -2   63.49    6.90
  -1  -4   2   70.29    7.10
  -1  -4   2   69.19    6.40
   0   4  -2   10.40    2.00
   0   4  -2    6.90    1.80
   0  -4   2    7.30    1.80
   0  -4   2    9.30    2.10
  -1   4  -2  153.38   13.10
  -1   4  -2  185.28   15.50
   1  -4   2  174.28   13.40
   1  -4   2  193.58   15.60
  -2   4  -2   -0.70    2.30
  -2   4  -2    0.50    1.50
  -2   4  -2   -0.60    1.00
   2  -4   2   -0.20    2.20
   2  -4   2    0.40    1.40
  -3   4  -2   38.80    5.40
  -3   4  -2   38.60    3.50
  -3   4  -2   36.60    4.60
   3  -4   2   34.50    4.60
   3  -4   2   38.90    6.30
  -4   4  -2    1.30    2.80
  -5   4  -2   24.60    3.80
  -5   4  -2   25.90    2.60
  -5   4  -2   22.80    3.80
   5  -4   2   22.60    3.60
  -6   4  -2    3.30    0.90
  -6   4  -2    3.40    2.00
  -6   4  -2    0.00    3.10
   8   3  -2   -3.50    2.40
  -8  -3   2   -1.00    6.20
  -8  -3   2    2.50    1.40
  -7  -3   2   47.40    8.20
  -7  -3   2   42.70    4.50
   6   3  -2    7.50    3.50
  -6  -3   2    6.80    1.40
  -6  -3   2   13.20    4.30
   5   3  -2  144.49   15.00
  -5  -3   2  159.98   12.20
  -5  -3   2  191.98   15.20
  -5  -3   2  164.48   12.00
  -5  -3   2  168.98   14.00
   4   3  -2    0.10    2.10
  -4  -3   2    1.10    1.40
  -4  -3   2    0.20    2.10
  -4  -3   2   -0.70    0.80
  -4  -3   2   -0.10    1.10
   3   3  -2  126.49   10.00
   3   3  -2  102.29    8.70
  -3  -3   2   96.99    8.10
  -3  -3   2  105.49    8.40
  -3  -3   2  102.39    9.10
  -3  -3   2  120.99    9.80
   2   3  -2    5.80    1.80
   2   3  -2    5.70    1.90
  -2  -3   2    4.10    1.10
  -2  -3   2    3.80    1.40
  -2  -3   2    7.60    1.90
  -2  -3   2    4.30    1.10
   1   3  -2  383.16   34.30
  -1  -3   2  412.26   34.10
  -1  -3   2  407.36   31.90
   0   3  -2  207.18   14.10
   0   3  -2  169.28   16.70
   0  -3   2  206.88   14.20
   0  -3   2  189.38   16.80
  -1   3  -2   93.39    7.40
  -1   3  -2   65.89    6.70
  -1   3  -2   71.19    6.20
   1  -3   2   71.39    6.40
   1  -3   2   93.39    7.60
  -2   3  -2  210.88   16.40
  -2   3  -2  242.78   19.70
   2  -3   2  244.08   19.60
   2  -3   2  206.48   16.60
  -3   3  -2  167.78   12.10
  -3   3  -2  166.98   11.70
  -3   3  -2  159.48   14.30
   3  -3   2  143.39   14.00
  -4   3  -2   20.00    2.40
  -4   3  -2   20.10    3.50
  -4   3  -2   21.70    2.80
   4  -3   2   24.10    4.10
  -5   3  -2   14.20    1.80
  -5   3  -2   16.20    2.60
  -5   3  -2   13.10    2.30
   5  -3   2   16.70    4.20
  -6   3  -2   -0.20    1.90
  -6   3  -2    3.40    1.70
  -6   3  -2    2.30    0.70
   6  -3   2   -3.20    2.30
  -7   3  -2    7.50    2.30
   7  -3   2    9.50    3.10
  -8  -2   2    5.10    1.60
  -8  -2   2   12.30    5.70
  -7  -2   2   11.40    4.80
  -7  -2   2    6.70    1.80
   6   2  -2   51.39    7.20
  -6  -2   2   64.89    7.60
  -6  -2   2   60.29    6.00
   5   2  -2   29.00    3.80
  -5  -2   2   25.40    3.50
  -5  -2   2   25.10    2.60
  -5  -2   2   28.50    2.30
   4   2  -2   86.79    8.50
  -4  -2   2   93.09    6.90
  -4  -2   2  105.19    8.80
  -4  -2   2   87.69    6.80
  -4  -2   2   87.59    8.00
   3   2  -2   12.10    2.00
  -3  -2   2   13.60    1.90
  -3  -2   2    9.10    1.70
  -3  -2   2   10.40    1.70
  -3  -2   2   11.30    1.50
   2   2  -2   40.20    4.10
   2   2  -2   49.40    4.70
  -2  -2   2   53.69    4.40
  -2  -2   2   39.20    3.80
  -2  -2   2   53.09    4.60
   1   2  -2 1360.36  123.09
  -1  -2   2 1409.66  114.49
  -1  -2   2 1516.95  122.09
  -1  -2   2 1514.85  102.79
   0   2  -2   34.00    3.90
   0  -2   2   32.10    4.00
   0  -2   2   33.30    3.00
   0  -2   2   34.80    3.10
  -1   2  -2   77.89    6.30
  -1   2  -2   73.19    6.20
   1  -2   2   77.09    6.30
   1  -2   2   95.99    7.50
  -2   2  -2   33.10    3.00
  -2   2  -2   43.20    4.20
  -2   2  -2   30.60    3.40
   2  -2   2   32.10    3.50
   2  -2   2   35.50    3.80
  -3   2  -2    1.40    1.30
  -3   2  -2    0.50    0.80
  -3   2  -2    0.10    1.80
   3  -2   2    1.30    1.30
  -4   2  -2   10.80    1.70
  -4   2  -2    9.30    2.40
  -4   2  -2   12.00    1.80
   4  -2   2   12.80    2.40
  -5   2  -2    2.70    1.40
  -5   2  -2    2.60    0.90
  -5   2  -2    2.50    2.00
   5  -2   2    0.70    2.70
  -6   2  -2   15.90    3.20
  -7   2  -2    3.90    1.80
   7  -2   2   -0.40    2.50
   8   1  -2    7.30    2.60
  -8  -1   2    5.40    1.90
   7   1  -2    0.20    1.90
  -7  -1   2   -1.70    1.30
   6   1  -2   16.90    3.50
  -6  -1   2   15.40    2.90
  -6  -1   2   18.90    3.80
  -5  -1   2   35.10    4.10
  -4  -1   2    8.10    2.00
  -4  -1   2    7.70    1.60
  -4  -1   2    6.80    0.90
  -4  -1   2    9.50    1.10
   3   1  -2   13.90    2.40
  -3  -1   2   13.80    1.70
  -3  -1   2   13.30    1.80
  -3  -1   2   13.70    1.60
   2   1  -2   37.90    3.30
   2   1  -2   44.00    3.90
  -2  -1   2   34.60    3.70
  -2  -1   2   35.90    3.10
  -2  -1   2   35.90    3.10
   1   1  -2  102.79    8.20
   1   1  -2   90.39    6.90
  -1  -1   2   84.79    6.80
   0   1  -2  844.72   75.69
   0   1  -2  962.90   63.29
   0  -1   2  771.52   75.09
   0  -1   2  997.10   63.29
   0  -1   2  885.21   63.19
  -1   1  -2 2028.00  164.28
  -1   1  -2 1777.72  137.09
   1  -1   2 1868.31  137.09
   1  -1   2 2072.29  162.98
  -2   1  -2  326.97   22.70
  -2   1  -2  341.37   27.30
  -2   1  -2  321.57   22.70
   2  -1   2  321.17   27.10
   2  -1   2  281.27   22.70
  -3   1  -2   17.40    3.00
  -3   1  -2   17.60    1.80
  -3   1  -2   19.10    2.00
   3  -1   2   14.10    2.70
  -4   1  -2  222.38   21.30
  -4   1  -2  260.47   19.80
  -4   1  -2  253.07   17.60
  -4   1  -2  249.88   17.50
   4  -1   2  242.38   21.20
  -5   1  -2   13.20    2.40
  -5   1  -2   14.20    2.60
   5  -1   2   13.90    3.00
  -6   1  -2   28.30    5.20
   6  -1   2   30.20    5.00
  -7   1  -2   -1.20    3.30
  -7   1  -2   -3.20    1.70
   7  -1   2   -3.50    2.20
  -8   1  -2   30.10    5.00
   8  -1   2   45.30    5.60
   8   0  -2   19.00    6.00
  -8   0   2   25.00    4.30
   7   0  -2    3.30    4.00
  -7   0   2    0.50    1.80
  -7   0   2    2.40    1.50
   6   0  -2    2.70    2.90
  -6   0   2    3.00    2.40
  -6   0   2    1.90    2.50
  -5   0   2    9.40    2.40
  -5   0   2   11.80    2.30
  -4   0   2    8.50    2.00
  -4   0   2    6.00    1.50
  -4   0   2    7.90    1.70
  -4   0   2    4.90    0.70
  -4   0   2    5.90    0.90
  -3   0   2  433.16   34.90
  -3   0   2  347.67   28.90
  -3   0   2  417.16   28.90
  -3   0   2  433.56   32.50
  -2   0   2    5.90    1.30
  -2   0   2    6.80    1.10
  -2   0   2    6.70    0.90
  -2   0   2    6.90    1.60
   1   0  -2  366.36   29.50
   1   0  -2  472.05   35.40
  -1   0   2  455.85   29.50
  -1   0   2  366.86   32.90
  -1   0  -2    1.00    1.00
  -1   0  -2    0.20    0.50
  -1   0  -2   -0.10    0.60
  -1   0  -2    0.00    0.40
  -1   0  -2   -0.10    0.70
   1   0   2   -1.10    0.70
   1   0   2    0.30    0.60
  -2   0  -2 3713.13  271.47
  -2   0  -2 3640.64  302.87
  -2   0  -2 3407.46  271.47
  -2   0  -2 4412.36  322.87
  -2   0  -2 4025.80  325.37
  -3   0  -2   12.20    2.20
  -3   0  -2   15.40    2.60
  -3   0  -2   13.00    2.00
  -4   0  -2  221.58   16.70
  -4   0  -2  197.58   17.90
  -4   0  -2  198.98   17.90
  -5   0  -2   11.00    2.30
  -5   0  -2   12.30    2.30
  -5   0  -2   10.60    2.70
  -6   0  -2   25.70    4.00
  -6   0  -2   31.30    4.90
  -6   0  -2   26.20    4.60
  -7   0  -2    2.90    3.10
  -7   0  -2   -0.50    1.50
  -8   0  -2   -1.90    2.20
  -8   0  -2   -1.60    1.80
   8   0   2    3.70    2.50
  -7   1   2    3.40    2.00
   6  -1  -2   -0.70    3.20
  -6   1   2   -1.50    1.60
  -6   1   2   -0.50    2.60
   5  -1  -2    4.70    2.50
  -5   1   2    2.00    1.10
  -5   1   2    3.20    2.20
  -5   1   2    3.70    1.80
  -5   1   2    2.70    0.70
   4  -1  -2   60.79    6.20
  -4   1   2   67.39    4.80
  -4   1   2   64.49    5.90
  -4   1   2   55.89    4.70
  -4   1   2   59.99    6.20
   3  -1  -2    2.20    1.30
  -3   1   2    2.90    1.50
  -3   1   2    1.80    1.10
  -3   1   2    1.80    0.90
  -3   1   2    1.40    0.70
   2  -1  -2  105.39    7.10
   2  -1  -2   87.69    8.40
  -2   1   2  100.49    8.00
  -2   1   2   90.89    7.00
   1  -1  -2   57.99    4.50
  -1   1   2   57.79    5.50
  -1   1   2   62.39    4.50
   0  -1  -2  556.84   38.30
   0   1   2  556.34   38.40
   0   1   2  508.05   38.30
  -1  -1  -2    5.90    1.10
  -1  -1  -2    6.70    1.00
   1   1   2    4.80    0.70
   1   1   2    3.20    1.10
  -2  -1  -2 5772.32  374.16
  -2  -1  -2 4693.03  374.26
  -2  -1  -2 5057.19  417.56
  -2  -1  -2 5644.94  444.86
  -3  -1  -2   27.70    3.10
  -3  -1  -2   34.50    3.60
  -3  -1  -2   19.20    2.90
  -4  -1  -2 4606.34  386.06
  -4  -1  -2 4492.85  383.06
  -4  -1  -2 4562.84  359.36
  -5  -1  -2    1.00    1.50
  -5  -1  -2    1.50    1.90
  -5  -1  -2    6.00    2.20
  -6  -1  -2  469.85   41.40
  -6  -1  -2  481.15   38.60
  -6  -1  -2  489.45   41.20
  -7  -1  -2   20.80    3.80
  -7  -1  -2   22.30    4.40
  -8  -1  -2    0.70    2.40
  -8  -1  -2    3.60    1.70
  -8  -1  -2    7.50    2.20
  -7   2   2   13.90    4.50
  -7   2   2   18.40    3.10
   6  -2  -2   20.60    4.30
  -6   2   2   16.50    1.60
  -6   2   2   17.30    3.10
  -6   2   2   19.80    3.10
  -6   2   2   17.20    3.70
   5  -2  -2   -0.60    2.70
  -5   2   2    0.50    1.90
  -5   2   2    0.10    0.90
  -5   2   2    1.20    2.30
  -5   2   2   -0.30    1.50
   4  -2  -2   86.79    8.50
  -4   2   2   93.19    6.90
  -4   2   2   84.09    6.60
  -4   2   2   93.79    7.90
  -4   2   2   82.99    8.40
   3  -2  -2    0.50    1.60
  -3   2   2    0.20    0.80
  -3   2   2   -0.30    1.30
  -3   2   2   -1.00    1.10
  -3   2   2    0.30    1.30
   2  -2  -2  413.26   30.10
   2  -2  -2  414.96   35.80
  -2   2   2  434.26   33.60
  -2   2   2  428.36   30.10
  -2   2   2  419.46   30.10
   1  -2  -2   28.50    3.40
   1  -2  -2   28.80    2.80
  -1   2   2   27.90    2.90
  -1   2   2   28.80    3.00
  -1   2   2   26.40    2.50
   0  -2  -2  967.40   61.49
   0  -2  -2  848.92   72.99
   0   2   2  789.32   73.49
   0   2   2  859.51   68.49
  -1  -2  -2  435.56   35.40
  -1  -2  -2  405.36   29.80
   1   2   2  414.46   33.30
  -2  -2  -2  340.57   24.10
  -2  -2  -2  314.87   24.00
  -2  -2  -2  348.77   27.00
   2   2   2  347.07   24.10
  -3  -2  -2  199.58   16.10
  -3  -2  -2  227.08   18.30
  -3  -2  -2  249.88   19.30
  -3  -2  -2  226.28   16.10
  -4  -2  -2  169.98   14.20
  -4  -2  -2  169.08   15.10
  -4  -2  -2  171.68   15.20
  -4  -2  -2  180.08   12.40
  -5  -2  -2    1.50    1.50
  -5  -2  -2    2.70    2.10
  -5  -2  -2    5.60    2.50
  -6  -2  -2  609.04   55.99
  -6  -2  -2  699.93   52.29
  -7  -2  -2   30.90    5.30
  -7  -2  -2   32.20    5.00
  -8  -2  -2   51.59    5.30
   7  -3  -2   -1.70    2.50
  -7   3   2   -1.20    4.60
  -7   3   2   -0.10    2.00
   6  -3  -2   -2.10    4.60
  -6   3   2    2.10    2.30
  -6   3   2    1.90    3.60
  -6   3   2    3.00    0.80
  -6   3   2    1.00    1.60
   5  -3  -2   -2.40    3.30
  -5   3   2   -0.60    2.10
  -5   3   2   -0.50    0.60
  -5   3   2    1.60    1.30
  -5   3   2    0.10    2.70
   4  -3  -2   -2.30    2.40
  -4   3   2    0.90    1.50
  -4   3   2    1.30    1.90
  -4   3   2   -1.30    1.80
  -4   3   2   -1.10    0.90
   3  -3  -2   26.70    4.20
  -3   3   2   25.00    2.60
  -3   3   2   30.10    3.60
  -3   3   2   24.40    3.50
  -3   3   2   26.90    3.40
   2  -3  -2   11.90    2.20
   2  -3  -2   14.90    3.00
  -2   3   2   11.60    1.80
  -2   3   2   14.10    2.50
   1  -3  -2   73.29    6.50
   1  -3  -2   83.39    7.50
  -1   3   2   85.39    7.40
  -1   3   2   92.29    6.30
  -1   3   2   68.79    6.90
   0  -3  -2  302.47   25.70
   0  -3  -2  292.37   21.70
   0   3   2  306.67   24.10
  -1  -3  -2  558.54   50.49
  -1  -3  -2  574.54   42.50
   1   3   2  677.23   42.60
   1   3   2  576.44   47.40
  -2  -3  -2  616.04   47.00
  -2  -3  -2  761.92   55.89
   2   3   2  595.94   52.49
   2   3   2  669.53   47.00
  -3  -3  -2  107.19    8.20
  -3  -3  -2  114.79    9.50
  -3  -3  -2  114.59    8.40
  -4  -3  -2    5.50    1.60
  -4  -3  -2    3.20    1.30
  -4  -3  -2    4.20    1.00
  -4  -3  -2    6.00    1.80
  -5  -3  -2   29.50    4.70
  -5  -3  -2   26.10    2.80
  -5  -3  -2   29.40    3.60
  -5  -3  -2   21.60    2.20
  -6  -3  -2   44.80    7.40
  -6  -3  -2   45.90    5.10
   6   3   2   44.30    6.20
  -7  -3  -2   -1.50    1.20
  -7  -3  -2    0.40    4.30
   7   3   2   -2.10    3.50
  -8  -3  -2    4.10    1.70
   6  -4  -2    9.00    2.70
  -6   4   2    7.70    3.50
  -6   4   2   10.70    1.80
  -5   4   2   -2.10    3.00
  -5   4   2   -0.80    0.90
  -5   4   2   -1.00    1.50
   4  -4  -2  102.99   10.80
  -4   4   2  106.09    9.10
   3  -4  -2   34.50    5.30
   3  -4  -2   35.00    5.70
  -3   4   2   33.60    3.30
  -3   4   2   34.00    4.30
  -3   4   2   34.90    4.70
   2  -4  -2   52.19    5.40
   2  -4  -2   49.80    5.50
  -2   4   2   50.59    4.20
  -2   4   2   45.90    5.10
  -2   4   2   49.50    5.20
  -2   4   2   46.80    4.90
   1  -4  -2  819.22   64.99
   1  -4  -2  987.50   77.19
  -1   4   2  999.60   64.99
  -1   4   2  923.11   77.59
  -1   4   2  831.12   72.19
   0  -4  -2    6.30    1.80
   0  -4  -2    4.50    2.50
   0   4   2    1.80    1.40
   0   4   2    2.20    1.50
   0   4   2    3.10    1.80
  -1  -4  -2    1.00    1.80
  -1  -4  -2    1.30    1.30
   1   4   2    2.10    1.30
   1   4   2   -0.70    1.90
  -2  -4  -2    1.80    1.00
  -2  -4  -2   -0.10    1.50
  -2  -4  -2    5.70    1.90
   2   4   2    2.30    1.50
   2   4   2   -0.80    1.90
  -3  -4  -2  246.38   17.90
   3   4   2  244.98   18.20
   3   4   2  251.37   20.20
  -4  -4  -2   -1.10    0.70
  -4  -4  -2    1.50    1.70
  -4  -4  -2   -1.50    1.20
  -4  -4  -2   -2.00    1.50
  -5  -4  -2   28.70    4.80
  -5  -4  -2   31.70    3.60
  -5  -4  -2   25.10    4.10
  -5  -4  -2   27.80    2.90
  -6  -4  -2   28.70    4.60
  -6  -4  -2   26.10    3.60
  -7  -4  -2    3.20    1.50
  -8  -4  -2    3.60    2.60
   8   4   2    6.30    5.40
   5  -5  -2   54.59    6.40
  -5   5   2   48.50    4.30
  -5   5   2   50.19    5.60
   4  -5  -2   62.79    6.50
  -4   5   2   44.00    4.40
  -4   5   2   56.99    5.70
   3  -5  -2   48.20    6.60
  -3   5   2   45.30    4.50
  -3   5   2   50.19    5.70
  -3   5   2   43.40    4.40
   2  -5  -2   10.00    2.40
   2  -5  -2    5.90    3.20
  -2   5   2    2.90    2.80
  -2   5   2    4.90    2.20
  -2   5   2    6.00    1.70
   1  -5  -2  109.39    9.80
   1  -5  -2   97.79    9.10
  -1   5   2  125.29    8.70
  -1   5   2  100.69   10.10
  -1   5   2   97.49    9.30
   0  -5  -2   -0.60    1.50
   0  -5  -2    0.40    2.70
   0   5   2    1.90    1.80
   0   5   2    0.20    2.20
   0   5   2   -2.10    2.00
  -1  -5  -2   73.29    7.30
   1   5   2   71.59    7.40
   1   5   2   75.39    6.80
   1   5   2   76.29    6.80
  -2  -5  -2    5.60    1.70
  -2  -5  -2    5.80    2.10
   2   5   2    8.60    1.90
   2   5   2    6.60    2.60
  -3  -5  -2   -0.10    0.90
  -3  -5  -2    0.00    2.00
  -3  -5  -2    2.60    1.70
   3   5   2   -2.40    2.60
   3   5   2    0.20    1.60
  -4  -5  -2   26.30    3.20
  -4  -5  -2   23.00    2.50
  -4  -5  -2   23.60    3.90
   4   5   2   26.20    3.90
   4   5   2   27.00    4.10
  -5  -5  -2    1.90    2.80
  -5  -5  -2   -0.10    2.20
  -5  -5  -2    2.70    1.20
  -6  -5  -2   37.80    3.70
  -6  -5  -2   30.10    4.90
  -6  -5  -2   30.00    2.80
  -7  -5  -2    2.30    1.40
  -7  -5  -2    0.20    0.80
  -7  -5  -2   -1.00    2.00
  -7  -5  -2    3.70    2.30
  -8  -5  -2   28.30    4.40
  -8  -5  -2   38.70    4.20
   5  -6  -2    1.80    3.20
  -5   6   2    2.40    2.10
  -5   6   2    5.80    1.40
   4  -6  -2   -1.10    2.40
  -4   6   2   -0.20    1.90
  -4   6   2    3.20    1.20
   3  -6  -2    3.50    2.10
  -3   6   2   -0.40    1.40
  -3   6   2    0.30    1.80
  -3   6   2    0.00    1.30
   2  -6  -2   49.20    8.30
  -2   6   2   49.20    6.10
  -2   6   2   63.69    7.40
   1  -6  -2  400.16   30.60
  -1   6   2  387.76   36.00
  -1   6   2  374.56   33.30
  -1   6   2  499.75   30.50
   0  -6  -2  165.98   13.40
   0  -6  -2  164.08   14.80
   0   6   2  177.98   13.30
   0   6   2  165.58   15.30
   0   6   2  160.08   14.10
  -1  -6  -2  432.26   39.20
   1   6   2  453.45   39.40
   1   6   2  479.45   33.50
   1   6   2  468.95   36.80
  -2  -6  -2   87.99    8.70
  -2  -6  -2  102.89    8.20
   2   6   2   80.49    8.70
   2   6   2   87.79    8.40
  -3  -6  -2   19.90    3.00
  -3  -6  -2   14.70    2.80
   3   6   2   18.70    4.20
   3   6   2   15.50    2.90
  -4  -6  -2    4.00    1.20
  -4  -6  -2    3.90    2.20
   4   6   2    2.50    2.00
  -5  -6  -2    1.00    3.50
  -5  -6  -2    0.50    0.80
   5   6   2   -1.00    1.40
  -6  -6  -2    3.80    2.10
  -6  -6  -2    4.40    3.30
  -6  -6  -2    4.70    1.10
   6   6   2    3.30    1.80
  -7  -6  -2   12.50    3.50
  -7  -6  -2   16.20    2.00
   7   6   2   12.70    2.60
   3  -7  -2    3.30    2.40
  -3   7   2    2.30    2.00
  -3   7   2    2.60    1.80
  -3   7   2    0.80    1.60
   2  -7  -2    5.00    2.40
  -2   7   2    5.60    1.80
  -2   7   2    0.90    2.00
   1  -7  -2    6.10    4.40
   1  -7  -2    6.90    2.30
  -1   7   2    6.30    2.90
  -1   7   2    1.60    3.50
  -1   7   2    4.50    4.20
   0  -7  -2    7.90    4.00
   0  -7  -2    8.30    2.10
   0   7   2    6.90    3.90
   0   7   2    7.10    3.00
   0   7   2    9.90    3.80
  -1  -7  -2  145.89   11.60
  -1  -7  -2  121.79   11.90
   1   7   2  139.29   12.20
   1   7   2  131.59   12.00
   1   7   2  131.59   12.90
  -2  -7  -2  328.87   30.90
  -2  -7  -2  389.96   26.60
   2   7   2  375.46   29.30
   2   7   2  345.67   27.10
  -3  -7  -2   38.50    5.00
  -3  -7  -2   36.40    4.10
   3   7   2   35.00    5.70
   3   7   2   24.40    5.50
  -4  -7  -2  308.27   30.30
  -4  -7  -2  398.26   25.70
   4   7   2  356.26   28.70
  -5  -7  -2    3.80    1.80
  -5  -7  -2    5.60    1.20
  -6  -7  -2   32.60    3.10
  -6  -7  -2   23.30    4.70
   6   7   2   33.00    4.40
  -7  -7  -2    1.70    1.00
  -7  -7  -2    7.60    2.50
   7   7   2    0.60    2.10
   2  -8  -2    1.10    2.80
  -2   8   2   -3.90    2.00
  -2   8   2   -1.10    2.20
   1  -8  -2   39.00    4.90
  -1   8   2   34.10    4.60
  -1   8   2   34.70    4.80
   0  -8  -2    9.90    2.40
   0  -8  -2    9.20    4.80
   0   8   2    6.20    7.20
   0   8   2    7.40    3.40
   0   8   2    2.90    5.00
  -1  -8  -2    6.30    4.10
   1   8   2    7.10    4.60
   1   8   2    7.50    3.60
   1   8   2   10.10    4.90
  -2  -8  -2   -1.10    1.70
  -2  -8  -2    0.30    3.70
   2   8   2   -0.80    5.40
  -3  -8  -2   16.10    3.10
   3   8   2   19.60    3.20
  -4  -8  -2   11.90    2.30
   4   8   2   13.20    2.30
  -5  -8  -2   31.90    3.90
  -5  -8  -2   23.70    3.20
  -6  -8  -2   61.89    5.10
   6   8   2   56.99    6.50
   0  -9  -2   -4.40    2.30
   0   9   2    1.30    2.80
   0   9   2    8.00    2.60
   0   9   2   -2.10    4.20
  -1  -9  -2    0.20    5.30
  -1  -9  -2    5.00    2.20
   1   9   2    0.40    6.40
  -2  -9  -2    5.20    2.20
  -2  -9  -2    8.10    2.00
   2   9   2    4.50    2.10
  -3  -9  -2    1.50    1.90
  -3  -9  -2    4.60    1.90
   3   9   2    1.50    2.00
  -4  -9  -2    8.20    1.80
  -4  -9  -2    5.60    2.00
   4   9   2    2.30    2.10
   5   8  -3   -3.30    2.20
   5   8  -3   -1.90    6.60
  -5  -8   3    1.30    2.00
   4   8  -3    5.30    5.70
   4   8  -3    6.70    2.20
  -4  -8   3    6.40    1.60
  -4  -8   3    7.60    2.10
   3   8  -3   29.20    5.90
   3   8  -3   27.50    4.00
  -3  -8   3   30.30    4.20
  -3  -8   3   32.50    3.80
   2   8  -3   12.00    6.20
   2   8  -3    6.70    4.50
  -2  -8   3   11.00    2.50
   1   8  -3   20.60    4.60
   1   8  -3   25.20    6.00
   1   8  -3   24.80    4.10
  -1  -8   3   25.30    5.00
   0   8  -3    5.80    2.50
   0  -8   3    6.80    4.80
   0  -8   3    8.50    2.50
  -1   8  -3    4.40    2.20
  -1   8  -3    0.60    2.40
   1  -8   3   -1.80    2.30
  -2   8  -3    8.20    2.20
   2  -8   3    8.50    2.80
  -6  -7   3   -4.30    2.50
  -6  -7   3    0.10    1.10
  -6  -7   3    3.70    2.10
   5   7  -3   36.20    7.10
  -5  -7   3   36.00    4.80
  -5  -7   3   44.60    4.50
   4   7  -3   10.50    5.20
  -4  -7   3   15.80    3.10
   3   7  -3   59.29    8.60
   3   7  -3   74.39    8.20
  -3  -7   3   58.99    6.20
   2   7  -3    1.80    3.40
   2   7  -3   -0.60    3.80
   2   7  -3   -0.40    4.00
  -2  -7   3    1.30    2.60
  -2  -7   3    0.80    2.00
   1   7  -3   64.29    9.60
   1   7  -3   44.30    7.20
   1   7  -3   36.50    6.40
  -1  -7   3   49.60    6.80
  -1  -7   3   39.00    5.00
   0   7  -3    2.10    3.50
   0  -7   3    0.80    3.70
   0  -7   3    3.40    2.10
  -1   7  -3    1.90    3.90
  -1   7  -3    0.70    2.20
   1  -7   3    2.80    4.50
   1  -7   3    4.20    2.00
  -2   7  -3    1.50    1.70
  -2   7  -3   -1.00    2.10
   2  -7   3    4.60    2.30
  -3   7  -3    3.20    1.70
  -7  -6   3    0.70    1.00
  -7  -6   3   -2.50    1.60
  -7  -6   3    3.30    2.80
   6   6  -3    8.90    5.70
  -6  -6   3    5.90    1.20
  -6  -6   3    4.20    1.70
   5   6  -3   48.80    8.90
  -5  -6   3   46.30    3.90
  -5  -6   3   36.10    7.60
  -5  -6   3   43.30    4.70
   4   6  -3    3.10    4.50
  -4  -6   3    2.60    1.10
  -4  -6   3    2.50    3.20
   3   6  -3   32.60    5.10
   3   6  -3   25.00    4.60
  -3  -6   3   32.60    4.20
  -3  -6   3   28.50    5.40
  -3  -6   3   25.10    3.80
   2   6  -3   30.50    5.70
   2   6  -3   32.60    4.70
  -2  -6   3   30.70    4.90
  -2  -6   3   27.30    4.30
   1   6  -3   95.79    8.90
   1   6  -3   70.49    8.90
   1   6  -3   87.39    8.30
  -1  -6   3   94.49    8.10
  -1  -6   3   84.69    8.70
   0   6  -3    3.50    3.00
   0   6  -3    6.50    2.90
   0  -6   3    5.10    2.60
   0  -6   3    6.30    3.00
  -1   6  -3  137.49   13.10
   1  -6   3  138.29   12.10
  -2   6  -3   33.90    4.30
   2  -6   3   34.20    4.50
  -3   6  -3   33.40    4.90
  -3   6  -3   39.40    3.80
   3  -6   3   30.90    4.90
  -4   6  -3    0.30    1.40
  -4   6  -3    6.80    2.20
   4  -6   3    2.20    2.50
  -7  -5   3   20.70    6.30
  -7  -5   3   17.00    3.20
  -7  -5   3   20.30    3.10
  -7  -5   3   17.30    2.00
   6   5  -3    6.10    4.90
  -6  -5   3    4.40    4.50
  -6  -5   3    1.90    1.30
  -6  -5   3    3.00    2.80
  -6  -5   3    2.00    0.80
   5   5  -3    7.60    4.10
  -5  -5   3    3.00    0.90
  -5  -5   3    2.40    1.20
  -5  -5   3    2.80    3.60
  -5  -5   3    3.60    2.80
   4   5  -3   17.40    4.10
  -4  -5   3   21.40    3.00
  -4  -5   3   16.10    2.40
  -4  -5   3   21.40    3.60
  -4  -5   3   15.40    3.60
   3   5  -3  175.68   16.00
   3   5  -3  215.58   18.50
  -3  -5   3  188.48   15.00
  -3  -5   3  229.88   16.90
  -3  -5   3  207.88   18.00
   2   5  -3   31.50    5.20
   2   5  -3   40.60    5.50
  -2  -5   3   35.60    4.60
  -2  -5   3   39.30    4.00
  -2  -5   3   30.50    5.10
   1   5  -3  346.37   35.30
   1   5  -3  449.46   30.00
  -1  -5   3  476.35   30.00
  -1  -5   3  376.96   35.20
   0   5  -3   38.90    4.90
   0   5  -3   31.00    4.50
   0  -5   3   37.10    4.70
   0  -5   3   33.60    4.60
  -1   5  -3    1.00    2.00
  -1   5  -3    1.50    1.90
   1  -5   3   -1.00    2.60
   1  -5   3    2.20    2.30
  -2   5  -3    7.90    2.20
  -2   5  -3    4.80    1.80
   2  -5   3    5.50    3.30
   2  -5   3    5.60    2.30
  -3   5  -3   -2.70    1.80
   3  -5   3   -1.50    1.80
  -4   5  -3   36.30    4.80
  -4   5  -3   38.80    3.50
   4  -5   3   30.00    4.90
  -5   5  -3   35.10    4.40
  -5   5  -3   23.30    3.00
   5  -5   3   27.10    4.90
   8   4  -3   -4.60    2.80
  -8  -4   3   -1.40    1.60
  -7  -4   3    8.90    1.70
  -7  -4   3    8.50    1.90
  -7  -4   3   13.20    5.40
  -7  -4   3    7.20    1.00
   6   4  -3   10.50    4.30
  -6  -4   3    8.20    1.40
  -6  -4   3    8.40    2.20
  -6  -4   3    8.40    1.70
  -6  -4   3    5.50    4.50
   5   4  -3    6.30    3.40
  -5  -4   3    0.90    1.20
  -5  -4   3    1.60    2.20
  -5  -4   3    0.60    1.00
  -4  -4   3   12.40    2.60
  -4  -4   3    8.90    1.40
  -4  -4   3   14.10    2.80
   3   4  -3  430.76   37.10
   3   4  -3  558.04   44.20
  -3  -4   3  550.54   43.80
  -3  -4   3  522.05   41.20
   2   4  -3   78.99    7.80
   2   4  -3   96.49    7.70
  -2  -4   3   68.69    6.20
  -2  -4   3   73.19    7.80
  -2  -4   3   82.49    6.90
   1   4  -3  896.81   82.69
   1   4  -3 1016.70   69.29
  -1  -4   3  945.01   76.99
  -1  -4   3 1043.50   69.19
  -1  -4   3  958.60   82.09
   0   4  -3   74.39    5.90
   0   4  -3   59.09    6.40
   0   4  -3   63.09    5.90
   0  -4   3   80.89    6.20
   0  -4   3   62.09    6.60
  -1   4  -3   28.50    3.30
  -1   4  -3   20.40    3.20
   1  -4   3   21.80    2.80
   1  -4   3   25.50    4.00
  -2   4  -3   27.70    3.60
  -2   4  -3   23.80    3.60
  -2   4  -3   28.10    3.20
   2  -4   3   31.00    3.80
   2  -4   3   24.60    3.30
  -3   4  -3    1.10    1.00
  -3   4  -3    2.50    1.60
  -3   4  -3    2.00    2.60
   3  -4   3    1.30    1.80
   3  -4   3    4.10    3.30
  -4   4  -3   -0.20    2.80
  -4   4  -3    2.20    1.90
  -4   4  -3    2.20    0.90
  -5   4  -3    4.60    1.80
  -5   4  -3    1.00    3.10
  -5   4  -3    0.50    0.90
  -6   4  -3   66.19    7.50
  -6   4  -3   71.49    5.40
  -6   4  -3   64.69    7.30
   6  -4   3   69.99    7.90
   8   3  -3    4.20    2.70
  -8  -3   3    4.20    1.60
   7   3  -3   13.20    2.70
  -7  -3   3   11.50    2.10
   6   3  -3   56.29    8.80
  -6  -3   3   72.09    6.50
  -6  -3   3   68.39    5.80
  -6  -3   3   75.69    5.40
  -6  -3   3   81.59    9.00
   5   3  -3    0.50    2.80
  -5  -3   3    0.80    0.90
  -5  -3   3   -0.10    1.50
  -5  -3   3    0.20    1.60
   4   3  -3   75.29    7.80
  -4  -3   3   80.59    6.10
  -4  -3   3   82.39    7.90
  -4  -3   3   82.69    6.60
  -4  -3   3   73.99    6.90
   3   3  -3   10.50    2.20
   3   3  -3    7.40    2.40
  -3  -3   3    6.70    1.30
  -3  -3   3    8.60    2.00
  -3  -3   3    7.20    1.80
  -3  -3   3    7.20    1.10
   2   3  -3  234.08   19.50
   2   3  -3  303.77   23.20
  -2  -3   3  314.17   21.60
  -2  -3   3  250.67   19.60
  -2  -3   3  238.68   19.40
   1   3  -3  921.91   60.39
   1   3  -3  762.02   72.19
  -1  -3   3  913.91   60.39
  -1  -3   3  814.92   71.59
  -1  -3   3  828.12   67.09
   0   3  -3 1389.86  125.69
   0   3  -3 1630.64  105.09
   0  -3   3 1419.16  124.69
  -1   3  -3  358.26   28.30
  -1   3  -3  433.56   33.80
  -1   3  -3  337.37   28.40
   1  -3   3  439.66   33.70
   1  -3   3  402.06   28.50
  -2   3  -3   91.79    7.30
  -2   3  -3  107.59    8.90
   2  -3   3   99.39    8.80
   2  -3   3   85.09    7.70
  -3   3  -3    2.00    1.90
  -3   3  -3    1.60    1.80
  -3   3  -3    2.10    0.90
   3  -3   3    2.60    1.50
   3  -3   3    3.10    2.90
  -4   3  -3    9.60    2.30
  -4   3  -3    8.80    1.40
  -4   3  -3   11.20    2.90
  -5   3  -3   -1.40    0.80
  -5   3  -3    0.30    2.20
  -6   3  -3   -0.10    1.70
  -6   3  -3    1.30    2.10
   6  -3   3   -1.20    2.30
  -7   3  -3    0.80    2.10
   7  -3   3   -0.60    3.00
  -8  -2   3    9.00    1.90
   7   2  -3    6.40    2.20
  -7  -2   3    8.70    1.70
   6   2  -3   36.00    6.10
   5   2  -3   -3.20    2.10
  -5  -2   3    0.40    0.70
  -5  -2   3    0.20    1.40
  -5  -2   3    0.60    1.00
   4   2  -3    2.00    1.70
  -4  -2   3    4.70    1.20
  -4  -2   3    3.90    1.40
  -4  -2   3    3.80    0.90
   3   2  -3    0.80    1.40
  -3  -2   3   -0.50    1.10
  -3  -2   3    0.70    0.70
  -3  -2   3    0.00    1.10
   2   2  -3   67.19    5.80
   2   2  -3   79.19    6.60
  -2  -2   3   78.49    6.50
  -2  -2   3   62.29    5.40
  -2  -2   3   69.19    6.10
   1   2  -3   54.19    5.00
   1   2  -3   56.39    5.80
  -1  -2   3   65.19    5.80
  -1  -2   3   63.49    5.30
  -1  -2   3   65.49    4.80
  -1  -2   3   58.39    5.10
   0   2  -3  419.46   37.70
   0   2  -3  496.45   31.50
   0  -2   3  427.16   31.50
   0  -2   3  420.36   37.30
  -1   2  -3  185.38   15.00
  -1   2  -3  237.48   18.00
  -1   2  -3  185.38   15.10
   1  -2   3  194.38   15.00
   1  -2   3  231.78   17.90
  -2   2  -3  371.16   28.30
  -2   2  -3  301.87   23.50
   2  -2   3  319.47   28.00
   2  -2   3  321.37   23.60
  -3   2  -3    3.80    1.80
  -3   2  -3    3.10    1.40
  -3   2  -3    3.30    0.90
   3  -2   3    3.60    1.40
  -4   2  -3   12.10    2.00
  -4   2  -3   13.20    1.90
  -4   2  -3   13.00    2.70
   4  -2   3   17.60    3.10
  -5   2  -3    3.00    0.90
  -5   2  -3    2.30    1.50
  -5   2  -3    3.50    2.20
   5  -2   3    8.20    2.80
  -6   2  -3   29.20    3.90
   6  -2   3   25.00    4.30
  -7   2  -3    3.00    1.90
   8   1  -3   13.50    2.90
  -8  -1   3    9.10    2.20
   7   1  -3    2.40    1.90
  -7  -1   3    1.00    1.30
   6   1  -3   15.40    3.40
  -6  -1   3   12.10    2.70
   5   1  -3    6.30    2.10
  -5  -1   3    7.40    1.80
  -5  -1   3    6.60    1.00
  -5  -1   3    9.30    1.20
   4   1  -3  376.16   33.60
  -4  -1   3  421.26   27.90
  -4  -1   3  342.67   27.80
  -4  -1   3  425.76   31.40
   3   1  -3   56.39    4.90
  -3  -1   3   48.30    4.70
  -3  -1   3   46.90    3.90
  -3  -1   3   46.30    4.00
   2   1  -3  731.53   50.99
  -2  -1   3  749.73   50.99
  -2  -1   3  688.33   56.89
  -2  -1   3  701.43   50.89
   1   1  -3  514.95   39.40
   1   1  -3  532.35   47.10
  -1  -1   3  568.64   39.40
  -1  -1   3  587.14   39.40
  -1  -1   3  566.64   43.90
   0   1  -3 1077.19   70.09
   0   1  -3  937.21   83.89
   0  -1   3 1017.90   70.09
   0  -1   3  920.51   77.99
  -1   1  -3 3730.93  315.87
  -1   1  -3 3451.85  263.67
   1  -1   3 3600.74  263.67
   1  -1   3 4122.69  313.37
  -2   1  -3    9.40    1.90
  -2   1  -3    9.00    1.20
  -2   1  -3    7.70    1.10
   2  -1   3    9.80    1.30
   2  -1   3    7.50    1.70
  -3   1  -3  196.18   14.10
  -3   1  -3  184.98   14.10
  -3   1  -3  207.38   17.10
  -4   1  -3   33.90    3.90
  -4   1  -3   38.30    2.90
  -4   1  -3   28.00    4.30
  -4   1  -3   38.00    3.10
  -5   1  -3    6.70    2.10
  -5   1  -3    6.00    2.10
   5  -1   3    5.40    2.40
  -6   1  -3   12.00    2.90
   6  -1   3   16.00    4.00
  -7   1  -3   11.30    2.10
  -7   1  -3   10.00    3.50
   7  -1   3    4.20    2.70
  -8   1  -3   -2.50    2.20
   8  -1   3    5.50    2.90
   8   0  -3   13.60    3.30
  -8   0   3   14.70    2.40
  -7   0   3   11.10    2.20
  -6   0   3  114.69   10.60
  -5   0   3   15.90    1.60
  -5   0   3   21.80    3.90
  -5   0   3   22.00    3.40
  -4   0   3    0.20    1.20
  -4   0   3   -0.20    1.40
  -4   0   3   -0.70    0.50
  -4   0   3   -0.10    0.80
  -3   0   3   28.60    2.70
  -3   0   3   35.80    3.60
  -3   0   3   37.20    3.90
  -3   0   3   33.60    2.70
   2   0  -3    0.30    0.90
  -2   0   3    0.70    0.70
  -2   0   3    0.10    0.60
  -2   0   3    0.10    1.10
   1   0  -3    4.50    1.40
   1   0  -3    6.00    1.00
  -1   0   3    4.10    1.10
  -1   0   3    5.10    0.90
   0   0  -3 2074.69  127.09
   0   0  -3 1795.22  150.88
   0   0   3 1626.84  141.59
   0   0   3 1683.13  150.88
  -1   0  -3    8.50    1.30
  -1   0  -3   10.70    2.10
  -1   0  -3    8.10    1.00
  -1   0  -3    8.80    1.50
   1   0   3    8.80    1.20
   1   0   3    7.90    1.00
  -2   0  -3  203.28   17.40
  -2   0  -3  204.58   14.40
  -2   0  -3  199.78   14.40
   2   0   3  200.28   16.10
  -3   0  -3   73.09    5.00
  -3   0  -3   68.69    5.00
  -3   0  -3   69.89    5.90
  -3   0  -3   62.69    6.50
  -3   0  -3   64.59    6.40
  -4   0  -3    8.70    1.90
  -4   0  -3    7.30    1.80
  -4   0  -3    8.30    1.70
  -5   0  -3   11.50    2.60
  -5   0  -3   13.60    2.30
  -5   0  -3   11.60    2.50
  -6   0  -3    0.80    2.40
  -6   0  -3    2.30    2.40
  -6   0  -3   -3.40    3.00
  -7   0  -3    4.30    1.70
  -7   0  -3    3.20    3.00
  -8   0  -3   -3.10    2.20
   8   0   3    2.20    2.60
   7  -1  -3    5.80    4.60
  -7   1   3    6.00    2.10
  -7   1   3    3.00    1.60
   6  -1  -3   29.70    4.40
  -6   1   3   25.60    3.80
  -6   1   3   27.00    4.20
   5  -1  -3   28.00    4.70
  -5   1   3   24.00    4.60
  -5   1   3   23.50    2.20
  -5   1   3   28.20    2.90
  -5   1   3   23.80    4.20
   4  -1  -3    3.00    1.80
  -4   1   3    2.50    1.60
  -4   1   3    1.60    0.80
  -4   1   3    2.00    1.70
  -4   1   3    3.50    1.20
  -3   1   3  103.59    9.80
  -3   1   3  108.79    9.00
  -3   1   3  109.19    7.90
  -3   1   3  109.49    7.90
   2  -1  -3   35.10    3.30
  -2   1   3   37.10    3.70
  -2   1   3   32.00    3.00
  -2   1   3   43.00    4.00
   1  -1  -3  299.87   22.00
  -1   1   3  317.57   26.40
   0  -1  -3  325.17   20.40
   0   1   3  250.27   22.70
   0   1   3  271.77   20.30
  -1  -1  -3    0.70    0.70
  -1  -1  -3    0.00    1.10
   1   1   3    1.20    0.80
   1   1   3    0.80    1.10
  -2  -1  -3  638.74   43.40
  -2  -1  -3  586.74   43.40
  -3  -1  -3   59.09    4.40
  -3  -1  -3   66.19    5.40
  -3  -1  -3   57.89    4.40
  -4  -1  -3   23.20    3.10
  -4  -1  -3   16.10    2.70
  -5  -1  -3   75.39    7.70
  -5  -1  -3   73.99    7.60
  -5  -1  -3   78.59    7.10
  -6  -1  -3   66.39    7.80
  -6  -1  -3   95.99    8.70
  -7  -1  -3   45.20    6.80
  -7  -1  -3   50.79    7.30
  -8  -1  -3   23.10    3.50
  -8  -1  -3   30.10    3.40
  -8  -1  -3   19.10    4.10
   7  -2  -3   11.70    5.70
  -7   2   3   10.00    2.50
   6  -2  -3    5.10    4.10
  -6   2   3    6.50    3.40
  -6   2   3    7.20    2.00
  -6   2   3    5.00    1.80
  -6   2   3    4.00    0.70
   5  -2  -3  109.09   11.40
  -5   2   3  116.39   10.60
  -5   2   3  125.79    9.00
  -5   2   3  112.99    8.60
   4  -2  -3    5.20    2.30
  -4   2   3    4.00    1.10
  -4   2   3    4.50    1.80
  -4   2   3    4.20    1.80
  -4   2   3    3.70    1.60
   3  -2  -3  293.67   25.70
  -3   2   3  309.37   21.60
  -3   2   3  312.07   24.10
  -3   2   3  299.77   21.50
  -3   2   3  284.47   25.90
   2  -2  -3    7.80    1.50
   2  -2  -3    8.40    1.80
  -2   2   3    7.70    1.10
  -2   2   3   12.10    1.60
  -2   2   3    8.90    1.60
  -2   2   3    7.40    1.30
   1  -2  -3  400.56   25.20
   1  -2  -3  316.77   29.90
  -1   2   3  340.77   28.10
   0  -2  -3   20.10    3.20
   0   2   3   25.80    2.70
   0   2   3   21.40    3.00
  -1  -2  -3    7.80    1.50
  -1  -2  -3    6.00    1.00
  -1  -2  -3    5.50    1.00
   1   2   3    5.80    1.20
   1   2   3    6.00    1.50
  -2  -2  -3   93.39    6.70
  -2  -2  -3  101.39    8.20
   2   2   3   88.99    6.90
   2   2   3   83.29    7.80
  -3  -2  -3  188.58   15.90
  -3  -2  -3  188.58   14.10
  -3  -2  -3  212.78   16.90
  -3  -2  -3  193.78   14.00
  -4  -2  -3  125.39    9.80
  -4  -2  -3  151.88    9.90
  -4  -2  -3  133.59   11.40
  -4  -2  -3  137.09   12.20
  -5  -2  -3   47.00    4.80
  -5  -2  -3   43.40    5.40
  -5  -2  -3   44.80    5.70
  -6  -2  -3 1115.99   84.39
  -6  -2  -3 1019.00   89.89
  -6  -2  -3 1050.49   90.49
  -7  -2  -3    0.70    3.30
  -8  -2  -3  374.26   33.60
  -8  -2  -3  440.16   33.60
  -8  -2  -3  353.26   31.30
  -7   3   3   -2.10    2.30
   6  -3  -3   -4.10    4.80
  -6   3   3   -0.90    1.60
  -6   3   3    0.30    0.80
  -6   3   3   -0.50    2.40
  -6   3   3   -0.50    3.70
   5  -3  -3    3.90    3.60
  -5   3   3    3.10    2.30
  -5   3   3    6.80    1.60
  -5   3   3    5.20    0.90
  -5   3   3    6.90    2.90
   4  -3  -3    6.00    3.00
  -4   3   3    8.00    1.80
  -4   3   3    6.00    2.10
  -4   3   3    7.50    1.40
  -4   3   3   11.00    2.10
   3  -3  -3  102.59   10.20
  -3   3   3  102.89    9.80
  -3   3   3  114.89    8.60
  -3   3   3  112.59    9.30
  -3   3   3  109.39    8.10
   2  -3  -3  273.27   24.60
   2  -3  -3  264.87   20.80
  -2   3   3  280.07   23.00
  -2   3   3  316.97   24.80
  -2   3   3  300.97   20.70
   1  -3  -3  249.68   23.80
   1  -3  -3  285.47   20.10
  -1   3   3  311.57   23.90
  -1   3   3  256.77   22.30
  -1   3   3  283.27   20.00
   0  -3  -3  619.84   41.20
   0  -3  -3  520.45   48.90
   0   3   3  543.05   49.20
   0   3   3  628.54   45.90
  -1  -3  -3   -0.50    0.90
  -1  -3  -3    1.00    1.60
   1   3   3    0.70    1.20
   1   3   3   -0.90    1.10
  -2  -3  -3   45.90    4.40
  -2  -3  -3   40.10    3.30
   2   3   3   37.80    3.70
   2   3   3   30.50    4.10
  -3  -3  -3   10.90    1.90
  -3  -3  -3    9.30    1.50
  -3  -3  -3    9.90    1.40
   3   3   3   10.40    1.80
  -4  -3  -3   76.99    7.70
  -4  -3  -3   80.49    6.20
  -4  -3  -3   84.29    7.30
  -4  -3  -3   90.19    6.40
  -5  -3  -3    1.80    0.70
  -5  -3  -3    4.80    2.20
  -5  -3  -3    1.80    1.20
  -5  -3  -3    3.20    1.50
  -6  -3  -3   19.40    4.10
  -6  -3  -3   21.60    3.10
  -7  -3  -3    3.90    1.30
   7   3   3    0.40    3.50
  -8  -3  -3  115.89   11.10
  -8  -3  -3  127.79   10.30
   8   3   3  106.79   13.20
   6  -4  -3   83.19    9.20
  -6   4   3   94.89    7.00
  -6   4   3   84.39    8.90
  -6   4   3   84.99   11.20
  -6   4   3  109.79    9.60
   5  -4  -3   18.50    4.90
  -5   4   3   16.00    2.10
  -5   4   3   17.80    3.70
  -5   4   3   17.60    3.50
  -5   4   3   12.70    2.40
   4  -4  -3    2.40    3.30
  -4   4   3   -0.10    2.50
  -4   4   3   -0.40    2.40
   3  -4  -3    2.40    2.70
   3  -4  -3   -1.90    2.50
  -3   4   3    0.90    1.90
  -3   4   3    0.70    1.60
  -3   4   3   -0.70    2.10
  -3   4   3   -0.70    0.90
   2  -4  -3   83.39    8.00
   2  -4  -3   81.09    7.40
  -2   4   3   79.59    7.40
  -2   4   3   87.79    6.50
  -2   4   3   72.49    7.20
  -2   4   3   86.29    6.50
  -2   4   3   84.79    7.80
   1  -4  -3   30.90    4.50
   1  -4  -3   39.40    4.50
  -1   4   3   42.10    4.50
  -1   4   3   38.40    3.80
  -1   4   3   44.40    4.70
   0  -4  -3  215.48   17.60
   0  -4  -3  197.18   14.90
   0   4   3  214.28   14.90
   0   4   3  189.18   17.50
   0   4   3  194.58   16.40
  -1  -4  -3   58.79    5.00
  -1  -4  -3   61.69    6.00
   1   4   3   56.79    5.30
   1   4   3   61.29    5.50
  -2  -4  -3  151.58   10.10
  -2  -4  -3  143.69   12.10
   2   4   3  137.19   10.40
   2   4   3  112.79   11.30
  -3  -4  -3   21.20    3.00
  -3  -4  -3   16.90    1.90
  -3  -4  -3   12.20    1.90
   3   4   3   15.70    2.50
   3   4   3   14.80    2.50
  -4  -4  -3  416.96   35.70
  -4  -4  -3  400.66   29.90
  -4  -4  -3  421.66   30.00
   4   4   3  435.46   33.70
  -5  -4  -3   -0.80    1.60
  -5  -4  -3   -1.10    1.60
  -5  -4  -3   -0.60    2.10
  -5  -4  -3   -1.10    0.90
  -6  -4  -3   -0.90    1.60
  -6  -4  -3    0.30    3.10
  -7  -4  -3    7.00    1.50
  -7  -4  -3    0.80    2.20
  -8  -4  -3   21.40    3.80
   5  -5  -3  103.29    9.70
  -5   5   3   94.49    7.40
  -5   5   3   90.09    9.20
  -4   5   3   28.20    3.70
  -4   5   3   24.00    2.80
   3  -5  -3  119.39   12.10
  -3   5   3  125.99    9.60
  -3   5   3  118.29   11.50
  -3   5   3  122.29   10.80
   2  -5  -3   57.99    6.20
   2  -5  -3   47.10    6.80
  -2   5   3   51.29    5.70
  -2   5   3   47.00    6.10
  -2   5   3   35.90    6.50
  -2   5   3   57.49    5.00
  -2   5   3   57.09    5.00
   1  -5  -3  224.08   17.50
   1  -5  -3  179.68   15.10
  -1   5   3  199.58   17.70
  -1   5   3  189.88   16.40
   0  -5  -3   -1.30    1.90
   0  -5  -3   -2.30    1.30
   0   5   3   -1.30    1.80
   0   5   3   -1.90    2.20
   0   5   3    0.30    1.70
  -1  -5  -3  276.47   19.40
  -1  -5  -3  251.27   22.70
   1   5   3  252.97   19.40
   1   5   3  274.07   21.40
  -2  -5  -3  108.29    8.10
  -2  -5  -3   97.49    9.50
   2   5   3  112.19    9.00
   2   5   3   92.79    8.60
  -3  -5  -3   -1.30    0.90
  -3  -5  -3   -0.80    1.60
  -3  -5  -3   -1.40    1.80
   3   5   3    0.90    1.60
   3   5   3   -1.60    2.50
  -4  -5  -3   15.90    2.50
  -4  -5  -3   12.90    1.90
  -4  -5  -3   14.10    2.60
   4   5   3   15.00    2.70
   4   5   3   17.80    3.90
  -5  -5  -3   -0.70    2.40
  -5  -5  -3   -0.90    2.10
  -5  -5  -3   -1.90    0.90
   5   5   3    1.30    2.00
  -6  -5  -3   47.50    3.70
  -6  -5  -3   42.50    5.20
   6   5   3   40.00    5.00
  -7  -5  -3    2.30    0.90
  -7  -5  -3    3.80    2.20
  -7  -5  -3    3.90    2.10
   7   5   3   -0.40    1.90
  -8  -5  -3   16.40    3.40
   8   5   3   19.50    3.20
   4  -6  -3    6.90    2.60
  -4   6   3    2.00    1.90
  -4   6   3    5.30    1.30
   3  -6  -3   41.80    4.90
  -3   6   3   29.80    4.40
  -3   6   3   33.10    3.60
   2  -6  -3   40.90    6.00
  -2   6   3   47.20    5.70
  -2   6   3   51.39    5.50
  -2   6   3   48.50    6.80
  -2   6   3   36.00    5.80
   1  -6  -3    0.60    3.30
   1  -6  -3    5.80    2.20
  -1   6   3    6.00    2.40
  -1   6   3    4.50    2.80
  -1   6   3    4.50    3.10
   0  -6  -3  198.88   15.90
   0  -6  -3  216.78   18.00
   0   6   3  202.28   18.50
   0   6   3  217.28   15.90
   0   6   3  189.78   17.00
  -1  -6  -3   24.80    3.60
  -1  -6  -3   33.50    4.20
   1   6   3   35.90    5.00
   1   6   3   25.50    4.00
  -2  -6  -3   89.09    8.60
   2   6   3   89.99    8.20
   2   6   3   83.29    8.40
  -3  -6  -3   16.00    2.80
  -3  -6  -3   14.80    2.30
   3   6   3   16.30    2.70
   3   6   3   18.40    3.80
  -4  -6  -3    6.70    2.30
  -4  -6  -3    6.00    1.30
   4   6   3    6.10    2.30
  -5  -6  -3    4.70    1.00
  -5  -6  -3    3.10    2.90
   5   6   3    4.10    1.60
  -6  -6  -3    3.50    0.90
  -6  -6  -3    2.10    3.00
  -6  -6  -3    7.50    2.10
   6   6   3    4.00    1.90
  -7  -6  -3   23.00    3.80
  -7  -6  -3   25.40    2.60
  -7  -6  -3   22.60    4.70
   7   6   3   28.60    4.20
   3  -7  -3   33.20    5.10
  -3   7   3   21.80    4.30
  -3   7   3   31.60    3.60
   2  -7  -3   -2.00    2.10
  -2   7   3    3.40    1.80
  -2   7   3   -3.00    1.50
  -2   7   3    3.40    1.70
   1  -7  -3   22.30    4.80
   1  -7  -3   28.30    4.00
  -1   7   3   22.50    4.30
  -1   7   3   23.70    3.90
  -1   7   3   17.10    4.70
   0  -7  -3  103.89    9.90
   0  -7  -3  110.69   10.40
   0   7   3  103.99   10.20
   0   7   3  101.89   11.30
   0   7   3  115.99   10.40
  -1  -7  -3  412.96   28.20
  -1  -7  -3  379.96   32.70
   1   7   3  340.47   33.10
   1   7   3  391.56   31.00
   1   7   3  379.06   28.30
  -2  -7  -3  128.79   10.80
   2   7   3  113.99   10.90
   2   7   3  106.09   11.30
  -3  -7  -3  489.45   49.30
  -3  -7  -3  646.04   41.90
   3   7   3  643.84   46.80
   3   7   3  544.35   42.40
  -4  -7  -3   18.90    3.00
  -4  -7  -3   18.60    2.50
   4   7   3   14.10    2.50
  -5  -7  -3  142.89   10.00
  -5  -7  -3  121.99   11.90
   5   7   3  131.09   11.50
  -6  -7  -3    6.40    1.20
  -6  -7  -3    5.10    2.20
   6   7   3    7.50    2.10
  -7  -7  -3   20.10    2.40
  -7  -7  -3   14.70    3.10
   7   7   3   15.70    2.80
   2  -8  -3   22.10    3.60
  -2   8   3   21.20    2.90
   1  -8  -3    5.20    2.40
  -1   8   3   -0.30    2.10
  -1   8   3    4.10    3.70
   0  -8  -3  129.29   13.00
   0  -8  -3  103.69    9.50
   0   8   3  116.59   11.50
   0   8   3   85.59   11.60
   0   8   3   79.19   10.20
  -1  -8  -3   48.80    5.10
  -1  -8  -3   38.10    5.50
   1   8   3   38.50    7.00
   1   8   3   52.39    8.20
  -2  -8  -3   12.10    3.90
  -2  -8  -3   11.10    2.10
   2   8   3    6.40    5.50
  -3  -8  -3   -1.20    1.70
  -3  -8  -3    2.00    1.40
   3   8   3   -3.20    1.60
  -4  -8  -3    2.50    1.80
  -4  -8  -3    3.60    1.40
   4   8   3    7.00    1.80
  -5  -8  -3   34.50    3.60
  -5  -8  -3   31.60    4.30
   5   8   3   30.60    4.50
  -6  -8  -3   -0.40    2.30
  -6  -8  -3    3.70    1.30
   6   8   3   -0.70    2.00
   0  -9  -3    8.70    2.50
   0   9   3   -0.20    2.50
   0   9   3    8.00    4.40
   0   9   3    2.60    2.50
  -1  -9  -3   31.90    4.60
  -1  -9  -3   25.10    5.90
   1   9   3   33.50    6.70
   1   9   3   35.30    4.10
  -2  -9  -3   35.90    4.20
  -2  -9  -3   21.90    4.00
   2   9   3   33.00    4.20
  -3  -9  -3    0.50    1.80
  -3  -9  -3   -1.80    1.80
   3   9   3   -0.60    2.00
  -4  -9  -3    3.30    1.60
  -4  -9  -3    0.50    1.90
   4   9   3   -3.00    2.00
   4   8  -4    0.60    2.20
   4   8  -4    7.80    2.70
  -4  -8   4   -3.20    1.50
  -4  -8   4    1.40    1.90
   3   8  -4   -0.40    2.10
  -3  -8   4   -2.10    2.00
  -3  -8   4    0.80    1.60
   2   8  -4    9.50    2.40
   2   8  -4   14.00    4.80
  -2  -8   4   13.50    2.70
  -2  -8   4    5.60    2.00
   1   8  -4   62.69    7.30
   1   8  -4   88.49   11.20
   1   8  -4   69.09    8.90
  -1  -8   4   74.99    7.50
  -1  -8   4   95.29   10.70
   0   8  -4   -1.50    2.30
   0  -8   4    4.50    5.00
  -1   8  -4    2.10    2.50
  -1   8  -4    2.90    2.20
   1  -8   4    1.70    2.50
  -6  -7   4    1.10    1.90
  -6  -7   4    0.40    1.10
   5   7  -4   26.70    7.00
  -5  -7   4   26.30    4.20
  -5  -7   4   29.10    4.10
   4   7  -4   47.90    9.40
  -4  -7   4   58.39    4.80
  -4  -7   4   53.99    5.70
   3   7  -4  135.89   14.10
  -3  -7   4  153.78   10.70
  -3  -7   4  121.99   12.30
   2   7  -4    4.30    4.90
   2   7  -4    1.80    4.20
   2   7  -4    3.40    3.60
  -2  -7   4    5.70    2.10
  -2  -7   4    4.20    3.30
   1   7  -4   31.60    4.80
   1   7  -4   28.30    5.20
   1   7  -4   30.10    4.60
  -1  -7   4   29.50    4.50
  -1  -7   4   31.40    4.40
   0   7  -4   18.50    3.30
   0   7  -4   12.20    4.30
   0  -7   4   10.50    2.50
   0  -7   4   12.10    4.00
  -1   7  -4   11.50    2.40
   1  -7   4    9.20    5.10
   1  -7   4   10.60    2.50
  -2   7  -4    1.90    1.70
  -2   7  -4    4.70    2.20
   2  -7   4    1.20    2.10
  -3   7  -4    2.80    1.70
  -3   7  -4   -0.50    2.60
   3  -7   4   -3.50    2.50
   6   6  -4  108.09   12.90
  -6  -6   4  102.39    8.80
  -6  -6   4  101.29   12.60
  -6  -6   4   89.39    7.50
   5   6  -4    8.50    5.40
  -5  -6   4    9.90    1.50
  -5  -6   4   11.00    1.90
  -5  -6   4    7.10    4.00
   4   6  -4    7.10    4.70
  -4  -6   4    5.80    1.30
  -4  -6   4    7.60    3.50
   3   6  -4   14.30    4.20
   3   6  -4    8.30    4.50
  -3  -6   4   15.00    3.70
  -3  -6   4   10.30    2.40
  -3  -6   4   11.40    3.00
   2   6  -4   38.10    5.70
   2   6  -4   25.00    4.70
  -2  -6   4   31.70    4.70
  -2  -6   4   28.50    3.90
  -2  -6   4   27.90    4.70
   1   6  -4   -0.10    2.80
   1   6  -4   -3.30    3.30
   1   6  -4   -1.90    3.30
  -1  -6   4    0.60    2.80
  -1  -6   4   -2.60    2.50
   0   6  -4    6.90    3.00
   0   6  -4    2.90    3.20
   0  -6   4    4.20    3.20
  -1   6  -4    9.10    3.40
   1  -6   4    6.40    3.60
   1  -6   4    5.20    2.00
  -2   6  -4   -2.60    1.90
   2  -6   4   -2.50    1.90
  -3   6  -4   29.20    4.40
   3  -6   4   37.50    4.80
  -4   6  -4   28.90    3.40
  -4   6  -4   24.20    4.60
   4  -6   4   25.40    4.80
   7   5  -4    6.90    2.80
  -7  -5   4    6.10    1.00
  -7  -5   4    4.30    2.80
   6   5  -4   -0.30    5.00
  -6  -5   4   -2.00    4.70
  -6  -5   4    1.50    1.20
  -6  -5   4    2.00    0.90
   5   5  -4   11.90    4.40
  -5  -5   4    8.80    4.00
  -5  -5   4   12.90    2.20
  -5  -5   4    8.00    1.40
   4   5  -4  187.38   16.80
  -4  -5   4  159.58   13.30
  -4  -5   4  191.48   15.10
  -4  -5   4  186.48   16.50
   3   5  -4   19.00    3.80
   3   5  -4   25.50    4.10
  -3  -5   4   18.30    4.30
  -3  -5   4   28.80    5.10
  -3  -5   4   27.10    3.70
  -3  -5   4   20.30    3.00
   2   5  -4   70.09    7.10
   2   5  -4   63.19    7.40
  -2  -5   4   67.89    6.40
  -2  -5   4   69.09    5.90
  -2  -5   4   62.59    7.60
   1   5  -4  115.29   11.70
   1   5  -4  142.99   10.60
  -1  -5   4  121.59   10.80
  -1  -5   4  122.09   11.70
  -1  -5   4  129.39   10.00
   0   5  -4    8.80    2.60
   0   5  -4   11.30    2.40
   0  -5   4    8.70    2.30
   0  -5   4    6.20    2.30
  -1   5  -4   -0.60    1.90
  -1   5  -4    1.40    2.00
   1  -5   4    0.10    2.30
   1  -5   4   -0.80    2.30
  -2   5  -4    2.90    2.00
  -2   5  -4    0.60    1.80
   2  -5   4    5.00    3.10
   2  -5   4    3.10    2.40
  -3   5  -4   18.80    3.20
   3  -5   4   13.00    2.70
  -4   5  -4    7.80    2.40
  -4   5  -4   10.00    1.50
   4  -5   4    7.50    2.30
  -5   5  -4    7.50    1.40
   5  -5   4   13.50    2.90
   7   4  -4   -1.30    2.30
  -7  -4   4    0.10    1.90
  -7  -4   4    0.20    1.30
  -7  -4   4   -0.10    0.70
   6   4  -4   17.10    4.70
  -6  -4   4   11.20    1.70
  -6  -4   4   15.80    2.70
  -6  -4   4   11.80    2.00
   5   4  -4    4.40    3.70
  -5  -4   4    5.00    3.50
  -5  -4   4    3.30    2.20
   4   4  -4  215.78   18.10
  -4  -4   4  194.48   17.70
  -4  -4   4  186.98   14.60
  -4  -4   4  213.28   16.50
  -4  -4   4  193.88   15.20
   3   4  -4  142.69   12.90
  -3  -4   4  137.99   12.60
   2   4  -4   36.70    4.80
   2   4  -4   26.70    4.70
  -2  -4   4   34.20    3.40
  -2  -4   4   32.70    5.10
  -2  -4   4   37.90    3.90
   1   4  -4   47.40    4.80
   1   4  -4   35.80    4.60
  -1  -4   4   41.20    4.10
  -1  -4   4   34.80    4.80
   0   4  -4   16.50    3.00
   0  -4   4   14.90    2.30
   0  -4   4   23.60    3.50
  -1   4  -4  169.28   14.30
  -1   4  -4  165.48   12.20
   1  -4   4  169.68   14.40
   1  -4   4  138.99   12.30
  -2   4  -4   32.40    3.50
  -2   4  -4   37.40    4.10
  -2   4  -4   29.00    4.10
   2  -4   4   33.40    4.60
   2  -4   4   33.10    4.90
  -3   4  -4   17.80    3.40
  -3   4  -4   20.70    3.70
  -3   4  -4   21.20    2.70
   3  -4   4   22.20    3.60
   3  -4   4   21.70    3.90
  -4   4  -4    1.30    1.90
  -4   4  -4    2.80    3.00
  -4   4  -4    4.00    1.00
   4  -4   4    4.00    2.10
  -5   4  -4    0.50    3.20
  -5   4  -4    5.50    2.00
  -5   4  -4    1.20    0.90
   5  -4   4   -0.70    2.30
  -6   4  -4    6.80    1.20
  -6   4  -4    5.40    2.10
   6  -4   4    5.70    3.10
   8   3  -4   11.90    3.20
  -8  -3   4   18.20    3.20
   7   3  -4   -2.70    2.20
  -7  -3   4   -0.40    1.50
   6   3  -4    4.50    3.80
  -6  -3   4    5.20    1.80
  -6  -3   4    9.10    1.30
  -6  -3   4   13.90    2.30
   5   3  -4    4.30    3.00
  -5  -3   4    2.40    1.70
  -5  -3   4    1.50    1.00
  -5  -3   4    1.20    1.60
   4   3  -4   13.90    2.70
  -4  -3   4    9.20    1.70
  -4  -3   4   11.30    1.80
  -4  -3   4   11.30    1.90
   3   3  -4    7.60    2.10
   3   3  -4    3.80    1.90
  -3  -3   4    5.80    1.70
  -3  -3   4    5.60    1.00
  -3  -3   4    3.80    1.10
  -3  -3   4    5.60    2.00
   2   3  -4   15.50    2.40
   2   3  -4   18.30    3.10
  -2  -3   4   18.20    2.40
  -2  -3   4   14.40    2.20
  -2  -3   4   14.40    2.50
  -2  -3   4   22.70    3.70
   1   3  -4 1402.86  126.69
   1   3  -4 1671.13  105.89
  -1  -3   4 1467.95  125.59
  -1  -3   4 1423.16  117.79
   0   3  -4    1.40    1.60
   0   3  -4    1.60    1.30
   0  -3   4    0.70    1.70
   0  -3   4    0.80    1.80
   0  -3   4   -1.60    1.00
  -1   3  -4  754.12   66.49
   1  -3   4  781.02   66.09
   1  -3   4  808.22   55.89
  -2   3  -4   -0.70    1.50
  -2   3  -4    0.70    0.90
   2  -3   4   -1.10    1.60
   2  -3   4   -0.60    1.70
  -3   3  -4   36.10    3.30
  -3   3  -4   37.70    4.50
  -3   3  -4   41.80    4.90
   3  -3   4   36.40    4.30
   3  -3   4   35.10    5.00
  -4   3  -4   26.10    2.80
  -4   3  -4   25.10    3.20
  -4   3  -4   25.40    5.10
   4  -3   4   29.60    4.10
  -5   3  -4   50.79    5.00
  -5   3  -4   34.40    5.00
  -5   3  -4   42.00    3.50
   5  -3   4   34.40    5.00
  -6   3  -4    4.20    2.30
  -6   3  -4    1.50    0.80
  -6   3  -4    0.60    1.80
   6  -3   4   -4.20    2.40
  -7   3  -4    7.20    2.40
   7  -3   4    3.60    3.30
   8   2  -4   12.00    2.90
  -8  -2   4    9.00    2.10
   7   2  -4   18.60    2.90
  -7  -2   4   19.30    3.00
   6   2  -4   20.70    4.00
  -6  -2   4   23.20    2.80
  -6  -2   4   15.40    2.50
   5   2  -4    0.90    2.30
  -5  -2   4    0.90    1.20
  -5  -2   4   -0.90    1.30
  -5  -2   4   -0.30    0.80
   4   2  -4   35.40    4.40
  -4  -2   4   35.00    3.60
  -4  -2   4   36.50    4.20
  -4  -2   4   38.00    3.10
   3   2  -4  465.15   36.60
   3   2  -4  458.05   30.80
  -3  -2   4  405.16   30.50
  -3  -2   4  408.36   34.10
  -3  -2   4  398.66   30.50
   2   2  -4  184.08   14.50
   2   2  -4  216.08   17.20
  -2  -2   4  216.78   16.00
  -2  -2   4  173.58   14.30
   1   2  -4  720.83   47.40
   1   2  -4  608.74   56.69
  -1  -2   4  723.33   47.40
  -1  -2   4  723.03   47.40
  -1  -2   4  644.44   52.69
  -1  -2   4  572.04   56.09
   0   2  -4   35.60    4.00
   0   2  -4   38.10    3.30
   0  -2   4   29.00    3.90
   0  -2   4   30.00    3.10
   0  -2   4   36.20    3.50
  -1   2  -4  897.81   67.99
  -1   2  -4  883.81   67.99
   1  -2   4  936.21   67.99
   1  -2   4 1111.69   80.79
  -2   2  -4  466.15   35.80
  -2   2  -4  557.44   42.90
   2  -2   4  502.15   42.50
   2  -2   4  479.85   35.80
  -3   2  -4  250.57   17.90
  -3   2  -4  255.57   18.00
  -3   2  -4  239.08   21.60
   3  -2   4  248.68   21.40
  -4   2  -4  112.09   11.00
  -4   2  -4  127.69    8.80
  -4   2  -4  112.19    8.90
   4  -2   4  116.49   10.80
  -5   2  -4    7.20    1.80
  -5   2  -4    7.90    1.20
   5  -2   4   14.20    3.00
  -6   2  -4   11.70    2.20
  -6   2  -4   10.90    1.80
  -6   2  -4   15.00    1.50
  -7   2  -4   33.00    5.10
   7  -2   4   46.00    5.70
   8   1  -4    0.80    2.70
  -8  -1   4    1.60    1.70
   7   1  -4   12.10    2.50
   5   1  -4   34.10    4.40
  -5  -1   4   36.40    2.80
  -5  -1   4   28.40    3.00
  -5  -1   4   34.80    4.20
   4   1  -4    2.20    1.30
  -4  -1   4    4.60    0.90
  -4  -1   4    2.70    1.00
  -4  -1   4    2.30    1.30
   3   1  -4  256.37   20.50
  -3  -1   4  226.78   19.20
  -3  -1   4  227.08   17.00
  -3  -1   4  237.78   17.10
   2   1  -4    9.90    1.70
   2   1  -4    9.90    1.50
  -2  -1   4    8.80    1.50
  -2  -1   4    7.60    1.10
   1   1  -4  629.54   43.80
   1   1  -4  583.54   52.29
  -1  -1   4  667.83   43.80
  -1  -1   4  541.05   43.70
  -1  -1   4  652.93   48.70
   0   1  -4    6.60    1.20
   0   1  -4    8.80    2.00
   0  -1   4   10.10    1.50
   0  -1   4   10.40    1.30
   0  -1   4    6.70    1.40
  -1   1  -4 1582.74  121.19
  -1   1  -4 1609.94  121.19
   1  -1   4 1974.90  143.99
   1  -1   4 1675.93  121.19
  -2   1  -4   52.19    5.50
  -2   1  -4   57.49    4.50
  -2   1  -4   53.29    4.30
  -2   1  -4   55.59    5.50
   2  -1   4   60.69    4.70
  -3   1  -4   54.29    4.30
  -3   1  -4   51.09    5.50
  -3   1  -4   56.99    5.50
  -3   1  -4   51.29    4.20
  -4   1  -4    3.40    0.80
  -4   1  -4    1.10    1.80
  -4   1  -4    1.90    1.10
  -5   1  -4   67.69    4.90
  -5   1  -4   66.19    5.10
  -5   1  -4   64.99    6.90
   5  -1   4   60.99    7.00
  -7   1  -4    7.90    1.90
   7  -1   4    4.20    2.60
  -8   1  -4   -2.00    2.30
   8  -1   4    0.30    3.20
   7   0  -4    0.80    2.00
  -7   0   4    2.60    1.60
  -6   0   4  107.49   10.30
  -5   0   4   11.00    2.30
  -5   0   4   12.10    1.50
  -5   0   4   10.80    2.30
  -5   0   4    9.50    1.40
  -4   0   4    3.40    1.30
  -4   0   4    2.60    0.90
  -4   0   4    4.00    0.80
   3   0  -4   15.20    2.60
  -3   0   4   16.30    1.80
  -3   0   4   14.10    1.90
  -3   0   4   16.40    2.60
   2   0  -4  235.98   17.80
   2   0  -4  199.18   14.80
  -2   0   4  186.08   14.70
  -2   0   4  189.88   16.50
  -2   0   4  213.88   14.70
   1   0  -4  152.88   12.20
   1   0  -4  138.99   10.20
  -1   0   4  126.89   11.40
   0   0  -4   69.59    6.50
   0   0  -4   78.79    5.60
   0   0   4   63.19    6.20
   0   0   4   82.59    5.70
  -1   0  -4    8.90    1.60
  -1   0  -4    9.40    1.80
  -1   0  -4    7.30    1.10
   1   0   4   10.30    1.90
   1   0   4    8.50    1.20
  -2   0  -4    1.60    0.80
  -2   0  -4    0.20    0.80
  -2   0  -4    1.20    1.40
  -2   0  -4    0.50    1.30
   2   0   4   -0.20    0.90
   2   0   4    0.90    1.00
  -3   0  -4   54.99    5.30
  -3   0  -4   51.69    4.20
  -3   0  -4   49.50    5.50
  -3   0  -4   56.19    4.10
   3   0   4   54.49    4.90
  -4   0  -4    2.30    1.50
  -4   0  -4    1.80    1.70
  -4   0  -4    3.40    0.60
  -4   0  -4    2.80    0.70
  -5   0  -4    9.20    2.40
  -5   0  -4    7.80    2.10
  -5   0  -4    8.50    2.30
  -6   0  -4    4.10    2.90
  -6   0  -4    1.40    2.60
  -6   0  -4    1.60    2.40
  -7   0  -4   -0.50    1.70
  -7   0  -4    0.40    1.90
  -8   0  -4   -1.60    2.00
   8   0   4   -0.70    2.70
  -7   1   4  103.09   10.30
  -7   1   4  111.29    9.40
  -6   1   4    2.80    0.60
  -6   1   4    4.20    1.60
  -6   1   4    3.90    3.10
  -5   1   4   45.90    5.60
  -5   1   4   54.79    4.50
  -5   1   4   50.89    5.90
  -5   1   4   47.90    3.90
  -4   1   4  274.77   19.10
  -4   1   4  249.48   23.20
  -4   1   4  271.57   19.20
  -4   1   4  269.87   21.60
  -3   1   4    9.50    1.30
  -3   1   4   10.30    1.70
  -3   1   4   11.20    1.70
  -3   1   4    9.10    1.90
   2  -1  -4  287.47   22.80
  -2   1   4  358.76   27.40
  -2   1   4  310.17   25.50
   1  -1  -4    1.50    1.00
  -1   1   4    2.20    1.30
  -1   1   4    1.70    0.90
  -1   1   4    0.90    0.80
  -1   1   4    0.50    1.40
   0  -1  -4    9.00    1.30
   0  -1  -4    5.10    1.20
   0  -1  -4    4.60    1.10
   0   1   4    6.30    1.00
   0   1   4    5.80    1.30
  -1  -1  -4  410.66   35.30
   1   1   4  440.06   29.70
   1   1   4  401.06   33.20
  -2  -1  -4   84.09    5.90
  -2  -1  -4   81.29    5.90
   2   1   4   75.09    6.00
   2   1   4   78.69    6.80
  -3  -1  -4   31.10    3.70
  -3  -1  -4   25.70    2.20
  -3  -1  -4   26.40    3.10
  -3  -1  -4   23.90    2.20
   3   1   4   23.90    3.10
  -4  -1  -4  478.35   43.80
  -4  -1  -4  554.44   44.10
  -5  -1  -4    9.30    2.50
  -5  -1  -4   10.80    2.20
  -5  -1  -4   12.30    2.40
  -6  -1  -4  310.17   25.20
  -6  -1  -4  309.67   27.10
  -6  -1  -4  309.07   27.00
  -7  -1  -4   42.60    7.00
  -7  -1  -4   66.89    7.80
  -8  -1  -4    7.90    2.30
   7  -2  -4    1.30    5.20
  -7   2   4    1.40    2.10
   6  -2  -4   45.60    8.10
  -6   2   4   54.89    4.90
  -6   2   4   45.30    3.70
  -6   2   4   46.50    7.20
  -6   2   4   48.90    5.40
   5  -2  -4    6.20    3.10
  -5   2   4    6.40    2.60
  -5   2   4    2.20    1.90
   4  -2  -4  131.99   12.10
  -4   2   4  133.89   11.30
  -4   2   4  139.19   10.00
  -4   2   4  134.59    9.80
  -4   2   4  121.49   12.00
   3  -2  -4    0.00    1.80
  -3   2   4    1.00    1.30
  -3   2   4    2.30    1.10
  -3   2   4    2.70    1.60
  -3   2   4    1.30    0.70
   2  -2  -4   -0.60    1.50
   2  -2  -4    0.40    1.30
  -2   2   4    0.10    1.10
  -2   2   4    1.20    1.20
  -2   2   4    0.10    1.00
  -2   2   4    0.10    0.70
   1  -2  -4  211.88   14.30
   1  -2  -4  193.28   17.00
  -1   2   4  208.68   16.00
  -1   2   4  177.88   14.30
   0  -2  -4   74.39    5.30
   0   2   4   56.39    6.10
   0   2   4   76.29    6.30
  -1  -2  -4  100.19    8.90
  -1  -2  -4   88.79    7.50
  -1  -2  -4  115.29    7.50
  -1  -2  -4  101.89    7.60
   1   2   4   92.19    8.60
   1   2   4  112.59    7.60
  -2  -2  -4   58.79    5.30
  -2  -2  -4   63.19    4.30
   2   2   4   50.59    5.10
   2   2   4   46.60    4.50
  -3  -2  -4  144.29    9.50
  -3  -2  -4  117.29    9.50
  -3  -2  -4  132.89   11.60
   3   2   4  131.09   10.90
  -4  -2  -4    1.40    0.70
  -4  -2  -4    1.00    1.60
  -4  -2  -4    1.10    0.60
   4   2   4    2.30    1.20
  -5  -2  -4   16.60    2.70
  -5  -2  -4   14.20    2.50
  -5  -2  -4   13.00    2.30
  -6  -2  -4   60.29    7.40
  -6  -2  -4   58.49    6.70
  -6  -2  -4   73.79    7.40
  -7  -2  -4    2.70    3.50
  -8  -2  -4  240.58   21.30
   8   2   4  244.58   20.10
   6  -3  -4   53.29    7.10
  -6   3   4   44.70    7.80
  -6   3   4   48.90    3.90
  -6   3   4   50.89    5.90
  -6   3   4   44.10    5.50
   5  -3  -4    2.10    3.70
  -5   3   4    8.70    3.00
  -5   3   4    5.00    2.20
  -5   3   4    1.80    1.50
  -5   3   4    4.90    0.90
   4  -3  -4   36.60    6.20
  -4   3   4   31.60    4.20
  -4   3   4   39.50    3.30
  -4   3   4   40.10    4.70
  -4   3   4   42.90    5.20
   3  -3  -4    1.60    2.10
   3  -3  -4    1.50    2.10
  -3   3   4    0.70    1.10
  -3   3   4    0.50    0.70
  -3   3   4    0.80    1.70
  -3   3   4    0.50    1.70
   2  -3  -4  239.78   20.30
   2  -3  -4  205.18   17.10
  -2   3   4  255.37   17.00
  -2   3   4  237.58   20.40
  -2   3   4  236.18   19.10
   1  -3  -4  201.88   15.30
   1  -3  -4  197.08   18.20
  -1   3   4  204.18   17.00
  -1   3   4  237.28   15.30
   0  -3  -4  105.39    7.80
   0  -3  -4  112.79    9.30
   0   3   4  111.09    7.90
   0   3   4   86.19    8.70
   0   3   4   99.79    9.10
  -1  -3  -4  292.57   24.80
   1   3   4  287.47   20.90
  -2  -3  -4  753.12   47.40
  -2  -3  -4  719.23   56.29
   2   3   4  604.54   47.40
   2   3   4  587.24   52.89
  -3  -3  -4   71.29    6.20
  -3  -3  -4   59.19    5.10
  -3  -3  -4   64.39    4.80
   3   3   4   61.69    5.80
   3   3   4   61.39    5.40
  -4  -3  -4  138.89   10.10
  -4  -3  -4  133.89    9.90
  -4  -3  -4  122.89   12.10
   4   3   4  151.88   11.50
  -5  -3  -4   25.10    4.10
  -5  -3  -4   27.50    2.70
  -5  -3  -4   22.20    2.20
  -6  -3  -4   10.50    3.30
  -8  -3  -4    1.90    2.40
   8   3   4    2.20    4.80
   8   3   4    0.40    2.10
   6  -4  -4   -4.30    2.40
  -6   4   4   -0.30    1.00
  -6   4   4    2.00    1.80
  -6   4   4    3.30    4.60
   5  -4  -4  174.78   16.20
  -5   4   4  156.38   12.00
  -5   4   4  163.48   14.50
  -5   4   4  179.18   13.50
  -5   4   4  147.79   14.70
   4  -4  -4  106.99   10.80
  -4   4   4   99.19    9.40
  -4   4   4  103.69    8.90
  -4   4   4   99.69    7.60
  -4   4   4   90.59    9.30
   3  -4  -4    6.20    2.80
   3  -4  -4    4.00    2.70
  -3   4   4    2.70    2.30
  -3   4   4    2.30    1.10
  -3   4   4    3.20    1.70
  -3   4   4    8.20    2.30
   2  -4  -4   26.30    4.20
   2  -4  -4   25.90    4.40
  -2   4   4   27.80    3.60
  -2   4   4   25.30    2.90
  -2   4   4   30.00    4.00
  -2   4   4   20.60    3.00
   1  -4  -4   45.80    5.30
   1  -4  -4   38.90    4.90
  -1   4   4   49.90    4.90
  -1   4   4   47.80    4.20
  -1   4   4   40.20    4.90
   0  -4  -4   12.20    2.10
   0  -4  -4   10.80    2.00
   0   4   4   10.90    2.00
   0   4   4   16.40    2.60
   0   4   4   11.30    2.10
   0   4   4   10.40    1.90
  -1  -4  -4   72.19    5.60
  -1  -4  -4   65.19    6.50
   1   4   4   76.79    6.20
   1   4   4   60.79    6.10
  -2  -4  -4   28.10    3.70
   2   4   4   35.40    3.90
   2   4   4   37.90    4.00
   2   4   4   30.10    3.60
  -3  -4  -4    2.40    1.60
  -3  -4  -4    0.50    1.20
  -3  -4  -4    3.00    0.90
   3   4   4    4.30    1.70
   3   4   4    4.20    2.00
  -4  -4  -4   -1.20    1.40
  -4  -4  -4   -0.70    0.80
  -4  -4  -4    2.90    1.70
   4   4   4    2.40    1.60
  -5  -4  -4   14.30    2.20
  -5  -4  -4   20.30    3.00
  -5  -4  -4   19.00    3.00
   5   4   4   21.70    3.20
  -6  -4  -4    6.30    3.20
  -6  -4  -4    4.30    1.60
  -7  -4  -4   -1.70    2.10
   7   4   4   -2.60    1.70
  -8  -4  -4   -0.60    2.80
   8   4   4   -3.30    2.00
   5  -5  -4   43.60    5.50
  -5   5   4   36.30    5.40
  -5   5   4   33.30    3.50
  -5   5   4   38.90    4.60
  -4   5   4   48.90    6.70
  -4   5   4   40.80    3.90
  -4   5   4   46.50    4.90
   3  -5  -4  121.69   12.30
  -3   5   4  126.19   11.20
   2  -5  -4  115.09   10.10
   2  -5  -4  123.89   11.40
  -2   5   4  125.19    9.40
  -2   5   4  104.89   10.30
  -2   5   4  121.99   10.50
  -2   5   4  113.19   11.20
   1  -5  -4   16.30    2.80
   1  -5  -4   15.00    2.80
  -1   5   4   16.90    2.70
  -1   5   4   15.70    2.40
  -1   5   4   14.00    2.80
  -1   5   4   16.30    2.50
   0  -5  -4  196.08   15.40
   0  -5  -4  171.98   13.30
   0   5   4  186.18   13.30
   0   5   4  168.98   15.40
   0   5   4  147.99   14.40
  -1  -5  -4   28.00    3.50
  -1  -5  -4   24.70    3.70
   1   5   4   30.80    5.10
   1   5   4   26.30    3.70
  -2  -5  -4    1.40    1.80
  -2  -5  -4   -0.20    1.20
   2   5   4    0.50    3.20
   2   5   4    0.00    1.40
  -3  -5  -4  150.48   12.60
  -3  -5  -4  178.98   14.70
   3   5   4  175.38   14.00
   3   5   4  157.18   12.90
  -4  -5  -4    1.30    1.70
  -4  -5  -4   -0.10    1.70
  -4  -5  -4    1.30    0.80
   4   5   4    0.00    1.90
   4   5   4    2.00    3.10
  -5  -5  -4    6.60    2.20
  -5  -5  -4    8.30    1.50
  -5  -5  -4    6.40    2.50
   5   5   4   13.10    2.70
  -6  -5  -4    4.20    2.30
  -6  -5  -4    6.20    1.00
   6   5   4    5.60    1.70
  -7  -5  -4    9.40    1.20
  -7  -5  -4    9.10    2.30
  -7  -5  -4   14.50    2.50
   7   5   4   12.60    2.40
  -8  -5  -4    8.90    2.90
   8   5   4    8.60    2.40
   4  -6  -4    6.60    2.50
  -4   6   4    3.60    1.80
  -4   6   4    4.00    1.20
   3  -6  -4   -1.00    2.00
  -3   6   4    2.90    3.10
  -3   6   4    1.20    1.70
  -3   6   4    1.20    1.10
  -2   6   4   35.70    6.40
  -2   6   4   39.70    5.90
  -2   6   4   43.10    5.40
   1  -6  -4    0.90    3.40
   1  -6  -4    0.30    2.10
  -1   6   4   -2.10    3.00
  -1   6   4    1.50    2.50
  -1   6   4   -0.90    2.50
  -1   6   4    2.90    3.20
   0  -6  -4  199.58   17.00
   0  -6  -4  245.68   19.60
   0   6   4  232.58   20.00
   0   6   4  235.88   17.10
   0   6   4  201.38   18.50
  -1  -6  -4  344.27   27.50
  -1  -6  -4  334.57   23.50
   1   6   4  283.67   25.90
   1   6   4  313.27   23.70
  -2  -6  -4  347.47   23.20
  -2  -6  -4  304.37   27.30
   2   6   4  265.37   23.40
   2   6   4  348.57   25.80
  -3  -6  -4  139.19    9.60
  -3  -6  -4  102.49   11.20
   3   6   4  105.69   10.70
   3   6   4  137.19   10.70
  -4  -6  -4    6.20    1.40
  -4  -6  -4    2.60    2.10
   4   6   4    4.60    2.40
  -5  -6  -4    8.90    2.10
  -5  -6  -4    7.10    1.10
  -5  -6  -4    6.10    3.00
   5   6   4    9.20    2.00
  -6  -6  -4    0.10    3.00
  -6  -6  -4    1.90    0.90
  -6  -6  -4   -0.40    1.80
   6   6   4    0.10    1.70
  -7  -6  -4    2.30    3.00
  -7  -6  -4   -1.10    0.90
  -7  -6  -4    1.40    2.20
   7   6   4    3.90    2.00
   3  -7  -4    5.30    2.60
  -3   7   4    3.00    2.00
  -3   7   4    5.70    1.50
   2  -7  -4    0.50    2.10
  -2   7   4   -2.10    1.50
  -2   7   4   -0.60    1.80
  -2   7   4    0.70    3.10
   1  -7  -4    3.00    1.80
   1  -7  -4    2.50    4.30
  -1   7   4    1.70    3.10
  -1   7   4    1.20    3.20
  -1   7   4    1.10    3.00
  -1   7   4    1.60    3.80
   0  -7  -4   58.29    6.20
   0  -7  -4   60.79    8.10
   0   7   4   67.79    7.90
   0   7   4   65.99    8.30
   0   7   4   53.59    7.20
  -1  -7  -4   87.89    9.30
  -1  -7  -4   78.39    7.40
   1   7   4   75.69    8.10
   1   7   4   60.79    8.70
  -2  -7  -4  146.89   13.70
  -2  -7  -4  161.28   12.50
   2   7   4  141.99   13.50
   2   7   4  168.18   13.70
  -3  -7  -4   39.50    5.10
  -3  -7  -4   35.90    4.20
   3   7   4   34.90    5.70
  -4  -7  -4  106.59    8.10
  -4  -7  -4   91.69    9.40
   4   7   4  111.39    9.20
  -5  -7  -4   78.09    5.90
  -5  -7  -4   68.89    7.20
   5   7   4   71.99    7.20
  -6  -7  -4   23.80    4.30
  -6  -7  -4   25.80    2.70
   6   7   4   22.00    3.30
  -7  -7  -4   -1.60    2.40
  -7  -7  -4    1.60    1.10
   7   7   4   -2.50    2.00
   2  -8  -4   20.40    3.40
  -2   8   4   25.90    3.70
   1  -8  -4   -1.50    2.20
  -1   8   4   -1.70    1.80
  -1   8   4   -0.70    2.00
  -1   8   4   -0.40    3.70
   0  -8  -4   92.69   11.00
   0  -8  -4   99.79    8.80
   0   8   4  102.59   10.70
   0   8   4   82.19    9.90
   0   8   4   76.79   11.00
  -1  -8  -4    2.70    1.90
  -1  -8  -4   -0.50    3.80
   1   8   4   -0.30    4.80
   1   8   4   -0.20    3.30
  -2  -8  -4    6.80    2.10
  -2  -8  -4   10.20    3.70
   2   8   4   10.50    2.00
   2   8   4   11.80    5.60
  -3  -8  -4    8.70    1.70
  -3  -8  -4    4.00    1.70
   3   8   4    5.90    1.90
  -4  -8  -4   48.30    6.10
  -4  -8  -4   62.29    5.40
   4   8   4   72.79    6.10
  -5  -8  -4    4.30    1.80
  -5  -8  -4    3.60    1.20
   5   8   4    0.20    1.80
  -6  -8  -4   91.69   10.50
  -6  -8  -4  111.09    8.50
   6   8   4  124.79   10.20
   0  -9  -4   17.60    3.10
   0   9   4   22.40    3.20
  -1  -9  -4    3.60    2.20
  -1  -9  -4    6.20    5.30
   1   9   4    8.40    5.60
   1   9   4    7.00    5.60
  -2  -9  -4   52.79    5.40
  -2  -9  -4   46.20    5.60
   2   9   4   54.69    5.50
  -3  -9  -4    1.00    1.70
  -3  -9  -4    1.50    1.90
   3   9   4    1.70    2.00
  -4  -9  -4   20.60    3.80
  -4  -9  -4   31.10    3.70
   4   9   4   23.90    4.20
   4   8  -5   22.30    4.60
  -4  -8   5   25.20    4.00
  -4  -8   5   23.10    3.50
   3   8  -5    3.60    2.50
   3   8  -5   -3.00    2.20
  -3  -8   5   -1.40    2.10
  -3  -8   5    0.00    1.60
   2   8  -5    3.20    4.80
   2   8  -5    4.50    2.40
  -2  -8   5    6.20    1.80
  -2  -8   5   -0.40    2.20
   1   8  -5    2.50    7.70
  -1  -8   5    3.90    2.50
  -1  -8   5    0.20    4.50
   0   8  -5   -0.10    2.40
   0   8  -5    5.40    2.40
   0  -8   5    0.40    2.50
   0  -8   5   -0.10    5.50
  -1   8  -5    4.10    2.80
   1  -8   5    7.00    2.60
   5   7  -5   -3.80    2.90
  -5  -7   5    0.00    2.10
  -5  -7   5   -3.00    1.80
  -5  -7   5    1.60    1.10
  -4  -7   5    6.50    2.10
  -4  -7   5    9.00    2.00
  -3  -7   5   22.20    3.50
  -3  -7   5   13.80    2.10
   2   7  -5   10.60    4.10
   2   7  -5   15.10    5.50
  -2  -7   5   19.00    3.70
  -2  -7   5   18.10    3.70
   1   7  -5    2.00    3.60
   1   7  -5   -1.50    4.00
  -1  -7   5   -1.10    2.20
  -1  -7   5    0.90    3.50
   0   7  -5   15.70    4.40
   0   7  -5    6.90    2.20
   0  -7   5   11.90    4.10
   0  -7   5    8.70    2.30
  -1   7  -5   40.00    5.20
   1  -7   5   46.40    5.40
  -2   7  -5    8.40    2.60
   2  -7   5   11.20    2.70
  -3   7  -5   28.00    3.90
   3  -7   5   20.70    3.80
   6   6  -5   45.40    5.40
  -6  -6   5   29.80    4.00
  -6  -6   5   33.50    3.30
   5   6  -5  103.89   12.20
  -5  -6   5   86.09    7.40
  -5  -6   5  102.09    8.40
  -5  -6   5   85.09   10.90
   4   6  -5    1.60    4.90
  -4  -6   5    1.90    1.10
  -4  -6   5    2.20    3.40
  -4  -6   5    2.00    1.30
   3   6  -5   37.80    7.70
   3   6  -5   34.50    5.90
  -3  -6   5   45.70    5.30
  -3  -6   5   44.20    7.00
  -3  -6   5   45.10    5.90
   2   6  -5    1.20    3.70
   2   6  -5    2.30    3.70
  -2  -6   5    4.60    3.00
  -2  -6   5    4.20    2.30
  -2  -6   5    4.70    3.70
   1   6  -5  205.68   20.10
  -1  -6   5  227.98   20.10
  -1  -6   5  238.68   17.10
   0   6  -5   35.00    5.60
   0   6  -5   22.00    3.90
   0  -6   5   21.30    3.60
  -1   6  -5  181.38   13.10
   1  -6   5  142.19   14.00
   1  -6   5  147.39   13.30
  -2   6  -5    2.20    2.00
  -2   6  -5   -0.60    1.40
   2  -6   5   -2.80    2.00
  -3   6  -5    1.60    2.10
  -3   6  -5   -1.50    1.40
   3  -6   5    2.20    2.10
  -4   6  -5    5.50    1.40
  -4   6  -5    3.60    2.60
   4  -6   5    3.30    2.50
   7   5  -5    3.40    2.90
  -7  -5   5    1.10    1.40
  -7  -5   5    0.50    0.90
  -6  -5   5   15.60    2.70
  -6  -5   5   17.60    5.30
  -6  -5   5   11.60    1.60
   5   5  -5   55.09    8.30
  -5  -5   5   50.99    4.90
  -5  -5   5   46.60    4.10
  -5  -5   5   47.30    8.10
   4   5  -5  232.18   21.40
  -4  -5   5  263.07   19.60
  -4  -5   5  241.18   20.90
  -4  -5   5  208.58   17.40
   3   5  -5   18.30    4.20
   3   5  -5   23.00    4.20
  -3  -5   5   22.10    3.40
  -3  -5   5   22.80    3.90
  -3  -5   5   25.30    4.10
   2   5  -5   15.30    3.50
   2   5  -5   11.30    3.60
  -2  -5   5   13.10    2.40
  -2  -5   5   11.70    2.30
  -2  -5   5   19.50    3.60
   1   5  -5  118.99    9.40
   1   5  -5   94.89   10.20
  -1  -5   5  101.89   10.40
  -1  -5   5  104.69    9.40
  -1  -5   5  110.89    8.90
   0   5  -5    7.70    2.30
   0   5  -5    5.70    2.30
   0  -5   5    8.20    2.40
   0  -5   5    2.10    2.50
  -1   5  -5   19.80    3.00
   1  -5   5   26.50    4.40
   1  -5   5   16.10    2.90
  -2   5  -5   10.60    2.30
   2  -5   5   11.00    3.40
  -3   5  -5   17.50    2.70
  -3   5  -5   19.50    3.60
   3  -5   5   24.10    3.20
  -4   5  -5    0.30    2.20
  -4   5  -5    4.20    1.20
   4  -5   5    2.10    2.00
  -5   5  -5   15.50    2.50
  -5   5  -5   15.00    2.90
   5  -5   5   16.60    3.10
   7   4  -5    5.80    2.50
  -7  -4   5    0.50    1.50
  -7  -4   5    4.00    0.80
  -7  -4   5    3.70    2.20
  -6  -4   5   16.30    2.90
  -6  -4   5   19.90    3.00
  -6  -4   5   20.50    2.10
   5   4  -5  113.89   11.50
  -5  -4   5  107.89    9.50
  -5  -4   5  107.29    9.40
  -5  -4   5  111.69    8.30
   4   4  -5  106.59    9.90
   4   4  -5   84.99    9.60
  -4  -4   5   86.29    8.60
  -4  -4   5   84.59    7.20
  -4  -4   5   94.99    9.50
  -4  -4   5  107.89    8.40
   3   4  -5   88.09    9.10
   3   4  -5  110.99    9.70
  -3  -4   5   87.39    8.70
  -3  -4   5   84.69    7.60
  -3  -4   5  120.19    9.60
   2   4  -5    0.70    3.20
   2   4  -5    0.90    2.00
  -2  -4   5   -3.30    2.50
  -2  -4   5    0.40    1.30
  -2  -4   5    0.00    1.20
   1   4  -5   57.69    6.50
  -1  -4   5   69.19    6.00
  -1  -4   5   64.99    6.70
   0   4  -5    4.10    2.50
   0   4  -5    4.30    1.70
   0  -4   5    3.10    1.80
   0  -4   5    4.00    2.00
  -1   4  -5  202.58   15.90
  -1   4  -5  215.38   18.80
   1  -4   5  225.68   18.80
   1  -4   5  214.68   16.40
  -2   4  -5   39.60    4.30
  -2   4  -5   34.50    3.70
  -2   4  -5   35.00    4.60
   2  -4   5   33.40    4.00
   2  -4   5   35.60    5.00
  -3   4  -5   29.10    3.40
  -3   4  -5   33.60    4.90
   3  -4   5   38.90    4.70
  -4   4  -5    3.10    3.10
  -4   4  -5    5.60    1.90
  -4   4  -5    6.60    1.20
   4  -4   5    9.60    2.20
  -5   4  -5    5.30    2.20
   5  -4   5    5.80    2.40
  -6   4  -5    3.40    2.20
  -6   4  -5    0.90    1.10
   6  -4   5    9.60    3.00
   7   3  -5   -2.60    2.30
  -7  -3   5    1.80    1.40
  -7  -3   5    1.10    1.50
  -7  -3   5    1.40    0.70
  -6  -3   5    2.20    1.20
  -6  -3   5    1.20    1.70
  -6  -3   5    3.90    0.80
   5   3  -5   71.09    8.10
  -5  -3   5   64.09    6.80
  -5  -3   5   71.89    6.30
  -5  -3   5   75.49    5.70
   4   3  -5   11.70    2.80
  -4  -3   5    9.80    1.70
  -4  -3   5    9.80    2.10
  -4  -3   5    9.60    1.60
   3   3  -5    4.90    2.50
   3   3  -5    5.40    1.90
  -3  -3   5    5.10    1.00
  -3  -3   5    4.80    1.20
  -3  -3   5    0.30    1.80
   2   3  -5   21.40    3.20
   2   3  -5   22.20    2.90
  -2  -3   5   22.10    2.50
  -2  -3   5   15.30    2.50
  -2  -3   5   25.60    4.20
  -2  -3   5   21.90    2.70
   1   3  -5   73.39    7.20
   1   3  -5   78.99    6.40
  -1  -3   5   67.29    6.40
  -1  -3   5   73.59    7.20
  -1  -3   5   80.39    6.10
   0   3  -5   91.59    7.00
   0   3  -5   82.89    8.00
   0  -3   5   83.99    8.00
   0  -3   5   82.09    6.90
  -1   3  -5  156.88   11.20
  -1   3  -5  145.69   13.00
   1  -3   5  123.69   11.20
   1  -3   5  157.98   13.00
  -2   3  -5  212.58   16.80
  -2   3  -5  183.28   14.40
  -2   3  -5  172.28   13.90
   2  -3   5  182.48   14.20
   2  -3   5  198.58   16.70
  -3   3  -5   33.30    4.70
  -3   3  -5   27.00    4.40
  -3   3  -5   29.10    2.80
   3  -3   5   31.80    3.80
   3  -3   5   22.00    3.10
  -4   3  -5   -0.70    0.90
  -4   3  -5   -0.70    2.00
  -4   3  -5   -0.90    2.20
   4  -3   5    0.60    1.70
  -5   3  -5    0.80    2.30
  -5   3  -5    1.50    0.80
   5  -3   5   -0.20    1.80
  -6   3  -5    3.10    2.00
  -6   3  -5    2.10    2.40
   6  -3   5   -3.20    2.50
  -7   3  -5   -1.00    2.30
   7  -3   5    0.00    3.40
   7   2  -5    9.50    2.60
  -6  -2   5   26.70    2.20
  -6  -2   5   22.30    3.10
   5   2  -5   37.00    5.10
  -5  -2   5   36.40    4.70
  -5  -2   5   32.20    3.80
  -5  -2   5   41.70    3.40
   4   2  -5    1.00    1.80
  -4  -2   5    1.70    1.50
  -4  -2   5    2.20    0.80
  -4  -2   5    1.60    1.40
   3   2  -5  278.07   19.60
   3   2  -5  276.27   23.00
  -3  -2   5  265.97   19.20
  -3  -2   5  269.57   19.30
  -3  -2   5  241.68   21.40
   2   2  -5   80.19    7.40
   2   2  -5   72.19    6.60
  -2  -2   5   89.79    6.80
  -2  -2   5   84.59    6.60
  -2  -2   5   67.79    6.00
   1   2  -5  357.76   34.00
   1   2  -5  424.56   28.50
  -1  -2   5  382.06   31.50
  -1  -2   5  371.16   33.60
  -1  -2   5  445.96   28.50
   0   2  -5  552.94   38.00
   0   2  -5  530.25   45.50
   0  -2   5  557.64   38.00
   0  -2   5  487.35   45.00
   0  -2   5  531.25   42.10
  -1   2  -5  243.08   19.60
  -1   2  -5  251.27   19.50
   1  -2   5  266.67   19.60
   1  -2   5  321.67   23.20
  -2   2  -5   36.40    3.90
  -2   2  -5   24.60    2.80
   2  -2   5   30.20    3.90
   2  -2   5   26.80    3.70
  -3   2  -5   47.60    4.70
  -3   2  -5   49.90    4.20
  -3   2  -5   51.19    5.80
   3  -2   5   60.59    5.50
  -4   2  -5   93.19    6.80
  -4   2  -5   86.79    7.10
  -4   2  -5   81.89    8.50
   4  -2   5   89.99    8.40
  -5   2  -5   59.39    6.00
  -5   2  -5   80.69    7.80
   5  -2   5   72.39    7.60
  -6   2  -5   19.20    3.40
  -6   2  -5   12.20    2.10
  -6   2  -5   17.90    1.70
   6  -2   5   26.50    4.10
  -7   2  -5    1.10    2.00
   7  -2   5    4.00    2.70
  -7  -1   5    1.70    1.50
  -6  -1   5   38.70    3.90
  -6  -1   5   42.10    3.40
  -6  -1   5   53.39    4.70
   5   1  -5    3.60    1.90
  -5  -1   5    2.40    1.10
  -5  -1   5    0.20    0.80
  -5  -1   5    1.30    1.50
   4   1  -5  158.48   13.70
  -4  -1   5  157.08   11.20
  -4  -1   5  156.48   12.80
  -4  -1   5  142.89   11.30
   3   1  -5  259.17   21.40
  -3  -1   5  248.78   17.90
  -3  -1   5  243.98   17.80
  -3  -1   5  239.68   20.10
   2   1  -5   70.39    5.90
   2   1  -5   60.89    5.30
  -2  -1   5   57.19    4.80
  -2  -1   5   58.19    5.40
   1   1  -5   62.99    6.70
   1   1  -5   70.69    5.80
  -1  -1   5   70.09    5.80
  -1  -1   5   84.19    5.60
  -1  -1   5   71.39    6.20
   0   1  -5  119.19   10.50
   0   1  -5  129.79    8.70
   0  -1   5  112.79    9.50
   0  -1   5  121.59    8.70
   0  -1   5  100.59   10.10
  -1   1  -5 1093.69   84.39
  -1   1  -5 1117.59   84.39
   1  -1   5 1178.88   84.49
   1  -1   5 1370.96  100.29
  -2   1  -5    5.70    1.50
  -2   1  -5    6.50    1.00
  -2   1  -5    4.60    1.30
  -2   1  -5    6.20    1.80
   2  -1   5    6.00    1.50
  -3   1  -5    0.70    1.60
  -3   1  -5    0.50    1.70
  -3   1  -5    0.30    0.80
  -3   1  -5   -0.50    1.20
  -4   1  -5   46.80    5.30
  -4   1  -5   46.90    4.10
  -4   1  -5   43.30    5.30
  -4   1  -5   53.39    3.90
  -5   1  -5    8.60    1.40
  -5   1  -5    9.10    1.40
  -5   1  -5   11.00    2.70
   5  -1   5    9.90    2.40
   6  -1   5   10.80    2.70
  -7   1  -5   -0.10    1.90
   7  -1   5    3.60    2.50
   7   0  -5    7.00    2.30
  -7   0   5    4.40    1.60
   6   0  -5    1.70    1.60
  -6   0   5   -1.00    1.50
   5   0  -5    1.80    1.70
  -5   0   5    0.10    1.10
  -5   0   5    0.70    0.80
  -5   0   5    0.90    1.80
   4   0  -5   32.00    3.60
  -4   0   5   24.20    2.80
  -4   0   5   29.90    2.70
  -4   0   5   30.70    3.60
   3   0  -5    5.40    1.40
  -3   0   5    3.10    1.10
  -3   0   5    4.10    0.90
  -3   0   5    3.20    1.30
   2   0  -5   87.19    7.40
   2   0  -5   75.09    6.20
  -2   0   5   70.49    6.80
  -2   0   5   78.99    5.90
   1   0  -5  312.67   25.20
   1   0  -5  269.87   21.00
  -1   0   5  296.17   21.00
   0   0  -5 1869.91  128.09
   0   0  -5 1678.83  152.08
   0   0   5 1917.21  128.09
   0   0   5 1770.12  142.79
  -1   0  -5    0.60    1.30
  -1   0  -5    2.50    1.60
  -1   0  -5    1.70    0.90
  -1   0  -5    2.50    1.10
   1   0   5    1.50    1.10
   1   0   5    2.10    1.10
  -2   0  -5  369.36   27.00
  -2   0  -5  367.26   27.00
   2   0   5  411.66   27.10
   2   0   5  367.36   30.10
  -3   0  -5   30.80    3.60
  -3   0  -5   31.20    2.50
  -3   0  -5   25.80    3.70
  -3   0  -5   26.90    2.70
   3   0   5   21.00    3.00
  -4   0  -5   23.20    2.10
  -4   0  -5   22.00    2.40
  -4   0  -5   25.30    3.80
  -4   0  -5   25.40    3.60
   4   0   5   23.00    3.20
  -5   0  -5   58.59    6.90
  -5   0  -5   63.89    6.60
   5   0   5   68.09    6.20
  -6   0  -5   14.50    3.20
  -6   0  -5   12.20    3.20
   6   0   5   11.40    2.70
  -7   0  -5   17.50    3.10
  -7   0  -5   13.80    2.70
   7   0   5   12.80    3.30
  -8   0  -5    7.10    2.30
   8   0   5    2.50    2.90
   8   0   5    4.90    3.90
  -7   1   5   54.69    5.70
  -6   1   5   50.09    5.40
  -6   1   5   43.20    3.60
  -6   1   5   53.69    4.70
  -5   1   5   30.00    2.80
  -5   1   5   30.30    4.50
  -5   1   5   31.50    4.80
  -5   1   5   29.20    3.70
  -4   1   5  108.19    7.80
  -4   1   5  112.69    9.10
  -4   1   5  101.49    9.70
  -4   1   5   94.59    7.90
  -3   1   5  104.89    9.60
  -3   1   5  110.89    7.80
  -3   1   5  116.19    9.00
  -3   1   5   87.69    7.70
   2  -1  -5  328.17   24.20
  -2   1   5  339.57   29.00
  -2   1   5  343.77   27.00
   1  -1  -5  558.64   38.50
  -1   1   5  522.25   43.00
   0  -1  -5    8.90    1.30
   0  -1  -5    7.40    1.50
   0  -1  -5    8.40    1.30
   0   1   5    8.00    1.50
   0   1   5   11.90    1.70
  -1  -1  -5   13.20    2.30
  -1  -1  -5   13.10    1.80
  -1  -1  -5   14.50    1.90
  -1  -1  -5   13.70    2.10
   1   1   5   12.40    2.10
   1   1   5   12.60    1.70
  -2  -1  -5  113.69   11.20
  -2  -1  -5  130.89    9.40
  -2  -1  -5  139.59    9.40
   2   1   5  134.39    9.50
   2   1   5  127.09   10.60
  -3  -1  -5    0.30    1.30
  -3  -1  -5   -0.80    0.70
  -3  -1  -5    0.30    0.70
  -3  -1  -5   -0.30    1.50
   3   1   5   -1.00    1.20
  -4  -1  -5   36.40    3.90
  -4  -1  -5   30.50    2.40
  -4  -1  -5   22.10    3.80
  -4  -1  -5   28.60    2.60
   4   1   5   27.80    3.60
  -5  -1  -5   21.60    4.30
  -5  -1  -5   23.20    3.80
   5   1   5   23.00    3.90
  -6  -1  -5    9.60    2.80
  -6  -1  -5    4.30    2.70
   6   1   5    6.80    2.60
  -7  -1  -5  153.88   13.30
  -7  -1  -5  143.39   14.40
   7   1   5  141.89   13.30
  -8  -1  -5   -1.30    2.00
  -8  -1  -5   -0.80    2.30
   8   1   5   -1.70    1.80
  -7   2   5    5.00    2.10
  -7   2   5    3.40    2.30
  -6   2   5   15.60    1.80
  -6   2   5   21.90    4.50
  -6   2   5   25.80    4.00
  -5   2   5   74.99    8.00
  -5   2   5   79.29    6.70
  -5   2   5   76.89    6.00
  -4   2   5    3.60    1.70
  -4   2   5    5.00    2.10
  -4   2   5    4.30    1.20
  -4   2   5    4.70    1.70
  -3   2   5  361.06   27.60
  -3   2   5  364.46   33.20
  -3   2   5  398.36   27.60
  -3   2   5  419.46   31.00
   2  -2  -5   60.89    5.90
   2  -2  -5   54.69    5.10
  -2   2   5   57.39    5.70
  -2   2   5   54.59    5.40
  -2   2   5   64.19    4.70
   1  -2  -5   62.09    6.30
   1  -2  -5   65.69    5.30
  -1   2   5   69.79    6.00
   0  -2  -5   14.70    2.70
   0  -2  -5   23.20    2.40
   0   2   5   21.90    2.30
   0   2   5   19.00    3.10
  -1  -2  -5   23.90    2.20
  -1  -2  -5   21.20    2.70
  -1  -2  -5   14.70    2.50
   1   2   5   19.50    2.40
   1   2   5   20.30    3.00
  -2  -2  -5   77.29    6.20
   2   2   5   62.19    5.30
   2   2   5   60.79    5.90
  -3  -2  -5  428.26   33.40
  -3  -2  -5  455.25   39.80
  -3  -2  -5  466.65   33.40
  -3  -2  -5  507.45   33.40
   3   2   5  490.75   37.50
  -4  -2  -5   16.50    1.70
  -4  -2  -5   20.10    2.10
  -4  -2  -5   16.80    3.20
   4   2   5   18.80    2.90
  -5  -2  -5   14.40    2.70
  -5  -2  -5   13.20    2.40
   5   2   5   13.10    2.30
  -6  -2  -5   25.90    5.30
  -6  -2  -5   30.10    5.10
   6   2   5   37.70    5.30
  -7  -2  -5   15.40    3.90
  -7  -2  -5   17.20    2.60
   7   2   5   16.30    4.10
  -8  -2  -5   62.39    6.40
   8   2   5   51.59    5.80
   6  -3  -5    8.00    5.00
  -6   3   5    7.90    2.80
  -6   3   5    7.70    2.30
  -6   3   5    7.50    1.20
  -6   3   5    9.40    4.20
   5  -3  -5   37.70    5.20
  -5   3   5   35.90    5.20
  -5   3   5   31.90    5.70
  -5   3   5   35.60    3.00
  -5   3   5   25.20    4.10
   4  -3  -5   46.60    7.00
  -4   3   5   58.09    6.30
  -4   3   5   52.39    4.40
  -4   3   5   57.59    5.60
  -4   3   5   47.60    5.40
   3  -3  -5    2.40    2.30
   3  -3  -5    2.10    2.30
  -3   3   5    1.90    1.20
  -3   3   5    2.00    1.60
  -3   3   5    1.90    1.90
  -3   3   5    1.60    0.70
   2  -3  -5   20.50    2.50
   2  -3  -5   21.10    3.00
  -2   3   5   19.40    2.30
  -2   3   5   24.80    3.60
  -2   3   5   20.00    2.80
   1  -3  -5  240.38   18.80
   1  -3  -5  254.27   22.40
  -1   3   5  294.87   22.50
  -1   3   5  290.67   18.80
  -1   3   5  219.38   18.90
  -1   3   5  260.27   21.00
   0  -3  -5   52.69    5.60
   0  -3  -5   64.99    5.00
   0   3   5   63.39    5.50
   0   3   5   55.89    4.70
   0   3   5   46.50    5.20
  -1  -3  -5  404.56   32.70
  -1  -3  -5  442.36   27.60
   1   3   5  328.77   30.80
   1   3   5  364.56   27.60
  -2  -3  -5   52.39    4.80
  -2  -3  -5   66.89    5.60
   2   3   5   55.19    5.00
   2   3   5   54.49    5.40
  -3  -3  -5   66.89    6.40
  -3  -3  -5   76.29    5.10
  -3  -3  -5   60.79    5.30
   3   3   5   68.79    6.10
   3   3   5   56.19    5.70
  -4  -3  -5   16.70    2.00
  -4  -3  -5   15.70    3.00
  -4  -3  -5   17.50    2.40
   4   3   5   19.30    2.80
  -5  -3  -5    5.50    0.90
  -5  -3  -5    5.50    1.30
  -5  -3  -5    7.80    2.10
   5   3   5    9.00    1.90
  -6  -3  -5   15.00    3.20
   6   3   5   12.10    2.80
  -7  -3  -5    2.80    2.10
   7   3   5    5.60    1.70
  -8  -3  -5    7.70    2.60
   8   3   5    5.50    5.10
  -6   4   5    5.40    1.20
  -6   4   5   -1.90    2.10
  -5   4   5   24.70    2.60
  -5   4   5   22.80    3.60
  -4   4   5  287.97   22.40
  -4   4   5  281.77   20.30
  -4   4   5  265.77   19.60
  -4   4   5  249.48   23.70
   3  -4  -5   55.99    6.50
   3  -4  -5   58.89    7.20
  -3   4   5   52.39    5.90
  -3   4   5   57.79    4.80
  -3   4   5   55.59    6.20
  -3   4   5   63.39    6.40
   2  -4  -5  120.79   10.90
   2  -4  -5  111.59    9.30
  -2   4   5  111.49   10.50
  -2   4   5  122.79   10.10
  -2   4   5  105.29    9.30
  -2   4   5  114.49    8.80
   1  -4  -5   42.30    5.10
   1  -4  -5   41.70    4.70
  -1   4   5   46.30    5.10
  -1   4   5   51.49    4.90
   0  -4  -5   22.90    3.30
   0  -4  -5   30.50    3.40
   0   4   5   27.20    3.60
   0   4   5   23.30    3.30
   0   4   5   29.60    3.40
  -1  -4  -5  289.77   18.90
  -1  -4  -5  291.47   22.40
   1   4   5  227.18   21.00
   1   4   5  231.18   18.90
  -2  -4  -5  367.36   27.50
   2   4   5  295.07   23.20
   2   4   5  299.07   25.80
  -3  -4  -5   60.19    6.20
  -3  -4  -5   68.29    4.90
   3   4   5   62.59    6.10
   3   4   5   52.49    5.70
  -4  -4  -5  196.88   14.30
  -4  -4  -5  198.58   14.50
  -4  -4  -5  176.68   17.20
   4   4   5  215.98   16.30
  -5  -4  -5    0.90    1.80
  -5  -4  -5    0.30    1.40
  -5  -4  -5   -0.10    0.90
   5   4   5   -0.20    1.40
  -6  -4  -5   11.60    3.30
  -6  -4  -5   15.00    2.10
  -7  -4  -5    6.90    2.30
   7   4   5   11.40    2.20
  -8  -4  -5    8.50    3.00
   8   4   5   10.30    2.50
  -5   5   5   32.70    3.20
  -5   5   5   34.50    5.10
  -5   5   5   28.40    4.20
   4  -5  -5   43.60    8.20
  -4   5   5   43.00    3.90
  -4   5   5   42.40    6.80
  -4   5   5   39.20    4.70
   3  -5  -5    6.00    3.50
  -3   5   5    0.70    2.70
   2  -5  -5  186.18   14.60
   2  -5  -5  199.98   17.00
  -2   5   5  174.58   16.70
  -2   5   5  178.98   14.00
  -2   5   5  197.78   15.80
   1  -5  -5   19.10    2.90
   1  -5  -5   21.30    3.20
  -1   5   5   19.50    2.70
  -1   5   5   25.60    4.30
  -1   5   5   22.10    3.20
   0  -5  -5   50.89    5.40
   0  -5  -5   55.69    5.50
   0   5   5   51.39    5.40
   0   5   5   49.99    5.60
   0   5   5   56.99    5.90
  -1  -5  -5    1.20    1.40
  -1  -5  -5    0.70    1.70
   1   5   5    0.10    1.60
   1   5   5    0.70    1.90
  -2  -5  -5    3.70    1.40
  -2  -5  -5    0.80    1.50
   2   5   5    3.80    2.10
   2   5   5    1.90    1.50
  -3  -5  -5    0.70    1.90
  -3  -5  -5   -1.50    0.80
  -3  -5  -5   -0.40    1.90
   3   5   5   -1.20    1.50
   3   5   5   -0.40    2.40
  -4  -5  -5   24.80    2.60
  -4  -5  -5   26.60    4.10
  -4  -5  -5   23.50    3.00
   4   5   5   28.50    4.30
   4   5   5   27.20    3.90
  -5  -5  -5    3.00    1.90
  -5  -5  -5    1.30    2.10
  -6  -5  -5    2.10    1.70
  -6  -5  -5    0.60    0.80
  -6  -5  -5   -1.40    2.20
   6   5   5   -1.20    1.60
  -7  -5  -5   11.60    2.50
  -7  -5  -5    4.50    2.30
   7   5   5    8.30    2.10
  -8  -5  -5   47.10    7.50
   8   5   5   70.49    6.80
   4  -6  -5   -0.80    2.20
  -4   6   5    1.70    3.80
  -4   6   5   -2.60    1.20
  -4   6   5   -1.70    1.80
   3  -6  -5    2.10    2.10
  -3   6   5   -0.70    1.20
  -3   6   5    1.80    3.30
  -3   6   5   -0.10    1.60
  -2   6   5    3.90    3.10
  -2   6   5    3.00    2.30
  -2   6   5    2.00    2.90
   1  -6  -5  113.29    9.70
   1  -6  -5   82.89    9.20
  -1   6   5   97.69    8.70
  -1   6   5   89.69   10.10
  -1   6   5   96.39    9.50
   0  -6  -5    0.10    1.70
   0  -6  -5   -1.80    2.80
   0   6   5    0.90    2.50
   0   6   5   -0.60    2.80
   0   6   5    1.10    2.20
  -1  -6  -5   66.19    6.30
  -1  -6  -5   63.19    6.00
   1   6   5   53.19    6.20
   1   6   5   51.79    6.70
   1   6   5   55.49    6.70
  -2  -6  -5  125.09    9.00
  -2  -6  -5  112.79   10.00
   2   6   5  103.59    9.60
   2   6   5   90.39    9.60
   2   6   5  103.89   10.40
  -3  -6  -5   88.09    6.80
  -3  -6  -5   74.79    8.00
   3   6   5   79.89    7.60
   3   6   5   81.99    8.30
  -4  -6  -5   51.69    4.50
  -5  -6  -5   83.69    8.80
  -5  -6  -5   98.49    7.10
   5   6   5   95.29    8.50
  -6  -6  -5   11.70    1.90
  -6  -6  -5    7.10    2.10
  -6  -6  -5    5.50    3.10
   6   6   5    7.80    2.00
  -7  -6  -5    5.50    2.20
  -7  -6  -5   -0.60    0.90
  -7  -6  -5    0.40    2.90
   7   6   5   -0.10    1.90
   3  -7  -5   42.40    5.90
  -3   7   5   40.10    5.70
  -3   7   5   40.20    5.10
  -3   7   5   45.80    4.40
   2  -7  -5   10.30    2.30
  -2   7   5    6.30    1.70
  -2   7   5    7.60    3.40
  -2   7   5    4.60    1.90
   1  -7  -5    2.10    3.70
   1  -7  -5    2.20    1.90
  -1   7   5    2.10    3.20
  -1   7   5   -2.50    3.50
  -1   7   5   -0.80    3.00
   0  -7  -5   33.00    3.80
   0  -7  -5   28.60    4.50
   0   7   5   29.70    4.30
   0   7   5   19.60    4.00
  -1  -7  -5  200.78   15.70
  -1  -7  -5  211.98   17.50
   1   7   5  220.68   16.90
   1   7   5  183.98   16.80
   1   7   5  176.18   15.90
  -2  -7  -5   -0.30    2.40
  -2  -7  -5    0.50    1.50
   2   7   5    1.00    2.60
   2   7   5    0.70    3.60
   2   7   5   -3.80    4.00
  -3  -7  -5    1.70    1.50
  -3  -7  -5    1.10    2.20
   3   7   5    3.10    4.30
   3   7   5    0.10    4.20
  -4  -7  -5    7.10    1.30
   4   7   5    3.90    1.50
  -5  -7  -5   58.69    4.60
  -5  -7  -5   42.10    5.80
   5   7   5   59.59    5.70
  -6  -7  -5    2.50    2.00
  -6  -7  -5    1.90    1.10
  -7  -7  -5    9.60    1.40
   7   7   5    9.20    2.40
   2  -8  -5   13.80    2.80
  -2   8   5    7.30    4.30
  -2   8   5   12.30    2.10
  -2   8   5    6.80    2.30
   1  -8  -5    0.00    2.10
  -1   8   5    0.90    1.90
  -1   8   5    2.20    3.90
   0  -8  -5   -0.10    4.60
   0  -8  -5    2.10    2.00
   0   8   5   -2.30    4.20
   0   8   5    1.80    4.10
   0   8   5   -2.00    3.50
  -1  -8  -5   14.20    4.10
  -1  -8  -5   12.40    2.30
   1   8   5   15.60    4.50
   1   8   5   13.00    5.10
  -2  -8  -5    0.10    3.30
  -2  -8  -5    2.70    1.70
   2   8   5    0.40    4.70
   2   8   5    4.50    1.70
   2   8   5    0.20    5.30
  -3  -8  -5   30.30    3.90
   3   8   5   31.70    4.10
  -4  -8  -5   -0.70    1.30
  -4  -8  -5   -1.10    1.70
   4   8   5   -2.70    1.80
  -5  -8  -5   36.30    4.70
  -5  -8  -5   35.10    3.60
   5   8   5   41.80    4.60
  -6  -8  -5   -0.90    2.30
  -6  -8  -5   -0.10    1.20
   6   8   5    4.10    2.10
   0  -9  -5   30.00    4.60
   0   9   5   18.00    2.90
   0   9   5   23.10    3.90
  -1  -9  -5   -0.80    5.10
  -1  -9  -5    4.30    2.20
   1   9   5    1.20    5.40
  -2  -9  -5    4.30    1.90
  -2  -9  -5    4.20    2.00
   2   9   5    6.80    1.90
  -3  -9  -5    4.20    1.70
  -3  -9  -5    0.20    1.80
   3   9   5    2.10    2.00
  -4  -9  -5    1.60    1.80
  -4  -9  -5   -0.30    1.60
   4   9   5   -2.10    2.10
   3   8  -6    5.40    2.70
  -3  -8   6    4.30    2.40
  -3  -8   6    7.60    1.80
   2   8  -6   11.30    2.60
  -2  -8   6    9.00    2.10
   1   8  -6    5.60    5.50
  -1  -8   6   -4.70    4.60
  -1  -8   6    4.20    2.60
   0   8  -6   11.50    2.80
   0   8  -6   16.20    2.70
   0  -8   6   10.00    3.00
   5   7  -6   43.50    5.90
  -5  -7   6   39.90    4.10
  -5  -7   6   42.10    5.40
  -5  -7   6   37.60    5.10
   4   7  -6   47.80    5.60
  -4  -7   6   50.09    5.00
  -4  -7   6   33.60    4.20
  -4  -7   6   44.30    5.10
   3   7  -6   11.50    2.70
  -3  -7   6   13.40    2.40
  -3  -7   6    7.30    1.70
   2   7  -6  101.19    9.90
   2   7  -6  126.19   12.50
  -2  -7   6  102.69   10.30
  -2  -7   6  102.49    9.90
   1   7  -6    7.80    3.90
   1   7  -6    8.60    4.80
  -1  -7   6    9.90    3.80
  -1  -7   6    5.20    2.50
   0   7  -6   -3.90    4.20
   0  -7   6   -3.00    4.00
   0  -7   6    2.10    2.20
  -1   7  -6   -2.20    2.30
  -1   7  -6   -1.40    1.80
   1  -7   6   -0.30    2.20
  -2   7  -6   13.40    3.00
   2  -7   6   20.10    3.20
  -3   7  -6   24.40    4.70
   3  -7   6   19.70    3.60
  -6  -6   6   19.90    3.30
  -6  -6   6   14.10    2.00
   5   6  -6    7.50    2.80
  -5  -6   6    6.90    1.50
  -5  -6   6    3.70    4.30
  -5  -6   6    3.90    1.20
   4   6  -6   27.10    6.30
  -4  -6   6   27.70    3.40
  -4  -6   6   22.50    4.90
  -4  -6   6   24.50    2.90
   3   6  -6   68.09    9.50
  -3  -6   6   78.09    7.80
  -3  -6   6   70.49    7.20
  -3  -6   6   66.89    8.90
   2   6  -6   97.69   10.00
   2   6  -6   73.69    9.90
  -2  -6   6   89.09    8.20
  -2  -6   6   92.49    8.90
  -2  -6   6   86.69   10.10
   1   6  -6   26.10    4.70
   1   6  -6   29.40    4.70
  -1  -6   6   25.70    3.80
  -1  -6   6   34.70    5.00
   0   6  -6  333.17   24.20
   0  -6   6  307.57   24.10
  -1   6  -6   20.50    3.70
  -1   6  -6   18.90    3.50
   1  -6   6   22.60    3.80
   1  -6   6   21.20    4.30
  -2   6  -6    3.50    2.10
  -2   6  -6    6.10    1.70
   2  -6   6    3.00    2.10
  -3   6  -6   24.90    4.20
   3  -6   6   18.80    3.40
  -4   6  -6    6.90    1.60
  -4   6  -6    4.00    2.50
   4  -6   6    0.20    2.50
   7   5  -6    7.90    3.10
  -7  -5   6    1.80    1.50
  -7  -5   6    3.70    1.00
   6   5  -6   21.80    4.30
  -6  -5   6   12.70    1.60
  -6  -5   6   11.40    2.20
   5   5  -6   86.19   10.30
  -5  -5   6   79.89    9.60
  -5  -5   6   69.39    7.00
  -5  -5   6   80.39    6.10
   4   5  -6   -1.70    3.90
  -4  -5   6    1.80    3.30
   3   5  -6  457.75   40.10
   3   5  -6  397.66   33.90
  -3  -5   6  463.15   33.40
  -3  -5   6  476.35   39.60
  -3  -5   6  508.85   37.20
   2   5  -6  244.18   17.80
   2   5  -6  208.28   20.40
  -2  -5   6  230.38   18.80
  -2  -5   6  234.18   17.10
  -2  -5   6  222.58   20.40
   1   5  -6  351.66   23.40
   1   5  -6  275.97   27.30
  -1  -5   6  336.27   23.20
  -1  -5   6  302.17   27.20
  -1  -5   6  302.57   25.20
   0   5  -6   85.99    9.20
   0   5  -6  107.29    8.80
   0  -5   6   99.79    8.70
   0  -5   6   95.99    9.40
  -1   5  -6   40.20    5.40
  -1   5  -6   41.80    5.10
   1  -5   6   47.20    5.60
  -2   5  -6   45.40    5.30
   2  -5   6   41.80    7.00
   2  -5   6   40.00    5.10
  -3   5  -6    6.20    1.40
  -3   5  -6    1.90    1.90
   3  -5   6    4.90    1.90
  -4   5  -6   24.50    3.00
   4  -5   6   28.20    4.20
  -5   5  -6    8.00    1.40
  -5   5  -6    5.00    2.60
   7   4  -6    1.70    2.70
  -7  -4   6   -0.30    0.90
  -7  -4   6   -2.10    1.40
  -7  -4   6    1.30    2.40
  -6  -4   6   17.10    2.90
  -6  -4   6   21.70    2.10
  -6  -4   6   16.80    3.20
   5   4  -6   21.60    4.60
  -5  -4   6   16.20    3.20
  -5  -4   6   20.30    2.60
  -5  -4   6   12.30    2.00
   4   4  -6   21.80    3.70
  -4  -4   6   13.00    2.20
  -4  -4   6   14.40    2.90
  -4  -4   6   13.40    2.30
   3   4  -6  102.09    9.80
   3   4  -6   79.99    9.30
  -3  -4   6   89.49    7.80
  -3  -4   6   93.09    9.30
  -3  -4   6  110.39    8.80
  -3  -4   6  115.49    9.80
   2   4  -6    5.20    2.20
   2   4  -6    3.00    2.20
  -2  -4   6    1.50    3.10
  -2  -4   6    2.60    1.60
  -2  -4   6    4.60    1.70
   1   4  -6   46.30    5.20
   1   4  -6   39.00    5.00
  -1  -4   6   39.50    4.60
  -1  -4   6   41.50    5.60
  -1  -4   6   46.00    4.60
   0   4  -6  186.48   12.50
   0   4  -6  150.38   14.40
   0  -4   6  149.69   14.40
  -1   4  -6   20.40    3.20
  -1   4  -6   17.80    2.90
   1  -4   6   14.00    3.10
   1  -4   6   19.10    3.60
  -2   4  -6   33.70    4.00
  -2   4  -6   30.70    3.60
  -2   4  -6   25.20    4.30
   2  -4   6   23.90    3.50
   2  -4   6   32.20    4.80
  -3   4  -6   16.20    2.70
  -4   4  -6    5.20    2.00
   4  -4   6    9.60    2.20
  -5   4  -6    2.50    1.00
   5  -4   6    7.20    2.40
  -6   4  -6    8.00    2.40
   6  -4   6    7.50    3.10
   7   3  -6    4.70    2.70
  -7  -3   6   13.00    1.50
  -7  -3   6    7.50    2.00
  -7  -3   6   10.40    1.80
   6   3  -6    4.00    2.20
  -6  -3   6    8.20    1.60
  -6  -3   6    9.70    1.40
  -6  -3   6    8.40    2.20
   5   3  -6    3.10    3.10
  -5  -3   6   -0.30    2.00
   4   3  -6   22.90    4.40
  -4  -3   6   21.40    3.00
  -4  -3   6   21.60    3.00
  -4  -3   6   23.40    2.40
   3   3  -6   10.50    2.30
   3   3  -6   10.00    2.50
  -3  -3   6   11.10    1.50
  -3  -3   6   15.70    2.50
   2   3  -6    1.70    1.90
   2   3  -6    0.80    1.60
  -2  -3   6    0.00    2.40
  -2  -3   6    1.40    1.20
  -2  -3   6    0.80    2.20
  -2  -3   6    1.20    1.00
   1   3  -6  248.28   21.80
  -1  -3   6  251.87   20.20
  -1  -3   6  252.17   21.70
   0   3  -6   48.00    4.40
   0   3  -6   39.70    4.70
   0  -3   6   45.10    4.40
   0  -3   6   37.20    4.10
   0  -3   6   40.60    4.70
  -1   3  -6  149.19   12.70
  -1   3  -6  121.99   10.70
   1  -3   6  151.18   12.70
   1  -3   6  148.29   11.40
  -2   3  -6   54.49    6.40
  -2   3  -6   59.49    5.50
  -2   3  -6   77.79    6.80
   2  -3   6   62.39    6.40
   2  -3   6   75.79    6.90
  -3   3  -6   27.30    3.60
  -3   3  -6   35.70    3.20
  -3   3  -6   35.00    5.00
   3  -3   6   35.00    4.60
   3  -3   6   34.30    5.30
  -4   3  -6    2.50    2.40
  -4   3  -6    2.10    0.90
  -4   3  -6    2.20    2.40
  -5   3  -6   79.89    5.70
  -5   3  -6   66.79    7.60
  -5   3  -6   68.39    7.10
   5  -3   6   70.69    7.40
  -6   3  -6   -0.20    0.80
  -6   3  -6    4.00    2.00
  -6   3  -6   -0.80    2.50
   6  -3   6   -4.40    2.40
   7   2  -6   81.39    8.30
  -7  -2   6   68.79    6.40
  -7  -2   6   85.99    6.00
  -7  -2   6   86.29    7.40
   6   2  -6   32.10    4.50
  -6  -2   6   41.20    3.80
  -6  -2   6   33.30    2.90
  -6  -2   6   29.10    3.70
   5   2  -6   60.19    6.70
  -5  -2   6   60.89    4.70
  -5  -2   6   55.79    6.20
  -5  -2   6   50.59    5.20
   4   2  -6   31.70    4.10
  -4  -2   6   27.30    3.70
  -4  -2   6   33.20    2.80
  -4  -2   6   28.60    3.80
   3   2  -6   39.60    4.30
   3   2  -6   41.70    5.10
  -3  -2   6   43.70    4.40
  -3  -2   6   36.50    3.40
  -3  -2   6   43.50    4.00
   2   2  -6   38.40    4.40
   2   2  -6   46.40    4.50
  -2  -2   6   40.40    3.60
  -2  -2   6   35.60    4.30
   1   2  -6  672.63   61.69
  -1  -2   6  791.02   51.59
  -1  -2   6  697.23   61.09
  -1  -2   6  734.03   57.39
   0   2  -6  241.18   20.00
   0  -2   6  213.28   19.60
   0  -2   6  223.28   18.30
   0  -2   6  237.38   16.70
  -1   2  -6   44.80    5.00
  -1   2  -6   52.79    4.60
   1  -2   6   55.39    5.10
   1  -2   6   62.99    5.50
  -2   2  -6  505.95   38.70
  -2   2  -6  392.86   32.20
   2  -2   6  424.86   32.40
   2  -2   6  479.05   38.40
  -3   2  -6  563.94   41.20
  -3   2  -6  588.94   49.50
  -3   2  -6  558.14   41.30
   3  -2   6  578.74   49.10
   3  -2   6  596.74   41.40
  -4   2  -6    0.50    1.90
  -4   2  -6    1.20    1.80
  -4   2  -6    1.40    0.90
   4  -2   6    2.70    1.80
  -5   2  -6  251.77   18.40
  -6   2  -6   30.00    4.00
  -6   2  -6   23.60    2.30
   6  -2   6   28.40    4.50
  -7   2  -6   12.40    2.60
   7  -2   6   15.40    3.30
   7   1  -6   12.60    2.70
  -7  -1   6   18.30    3.10
   6   1  -6    0.40    1.70
  -6  -1   6   -0.60    0.60
  -6  -1   6    1.00    1.30
  -6  -1   6    0.90    1.30
   5   1  -6  223.78   19.20
  -5  -1   6  240.28   15.80
  -5  -1   6  183.78   15.70
  -5  -1   6  221.78   18.00
   4   1  -6   11.30    2.10
  -4  -1   6   10.50    2.00
  -4  -1   6    8.70    1.60
  -4  -1   6    9.90    1.30
   3   1  -6   81.29    6.90
   3   1  -6   81.29    7.40
  -3  -1   6   76.99    7.00
  -3  -1   6   77.19    6.40
  -3  -1   6   78.29    6.00
   2   1  -6  131.69   10.40
   2   1  -6  144.59   12.10
  -2  -1   6  120.69   11.20
  -2  -1   6  149.39   10.10
   1   1  -6  194.08   14.40
   1   1  -6  177.68   17.10
  -1  -1   6  196.68   15.90
  -1  -1   6  217.88   14.30
   0   1  -6  326.57   28.70
   0   1  -6  366.36   24.00
   0  -1   6  363.06   24.00
   0  -1   6  282.07   28.20
   0  -1   6  330.07   26.50
  -1   1  -6 1039.10   67.69
  -1   1  -6  956.20   80.99
   1  -1   6 1008.50   75.19
   1  -1   6  799.12   67.59
   1  -1   6  954.40   80.29
  -2   1  -6  235.88   22.20
  -2   1  -6  239.08   18.50
  -2   1  -6  285.17   22.00
   2  -1   6  266.27   18.70
  -3   1  -6  241.08   17.00
  -3   1  -6  252.67   20.40
  -3   1  -6  214.68   20.50
  -3   1  -6  234.78   17.10
  -4   1  -6   11.70    1.80
  -4   1  -6    9.60    1.70
  -4   1  -6   11.20    2.30
  -4   1  -6   13.50    2.50
  -5   1  -6   54.09    4.10
  -5   1  -6   47.00    4.40
  -5   1  -6   54.19    6.70
   5  -1   6   50.29    5.80
   6  -1   6   37.40    5.00
  -7   1  -6   65.79    7.30
   7  -1   6   77.59    7.90
   7   0  -6    8.20    2.40
  -7   0   6    4.40    1.70
   6   0  -6   60.69    6.70
  -6   0   6   68.09    5.70
  -6   0   6   70.09    6.30
  -6   0   6   66.39    5.00
   5   0  -6    3.70    1.80
  -5   0   6    0.90    1.60
  -5   0   6    0.50    1.20
  -5   0   6    0.40    0.90
   4   0  -6   11.20    2.00
  -4   0   6   11.00    1.80
  -4   0   6   10.30    1.90
  -4   0   6    8.80    1.40
   3   0  -6   96.09    8.00
  -3   0   6   73.29    6.60
  -3   0   6   86.39    7.60
  -3   0   6   88.79    6.50
   2   0  -6    5.20    1.60
   2   0  -6    5.30    1.70
  -2   0   6    3.50    0.90
  -2   0   6    4.50    1.60
   1   0  -6  323.07   28.10
   1   0  -6  333.67   23.50
  -1   0   6  299.37   26.10
  -1   0   6  374.36   23.50
  -1   0   6  304.17   23.40
   0   0  -6  207.78   18.40
   0   0   6  217.58   17.40
   0   0   6  223.78   15.70
  -1   0  -6  173.08   15.80
  -1   0  -6  182.08   13.20
  -1   0  -6  185.08   13.10
   1   0   6  182.48   13.20
  -2   0  -6   30.80    3.00
  -2   0  -6   26.50    3.90
  -2   0  -6   42.10    3.90
   2   0   6   35.40    3.50
   2   0   6   35.20    3.60
  -3   0  -6   16.10    3.10
  -3   0  -6   15.80    2.30
  -3   0  -6   17.20    2.40
  -3   0  -6   14.70    1.90
   3   0   6   14.00    1.90
  -4   0  -6   30.10    4.20
  -4   0  -6   31.20    4.00
  -4   0  -6   34.10    2.70
  -4   0  -6   30.80    3.00
   4   0   6   25.20    3.60
  -5   0  -6   35.40    4.70
  -5   0  -6   39.00    3.00
  -5   0  -6   38.20    5.40
  -5   0  -6   36.00    3.30
   5   0   6   36.00    4.60
  -6   0  -6    2.60    3.00
   6   0   6    2.60    2.20
  -7   0  -6   17.80    2.80
  -7   0  -6   12.10    2.30
   7   0   6   14.60    3.30
  -8   0  -6   56.89    6.10
   8   0   6   47.50    8.20
   8   0   6   44.20    6.80
   7  -1  -6    1.50    2.30
  -7   1   6    3.70    1.90
   6  -1  -6    1.60    1.80
  -6   1   6    1.20    1.90
  -6   1   6    2.80    0.70
  -6   1   6    3.80    1.60
  -5   1   6    1.10    2.40
  -5   1   6   -1.20    1.50
  -4   1   6    4.20    1.40
  -4   1   6    6.40    1.80
  -4   1   6    4.50    1.10
   3  -1  -6   14.50    2.20
  -3   1   6    8.80    1.50
  -3   1   6   13.90    2.10
  -3   1   6   12.60    1.70
   2  -1  -6  513.65   38.70
   2  -1  -6  569.94   46.40
  -2   1   6  543.35   43.20
   1  -1  -6    2.00    1.20
   1  -1  -6   -0.30    1.40
  -1   1   6    0.80    0.90
  -1   1   6    2.40    1.00
  -1   1   6    3.20    1.50
   0  -1  -6  285.07   24.70
   0   1   6  298.17   23.40
  -1  -1  -6    0.60    1.20
  -1  -1  -6    0.20    0.80
  -1  -1  -6   -0.10    1.50
  -1  -1  -6    0.30    1.30
   1   1   6    0.60    1.00
   1   1   6   -0.20    1.00
  -2  -1  -6  493.55   43.40
  -2  -1  -6  491.15   36.30
   2   1   6  527.45   36.40
   2   1   6  527.65   40.50
  -3  -1  -6  136.19   12.60
  -3  -1  -6  143.79   10.50
  -3  -1  -6  147.39   10.50
   3   1   6  147.39   11.80
  -4  -1  -6  506.05   35.10
  -4  -1  -6  531.45   42.20
  -4  -1  -6  489.65   35.10
  -4  -1  -6  434.46   42.00
   4   1   6  506.55   39.40
  -5  -1  -6   13.40    1.40
  -5  -1  -6   11.10    2.50
  -5  -1  -6   10.20    2.60
  -5  -1  -6   14.40    1.90
   5   1   6   11.30    2.30
  -6  -1  -6   13.60    3.00
  -6  -1  -6   11.20    3.10
   6   1   6    9.50    2.70
  -7  -1  -6  123.99   13.10
  -7  -1  -6  138.59   11.90
   7   1   6  124.69   12.00
  -8  -1  -6   16.20    2.90
  -8  -1  -6   14.00    2.60
   8   1   6   13.40    2.20
  -7   2   6    3.80    1.00
  -7   2   6    0.90    2.10
  -6   2   6    6.70    1.80
  -6   2   6    5.70    2.40
  -6   2   6    5.50    0.90
  -6   2   6    7.60    2.00
  -5   2   6   36.60    4.70
  -5   2   6   42.40    6.00
  -5   2   6   38.10    3.40
  -5   2   6   44.80    4.70
  -4   2   6    8.60    1.30
  -4   2   6    9.50    2.40
  -4   2   6    4.90    1.70
  -4   2   6    6.50    1.80
   3  -2  -6    8.40    2.40
  -3   2   6    8.50    1.70
  -3   2   6   10.00    2.10
  -3   2   6    7.20    1.60
  -3   2   6    6.90    1.10
  -2   2   6   43.50    4.60
  -2   2   6   44.40    4.60
  -2   2   6   49.10    3.90
   1  -2  -6   36.30    3.60
   1  -2  -6   35.70    3.90
  -1   2   6   28.90    3.30
  -1   2   6   36.70    4.00
   0  -2  -6 2055.19  168.28
   0  -2  -6 1833.42  169.68
   0   2   6 2113.19  158.08
  -1  -2  -6   12.00    2.00
  -1  -2  -6   12.20    2.30
   1   2   6    9.50    1.70
  -2  -2  -6  679.63   53.69
   2   2   6  631.04   50.39
   2   2   6  594.54   45.20
  -3  -2  -6   67.19    5.30
  -3  -2  -6   70.89    5.10
  -3  -2  -6   63.69    6.40
   3   2   6   66.69    6.00
  -4  -2  -6   -2.00    1.60
  -4  -2  -6   -0.20    0.60
  -4  -2  -6    0.00    0.90
   4   2   6    1.30    1.50
  -5  -2  -6    9.10    2.20
  -5  -2  -6    9.10    1.20
  -5  -2  -6    8.20    1.20
   5   2   6   10.20    2.20
  -6  -2  -6    5.00    2.20
  -6  -2  -6    6.70    3.00
   6   2   6    7.30    2.60
  -7  -2  -6    7.20    2.00
  -7  -2  -6    6.30    3.40
   7   2   6    8.70    3.50
  -8  -2  -6   24.70    4.00
   8   2   6   16.90    2.50
  -6   3   6    3.90    1.80
  -6   3   6    0.50    0.90
  -6   3   6    1.30    1.80
  -6   3   6    2.00    3.00
   5  -3  -6    7.10    4.00
  -5   3   6    5.50    1.80
  -5   3   6    7.70    2.80
  -5   3   6    6.60    1.10
  -5   3   6    6.10    3.10
   4  -3  -6  141.89   12.90
  -4   3   6  133.29   12.50
  -4   3   6  142.89   12.10
  -4   3   6  128.19   10.70
  -4   3   6  134.59   10.20
   3  -3  -6   43.30    5.80
   3  -3  -6   43.90    5.70
  -3   3   6   45.00    4.80
  -3   3   6   49.99    5.30
  -3   3   6   42.00    4.80
  -3   3   6   43.60    3.80
   2  -3  -6   58.19    5.60
   2  -3  -6   57.69    6.40
  -2   3   6   65.49    6.00
  -2   3   6   64.99    5.90
  -2   3   6   60.69    4.80
  -2   3   6   52.09    5.40
   1  -3  -6   21.70    3.30
   1  -3  -6   22.60    3.70
  -1   3   6   29.00    3.30
  -1   3   6   27.70    2.90
  -1   3   6   24.70    3.50
   0  -3  -6  830.62   69.89
   0  -3  -6  791.32   58.89
   0   3   6  782.32   65.69
   0   3   6  838.32   58.89
   0   3   6  897.91   70.49
  -1  -3  -6   44.30    4.40
   1   3   6   41.30    4.00
   1   3   6   41.30    4.50
  -2  -3  -6   -1.20    1.20
  -2  -3  -6    0.20    1.10
  -2  -3  -6   -0.10    0.80
   2   3   6    0.20    1.20
   2   3   6    0.50    1.40
  -3  -3  -6  175.58   13.10
  -3  -3  -6  198.78   13.00
  -3  -3  -6  170.58   15.50
   3   3   6  171.08   13.20
   3   3   6  177.78   14.60
  -4  -3  -6   -1.60    0.80
  -4  -3  -6    0.20    1.50
  -4  -3  -6    0.10    1.10
   4   3   6    0.40    1.30
  -5  -3  -6   64.29    5.40
  -5  -3  -6   63.19    7.10
  -5  -3  -6   76.49    5.70
   5   3   6   83.49    6.90
  -6  -3  -6    2.30    2.40
  -6  -3  -6    0.00    1.10
   6   3   6    1.50    2.40
  -7  -3  -6    1.30    1.90
   7   3   6   -0.70    1.60
  -8  -3  -6   11.80    2.80
   8   3   6    9.10    2.30
  -6   4   6    9.30    2.40
  -6   4   6    7.40    1.30
  -6   4   6    7.50    2.10
   5  -4  -6    7.50    4.70
  -5   4   6    5.20    3.50
  -5   4   6    2.90    2.10
  -5   4   6    6.10    1.10
   4  -4  -6    3.50    3.60
  -4   4   6    1.40    1.50
  -4   4   6    4.30    1.00
  -4   4   6    4.10    2.90
   3  -4  -6   33.20    5.80
  -3   4   6   31.20    3.90
  -3   4   6   24.60    3.50
  -3   4   6   29.30    3.10
  -3   4   6   31.50    5.10
   2  -4  -6   65.69    7.40
   2  -4  -6   69.99    6.60
  -2   4   6   80.59    7.10
  -2   4   6   71.29    5.70
  -2   4   6   64.79    6.80
  -2   4   6   61.09    6.40
   1  -4  -6   25.20    3.90
   1  -4  -6   22.80    4.10
  -1   4   6   25.20    3.60
  -1   4   6   26.80    3.20
  -1   4   6   26.80    4.00
   0  -4  -6   43.70    4.70
   0   4   6   40.90    4.40
   0   4   6   48.20    4.80
   0   4   6   40.20    4.50
  -1  -4  -6   29.10    3.30
  -1  -4  -6   24.40    3.10
   1   4   6   20.70    3.30
   1   4   6   26.40    4.00
  -2  -4  -6  205.58   16.80
  -2  -4  -6  265.67   16.70
  -2  -4  -6  255.17   19.80
   2   4   6  219.38   18.70
   2   4   6  201.08   16.90
  -3  -4  -6  117.39   10.80
  -3  -4  -6  129.79    8.90
   3   4   6  116.59   10.20
   3   4   6  111.09    9.40
  -4  -4  -6   10.10    1.60
  -4  -4  -6    7.80    1.70
  -4  -4  -6    7.40    2.10
   4   4   6    9.30    1.80
  -5  -4  -6   79.09    8.60
  -5  -4  -6   88.99    6.90
  -5  -4  -6   95.49    7.30
   5   4   6   97.69    8.30
  -6  -4  -6   15.80    2.10
  -6  -4  -6   12.10    1.50
  -7  -4  -6    6.10    2.30
   7   4   6    9.40    2.00
  -8  -4  -6    6.60    2.70
   8   4   6    8.10    2.30
   5  -5  -6   78.89    8.20
  -5   5   6   77.09    6.40
  -5   5   6   80.19    9.70
  -5   5   6   81.79    8.20
   4  -5  -6   21.80    4.90
  -4   5   6   16.50    2.80
  -4   5   6   24.10    4.20
  -4   5   6   22.80    2.50
   3  -5  -6  156.88   14.60
  -3   5   6  145.49   11.40
  -3   5   6  153.28   13.50
   2  -5  -6   16.50    3.50
   2  -5  -6   22.90    3.60
  -2   5   6   22.70    3.40
  -2   5   6   20.20    3.50
  -2   5   6   18.20    3.20
   1  -5  -6   28.00    4.60
   1  -5  -6   26.60    4.60
  -1   5   6   29.20    4.90
  -1   5   6   28.80    4.50
  -1   5   6   30.10    4.00
   0  -5  -6    4.40    1.80
   0  -5  -6    5.00    1.90
   0   5   6    4.20    2.20
   0   5   6    5.10    1.90
   0   5   6    4.50    1.90
  -1  -5  -6    1.10    1.40
  -1  -5  -6    2.10    1.50
   1   5   6    0.80    1.80
   1   5   6   -0.40    1.50
  -2  -5  -6   31.30    3.60
  -2  -5  -6   20.60    3.10
   2   5   6   20.60    3.50
   2   5   6   21.70    3.00
  -3  -5  -6   25.70    2.60
  -3  -5  -6   19.50    3.00
  -3  -5  -6   20.30    2.90
   3   5   6   22.50    3.20
   3   5   6   22.00    3.70
  -4  -5  -6    1.70    2.10
  -4  -5  -6    0.50    2.00
  -4  -5  -6    1.90    0.90
   4   5   6    0.80    3.00
   4   5   6    0.50    1.90
  -5  -5  -6   44.20    4.90
  -5  -5  -6   36.50    5.10
  -6  -5  -6   20.80    2.80
  -6  -5  -6   14.10    2.00
  -6  -5  -6   21.70    3.40
   6   5   6   23.00    3.70
  -7  -5  -6   10.50    2.50
  -7  -5  -6   11.80    1.60
  -7  -5  -6   15.90    2.80
   7   5   6   10.70    2.30
  -8  -5  -6    2.20    2.90
   8   5   6    6.10    2.30
   4  -6  -6   -1.80    2.30
  -4   6   6   -1.70    1.80
  -4   6   6   -1.20    4.20
  -4   6   6   -1.70    1.20
   3  -6  -6   29.40    4.50
  -3   6   6   27.00    3.20
  -3   6   6   30.70    3.90
  -3   6   6   29.50    4.60
   2  -6  -6  105.79   10.70
  -2   6   6   90.09   10.30
  -2   6   6  107.29   10.00
   1  -6  -6  340.97   25.80
   1  -6  -6  270.27   22.00
  -1   6   6  302.17   24.30
  -1   6   6  264.27   25.80
   0  -6  -6  172.08   14.60
   0  -6  -6  220.28   16.80
   0   6   6  180.48   16.90
   0   6   6  178.58   16.00
  -1  -6  -6  376.56   30.00
  -1  -6  -6  362.66   25.60
   1   6   6  340.77   28.30
   1   6   6  314.07   25.70
  -2  -6  -6   11.90    2.60
  -2  -6  -6    9.40    2.10
   2   6   6   11.30    3.20
   2   6   6    8.20    2.30
  -3  -6  -6    2.90    2.10
  -3  -6  -6    3.10    1.50
   3   6   6    1.30    1.80
   3   6   6    2.80    3.00
  -4  -6  -6   12.80    1.80
  -5  -6  -6   13.40    1.90
  -5  -6  -6    8.10    2.10
   5   6   6    8.90    2.10
  -6  -6  -6    0.20    0.90
  -6  -6  -6    1.50    1.80
   6   6   6   -3.50    1.70
  -7  -6  -6    9.40    3.30
  -7  -6  -6    8.60    1.30
   7   6   6    7.60    2.10
   3  -7  -6   22.50    4.50
  -3   7   6   18.50    2.40
  -3   7   6   19.30    3.60
  -3   7   6   18.60    4.70
   2  -7  -6   26.10    4.00
  -2   7   6   19.00    2.40
  -2   7   6   18.20    4.20
  -2   7   6   17.50    3.40
   1  -7  -6   12.40    4.30
   1  -7  -6   10.10    2.30
  -1   7   6    4.80    3.60
  -1   7   6   13.10    3.60
  -1   7   6   11.60    3.60
   0  -7  -6    2.70    1.70
   0  -7  -6    0.30    2.90
   0   7   6    1.90    2.90
   0   7   6    2.10    3.20
   0   7   6    3.60    2.90
  -1  -7  -6   30.90    4.10
  -1  -7  -6   33.60    4.00
   1   7   6   27.50    4.50
   1   7   6   33.50    5.50
  -2  -7  -6   42.60    4.70
  -2  -7  -6   42.10    5.80
   2   7   6   42.10    6.00
   2   7   6   43.80    7.40
  -3  -7  -6   10.70    2.40
  -3  -7  -6   12.80    2.10
   3   7   6   10.70    2.10
   3   7   6   14.80    4.50
  -4  -7  -6   73.69    7.50
  -4  -7  -6   82.89    6.40
   4   7   6   80.09    7.40
  -5  -7  -6   49.90    4.40
   5   7   6   52.99    5.40
  -6  -7  -6   45.10    5.70
  -6  -7  -6   51.79    4.30
   6   7   6   50.49    5.60
  -7  -7  -6   43.00    5.80
  -7  -7  -6   40.00    3.90
   7   7   6   47.30    5.60
   2  -8  -6    2.80    2.50
  -2   8   6    1.20    1.80
  -2   8   6    2.80    4.30
  -2   8   6    0.40    2.20
   1  -8  -6    3.20    2.10
  -1   8   6    0.10    2.00
  -1   8   6    4.20    1.70
   0  -8  -6    4.80    2.10
   0  -8  -6    5.10    4.50
   0   8   6    2.30    4.10
   0   8   6    3.60    4.40
  -1  -8  -6    2.80    1.80
  -1  -8  -6    0.50    3.70
   1   8   6   -1.40    4.20
   1   8   6    3.30    1.60
  -2  -8  -6    2.10    1.80
  -2  -8  -6   -0.30    3.30
   2   8   6    0.30    1.50
   2   8   6    2.90    4.60
  -3  -8  -6   10.00    1.60
  -3  -8  -6    8.20    2.00
   3   8   6    4.50    2.00
  -4  -8  -6    4.10    1.30
  -4  -8  -6    6.70    1.80
   4   8   6    2.20    1.90
  -5  -8  -6    3.70    1.90
  -5  -8  -6    1.60    1.20
  -6  -8  -6   61.39    5.20
   6   8   6   58.29    6.30
   0  -9  -6   24.70    3.70
   0   9   6   33.70    4.00
   0   9   6   23.80    3.20
   0   9   6   23.50    4.30
  -1  -9  -6   -0.90    2.00
  -1  -9  -6   -0.60    5.20
   1   9   6   -0.40    6.00
   1   9   6    2.80    1.80
  -2  -9  -6   14.90    2.80
  -2  -9  -6   24.80    3.60
   2   9   6   15.80    2.60
  -3  -9  -6   25.90    3.70
   3   9   6   24.80    4.20
  -4  -9  -6    3.40    1.90
  -4  -9  -6    4.60    1.60
   4   9   6    3.70    2.10
   3   8  -7    5.80    2.90
  -3  -8   7    3.50    1.90
  -3  -8   7    3.70    2.40
   2   8  -7   11.60    2.90
  -2  -8   7    7.20    2.10
  -2  -8   7    3.40    2.60
   1   8  -7   12.10    6.50
   1   8  -7    7.10    2.80
  -1  -8   7    4.50    2.70
   0   8  -7   -3.00    2.50
   0   8  -7    2.10    2.60
   0  -8   7   -0.70    2.80
   5   7  -7   11.60    3.30
  -5  -7   7   13.10    2.40
  -5  -7   7   10.80    2.60
   4   7  -7    9.80    2.80
  -4  -7   7    5.80    2.10
  -4  -7   7    7.30    1.50
   3   7  -7    9.10    2.90
  -3  -7   7   11.60    2.10
  -3  -7   7   12.00    2.50
  -3  -7   7   10.10    1.80
   2   7  -7    1.90    5.70
   2   7  -7    0.80    2.30
  -2  -7   7    4.40    2.40
  -2  -7   7   -1.00    3.80
   1   7  -7   -3.40    5.90
   1   7  -7    1.90    2.20
   1   7  -7   -1.60    4.20
  -1  -7   7    0.70    3.60
   0   7  -7   16.50    5.20
   0  -7   7   14.20    4.80
   0  -7   7   14.40    3.00
  -1   7  -7    8.80    2.40
  -1   7  -7   11.10    2.20
   1  -7   7    7.10    2.60
  -2   7  -7    4.60    1.90
  -2   7  -7    6.90    2.80
   2  -7   7    1.10    2.50
  -6  -6   7    4.90    1.80
  -6  -6   7    3.80    1.30
   5   6  -7   99.39    8.80
  -5  -6   7   85.69    7.80
  -5  -6   7   62.09   10.60
  -5  -6   7   82.49    6.80
   4   6  -7    0.10    2.40
  -4  -6   7    2.70    1.40
  -4  -6   7    0.40    4.10
  -3  -6   7  272.97   25.50
  -3  -6   7  301.17   23.90
   2   6  -7   29.30    5.20
  -2  -6   7   29.50    4.20
  -2  -6   7   31.20    5.70
  -2  -6   7   31.90    5.60
   1   6  -7   17.20    4.20
  -1  -6   7   16.60    3.60
  -1  -6   7   21.30    3.80
   0   6  -7   48.10    7.10
   0   6  -7   43.70    4.80
   0  -6   7   28.10    4.60
   0  -6   7   37.80    4.90
  -1   6  -7   -0.10    1.80
  -1   6  -7    5.60    3.30
   1  -6   7    3.70    2.10
   1  -6   7    4.20    4.20
  -2   6  -7    5.40    1.50
  -2   6  -7    2.00    2.10
   2  -6   7   -1.00    2.10
  -3   6  -7    4.70    1.60
  -3   6  -7    4.40    2.40
   3  -6   7    4.20    2.30
  -4   6  -7   -3.30    2.20
  -4   6  -7    0.90    1.50
   4  -6   7   -2.40    2.50
   6   5  -7   49.99    6.30
  -6  -5   7   52.69    4.40
   5   5  -7    3.70    2.20
  -5  -5   7   -1.00    1.30
  -5  -5   7    0.60    1.00
   4   5  -7   21.20    4.80
  -4  -5   7   21.10    4.20
  -4  -5   7   18.50    2.50
  -4  -5   7   19.00    2.90
   3   5  -7   67.39    8.60
   3   5  -7   58.79    9.10
  -3  -5   7   74.99    7.30
  -3  -5   7   65.79    8.40
  -3  -5   7   73.89    6.60
   2   5  -7  191.58   19.40
   2   5  -7  227.58   17.10
  -2  -5   7  225.18   16.40
  -2  -5   7  228.18   18.00
  -2  -5   7  207.58   19.70
   1   5  -7  170.38   16.80
   1   5  -7  197.58   15.00
  -1  -5   7  182.18   17.10
  -1  -5   7  200.58   14.60
  -1  -5   7  186.58   15.60
   0   5  -7  118.49   11.60
   0   5  -7  140.29   10.90
   0  -5   7  122.59   12.00
  -1   5  -7  104.29    8.90
  -1   5  -7   95.89    9.40
   1  -5   7  100.99    9.60
   1  -5   7   81.59    9.40
  -2   5  -7    3.50    2.20
  -2   5  -7    4.00    1.70
   2  -5   7   -0.20    3.30
   2  -5   7    1.20    1.80
  -3   5  -7  119.49   11.50
  -3   5  -7  132.99    9.50
   3  -5   7  114.89   11.30
  -4   5  -7    2.80    2.10
  -4   5  -7    4.00    1.30
   4  -5   7   10.00    2.40
  -5   5  -7   61.69    5.00
  -5   5  -7   43.50    7.00
   5  -5   7   60.69    6.90
   7   4  -7   48.20    6.70
  -7  -4   7   50.49    5.20
  -7  -4   7   54.29    4.20
   6   4  -7   -2.20    2.50
  -6  -4   7    1.40    0.90
  -6  -4   7    0.50    1.40
  -5  -4   7  128.19   10.80
  -5  -4   7  124.59    9.50
   4   4  -7   13.10    3.50
  -4  -4   7    8.20    1.80
  -4  -4   7    6.50    1.40
   3   4  -7   27.30    4.50
   3   4  -7   32.60    5.20
  -3  -4   7   41.90    5.70
  -3  -4   7   36.50    4.20
  -3  -4   7   29.70    3.70
  -3  -4   7   28.50    4.50
   2   4  -7   59.89    6.90
   2   4  -7   59.29    7.20
  -2  -4   7   74.49    6.10
  -2  -4   7   64.99    6.30
  -2  -4   7   62.29    7.90
   1   4  -7   12.30    2.80
   1   4  -7   11.00    2.60
  -1  -4   7   11.40    2.10
  -1  -4   7   12.10    3.00
  -1  -4   7   11.60    2.30
   0   4  -7  569.34   36.60
   0   4  -7  503.55   43.50
   0  -4   7  489.15   43.10
   0  -4   7  464.45   40.30
  -1   4  -7   37.30    5.10
  -1   4  -7   48.60    5.00
   1  -4   7   37.50    5.90
   1  -4   7   46.40    5.30
  -2   4  -7  128.69   10.80
  -2   4  -7  106.19    9.10
   2  -4   7  106.19   10.10
   2  -4   7  114.89   10.90
  -3   4  -7  111.99    8.20
   3  -4   7   94.19    9.70
  -4   4  -7    5.60    2.00
  -4   4  -7    6.10    1.20
  -6   4  -7    7.40    2.60
  -6   4  -7    0.90    1.10
   7   3  -7    3.20    2.60
  -7  -3   7    4.90    2.20
  -7  -3   7    7.90    1.60
   6   3  -7    3.80    2.20
  -6  -3   7    3.40    0.90
  -6  -3   7    2.90    1.30
  -6  -3   7    0.90    2.20
   5   3  -7   12.60    3.60
  -5  -3   7    9.80    1.60
  -5  -3   7    9.90    1.40
  -5  -3   7    6.70    2.50
   4   3  -7    4.90    2.40
  -4  -3   7    3.60    2.30
  -4  -3   7    2.00    1.30
  -4  -3   7    4.00    1.00
   3   3  -7   -0.70    1.80
   3   3  -7   -0.90    2.40
  -3  -3   7   -0.20    1.00
  -3  -3   7    0.60    1.20
   2   3  -7   67.69    6.90
   2   3  -7   63.89    6.60
  -2  -3   7   69.59    7.60
  -2  -3   7   72.69    5.80
  -2  -3   7   72.79    6.30
   1   3  -7   35.00    4.40
   1   3  -7   34.00    4.10
  -1  -3   7   36.60    4.00
  -1  -3   7   31.20    3.80
  -1  -3   7   32.90    4.80
   0   3  -7   66.79    5.50
   0  -3   7   54.69    6.00
   0  -3   7   52.59    5.30
  -1   3  -7   93.89    8.30
  -1   3  -7  117.89    9.80
   1  -3   7   90.29    8.70
   1  -3   7  111.59    9.60
  -2   3  -7   99.29    9.20
  -2   3  -7  101.09    8.40
   2  -3   7  122.19   10.10
   2  -3   7  108.99    9.20
  -3   3  -7   13.30    2.20
  -3   3  -7    9.60    2.70
  -3   3  -7   14.00    2.90
   3  -3   7   13.00    2.90
   3  -3   7   14.40    2.90
  -4   3  -7   10.50    2.90
  -5   3  -7    7.80    3.00
  -5   3  -7    7.10    2.50
  -5   3  -7   11.50    1.90
   5  -3   7   13.20    2.50
  -6   3  -7   -0.20    2.70
  -6   3  -7    0.20    0.90
   6  -3   7   -0.40    2.40
   7   2  -7   24.30    4.60
  -7  -2   7   12.90    1.70
  -7  -2   7   17.00    3.00
   6   2  -7   -0.70    2.00
  -6  -2   7    2.40    1.40
  -6  -2   7    0.00    0.70
  -6  -2   7    1.10    1.80
   5   2  -7    5.90    2.60
  -5  -2   7    1.20    1.80
   4   2  -7   -0.30    1.70
  -4  -2   7    0.00    1.30
  -4  -2   7    0.80    1.70
  -4  -2   7   -0.80    0.60
   3   2  -7    0.40    1.50
   3   2  -7    0.40    2.40
  -3  -2   7    0.90    0.70
  -3  -2   7    0.20    1.00
  -3  -2   7    0.90    1.60
   2   2  -7   97.89    8.20
   2   2  -7   96.79    9.10
  -2  -2   7  112.79    8.50
  -2  -2   7   92.29    8.20
  -2  -2   7   96.49    7.60
   1   2  -7    1.20    1.70
   1   2  -7    1.20    2.00
  -1  -2   7    2.30    1.10
  -1  -2   7    1.30    1.30
  -1  -2   7    4.40    1.90
   0   2  -7  111.79    9.70
   0   2  -7  111.79    8.20
   0  -2   7   98.09    9.40
   0  -2   7  100.19    8.10
   0  -2   7   97.69    8.60
  -1   2  -7   59.29    5.80
  -1   2  -7   45.10    4.40
   1  -2   7   42.80    5.10
   1  -2   7   52.99    5.10
  -2   2  -7  446.86   34.40
  -2   2  -7  427.56   34.30
  -2   2  -7  507.35   41.20
   2  -2   7  482.15   34.50
   2  -2   7  532.75   40.90
  -3   2  -7    3.30    2.00
  -3   2  -7    1.90    1.90
  -3   2  -7    2.00    0.80
   3  -2   7    6.70    2.40
   3  -2   7    4.60    2.40
  -4   2  -7   32.90    4.40
  -4   2  -7   33.70    5.00
  -4   2  -7   35.60    3.20
   4  -2   7   37.40    4.70
  -5   2  -7   -0.40    2.00
  -5   2  -7    0.30    0.80
   5  -2   7   -1.10    2.00
  -6   2  -7    2.50    1.90
  -6   2  -7    5.20    2.00
  -6   2  -7    1.30    0.70
   6  -2   7   -1.60    2.40
  -7   2  -7    0.20    2.20
   7  -2   7    6.90    3.10
   7   1  -7   -3.40    2.30
  -7  -1   7    4.00    1.50
  -7  -1   7   -0.50    0.70
  -7  -1   7   -1.80    1.90
   6   1  -7   12.20    2.40
  -6  -1   7   19.00    3.00
  -6  -1   7   11.90    1.90
  -6  -1   7   11.40    1.50
   5   1  -7   28.60    3.90
  -5  -1   7   18.50    3.20
  -5  -1   7   24.00    4.10
   4   1  -7   92.99    8.50
  -4  -1   7   83.39    7.10
  -4  -1   7   94.19    8.10
  -4  -1   7   90.39    6.80
   3   1  -7    2.00    2.20
   3   1  -7    1.90    1.40
  -3  -1   7    2.60    1.30
  -3  -1   7    2.90    0.80
  -3  -1   7    1.80    1.50
   2   1  -7  438.16   37.50
   2   1  -7  422.46   31.40
  -2  -1   7  478.55   31.30
  -2  -1   7  408.76   31.40
  -2  -1   7  438.06   34.90
   1   1  -7  343.17   31.90
   1   1  -7  355.16   26.80
  -1  -1   7  416.86   26.70
  -1  -1   7  370.86   29.70
   0   1  -7   33.40    4.60
   0   1  -7   45.10    4.20
   0  -1   7   34.80    3.50
   0  -1   7   31.40    3.90
  -1   1  -7  424.06   34.50
  -1   1  -7  443.26   34.60
  -1   1  -7  501.65   41.40
   1  -1   7  528.55   34.70
   1  -1   7  508.85   40.90
   1  -1   7  490.15   38.30
  -2   1  -7   23.70    3.50
  -2   1  -7   17.40    2.20
  -2   1  -7   21.60    2.90
   2  -1   7   20.70    3.40
  -3   1  -7    8.80    1.50
  -3   1  -7   10.40    1.90
  -3   1  -7    7.80    1.70
  -3   1  -7    8.80    2.20
  -4   1  -7    1.60    2.00
  -4   1  -7    1.30    1.40
  -4   1  -7   -1.20    2.10
  -4   1  -7    0.00    0.90
  -5   1  -7   16.30    2.10
  -5   1  -7   13.70    2.00
  -5   1  -7   20.70    3.70
  -6   1  -7   12.60    1.40
  -6   1  -7   17.30    3.20
   6  -1   7   12.60    2.70
  -7   1  -7   14.80    2.80
   7  -1   7   23.80    4.50
  -7   0   7    0.50    1.90
  -7   0   7    1.00    0.60
   6   0  -7    5.50    2.00
  -6   0   7    4.60    1.90
  -5   0   7    6.50    1.90
  -5   0   7    4.90    1.50
   4   0  -7    6.60    1.70
  -4   0   7    7.50    1.80
  -4   0   7    4.70    1.40
  -4   0   7    6.00    1.10
   3   0  -7   28.60    3.80
   3   0  -7   34.60    4.50
  -3   0   7   22.40    3.20
  -3   0   7   27.10    3.70
  -3   0   7   32.20    2.70
   2   0  -7  491.25   38.30
   2   0  -7  428.26   32.00
  -2   0   7  449.76   31.90
  -2   0   7  416.26   35.60
   1   0  -7  124.09    9.10
   1   0  -7  104.29   10.60
  -1   0   7  125.59    9.90
  -1   0   7  121.49    8.90
   0   0  -7 1375.16  115.79
   0   0   7 1407.76   97.59
   0   0   7 1344.27  108.69
  -1   0  -7  311.47   25.40
  -1   0  -7  327.97   30.40
  -1   0  -7  418.76   30.10
  -1   0  -7  365.16   25.30
   1   0   7  341.77   25.40
  -2   0  -7  155.18   12.10
  -2   0  -7  176.48   14.40
  -2   0  -7  154.38   14.60
   2   0   7  178.48   12.40
  -3   0  -7    1.70    0.70
  -3   0  -7    0.80    1.20
  -3   0  -7    0.70    1.80
  -3   0  -7    1.60    1.30
   3   0   7    0.80    1.40
  -4   0  -7   13.90    2.60
  -4   0  -7   11.90    1.70
  -4   0  -7   12.00    2.30
  -4   0  -7   13.50    1.80
   4   0   7   12.80    2.00
  -5   0  -7   43.60    5.20
  -5   0  -7   44.30    3.50
  -5   0  -7   40.40    3.90
  -5   0  -7   54.69    6.30
   5   0   7   34.30    4.80
  -6   0  -7    3.10    3.20
  -6   0  -7    3.00    1.80
   6   0   7    1.40    2.10
  -7   0  -7    7.00    2.10
  -7   0  -7    4.90    1.90
   7   0   7    6.20    3.00
  -8   0  -7   22.50    4.20
   8   0   7    9.70    4.30
   8   0   7   16.40    3.50
   7  -1  -7    1.80    2.40
  -7   1   7    1.40    0.70
  -7   1   7    1.50    2.00
   6  -1  -7    8.20    2.00
  -6   1   7   10.20    1.90
  -6   1   7    5.40    2.30
  -6   1   7    6.50    0.90
   5  -1  -7   15.60    2.90
  -5   1   7   10.30    2.10
  -5   1   7   10.10    1.40
  -5   1   7   11.40    2.80
   4  -1  -7   17.00    3.50
  -4   1   7   21.90    2.30
  -4   1   7   20.50    3.40
  -4   1   7   17.70    2.90
   3  -1  -7    0.50    1.50
   3  -1  -7    0.90    2.00
  -3   1   7    0.30    1.10
  -3   1   7    0.50    1.50
  -3   1   7   -0.30    0.70
   2  -1  -7   89.29    7.90
   2  -1  -7  101.09    9.10
  -2   1   7   98.89    8.60
  -2   1   7  107.09    7.50
   1  -1  -7   18.00    3.00
   1  -1  -7   20.00    3.00
  -1   1   7   17.70    2.80
  -1   1   7   24.20    3.10
   0  -1  -7   10.10    1.60
   0  -1  -7   14.90    2.30
   0  -1  -7   13.90    2.00
   0   1   7   14.30    1.90
   0   1   7   12.90    1.80
  -1  -1  -7   39.00    3.80
  -1  -1  -7   29.10    3.70
  -1  -1  -7   36.90    3.10
  -1  -1  -7   29.00    3.80
   1   1   7   28.80    3.60
   1   1   7   39.20    4.10
  -2  -1  -7    8.90    2.00
  -2  -1  -7    8.30    1.20
  -2  -1  -7   12.30    2.40
   2   1   7    9.90    1.60
   2   1   7    9.40    1.60
  -3  -1  -7  313.07   23.20
  -3  -1  -7  320.77   23.10
  -3  -1  -7  325.97   27.70
  -3  -1  -7  327.17   27.80
   3   1   7  329.57   25.90
  -4  -1  -7   -0.40    1.90
  -4  -1  -7    0.20    1.60
  -4  -1  -7    0.40    1.00
  -4  -1  -7    0.80    0.70
   4   1   7   -0.50    1.40
  -5  -1  -7    3.30    1.10
  -5  -1  -7    3.20    2.00
  -5  -1  -7    3.60    2.40
  -5  -1  -7    3.50    0.80
   5   1   7    2.90    2.00
  -6  -1  -7    2.60    3.00
   6   1   7    1.70    2.40
  -7  -1  -7   73.39    7.50
  -7  -1  -7   74.09    9.20
   7   1   7   76.89    8.30
  -8  -1  -7   14.60    2.50
  -8  -1  -7   10.20    2.50
   8   1   7    7.60    2.00
   7  -2  -7   -1.40    2.50
  -7   2   7    6.20    2.20
  -7   2   7    4.10    0.90
  -6   2   7    0.70    0.80
  -6   2   7    1.50    1.70
  -6   2   7    0.40    2.60
  -5   2   7   14.60    2.70
  -5   2   7   14.50    3.20
  -5   2   7   15.20    1.80
  -4   2   7    8.20    2.00
  -4   2   7   10.20    1.50
  -4   2   7   10.80    2.20
  -4   2   7   10.60    2.60
   3  -2  -7   16.70    2.90
  -3   2   7   13.70    2.10
  -3   2   7   17.60    2.50
  -3   2   7   14.20    1.90
  -3   2   7   10.20    1.80
   2  -2  -7   35.70    4.40
  -2   2   7   43.90    3.60
  -2   2   7   39.00    4.30
   1  -2  -7   62.99    6.50
   1  -2  -7   61.29    5.60
  -1   2   7   80.69    5.60
  -1   2   7   68.29    6.30
   0  -2  -7    0.90    1.30
   0  -2  -7    0.50    1.30
   0   2   7    0.40    1.30
   0   2   7    0.30    1.30
  -1  -2  -7   84.79    7.10
   1   2   7   74.59    6.80
   1   2   7   71.79    6.20
  -2  -2  -7    6.10    1.10
  -2  -2  -7    6.30    1.40
   2   2   7    5.40    1.50
   2   2   7    6.20    1.40
  -3  -2  -7  297.27   21.80
  -3  -2  -7  306.67   25.90
  -3  -2  -7  304.97   21.70
   3   2   7  290.37   21.80
   3   2   7  315.77   24.40
  -4  -2  -7   -1.00    1.20
  -4  -2  -7   -0.30    0.70
  -4  -2  -7    0.50    1.70
   4   2   7   -0.10    1.30
  -5  -2  -7    4.20    0.80
  -5  -2  -7    4.50    2.00
  -5  -2  -7    3.90    1.20
   5   2   7    4.10    2.20
  -6  -2  -7    2.40    2.60
   6   2   7    1.10    2.50
  -7  -2  -7    1.40    1.80
  -7  -2  -7    2.80    3.60
   7   2   7    0.70    3.20
  -8  -2  -7    1.80    2.00
  -6   3   7    2.70    1.90
  -6   3   7    3.30    2.10
  -6   3   7    2.90    1.00
  -5   3   7    4.10    1.20
  -5   3   7    5.60    3.30
  -5   3   7    9.00    2.10
  -5   3   7    7.90    2.90
  -4   3   7   81.99    8.10
  -4   3   7  100.99    9.20
   3  -3  -7  104.79    9.20
  -3   3   7   95.49    9.70
  -3   3   7  124.49    9.80
  -3   3   7  112.09    8.10
  -3   3   7   94.59    8.60
   2  -3  -7    7.40    2.20
   2  -3  -7    6.70    2.10
  -2   3   7    8.90    2.10
  -2   3   7    7.00    1.80
  -2   3   7    7.00    1.70
  -2   3   7    7.70    1.30
   1  -3  -7  903.01   57.59
   1  -3  -7  692.83   67.99
  -1   3   7  782.92   57.39
  -1   3   7  848.52   68.69
  -1   3   7  804.12   63.99
   0  -3  -7  212.88   19.20
   0  -3  -7  220.08   16.20
   0  -3  -7  203.18   19.00
   0   3   7  229.78   16.20
   0   3   7  243.38   18.10
  -1  -3  -7  905.41   67.39
   1   3   7  735.33   56.79
   1   3   7  754.12   63.39
  -2  -3  -7   38.80    4.30
  -2  -3  -7   33.90    3.90
  -2  -3  -7   47.80    4.30
   2   3   7   36.70    4.20
   2   3   7   43.90    4.30
  -3  -3  -7    0.40    1.20
  -3  -3  -7    1.80    0.90
  -3  -3  -7    1.70    1.10
   3   3   7    2.00    1.90
   3   3   7    1.00    1.20
  -4  -3  -7   82.59    8.80
  -4  -3  -7   97.49    7.30
  -4  -3  -7   96.19    7.10
   4   3   7  100.09    8.20
  -5  -3  -7   19.30    3.10
  -5  -3  -7   21.80    2.80
  -5  -3  -7   19.70    2.10
   5   3   7   25.50    3.90
   6   3   7   16.40    3.10
  -7  -3  -7    7.90    2.20
   7   3   7    4.80    2.00
  -8  -3  -7    2.00    2.30
   8   3   7   -3.50    1.90
  -6   4   7   10.90    1.60
  -6   4   7   14.70    2.40
  -6   4   7   12.50    2.60
   5  -4  -7   11.50    4.50
  -5   4   7   13.50    2.10
  -5   4   7   14.40    2.50
   4  -4  -7   19.50    4.20
  -4   4   7   23.40    4.10
  -4   4   7   15.30    3.10
  -4   4   7   19.50    2.40
   3  -4  -7   31.50    5.80
  -3   4   7   30.70    4.50
  -3   4   7   30.30    3.30
  -3   4   7   37.80    5.50
   2  -4  -7   25.80    3.40
   2  -4  -7   23.60    4.60
  -2   4   7   24.70    3.90
  -2   4   7   22.10    3.20
  -2   4   7   22.00    3.00
  -2   4   7   28.80    4.80
   1  -4  -7  125.89   10.80
   1  -4  -7  139.59   12.70
  -1   4   7  138.89   10.70
  -1   4   7  149.69   12.70
  -1   4   7  147.39   12.00
   0  -4  -7   16.80    2.40
   0   4   7   16.80    2.50
   0   4   7   13.10    2.00
   0   4   7   13.00    2.20
  -1  -4  -7   12.00    1.70
  -1  -4  -7   13.90    2.50
   1   4   7   12.70    2.00
   1   4   7   10.50    1.90
  -2  -4  -7  146.29    9.90
  -2  -4  -7  134.09   11.70
   2   4   7  132.69   11.30
   2   4   7  117.79   10.30
  -3  -4  -7  231.18   20.60
  -3  -4  -7  250.57   17.20
   3   4   7  227.48   17.60
   3   4   7  240.38   19.40
  -4  -4  -7    8.30    1.70
  -4  -4  -7    7.00    1.20
  -4  -4  -7    6.70    2.10
   4   4   7    6.00    1.50
  -5  -4  -7   23.90    3.50
  -5  -4  -7   27.40    2.90
  -5  -4  -7   19.10    4.10
   5   4   7   25.20    3.80
  -6  -4  -7    0.70    1.80
  -6  -4  -7    1.20    1.70
  -6  -4  -7    1.70    0.60
   6   4   7   -3.00    1.50
  -7  -4  -7    0.50    2.00
  -8  -4  -7   -0.20    2.50
   8   4   7   -1.20    2.10
  -5   5   7   52.99    4.80
  -5   5   7   34.60    5.30
  -5   5   7   41.70    4.10
   4  -5  -7   52.29    8.90
  -4   5   7   51.79    6.20
  -4   5   7   62.39    4.90
  -4   5   7   66.59    8.40
   3  -5  -7   40.90    7.00
  -3   5   7   48.50    6.60
  -3   5   7   36.20    3.70
   2  -5  -7   -0.50    2.70
   2  -5  -7    0.00    2.80
  -2   5   7    0.30    2.70
  -2   5   7   -0.80    1.60
  -2   5   7   -0.50    2.20
   1  -5  -7   10.30    2.60
   1  -5  -7   10.50    2.60
  -1   5   7   11.70    2.80
  -1   5   7   10.10    2.50
  -1   5   7   10.60    2.20
   0  -5  -7  277.47   21.20
   0  -5  -7  285.87   24.90
   0   5   7  293.07   25.10
   0   5   7  303.17   23.60
   0   5   7  284.77   21.20
  -1  -5  -7  125.09   10.50
   1   5   7  115.99   10.00
   1   5   7  106.59    9.40
  -2  -5  -7   21.80    3.00
  -2  -5  -7   19.10    2.90
   2   5   7   16.50    2.70
   2   5   7   16.80    2.60
  -3  -5  -7   17.40    2.90
  -3  -5  -7   20.40    3.50
  -3  -5  -7   25.10    2.70
   3   5   7   21.50    3.20
   3   5   7   23.80    4.00
  -4  -5  -7   31.60    4.90
  -4  -5  -7   35.30    4.70
  -4  -5  -7   32.90    3.10
   4   5   7   36.60    6.00
   4   5   7   36.80    4.40
  -5  -5  -7    9.00    2.30
  -6  -5  -7   24.70    3.80
  -6  -5  -7   27.60    2.50
  -6  -5  -7   23.00    3.10
   6   5   7   21.90    3.90
  -7  -5  -7    0.70    2.20
  -7  -5  -7    0.80    2.30
   7   5   7   -2.80    1.90
  -8  -5  -7   30.90    5.70
   8   5   7   31.20    5.20
   4  -6  -7    0.60    2.10
  -4   6   7    0.20    1.20
  -4   6   7    1.90    2.00
  -3   6   7    0.60    1.60
  -3   6   7    3.70    3.60
  -3   6   7    0.80    1.30
   2  -6  -7   45.70    7.20
  -2   6   7   42.80    6.70
  -2   6   7   54.49    7.10
   1  -6  -7    5.40    3.10
  -1   6   7    5.60    2.50
  -1   6   7    6.70    3.10
  -1   6   7    6.90    3.00
   0  -6  -7   -0.50    2.30
   0  -6  -7    0.90    2.10
   0   6   7    1.30    2.60
   0   6   7   -1.70    2.30
   0   6   7    1.30    2.10
  -1  -6  -7  208.28   15.70
  -1  -6  -7  201.38   18.10
   1   6   7  225.88   16.30
   1   6   7  195.08   17.20
  -2  -6  -7  421.96   30.10
  -2  -6  -7  380.26   35.40
   2   6   7  409.36   33.50
   2   6   7  450.65   30.60
  -3  -6  -7   82.69    8.60
  -3  -6  -7   90.49    7.40
   3   6   7   90.69    8.70
   3   6   7   96.79    8.50
   4   6   7   45.80    4.90
  -5  -6  -7   -2.10    1.60
  -5  -6  -7    1.00    1.00
   5   6   7    1.60    1.50
  -6  -6  -7    9.70    1.40
  -6  -6  -7    7.70    2.20
   6   6   7    9.20    2.20
  -7  -6  -7   -1.00    3.10
  -7  -6  -7    2.00    2.20
  -7  -6  -7    0.20    1.00
   7   6   7    3.10    2.00
   3  -7  -7   -0.20    2.20
  -3   7   7   -2.60    1.90
  -3   7   7    1.60    1.60
   2  -7  -7   18.40    3.10
  -2   7   7   21.20    3.10
  -2   7   7   27.60    4.60
  -2   7   7   18.70    3.50
   1  -7  -7    7.50    3.40
   1  -7  -7    6.20    1.90
  -1   7   7    7.80    3.80
  -1   7   7    8.80    3.60
  -1   7   7    6.70    3.20
   0  -7  -7   -2.70    1.70
   0  -7  -7   -3.70    3.40
   0   7   7   -1.60    3.10
   0   7   7    1.10    3.00
   0   7   7    0.40    2.80
  -1  -7  -7    1.50    1.60
   1   7   7    1.90    2.90
   1   7   7    4.00    2.70
  -2  -7  -7   18.50    3.20
  -2  -7  -7   15.50    3.00
   2   7   7   15.90    4.00
  -3  -7  -7   96.79    8.30
  -3  -7  -7   87.79    8.80
   3   7   7   92.39    9.80
   3   7   7  104.19    8.60
  -4  -7  -7    5.30    1.10
  -4  -7  -7    6.90    1.80
   4   7   7    4.30    1.70
  -5  -7  -7   69.79    7.80
  -5  -7  -7   82.69    6.30
   5   7   7   80.39    7.50
  -6  -7  -7   26.20    4.20
  -6  -7  -7   19.00    2.70
   6   7   7   26.90    3.80
  -7  -7  -7    7.10    1.40
  -7  -7  -7    6.40    2.50
   7   7   7   11.80    2.40
   2  -8  -7    2.60    2.40
  -2   8   7   -1.70    2.10
  -2   8   7   -1.80    2.00
   1  -8  -7    6.50    2.20
  -1   8   7    1.70    1.80
  -1   8   7    2.60    1.90
  -1   8   7    2.00    2.00
   0  -8  -7    9.70    4.50
   0  -8  -7   11.30    2.40
   0   8   7   11.10    4.20
   0   8   7   11.00    4.40
   0   8   7   14.00    2.00
  -1  -8  -7   51.09    6.10
  -1  -8  -7   57.99    8.20
   1   8   7   62.49    8.80
   1   8   7   63.09    5.70
  -2  -8  -7   -1.70    1.70
   2   8   7    3.10    1.50
   2   8   7   -0.10    4.30
  -3  -8  -7   19.40    3.50
  -3  -8  -7   26.30    3.20
   3   8   7   22.80    3.70
  -4  -8  -7    4.80    1.40
  -4  -8  -7    7.00    1.70
  -5  -8  -7    2.60    1.20
  -5  -8  -7   -0.90    1.90
   5   8   7    0.50    1.80
  -6  -8  -7   16.60    2.60
  -6  -8  -7   10.20    2.70
   6   8   7    9.20    2.30
  -1  -9  -7   28.40    4.60
   1   9   7   34.60    6.50
  -2  -9  -7    1.60    2.00
  -2  -9  -7    2.90    1.90
   2   9   7    6.40    1.90
  -3  -9  -7    5.70    1.70
  -3  -9  -7    4.70    1.90
   3   9   7    2.00    1.90
  -4  -9  -7   24.40    3.40
  -4  -9  -7   21.10    3.70
   4   7  -8    1.40    3.00
  -4  -7   8    5.40    2.10
  -4  -7   8    4.20    1.50
  -4  -7   8    3.60    2.30
   3   7  -8   -0.40    2.60
  -3  -7   8    2.20    1.60
  -3  -7   8   -0.90    1.90
   2   7  -8   10.50    2.70
  -2  -7   8   13.60    2.10
  -2  -7   8   12.30    4.60
   1   7  -8    1.90    2.30
   1   7  -8    1.70    5.20
  -1  -7   8   -1.50    2.50
  -1  -7   8   -2.40    5.30
   0   7  -8    0.70    4.80
   0  -7   8    0.00    4.40
   0  -7   8    2.70    2.60
  -1   7  -8   -2.50    2.20
   1  -7   8   -2.00    2.40
  -2   7  -8   -2.60    2.00
   2  -7   8   -1.20    2.60
   5   6  -8    3.50    2.90
  -5  -6   8    2.40    1.60
  -4  -6   8   27.60    3.20
  -4  -6   8   24.50    3.50
  -4  -6   8   19.20    5.30
   3   6  -8   25.80    5.20
  -3  -6   8   44.00    3.90
  -3  -6   8   35.50    5.70
   2   6  -8   77.39    8.60
   2   6  -8   97.39   10.90
  -2  -6   8   86.59   11.00
  -2  -6   8   91.39    9.10
  -2  -6   8  101.39    9.10
   1   6  -8   23.30    4.00
   1   6  -8   33.90    6.40
  -1  -6   8   25.30    4.30
  -1  -6   8   29.50    4.30
   0   6  -8    0.40    2.00
   0   6  -8    3.70    3.60
   0  -6   8   -1.60    3.60
   0  -6   8   -1.00    2.00
  -1   6  -8   24.20    4.00
  -1   6  -8   42.60    6.80
   1  -6   8   29.10    5.00
   1  -6   8   27.70    4.40
  -2   6  -8   51.79    4.90
  -2   6  -8   49.50    5.50
   2  -6   8   40.70    5.70
  -3   6  -8   -1.50    2.40
  -3   6  -8    1.70    1.60
   3  -6   8   -3.90    2.20
   6   5  -8  144.09   12.90
  -6  -5   8  140.59   10.30
  -6  -5   8  124.09   11.70
   5   5  -8    3.60    2.30
  -5  -5   8   -0.90    1.30
  -5  -5   8    0.80    1.00
   4   5  -8  272.77   24.50
  -4  -5   8  258.37   20.30
  -4  -5   8  303.27   22.70
   3   5  -8   15.00    5.00
   3   5  -8   19.30    4.50
  -3  -5   8   13.80    2.80
  -3  -5   8   13.80    3.00
  -3  -5   8   19.40    4.20
   2   5  -8   65.59    8.30
   2   5  -8   69.09    9.00
  -2  -5   8   75.19    7.10
  -2  -5   8   72.59    7.50
  -2  -5   8   71.39    9.40
   1   5  -8    0.10    3.20
   1   5  -8    1.60    2.40
  -1  -5   8    2.90    2.60
  -1  -5   8   -0.30    3.60
  -1  -5   8    1.00    3.00
   0   5  -8   -3.10    2.80
   0   5  -8   -0.80    2.20
   0  -5   8    1.10    2.90
   0  -5   8   -1.80    3.10
  -1   5  -8    4.30    1.80
  -1   5  -8    2.50    2.70
   1  -5   8    0.30    3.30
  -2   5  -8   19.00    3.10
   2  -5   8   24.10    3.30
  -3   5  -8   -1.50    1.20
  -3   5  -8   -3.70    2.00
   3  -5   8    4.40    2.00
  -4   5  -8   39.10    3.90
  -4   5  -8   34.70    5.10
   4  -5   8   32.80    4.90
  -5   5  -8    1.60    1.40
  -5   5  -8   -3.40    2.70
   5  -5   8   -1.30    2.70
   6   4  -8   51.19    6.60
  -6  -4   8   54.49    4.50
  -6  -4   8   56.19    5.40
   5   4  -8    5.40    2.30
  -5  -4   8    1.60    1.30
  -5  -4   8    1.50    1.00
   4   4  -8  157.78   14.90
   3   4  -8    1.50    3.30
   3   4  -8    0.20    2.50
  -3  -4   8    1.60    1.70
  -3  -4   8    0.00    1.60
   2   4  -8  189.88   14.70
   2   4  -8  157.88   16.30
  -2  -4   8  177.88   15.20
  -2  -4   8  190.48   16.80
  -2  -4   8  198.38   14.00
   1   4  -8  227.28   21.60
   1   4  -8  258.27   18.70
  -1  -4   8  263.87   18.50
  -1  -4   8  247.68   21.80
  -1  -4   8  236.58   20.10
   0   4  -8    2.20    3.10
   0   4  -8    1.30    1.90
   0  -4   8    1.90    2.30
   0  -4   8    0.60    2.60
  -1   4  -8  338.87   24.00
  -1   4  -8  339.67   28.30
   1  -4   8  306.87   24.20
   1  -4   8  316.47   28.10
  -2   4  -8    5.10    2.00
  -2   4  -8    4.80    2.30
   2  -4   8    4.80    3.30
   2  -4   8    9.60    2.70
  -3   4  -8   40.90    5.30
   3  -4   8   55.59    5.40
  -4   4  -8   10.90    2.50
  -4   4  -8   10.70    1.60
   4  -4   8   15.60    2.70
  -5   4  -8   25.60    3.70
  -5   4  -8   23.10    2.80
   7   3  -8    6.70    2.80
  -7  -3   8    1.00    2.60
  -7  -3   8    2.10    0.90
  -7  -3   8    5.70    1.50
   6   3  -8    7.50    2.40
  -6  -3   8    6.60    1.60
  -6  -3   8    6.90    1.20
   5   3  -8   14.40    2.60
  -5  -3   8   11.80    1.90
  -5  -3   8   10.90    2.70
  -5  -3   8    9.30    1.40
   4   3  -8    4.20    2.60
  -4  -3   8    2.60    2.50
  -4  -3   8    1.60    0.90
  -4  -3   8    2.20    1.50
   3   3  -8  112.19   10.40
   3   3  -8  114.09   11.00
  -3  -3   8  112.39   10.20
  -3  -3   8  115.99    9.10
  -3  -3   8  136.39   10.20
   2   3  -8    5.60    2.00
   2   3  -8    6.00    2.60
  -2  -3   8    4.30    1.60
  -2  -3   8    4.80    1.60
   1   3  -8   91.79    8.90
   1   3  -8   92.29    8.10
  -1  -3   8   92.79    8.30
  -1  -3   8  103.59    7.90
  -1  -3   8   92.89    9.20
   0   3  -8   56.89    5.80
   0   3  -8   59.19    5.40
   0  -3   8   46.30    5.30
   0  -3   8   53.59    6.10
   0  -3   8   55.89    5.70
  -1   3  -8  214.28   15.70
  -1   3  -8  205.68   18.40
   1  -3   8  203.48   18.20
  -2   3  -8  148.09   13.90
  -2   3  -8  163.98   13.10
  -2   3  -8  198.88   15.80
   2  -3   8  170.38   13.70
   2  -3   8  190.28   15.60
  -3   3  -8  206.78   19.80
  -3   3  -8  229.68   16.40
   3  -3   8  248.38   17.30
   3  -3   8  207.98   19.60
  -4   3  -8    5.40    1.10
  -4   3  -8    1.70    2.90
  -4   3  -8    3.50    2.00
   4  -3   8    5.10    1.80
  -5   3  -8    0.30    3.20
  -5   3  -8    1.40    0.90
   5  -3   8    3.40    2.00
  -6   3  -8    3.10    1.00
   6  -3   8    4.60    2.50
   7   2  -8   -0.80    2.70
  -7  -2   8    4.20    0.90
  -7  -2   8    6.40    1.80
  -7  -2   8    3.70    2.00
   6   2  -8    3.90    2.30
  -6  -2   8    5.70    2.20
  -6  -2   8    7.40    1.90
  -6  -2   8    6.30    1.00
  -5  -2   8   24.40    3.00
  -5  -2   8   21.60    2.20
  -5  -2   8   20.60    2.90
   4   2  -8    1.90    1.80
  -4  -2   8    2.00    1.20
  -4  -2   8    1.20    0.90
  -4  -2   8    2.30    2.00
   3   2  -8   96.79    9.70
   3   2  -8  103.29    9.20
  -3  -2   8  101.79    8.10
  -3  -2   8  122.69    9.10
   2   2  -8  127.49   11.00
   2   2  -8  133.29   12.40
  -2  -2   8  145.89   10.50
  -2  -2   8  161.28   11.60
  -2  -2   8  124.99   11.10
   1   2  -8  100.49    9.80
   1   2  -8  116.39    9.10
  -1  -2   8  112.79    8.40
  -1  -2   8  101.39    9.00
   0   2  -8  121.99    8.90
   0   2  -8  113.99   10.50
   0  -2   8  106.09   10.20
   0  -2   8  105.89    9.40
   0  -2   8  116.59    8.90
  -1   2  -8  137.29   11.40
  -1   2  -8  126.59    9.50
   1  -2   8  124.29   11.00
   1  -2   8  103.79    9.60
  -2   2  -8  181.88   15.50
  -2   2  -8  153.88   13.20
  -2   2  -8  154.48   12.80
   2  -2   8  199.28   15.40
   2  -2   8  175.28   13.40
  -3   2  -8  103.69    9.90
  -3   2  -8  100.19    8.00
  -3   2  -8  100.79    8.60
   3  -2   8  113.09   10.10
   3  -2   8  107.19    9.20
  -4   2  -8    3.00    2.40
  -4   2  -8    3.00    1.00
  -4   2  -8    1.60    2.20
   4  -2   8    4.80    2.70
  -5   2  -8   27.50    4.50
  -5   2  -8   23.30    4.00
  -5   2  -8   28.60    2.50
   5  -2   8   23.80    4.40
  -6   2  -8    0.10    0.80
  -6   2  -8    1.20    2.20
   6  -2   8    0.30    2.40
  -7   2  -8    1.90    0.80
  -7   2  -8    0.10    2.40
   7  -2   8    4.00    3.10
   7   1  -8   21.60    3.30
  -7  -1   8   16.80    1.90
  -7  -1   8   24.70    3.70
  -7  -1   8   17.00    2.60
   6   1  -8    0.50    1.90
  -6  -1   8    2.70    1.40
  -6  -1   8    2.20    1.80
  -6  -1   8    2.80    0.80
  -5  -1   8   67.39    5.90
  -5  -1   8   51.09    5.60
  -5  -1   8   65.49    4.90
   4   1  -8   17.60    3.10
  -4  -1   8   13.90    1.80
  -4  -1   8   15.80    2.20
  -4  -1   8   15.40    2.50
   3   1  -8  139.69   10.80
   3   1  -8  139.39   12.10
  -3  -1   8  127.39   11.20
  -3  -1   8  130.69    9.90
   2   1  -8   51.39    5.60
   2   1  -8   55.29    5.80
  -2  -1   8   65.99    5.20
  -2  -1   8   56.29    4.60
  -2  -1   8   50.69    5.50
   1   1  -8  463.25   31.60
   1   1  -8  407.76   37.40
  -1  -1   8  473.25   34.80
  -1  -1   8  398.96   31.20
   0   1  -8  173.58   14.60
   0  -1   8  156.98   14.20
   0  -1   8  165.28   13.30
   0  -1   8  157.58   12.20
   1  -1   8   93.99    8.00
   1  -1   8   96.69    8.70
  -2   1  -8    7.80    2.10
  -2   1  -8    6.60    1.20
  -2   1  -8    6.50    1.90
  -2   1  -8    7.30    1.50
   2  -1   8    4.60    1.90
  -3   1  -8  150.98   11.10
  -3   1  -8  145.89   11.40
  -3   1  -8  144.29   13.50
  -3   1  -8  146.69   13.30
   3  -1   8  165.88   11.70
  -4   1  -8    0.20    2.40
  -4   1  -8   -0.30    0.80
  -4   1  -8    0.30    1.70
  -4   1  -8    0.10    1.80
  -5   1  -8    1.00    1.60
  -5   1  -8    1.50    2.80
  -6   1  -8   -0.70    1.60
  -6   1  -8    6.30    2.00
  -6   1  -8    3.30    0.70
   6  -1   8    4.40    2.20
  -7   1  -8   25.40    3.60
   7  -1   8   34.50    5.30
   7   0  -8    3.50    2.40
  -7   0   8   -2.30    1.90
  -7   0   8    0.00    0.70
  -7   0   8   -1.70    2.50
   6   0  -8   29.00    4.40
  -6   0   8   28.40    3.90
  -6   0   8   32.20    2.60
  -6   0   8   23.10    4.00
   5   0  -8    4.80    1.70
  -5   0   8    4.10    1.60
  -5   0   8    5.20    0.90
   4   0  -8    5.90    1.70
  -4   0   8    3.80    0.90
  -4   0   8    6.60    1.70
  -4   0   8    4.30    1.50
   3   0  -8   24.00    3.50
   3   0  -8   21.60    2.90
  -3   0   8   22.20    2.20
  -3   0   8   18.20    3.00
  -3   0   8   19.70    3.30
   2   0  -8   84.99    7.70
   2   0  -8  100.69    8.90
  -2   0   8  104.79    7.20
  -2   0   8   83.59    8.00
   1   0  -8  658.73   51.89
   1   0  -8  776.02   62.19
  -1   0   8  745.53   57.89
  -1   0   8  734.93   51.89
   0   0  -8  190.38   14.10
   0   0   8  204.48   15.50
   0   0   8  178.18   14.00
  -1   0  -8  106.19   10.50
  -1   0  -8  118.39   10.10
   1   0   8  121.09    9.50
   1   0   8  110.09    9.00
  -2   0  -8    0.70    0.70
  -2   0  -8    2.40    1.20
  -2   0  -8    2.10    2.00
   2   0   8    1.10    1.30
   2   0   8    1.70    1.50
  -3   0  -8  339.97   24.40
  -3   0  -8  337.37   24.50
  -3   0  -8  322.97   29.10
  -3   0  -8  316.97   29.30
   3   0   8  385.26   27.30
  -4   0  -8    1.50    1.40
  -4   0  -8   -1.40    2.30
  -4   0  -8   -1.60    0.90
  -4   0  -8    0.60    1.70
   4   0   8    0.00    1.70
  -5   0  -8  379.56   27.10
  -5   0  -8  410.86   27.00
  -5   0  -8  348.07   32.50
  -5   0  -8  378.86   32.90
   5   0   8  368.76   30.30
  -6   0  -8   50.09    7.60
  -6   0  -8   48.30    5.50
  -6   0  -8   51.29    4.50
  -6   0  -8   55.69    3.90
   6   0   8   46.40    6.00
  -7   0  -8   66.79    7.10
  -7   0  -8   73.59    7.20
   7   0   8   65.29    7.70
   7  -1  -8   37.30    5.70
  -7   1   8   44.20    5.00
  -7   1   8   41.00    3.30
  -6   1   8   20.60    2.00
  -6   1   8   12.30    2.70
  -6   1   8   16.90    2.50
   5  -1  -8   26.00    3.60
  -5   1   8   19.70    2.80
  -5   1   8   27.00    2.40
   4  -1  -8    0.30    2.00
  -4   1   8    2.50    1.80
  -4   1   8    2.30    0.80
  -4   1   8    2.30    1.50
   3  -1  -8   20.40    3.20
   3  -1  -8   22.50    3.80
  -3   1   8   18.50    3.00
  -3   1   8   28.00    3.70
  -3   1   8   24.50    2.30
   2  -1  -8   37.30    4.40
   2  -1  -8   32.10    4.50
  -2   1   8   41.20    3.40
  -2   1   8   35.30    4.30
   1  -1  -8   10.10    2.00
   1  -1  -8   11.40    1.80
  -1   1   8    7.40    1.40
  -1   1   8   11.00    1.80
   0  -1  -8  219.58   17.90
   0  -1  -8  222.68   15.30
   0   1   8  184.38   16.90
  -1  -1  -8  472.25   31.40
  -1  -1  -8  455.85   37.20
   1   1   8  440.16   31.60
   1   1   8  389.26   35.00
  -2  -1  -8  130.99   11.90
  -2  -1  -8  142.29   11.60
  -2  -1  -8  130.39    9.70
   2   1   8  128.19   10.00
   2   1   8  127.89   10.90
  -3  -1  -8   22.70    3.70
  -3  -1  -8   21.10    3.10
  -3  -1  -8   24.00    3.10
  -3  -1  -8   23.40    2.20
   3   1   8   21.00    3.40
   3   1   8   22.10    3.60
  -4  -1  -8   13.30    2.60
  -4  -1  -8   14.80    1.80
  -4  -1  -8   11.20    2.30
  -4  -1  -8   10.20    1.70
   4   1   8   16.00    2.30
  -5  -1  -8    8.00    2.30
  -5  -1  -8    7.20    2.70
  -5  -1  -8    7.80    1.10
  -5  -1  -8    8.10    1.50
   5   1   8    7.70    2.20
  -6  -1  -8    4.70    3.20
  -6  -1  -8    6.30    1.70
   6   1   8    3.40    2.40
  -7  -1  -8    6.50    2.00
  -7  -1  -8    5.80    4.10
   7   1   8    3.30    2.80
  -8  -1  -8    1.90    2.20
  -8  -1  -8    0.90    2.30
   8   1   8    0.20    1.50
   6  -2  -8   21.00    4.00
  -6   2   8   17.00    3.20
  -6   2   8   20.40    3.70
  -6   2   8   18.90    2.10
   5  -2  -8    9.70    2.20
  -5   2   8    9.30    2.60
  -5   2   8   10.30    1.60
   4  -2  -8    6.30    2.40
  -4   2   8    7.50    1.40
  -4   2   8    5.70    2.00
  -4   2   8    9.00    2.60
   3  -2  -8  160.98   13.30
   3  -2  -8  158.48   15.30
  -3   2   8  185.28   14.40
  -3   2   8  177.78   12.60
   2  -2  -8   39.30    4.30
   2  -2  -8   31.80    4.50
  -2   2   8   35.30    4.20
  -2   2   8   40.50    3.50
   1  -2  -8    0.10    1.20
   1  -2  -8    1.90    1.50
  -1   2   8   -0.40    1.40
  -1   2   8    1.20    1.00
   0  -2  -8   -0.10    1.40
   0  -2  -8   -1.10    1.40
   0  -2  -8   -1.00    1.40
   0   2   8    0.10    1.20
  -1  -2  -8  131.69   12.70
  -1  -2  -8  165.38   12.60
   1   2   8  143.19   11.90
   1   2   8  137.69   10.80
  -2  -2  -8  389.56   30.70
  -2  -2  -8  496.05   30.70
  -2  -2  -8  425.26   36.40
   2   2   8  420.16   34.20
   2   2   8  412.26   30.70
  -3  -2  -8    8.40    1.70
  -3  -2  -8    7.40    1.50
  -3  -2  -8    7.20    1.00
   3   2   8    7.80    1.50
   3   2   8    7.00    1.80
  -4  -2  -8   64.39    5.30
  -4  -2  -8   66.39    6.90
  -4  -2  -8   70.39    5.70
   4   2   8   75.19    6.50
  -5  -2  -8    1.10    1.40
  -5  -2  -8    0.50    0.70
  -5  -2  -8   -0.90    1.90
   5   2   8    0.80    1.90
  -6  -2  -8   38.20    3.20
  -6  -2  -8   29.50    4.30
  -6  -2  -8   29.70    5.80
   6   2   8   31.60    5.50
  -7  -2  -8    7.90    4.00
  -8  -2  -8   30.50    4.60
   8   2   8   29.40    3.90
  -6   3   8   28.80    4.40
  -6   3   8   29.50    3.00
  -5   3   8    5.30    2.00
  -5   3   8    4.10    1.10
  -4   3   8   90.39    6.70
  -4   3   8   83.99    8.20
  -4   3   8   73.19    7.80
  -4   3   8   92.39    9.10
   3  -3  -8   53.39    6.60
  -3   3   8   57.99    4.90
  -3   3   8   69.29    6.60
  -3   3   8   50.09    5.90
  -2   3   8   26.40    3.90
  -2   3   8   22.70    2.90
  -2   3   8   16.00    2.60
  -2   3   8   20.50    3.40
   1  -3  -8   11.40    2.00
   1  -3  -8   11.00    2.30
   1  -3  -8   10.10    2.00
  -1   3   8    8.40    1.70
  -1   3   8    8.60    2.00
   0  -3  -8    0.70    1.60
   0  -3  -8    0.40    1.50
   0  -3  -8   -0.60    1.40
   0   3   8    0.50    1.30
   0   3   8   -0.50    1.30
  -1  -3  -8   33.10    3.70
   1   3   8   26.40    3.60
   1   3   8   26.40    3.70
  -2  -3  -8   79.49    7.70
  -2  -3  -8  109.99    7.20
  -2  -3  -8   95.39    8.50
   2   3   8   92.79    8.00
   2   3   8   87.79    7.60
  -3  -3  -8    3.20    0.90
  -3  -3  -8    2.70    1.20
  -3  -3  -8    1.50    1.50
   3   3   8    2.10    1.70
   3   3   8    1.80    1.30
  -4  -3  -8  325.37   23.60
  -4  -3  -8  296.37   28.30
  -4  -3  -8  330.57   23.70
   4   3   8  366.66   26.70
  -5  -3  -8   22.20    2.50
  -5  -3  -8   24.90    3.20
  -5  -3  -8   22.50    4.30
   5   3   8   23.30    3.80
  -6  -3  -8   43.40    3.50
  -6  -3  -8   49.60    4.20
  -6  -3  -8   40.40    4.90
   6   3   8   47.80    6.30
  -7  -3  -8   -3.40    1.90
   7   3   8    0.40    1.60
  -8  -3  -8    7.60    2.50
   8   3   8    6.20    2.00
  -5   4   8    3.10    1.10
  -5   4   8    1.80    1.90
  -5   4   8    5.40    1.80
   4  -4  -8    8.20    3.60
  -4   4   8   17.30    4.10
  -4   4   8   17.20    3.00
  -4   4   8   13.40    2.30
   3  -4  -8   18.00    3.60
  -3   4   8   23.80    3.00
  -3   4   8   23.20    4.20
  -3   4   8   32.30    5.70
   2  -4  -8    1.00    2.20
   2  -4  -8   -0.10    2.20
  -2   4   8   -1.50    2.40
  -2   4   8   -0.70    2.50
  -2   4   8   -1.00    1.90
  -2   4   8   -1.30    1.20
   1  -4  -8    0.60    2.00
   1  -4  -8    3.00    2.10
  -1   4   8    2.30    1.80
  -1   4   8    2.80    2.20
  -1   4   8    2.00    1.90
   0  -4  -8   38.20    4.40
   0  -4  -8   40.80    4.70
   0   4   8   42.00    4.50
   0   4   8   35.40    4.30
  -1  -4  -8   -0.80    1.40
  -1  -4  -8   -2.50    1.60
   1   4   8   -1.20    1.30
  -2  -4  -8   14.90    2.70
  -2  -4  -8   14.60    2.50
   2   4   8   16.50    2.40
   2   4   8   16.00    2.50
  -3  -4  -8  119.09   11.50
  -3  -4  -8  131.69    9.70
   3   4   8  126.39   10.40
   3   4   8  142.29   11.00
  -4  -4  -8   46.00    3.80
  -4  -4  -8   38.00    5.10
  -4  -4  -8   41.70    4.60
   4   4   8   48.90    4.70
  -5  -4  -8   48.10    4.80
  -5  -4  -8   45.70    5.70
  -5  -4  -8   46.80    4.20
   5   4   8   47.40    5.00
  -6  -4  -8    1.50    1.80
  -6  -4  -8    2.90    0.70
  -6  -4  -8    2.20    1.80
   6   4   8    0.60    1.50
  -7  -4  -8   10.40    2.60
  -7  -4  -8   17.40    2.20
   7   4   8   14.60    2.50
  -8  -4  -8   -1.30    2.40
   8   4   8    2.80    2.10
  -5   5   8    1.60    1.20
  -5   5   8    0.10    2.00
  -5   5   8    0.10    2.10
   4  -5  -8    6.20    3.90
  -4   5   8    9.40    2.00
  -4   5   8    4.40    1.20
   3  -5  -8   10.10    3.70
  -3   5   8   16.60    3.80
  -3   5   8   15.90    2.60
  -3   5   8   17.40    2.30
   2  -5  -8    1.40    2.60
   2  -5  -8    0.30    3.20
  -2   5   8    1.60    1.60
  -2   5   8    1.00    2.60
  -2   5   8    2.00    2.90
   1  -5  -8   18.60    3.20
   1  -5  -8   17.70    3.20
  -1   5   8   17.50    3.20
  -1   5   8   17.90    2.80
  -1   5   8   20.90    3.20
   0  -5  -8   32.10    4.60
   0  -5  -8   29.10    4.40
   0   5   8   32.00    4.80
   0   5   8   30.00    4.50
   0   5   8   32.60    4.30
  -1  -5  -8  114.99   10.90
  -1  -5  -8  118.79    9.50
   1   5   8  118.39   10.40
   1   5   8  134.49   10.30
  -2  -5  -8  190.98   16.90
   2   5   8  188.78   14.70
   2   5   8  199.88   16.10
  -3  -5  -8  199.38   18.40
  -3  -5  -8  209.98   15.40
  -3  -5  -8  194.78   15.80
   3   5   8  217.68   16.10
   3   5   8  230.88   17.60
  -4  -5  -8    0.70    2.10
  -4  -5  -8    1.00    2.20
  -4  -5  -8    1.90    1.00
   4   5   8   -1.10    1.60
  -5  -5  -8    2.20    2.20
  -5  -5  -8    4.60    1.70
  -5  -5  -8    1.80    1.00
   5   5   8    3.70    1.60
  -6  -5  -8   46.30    5.60
  -6  -5  -8   51.69    4.10
  -6  -5  -8   44.40    5.80
   6   5   8   50.99    5.10
  -7  -5  -8   50.69    6.60
  -7  -5  -8   63.99    6.30
  -7  -5  -8   61.09    4.60
   7   5   8   65.49    6.40
   4  -6  -8    5.90    2.10
  -4   6   8    5.60    1.40
  -4   6   8   -1.00    1.90
  -4   6   8    2.10    2.10
  -3   6   8   16.00    2.70
   2  -6  -8   12.10    3.60
  -2   6   8   17.80    3.90
  -2   6   8   12.30    1.90
   1  -6  -8   91.89    9.40
   1  -6  -8   91.59   10.00
  -1   6   8  106.89    9.80
  -1   6   8   93.39   10.00
  -1   6   8  101.69    8.70
   0  -6  -8    5.90    2.70
   0  -6  -8    7.00    2.60
   0   6   8    7.90    3.00
   0   6   8    4.50    2.50
   0   6   8    5.50    2.50
  -1  -6  -8   46.20    5.20
  -1  -6  -8   41.10    5.50
   1   6   8   40.10    6.00
   1   6   8   45.80    5.30
  -2  -6  -8  188.58   17.40
  -2  -6  -8  200.48   15.00
   2   6   8  209.78   16.60
   2   6   8  194.68   15.40
  -3  -6  -8    0.70    1.50
   3   6   8    0.20    3.00
   3   6   8    1.80    1.90
  -4  -6  -8   21.50    3.80
   4   6   8   31.90    3.90
  -5  -6  -8    0.00    1.00
  -5  -6  -8    2.90    1.70
   5   6   8    1.20    1.40
  -6  -6  -8    0.70    1.80
  -6  -6  -8   -1.60    1.00
   6   6   8    3.70    1.70
  -7  -6  -8    1.80    1.10
  -7  -6  -8    0.90    2.30
   7   6   8    5.60    1.90
  -3   7   8   15.10    2.10
  -3   7   8   12.10    2.40
  -3   7   8    9.40    2.50
   2  -7  -8   20.10    3.60
  -2   7   8   13.80    2.00
  -2   7   8   12.20    2.40
   1  -7  -8   19.10    4.70
   1  -7  -8   17.80    2.70
  -1   7   8   21.30    4.40
   0  -7  -8    1.40    3.00
   0  -7  -8    2.20    1.60
   0   7   8    2.20    3.00
   0   7   8    0.80    3.30
  -1  -7  -8   67.89    7.40
  -1  -7  -8   66.59    6.80
   1   7   8   79.09    8.20
  -2  -7  -8   43.70    4.80
  -2  -7  -8   42.10    5.70
   2   7   8   44.00    4.60
   2   7   8   43.60    5.60
  -3  -7  -8   95.89    9.30
   3   7   8  105.29    9.00
  -4  -7  -8  122.99   11.60
  -4  -7  -8  127.79    9.70
   4   7   8  130.29   11.20
  -5  -7  -8    2.60    2.00
  -5  -7  -8    5.60    1.30
   5   7   8    3.80    1.90
  -6  -7  -8   44.70    5.20
  -6  -7  -8   40.10    3.90
   6   7   8   40.00    5.00
   1  -8  -8   15.20    2.90
  -1   8   8   14.50    2.50
  -1   8   8   21.20    3.60
  -1   8   8   15.00    2.20
   0  -8  -8    3.40    2.00
   0   8   8    6.50    1.70
   0   8   8    4.80    4.80
   0   8   8    3.20    4.20
  -1  -8  -8   34.00    4.90
  -1  -8  -8   45.80    5.60
   1   8   8   43.30    6.00
   1   8   8   43.20    4.60
  -2  -8  -8    1.10    1.70
   2   8   8    2.00    1.60
   2   8   8   -1.20    4.10
  -3  -8  -8   -1.60    1.70
  -3  -8  -8   -0.50    1.40
   3   8   8   -2.10    1.60
  -4  -8  -8    4.20    1.30
   4   8   8    3.30    1.80
  -5  -8  -8   -0.40    2.00
  -5  -8  -8    2.90    1.20
   5   8   8   -1.10    2.00
   1   9   8    7.20    2.00
   1   9   8    6.60    5.60
  -2  -9  -8    0.90    2.00
  -2  -9  -8    1.00    1.90
   2   9   8    5.00    1.90
  -3  -9  -8    7.30    2.20
  -3  -9  -8   10.30    1.90
   3   9   8    7.40    2.00
   4   7  -9   16.70    3.80
  -4  -7   9   27.80    4.20
  -4  -7   9   21.10    3.00
   3   7  -9    1.30    2.70
  -3  -7   9    8.10    1.80
  -3  -7   9    7.10    2.40
   2   7  -9  110.49   11.90
  -2  -7   9  132.09   11.90
  -2  -7   9  120.89   13.30
  -2  -7   9  143.79   10.20
   1   7  -9   23.40    5.90
   1   7  -9   25.10    4.40
  -1  -7   9   21.80    5.30
  -1  -7   9   21.60    3.70
   0   7  -9   12.10    2.50
   0  -7   9   11.00    6.90
   0  -7   9    9.40    2.90
   1  -7   9    1.30    2.60
   5   6  -9   18.70    3.60
  -5  -6   9   14.90    2.50
   4   6  -9    4.10    2.70
  -4  -6   9    6.40    1.80
  -4  -6   9    6.30    4.90
   3   6  -9   64.99    8.10
  -3  -6   9   89.29    6.60
  -3  -6   9   79.89    7.10
  -3  -6   9   64.69   10.10
   2   6  -9   19.90    5.60
   2   6  -9   22.10    4.20
  -2  -6   9   21.10    6.20
  -2  -6   9   27.90    4.30
  -2  -6   9   20.40    4.10
   1   6  -9   -2.20    4.50
   1   6  -9    3.50    2.10
  -1  -6   9   -1.00    2.40
  -1  -6   9   -0.10    3.80
  -1  -6   9    0.00    3.30
   0   6  -9    2.00    4.10
   0   6  -9    4.20    2.10
   0  -6   9   -0.30    3.90
   0  -6   9   -1.60    2.20
  -1   6  -9    2.00    2.00
   1  -6   9   -3.90    2.10
  -2   6  -9    5.90    2.20
  -2   6  -9    0.60    1.70
   2  -6   9    2.60    2.30
  -3   6  -9    1.40    2.50
  -3   6  -9    3.80    1.80
   3  -6   9   -4.30    2.30
  -6  -5   9   43.50    4.00
  -6  -5   9   40.20    4.80
   5   5  -9    5.00    2.50
  -5  -5   9    0.60    1.10
  -5  -5   9    1.60    1.40
   4   5  -9    1.70    2.20
  -4  -5   9    4.30    1.10
  -4  -5   9    1.20    1.30
   3   5  -9   78.79    8.50
  -3  -5   9   94.99    8.80
   2   5  -9    2.90    3.70
  -2  -5   9    4.60    2.70
  -2  -5   9    6.00    4.50
  -2  -5   9    3.70    2.70
   1   5  -9  238.48   18.10
  -1  -5   9  211.28   20.80
  -1  -5   9  231.78   17.60
  -1  -5   9  228.28   19.00
   0   5  -9    7.90    2.00
   0   5  -9    9.30    3.70
   0  -5   9    8.10    3.40
   0  -5   9    8.10    3.80
  -1   5  -9  136.49   11.90
  -1   5  -9  142.89   11.30
   1  -5   9  110.59   11.80
   1  -5   9  131.19   11.90
   2  -5   9    0.40    1.80
  -3   5  -9    8.30    2.40
  -3   5  -9    7.50    1.60
  -4   5  -9   -0.20    2.40
  -4   5  -9    5.60    1.40
   4  -5   9    3.00    2.30
   6   4  -9   25.70    4.90
  -6  -4   9   17.50    3.10
   5   4  -9  170.08   15.10
  -5  -4   9  164.38   12.40
  -5  -4   9  165.08   14.00
   4   4  -9   23.30    4.00
  -4  -4   9   23.50    3.10
   3   4  -9   90.39   10.80
   3   4  -9   91.69   10.40
  -3  -4   9  121.99    9.80
  -3  -4   9  112.59    8.80
   2   4  -9    5.60    2.30
   2   4  -9    2.10    3.10
  -2  -4   9    3.40    3.80
  -2  -4   9    2.80    2.20
  -2  -4   9    2.60    2.20
   1   4  -9    0.90    2.90
   1   4  -9   -2.20    2.20
  -1  -4   9    3.70    3.20
  -1  -4   9    0.20    2.10
  -1  -4   9   -1.40    2.40
   0   4  -9   83.69    7.70
   0   4  -9   69.29    7.60
   0  -4   9   75.19    8.40
   0  -4   9   76.89    7.80
  -1   4  -9  223.78   18.60
  -1   4  -9  215.48   16.10
   1  -4   9  209.08   18.60
   1  -4   9  183.88   16.40
  -2   4  -9  113.49    9.60
   2  -4   9  112.69   10.90
  -3   4  -9  172.78   15.70
  -3   4  -9  171.98   13.20
   3  -4   9  181.18   15.70
  -4   4  -9    1.30    2.20
  -4   4  -9    0.50    1.00
   4  -4   9    2.80    2.10
   5  -4   9   15.40    3.10
   6   3  -9   26.20    4.40
  -6  -3   9   15.00    2.20
  -6  -3   9   18.30    3.00
   5   3  -9   13.90    2.90
  -5  -3   9   15.10    2.00
  -5  -3   9   16.30    2.40
   3   3  -9  134.69   12.20
   3   3  -9  135.69   12.80
  -3  -3   9  159.38   11.90
  -3  -3   9  137.19   10.70
  -3  -3   9  126.99   11.80
   2   3  -9   12.80    3.20
   2   3  -9    7.60    2.30
  -2  -3   9   10.30    2.00
  -2  -3   9   11.40    2.10
   1   3  -9  222.88   16.50
   1   3  -9  200.88   19.00
  -1  -3   9  208.98   19.00
  -1  -3   9  240.28   16.30
  -1  -3   9  206.88   17.60
   0   3  -9   -1.90    2.90
   0   3  -9   -2.10    1.90
   0  -3   9   -0.10    2.10
   0  -3   9    0.60    2.50
   0  -3   9    0.80    1.80
  -1   3  -9  192.08   15.60
  -1   3  -9  218.28   18.60
   1  -3   9  211.68   18.30
  -2   3  -9   -0.50    1.50
  -2   3  -9    0.50    2.40
   2  -3   9    0.90    2.90
   2  -3   9    2.80    2.00
  -3   3  -9  116.09    9.40
  -3   3  -9  127.19   11.60
   3  -3   9  122.19   11.50
  -4   3  -9  172.98   15.50
  -4   3  -9  181.58   12.80
   4  -3   9  159.78   15.30
  -5   3  -9   36.90    4.90
  -5   3  -9   30.40    3.30
   5  -3   9   43.90    4.90
  -6   3  -9   65.89    5.30
  -6   3  -9   57.79    7.70
   6  -3   9   72.99    7.40
   7   2  -9   -4.40    3.00
  -7  -2   9    1.70    1.70
  -7  -2   9   -0.50    0.90
   6   2  -9    4.80    2.40
  -6  -2   9   10.10    2.00
  -6  -2   9    8.50    1.20
   5   2  -9    0.30    1.90
  -5  -2   9    2.60    0.80
  -5  -2   9    3.00    2.40
  -5  -2   9    3.60    1.40
   4   2  -9   21.50    3.10
  -4  -2   9   17.40    3.00
  -4  -2   9   19.70    2.40
  -4  -2   9   18.90    3.00
   3   2  -9   45.60    6.30
   3   2  -9   39.60    5.10
  -3  -2   9   54.09    4.70
  -3  -2   9   42.40    5.40
  -3  -2   9   45.60    4.10
   2   2  -9   53.29    6.30
   2   2  -9   57.39    6.20
  -2  -2   9   68.19    5.70
  -2  -2   9   63.99    5.40
   1   2  -9    7.20    2.20
   1   2  -9    7.30    2.20
  -1  -2   9    6.10    1.70
  -1  -2   9    6.00    1.60
   0   2  -9    6.40    2.30
   0   2  -9    3.90    1.80
   0  -2   9    3.80    2.10
   0  -2   9    2.90    1.80
   0  -2   9    5.00    1.60
  -1   2  -9    3.20    2.20
  -1   2  -9    2.80    1.60
   1  -2   9    3.40    1.90
   1  -2   9    5.40    1.80
   1  -2   9    6.40    1.90
  -2   2  -9    1.00    2.10
  -2   2  -9    1.50    1.20
  -2   2  -9    0.00    2.60
   2  -2   9   -0.30    2.50
   2  -2   9    1.30    1.90
  -3   2  -9   -1.30    1.90
  -3   2  -9   -1.20    2.20
  -3   2  -9   -0.60    0.90
   3  -2   9    2.00    2.20
   3  -2   9   -1.00    2.80
  -4   2  -9   13.20    3.10
  -4   2  -9   10.30    2.70
  -5   2  -9   -0.60    2.50
  -5   2  -9    2.30    1.80
  -5   2  -9   -0.40    0.80
   5  -2   9   -3.00    2.00
  -6   2  -9    5.70    2.50
  -6   2  -9    2.30    2.40
   6  -2   9    7.40    2.70
  -7   2  -9    3.80    0.90
  -7   2  -9    5.00    1.10
   7  -2   9    9.90    3.20
   7   1  -9    1.10    2.80
  -7  -1   9    0.00    0.80
  -7  -1   9    1.70    1.90
  -7  -1   9   -0.80    2.10
   6   1  -9   20.90    4.20
  -6  -1   9   20.70    2.10
  -6  -1   9   25.20    3.30
  -6  -1   9   13.50    2.60
   5   1  -9    3.50    2.00
  -5  -1   9    6.80    1.00
  -5  -1   9    5.90    1.50
  -5  -1   9    4.90    2.10
   4   1  -9   45.60    5.30
  -4  -1   9   46.10    5.30
  -4  -1   9   48.50    3.90
  -4  -1   9   42.60    5.10
   3   1  -9   12.70    2.90
   3   1  -9   10.70    2.10
  -3  -1   9   11.50    1.60
  -3  -1   9    9.40    1.70
   2   1  -9   48.50    5.20
   2   1  -9   42.50    5.30
  -2  -1   9   47.70    4.40
  -2  -1   9   43.90    4.00
  -2  -1   9   37.10    5.20
   1   1  -9   39.40    4.90
   1   1  -9   31.60    4.50
  -1  -1   9   43.90    3.90
  -1  -1   9   34.30    3.80
   0   1  -9   14.30    2.60
   0   1  -9   13.20    2.10
   0  -1   9   15.90    2.70
   0  -1   9   12.00    2.00
   0  -1   9   17.80    3.30
  -1   1  -9   18.10    2.90
  -1   1  -9   21.10    2.80
   1  -1   9   20.40    2.80
   1  -1   9   23.00    3.60
   1  -1   9   17.10    3.00
  -2   1  -9   18.70    2.40
  -2   1  -9   21.00    3.00
  -2   1  -9   20.60    3.10
  -2   1  -9   18.80    2.70
   2  -1   9   22.30    2.90
  -3   1  -9   12.90    2.70
  -3   1  -9   12.20    2.30
  -3   1  -9   12.40    1.90
  -3   1  -9   13.70    2.60
   3  -1   9   14.10    2.50
  -4   1  -9   -0.60    0.80
  -4   1  -9    1.40    1.50
  -4   1  -9   -0.20    1.80
  -4   1  -9    0.70    2.70
  -5   1  -9    6.50    2.10
  -5   1  -9   10.20    1.60
  -5   1  -9    6.20    3.40
  -6   1  -9    5.30    0.90
  -6   1  -9    5.70    2.00
  -6   1  -9    7.60    2.20
   6  -1   9    6.50    2.40
  -7   1  -9    2.80    2.20
   7  -1   9    1.30    2.70
   7   0  -9   18.10    3.30
  -7   0   9   13.40    2.90
  -7   0   9   16.90    2.00
  -7   0   9   15.70    2.60
   6   0  -9   22.20    4.00
  -6   0   9   26.20    3.60
  -6   0   9   16.20    2.80
  -6   0   9   25.30    2.20
   5   0  -9   -0.20    1.50
  -5   0   9    0.00    1.40
  -5   0   9    0.20    1.70
   4   0  -9   88.99    8.60
  -4   0   9   76.89    7.20
  -4   0   9   96.09    6.90
  -4   0   9   91.99    8.20
   3   0  -9   15.00    3.10
   3   0  -9   12.60    2.70
  -3   0   9   13.40    2.40
  -3   0   9   12.20    2.00
   2   0  -9   18.60    2.50
   2   0  -9   19.40    3.70
  -2   0   9   21.00    2.50
  -2   0   9   19.00    2.70
  -2   0   9   14.70    2.40
   1   0  -9   78.29    7.80
   1   0  -9   78.29    6.90
  -1   0   9   90.69    6.60
  -1   0   9   81.79    7.10
   0   0  -9  231.78   19.10
   0   0  -9  225.38   16.30
   0   0   9  213.78   18.00
   0   0   9  218.68   16.50
  -1   0  -9  224.78   17.80
  -1   0  -9  180.08   18.10
  -1   0  -9  220.18   15.10
   1   0   9  192.48   15.30
   1   0   9  213.88   16.70
  -2   0  -9  282.27   21.50
  -2   0  -9  294.77   25.90
  -2   0  -9  285.07   21.60
  -2   0  -9  307.27   25.50
   2   0   9  321.77   21.80
  -3   0  -9   23.60    3.50
  -3   0  -9   25.60    3.30
  -3   0  -9   27.00    2.50
  -3   0  -9   24.60    3.60
   3   0   9   29.00    4.70
   3   0   9   29.50    3.70
  -4   0  -9   -0.30    0.80
  -4   0  -9   -1.10    1.40
  -4   0  -9    0.30    1.60
  -4   0  -9   -0.90    2.40
   4   0   9   -0.90    1.70
  -5   0  -9   21.20    3.60
  -5   0  -9   15.30    2.20
  -5   0  -9   18.90    2.40
   5   0   9   17.00    2.80
  -6   0  -9   17.90    4.40
  -6   0  -9   15.70    2.10
  -6   0  -9   16.10    3.30
   6   0   9   14.80    3.10
  -7   0  -9   10.00    2.30
  -7   0  -9   12.70    2.60
   6  -1  -9   46.90    6.40
  -6   1   9   61.59    5.90
  -6   1   9   51.79    6.10
  -6   1   9   64.59    4.60
   5  -1  -9   29.80    4.30
  -5   1   9   34.00    2.90
  -5   1   9   27.10    4.30
  -5   1   9   35.90    3.90
   4  -1  -9    0.00    2.20
  -4   1   9   -0.40    1.60
  -4   1   9    0.60    1.80
  -4   1   9   -0.10    0.90
   3  -1  -9   -0.30    1.80
   3  -1  -9    2.50    2.70
  -3   1   9    0.80    1.50
  -3   1   9    2.50    1.90
  -3   1   9    0.50    0.90
   2  -1  -9  130.49   10.90
   2  -1  -9  113.39    9.60
  -2   1   9  114.59    9.00
  -2   1   9  115.69   10.30
   1  -1  -9   -0.10    1.60
   1  -1  -9    0.20    1.50
  -1   1   9    0.00    1.10
   0  -1  -9   27.90    3.40
   0  -1  -9   19.40    3.50
   0  -1  -9   33.30    3.50
   0   1   9   25.50    3.10
   0   1   9   25.60    3.20
  -1  -1  -9  373.06   28.90
   1   1   9  305.07   27.10
  -2  -1  -9  154.58   13.00
  -2  -1  -9  146.09   10.90
  -2  -1  -9  145.19   13.30
  -2  -1  -9  138.59   11.30
   2   1   9  158.68   12.30
   2   1   9  148.19   11.20
  -3  -1  -9  132.79   10.00
  -3  -1  -9  131.49   12.00
  -3  -1  -9  125.19   12.30
  -3  -1  -9  144.59   10.30
   3   1   9  138.09   10.50
   3   1   9  141.89   11.40
  -4  -1  -9  267.97   24.80
  -4  -1  -9  299.17   20.70
  -4  -1  -9  275.17   20.80
  -4  -1  -9  303.27   25.10
   4   1   9  293.77   23.30
  -5  -1  -9   49.30    4.50
  -5  -1  -9   47.20    6.70
  -5  -1  -9   41.90    5.80
  -5  -1  -9   51.99    4.00
   5   1   9   49.80    5.70
  -6  -1  -9   34.40    2.70
  -6  -1  -9   33.20    4.20
  -6  -1  -9   35.50    3.70
  -6  -1  -9   32.40    6.30
   6   1   9   28.40    5.30
  -7  -1  -9   -1.80    3.90
  -7  -1  -9    3.80    1.80
   7   1   9   -2.70    2.90
  -8  -1  -9    2.90    2.40
  -8  -1  -9    4.30    2.20
   6  -2  -9    8.10    2.50
  -6   2   9   13.20    2.40
  -6   2   9   13.10    1.80
   5  -2  -9   27.10    4.00
  -5   2   9   27.50    2.70
  -4   2   9   16.30    2.60
  -4   2   9   27.70    4.50
   3  -2  -9   92.99    8.70
   3  -2  -9   87.59    8.90
  -3   2   9   91.39    7.30
  -3   2   9  104.99    8.70
   2  -2  -9   67.19    7.00
   2  -2  -9   77.89    7.50
  -2   2   9   77.19    6.20
  -2   2   9   83.29    7.20
   1  -2  -9   25.60    3.60
   1  -2  -9   23.90    2.90
  -1   2   9   25.20    3.10
  -1   2   9   24.90    3.70
   0  -2  -9  278.17   21.10
   0  -2  -9  221.98   21.40
   0  -2  -9  257.87   18.00
   0   2   9  239.88   20.00
   0   2   9  232.58   18.00
  -1  -2  -9    7.20    1.60
  -1  -2  -9    9.70    1.80
  -1  -2  -9    9.20    1.90
   1   2   9    6.70    1.50
  -2  -2  -9   70.39    7.00
  -2  -2  -9   70.49    6.40
  -2  -2  -9   86.79    5.90
   2   2   9   76.29    6.70
   2   2   9   76.89    6.40
  -3  -2  -9   31.40    3.70
  -3  -2  -9   29.30    3.60
  -3  -2  -9   33.80    2.80
   3   2   9   32.30    4.30
   3   2   9   32.90    3.70
  -4  -2  -9    4.40    1.50
  -4  -2  -9    2.50    0.80
  -4  -2  -9    3.00    1.50
   4   2   9    2.10    1.80
  -5  -2  -9   55.49    5.00
  -5  -2  -9   52.79    4.40
  -5  -2  -9   51.79    6.30
   5   2   9   57.09    6.10
  -6  -2  -9    8.30    1.60
  -6  -2  -9    5.00    3.20
  -6  -2  -9    8.90    1.90
  -6  -2  -9    9.60    1.20
   6   2   9    6.20    2.70
  -7  -2  -9   42.80    5.20
  -7  -2  -9   43.10    7.30
  -8  -2  -9    2.50    2.10
   8   2   9    0.20    1.60
   6  -3  -9   -0.30    2.30
  -6   3   9   -0.80    2.00
  -6   3   9   -1.30    1.00
   5  -3  -9   43.70    6.00
  -5   3   9   63.49    5.60
  -5   3   9   52.29    4.50
   4  -3  -9   23.20    3.70
  -4   3   9   25.30    2.80
   3  -3  -9  128.39   12.50
  -3   3   9  127.39   10.20
  -3   3   9  150.58   12.10
   2  -3  -9    7.30    2.70
   2  -3  -9    3.80    1.90
  -2   3   9    4.80    1.50
  -2   3   9    4.10    2.10
  -2   3   9    6.30    2.00
   1  -3  -9    7.00    2.00
   1  -3  -9    6.20    2.10
   1  -3  -9    5.60    1.80
  -1   3   9    7.30    1.70
  -1   3   9    8.60    2.00
   0  -3  -9    0.60    1.70
   0  -3  -9    0.10    1.60
   0  -3  -9    0.50    2.00
   0   3   9    0.30    1.60
   0   3   9    0.00    1.50
  -1  -3  -9   74.89    5.80
  -1  -3  -9   77.69    6.80
   1   3   9   63.49    6.30
   1   3   9   60.49    6.10
  -2  -3  -9   17.70    2.70
  -2  -3  -9   16.40    2.50
  -2  -3  -9   20.70    2.50
   2   3   9   17.20    2.60
   2   3   9   23.20    2.80
  -3  -3  -9   13.10    1.90
  -3  -3  -9   11.30    1.90
   3   3   9   12.90    2.50
   3   3   9   14.20    2.10
  -4  -3  -9   -1.60    1.40
  -4  -3  -9   -0.50    1.80
   4   3   9    1.50    1.50
  -5  -3  -9    1.10    1.50
  -5  -3  -9    1.60    2.30
  -5  -3  -9    0.80    0.90
   5   3   9    2.20    2.00
  -6  -3  -9   10.00    1.30
  -6  -3  -9   10.40    2.10
  -6  -3  -9   13.00    2.00
   6   3   9   12.70    3.10
  -7  -3  -9    2.80    1.80
   7   3   9    3.60    1.50
  -8  -3  -9   -1.10    2.30
   8   3   9    0.90    1.80
  -5   4   9   -1.80    1.20
  -5   4   9   -0.50    1.90
  -5   4   9    1.40    2.10
  -4   4   9   -0.90    1.10
  -4   4   9    1.90    1.80
  -3   4   9   38.00    6.50
   2  -4  -9    4.00    2.40
   2  -4  -9    3.90    3.00
  -2   4   9    4.40    1.60
  -2   4   9    1.80    2.50
  -2   4   9    7.60    2.80
   1  -4  -9   44.50    5.40
   1  -4  -9   36.90    5.40
  -1   4   9   50.09    5.10
  -1   4   9   43.70    4.80
   0  -4  -9    2.40    1.80
   0  -4  -9   -0.30    1.60
   0  -4  -9    0.90    1.80
   0   4   9    0.40    1.30
   0   4   9   -0.90    1.70
  -1  -4  -9   28.10    3.50
  -1  -4  -9   21.40    3.50
   1   4   9   17.60    2.60
   1   4   9   23.30    3.50
  -2  -4  -9   13.80    2.20
  -2  -4  -9   11.60    1.80
   2   4   9   11.30    2.00
   2   4   9   11.10    2.50
  -3  -4  -9   60.79    6.50
  -3  -4  -9   61.89    6.10
  -3  -4  -9   72.99    5.60
   3   4   9   76.99    6.40
   3   4   9   67.39    6.60
  -4  -4  -9   11.20    2.10
  -4  -4  -9    7.00    1.40
  -4  -4  -9   10.90    2.10
   4   4   9   10.10    3.20
   4   4   9   11.40    2.10
  -5  -4  -9   74.29    6.70
   5   4   9   78.29    7.40
  -6  -4  -9   18.80    2.60
  -6  -4  -9   16.40    1.90
  -6  -4  -9   14.90    2.80
   6   4   9   19.50    3.30
  -7  -4  -9    6.40    1.90
  -7  -4  -9    3.50    2.00
   7   4   9    4.30    1.70
  -8  -4  -9   17.30    3.50
   8   4   9   27.20    4.00
   4  -5  -9    2.20    3.70
  -4   5   9   18.40    2.60
  -4   5   9   18.20    3.40
  -4   5   9   10.90    2.30
  -3   5   9    9.40    1.90
  -3   5   9    6.70    1.40
   2  -5  -9   44.20    6.80
   2  -5  -9   57.09    7.30
  -2   5   9   65.69    7.50
  -2   5   9   55.19    5.60
  -2   5   9   49.20    6.60
   1  -5  -9   22.10    3.40
   1  -5  -9   19.70    3.40
  -1   5   9   18.80    2.90
  -1   5   9   20.30    3.60
  -1   5   9   27.40    4.90
   0  -5  -9   -0.70    2.00
   0  -5  -9    0.20    2.10
   0   5   9    0.20    1.70
  -1  -5  -9   55.39    5.50
  -1  -5  -9   52.69    5.70
   1   5   9   51.09    5.30
   1   5   9   52.49    5.80
  -2  -5  -9  232.98   16.10
  -2  -5  -9  200.18   18.90
   2   5   9  209.58   16.40
   2   5   9  224.98   18.00
  -3  -5  -9    5.40    1.50
  -3  -5  -9    6.20    2.70
  -3  -5  -9   11.30    2.10
   3   5   9    9.60    2.80
   3   5   9    7.80    2.30
  -4  -5  -9    1.40    2.10
  -4  -5  -9    0.00    1.70
  -4  -5  -9    0.80    1.00
   4   5   9    0.90    1.50
  -5  -5  -9   18.80    3.20
  -5  -5  -9   19.00    2.90
  -5  -5  -9   21.80    2.30
   5   5   9   14.80    2.70
  -6  -5  -9   63.89    7.40
  -6  -5  -9   78.09    5.70
  -6  -5  -9   78.19    7.20
   6   5   9   71.29    7.00
  -7  -5  -9    9.60    2.60
  -7  -5  -9    8.30    1.10
  -7  -5  -9    5.40    2.40
   7   5   9   10.70    2.00
  -4   6   9    6.80    2.20
  -4   6   9    3.10    1.40
  -3   6   9    9.20    2.00
  -3   6   9   11.00    2.20
  -3   6   9   10.70    1.80
   2  -6  -9    6.30    3.40
  -2   6   9    7.60    1.40
   1  -6  -9   87.99    8.80
   1  -6  -9   74.29    9.10
  -1   6   9   97.49    9.20
  -1   6   9   81.59    9.20
   0  -6  -9   94.29    8.90
   0  -6  -9   86.29    9.70
   0   6   9  103.99    9.40
   0   6   9   96.09   10.00
   0   6   9  108.49    9.00
  -1  -6  -9   43.40    5.60
  -1  -6  -9   44.70    5.70
   1   6   9   51.69    7.40
   1   6   9   46.60    5.40
  -2  -6  -9   44.50    5.50
  -2  -6  -9   52.49    5.40
   2   6   9   49.99    6.50
   2   6   9   51.19    5.30
  -3  -6  -9    5.40    1.90
   3   6   9    5.20    3.20
  -4  -6  -9   76.79    8.10
   4   6   9   92.79    7.80
  -5  -6  -9   15.00    2.30
  -5  -6  -9   20.10    3.40
   5   6   9   20.40    3.50
  -6  -6  -9   14.10    2.70
  -6  -6  -9   21.90    2.40
   6   6   9   15.80    2.60
  -7  -6  -9    3.80    1.10
  -7  -6  -9    1.70    2.40
   7   6   9    3.20    2.10
   3  -7  -9   10.10    2.40
  -3   7   9   15.50    2.60
  -3   7   9   14.50    2.50
   2  -7  -9    3.00    1.80
  -2   7   9   -2.50    1.40
  -2   7   9   -1.90    1.80
   1  -7  -9    3.50    1.70
  -1   7   9    4.80    1.70
  -1   7   9   -0.10    3.90
  -1   7   9    2.30    1.60
   0  -7  -9    0.00    1.60
   0  -7  -9    0.70    3.40
   0   7   9    2.40    1.40
   0   7   9    2.50    3.50
   0   7   9   -0.30    3.10
  -1  -7  -9    0.40    1.50
  -1  -7  -9    0.90    2.80
   1   7   9    1.60    3.20
   1   7   9    2.50    1.40
  -2  -7  -9   53.29    5.60
  -2  -7  -9   52.59    6.20
   2   7   9   54.09    5.30
   2   7   9   57.29    7.70
   3   7   9   15.10    2.50
  -4  -7  -9   20.40    3.10
  -4  -7  -9   20.00    2.70
   4   7   9   19.50    3.60
  -5  -7  -9   32.20    3.70
  -5  -7  -9   38.60    4.80
   5   7   9   42.80    4.80
  -6  -7  -9   12.00    2.40
  -6  -7  -9    6.30    1.50
   6   7   9    8.30    2.20
   1  -8  -9    3.50    2.00
  -1   8   9    1.50    2.20
  -1   8   9   -1.50    1.80
  -1   8   9    5.20    1.90
   0  -8  -9    3.30    1.90
   0  -8  -9   -2.00    4.00
   0   8   9   -1.20    1.70
  -1  -8  -9   13.20    2.40
  -1  -8  -9   15.70    3.90
   1   8   9   19.10    3.20
   1   8   9   13.80    4.40
  -2  -8  -9    7.20    1.90
   2   8   9    4.10    4.60
   2   8   9    8.80    1.80
  -3  -8  -9    4.30    1.80
  -3  -8  -9    3.70    1.40
   3   8   9    6.30    1.70
  -4  -8  -9   30.50    4.20
  -4  -8  -9   26.50    3.30
   4   8   9   28.90    4.20
  -5  -8  -9   29.20    3.40
  -5  -8  -9   24.70    3.80
   5   8   9   35.70    4.60
  -2  -9  -9    1.80    1.60
  -2  -9  -9    4.90    2.20
   2   9   9    4.70    1.90
  -3  -9  -9    5.60    2.10
  -3  -9  -9    8.20    1.80
   3   9   9    1.40    1.90
  -3  -7  10   16.20    2.90
  -3  -7  10    9.50    2.40
  -2  -7  10   55.19    5.20
  -2  -7  10   42.20    6.00
   1   7 -10   80.19   11.80
   1   7 -10   62.29    6.90
  -1  -7  10   59.39    7.50
   0   7 -10   11.10    2.70
   0   7 -10    5.50    2.50
   0  -7  10   13.40    3.00
   4   6 -10    3.10    3.00
  -4  -6  10   -1.40    1.90
  -4  -6  10    5.50    1.50
   3   6 -10   20.50    3.70
  -3  -6  10   23.00    3.60
  -3  -6  10   19.10    5.70
  -3  -6  10   26.70    3.40
   2   6 -10    5.00    2.20
   2   6 -10   -1.70    5.40
  -2  -6  10   -1.80    3.60
   1   6 -10  117.69   12.00
   1   6 -10   99.39   10.20
  -1  -6  10  106.89   10.70
  -1  -6  10  105.29   10.30
  -1  -6  10  119.59   11.60
   0   6 -10    8.60    2.40
   0   6 -10    7.60    4.80
   0  -6  10    8.80    4.70
   0  -6  10    5.50    2.50
  -1   6 -10   14.00    2.30
   1  -6  10   15.60    3.00
  -2   6 -10   -1.20    2.20
  -2   6 -10    1.60    1.70
   2  -6  10    0.20    2.30
  -3   6 -10    4.80    2.60
  -3   6 -10   10.30    2.00
   3  -6  10    5.90    2.60
   5   5 -10   10.20    2.80
  -5  -5  10    4.30    1.20
  -5  -5  10    4.40    1.60
   4   5 -10   18.00    3.40
  -4  -5  10   28.30    3.20
  -4  -5  10   21.30    2.90
  -3  -5  10   19.40    2.90
  -3  -5  10   15.50    2.60
   2   5 -10    4.10    2.30
   2   5 -10    2.80    3.70
  -2  -5  10    4.10    2.80
  -2  -5  10    3.70    2.90
  -2  -5  10   -0.90    4.70
   1   5 -10    8.20    2.10
   1   5 -10    4.20    3.30
  -1  -5  10    5.30    3.60
  -1  -5  10    4.70    4.60
  -1  -5  10    6.00    3.10
   0   5 -10   22.00    4.20
   0   5 -10   23.50    3.80
   0  -5  10   23.60    5.00
  -1   5 -10   23.60    3.60
  -1   5 -10   21.00    4.00
   1  -5  10   20.50    4.90
   1  -5  10   16.30    2.90
  -2   5 -10   13.50    2.00
   2  -5  10   12.10    2.40
  -3   5 -10   -3.00    1.30
  -3   5 -10   -2.10    2.00
   3  -5  10    5.20    2.20
  -4   5 -10    4.60    2.50
  -4   5 -10    3.40    1.50
   4  -5  10    9.10    2.70
   6   4 -10   59.99    7.10
  -6  -4  10   61.19    5.00
  -6  -4  10   56.89    5.90
   5   4 -10   34.30    4.80
  -5  -4  10   22.40    2.90
  -5  -4  10   30.30    3.60
   4   4 -10  221.48   20.20
  -4  -4  10  246.48   18.80
  -4  -4  10  218.08   16.80
   3   4 -10   66.79    7.30
  -3  -4  10   77.19    7.80
  -3  -4  10   77.19    7.00
   2   4 -10  345.27   28.80
  -2  -4  10  375.86   31.40
  -2  -4  10  432.26   28.50
  -2  -4  10  394.46   33.70
   1   4 -10    1.30    2.40
   1   4 -10   -0.80    3.20
  -1  -4  10    0.00    2.50
  -1  -4  10    3.00    3.60
  -1  -4  10    1.10    2.60
   0   4 -10  173.08   12.60
   0   4 -10  151.18   13.70
   0  -4  10  151.18   12.60
   0  -4  10  129.19   12.70
   0  -4  10  147.19   14.20
  -1   4 -10   43.50    6.10
   1  -4  10   33.60    4.90
   1  -4  10   48.80    6.50
  -2   4 -10   26.90    3.90
  -2   4 -10   31.40    4.00
   2  -4  10   28.50    4.80
  -3   4 -10  160.08   11.50
  -3   4 -10  138.09   13.70
   3  -4  10  152.28   13.60
  -4   4 -10   24.00    4.40
  -4   4 -10   15.00    2.60
   4  -4  10   29.10    4.20
  -5   4 -10   13.30    2.70
  -5   4 -10    8.60    1.60
   5  -4  10   10.40    2.80
  -6  -3  10   15.70    2.40
  -6  -3  10   26.20    3.30
   5   3 -10   -3.90    2.20
  -5  -3  10    0.60    1.40
  -5  -3  10    1.00    0.90
   4   3 -10   18.30    4.00
  -4  -3  10   28.80    3.10
  -4  -3  10   22.50    2.60
   3   3 -10    6.40    2.50
   3   3 -10    6.80    3.90
  -3  -3  10    4.70    1.80
  -3  -3  10    2.70    1.40
   2   3 -10  365.06   28.40
   2   3 -10  340.87   33.30
  -2  -3  10  402.46   31.00
  -2  -3  10  432.26   28.10
   1   3 -10    6.70    2.10
   1   3 -10    4.30    3.70
  -1  -3  10    5.80    2.20
  -1  -3  10    9.80    3.20
  -1  -3  10    6.60    2.20
   0   3 -10  933.81   76.69
   0  -3  10  812.32   71.09
   0  -3  10  880.31   75.89
   0  -3  10  962.10   64.19
  -1   3 -10   77.19    7.70
  -1   3 -10   63.89    6.60
   1  -3  10   72.59    7.60
   1  -3  10   58.29    7.60
  -2   3 -10  278.57   22.40
  -2   3 -10  230.68   18.70
   2  -3  10  256.07   19.50
   2  -3  10  245.48   22.10
  -3   3 -10    0.20    1.40
  -4   3 -10    6.60    1.40
  -4   3 -10    6.40    2.40
   4  -3  10   10.10    2.10
  -5   3 -10  107.49    8.80
  -5   3 -10  122.79   11.20
   5  -3  10  119.39   11.00
  -6   3 -10   23.40    2.50
  -6   3 -10   16.10    3.70
   6   2 -10   -0.30    2.50
  -6  -2  10    0.90    0.80
  -6  -2  10    2.60    1.70
   5   2 -10    9.40    2.20
  -5  -2  10    9.40    1.60
  -5  -2  10    9.60    1.80
  -4  -2  10   17.20    2.80
   3   2 -10    7.50    2.40
   3   2 -10    6.50    2.70
  -3  -2  10    8.20    3.00
  -3  -2  10    9.70    1.70
  -3  -2  10    8.40    1.70
   2   2 -10    2.80    2.80
   2   2 -10   -1.10    1.70
  -2  -2  10    1.50    1.40
  -2  -2  10    1.00    1.40
   1   2 -10  158.68   13.50
   1   2 -10  140.19   11.60
  -1  -2  10  137.89   11.40
  -1  -2  10  150.98   12.30
   0   2 -10    0.90    2.20
   0   2 -10   -0.70    1.50
   0  -2  10    1.20    1.60
   0  -2  10    0.90    1.60
   0  -2  10    1.00    2.20
  -1   2 -10  390.26   26.20
   1  -2  10  332.87   26.30
   1  -2  10  338.77   28.80
   1  -2  10  377.16   30.80
  -2   2 -10    2.80    1.40
  -2   2 -10    3.20    2.30
  -2   2 -10    1.80    2.80
   2  -2  10    1.60    2.20
   2  -2  10    3.70    2.80
  -3   2 -10  108.29    8.80
  -3   2 -10  115.59   10.90
   3  -2  10  129.39   10.80
   3  -2  10  111.69   10.90
  -4   2 -10    1.60    0.90
  -4   2 -10    1.70    2.70
   4  -2  10   -2.00    1.90
  -5   2 -10    3.00    1.00
  -5   2 -10    3.60    2.90
  -5   2 -10    6.50    2.10
   5  -2  10    1.10    2.30
  -6   2 -10   17.00    2.20
  -6   2 -10   15.20    3.30
  -6   2 -10   22.30    3.50
   6  -2  10   26.30    4.60
  -6  -1  10    4.30    1.50
   5   1 -10    6.00    2.20
  -5  -1  10    9.00    1.80
  -5  -1  10    7.20    1.10
  -4  -1  10   24.30    3.20
   3   1 -10    7.50    2.20
   3   1 -10   10.20    3.10
  -3  -1  10    9.10    1.50
  -3  -1  10   10.00    1.70
   2   1 -10    7.50    2.50
   2   1 -10    8.50    2.50
  -2  -1  10    8.40    1.70
  -2  -1  10    5.80    1.50
   1   1 -10   16.10    2.80
   1   1 -10   10.90    2.50
  -1  -1  10   16.30    2.30
  -1  -1  10   19.90    2.80
   0   1 -10    1.20    1.70
   0   1 -10   -0.40    2.10
   0  -1  10    0.50    1.40
   0  -1  10    0.00    1.60
   0  -1  10    2.30    2.10
  -1   1 -10  133.69   11.20
  -1   1 -10  111.39    9.30
   1  -1  10  130.79   11.00
   1  -1  10  116.89   10.10
   1  -1  10  106.59    9.60
  -2   1 -10   51.99    5.80
  -2   1 -10   48.00    5.80
  -2   1 -10   51.19    4.40
   2  -1  10   43.10    4.90
   2  -1  10   54.49    5.50
  -3   1 -10    1.90    0.90
  -3   1 -10    0.50    2.00
  -3   1 -10    1.80    1.50
  -3   1 -10    3.60    2.50
   3  -1  10    2.50    2.50
  -4   1 -10    0.90    0.90
  -4   1 -10   -1.60    1.50
  -4   1 -10    1.20    2.20
  -4   1 -10   -1.40    2.80
  -5   1 -10    0.00    3.40
  -5   1 -10    2.20    2.20
  -5   1 -10    3.10    0.80
   5  -1  10    5.10    1.80
  -6   1 -10    0.10    2.10
  -6   1 -10    0.90    0.80
  -6   1 -10   -2.40    2.20
   6  -1  10   -0.30    2.20
  -7   1 -10   23.30    2.30
  -7   1 -10   30.70    4.60
   7  -1  10   29.70    5.20
   6   0 -10   46.90    6.00
  -6   0  10   54.99    4.10
  -6   0  10   45.50    5.30
   5   0 -10    0.70    1.70
  -5   0  10    0.80    2.10
  -5   0  10   -2.50    1.50
  -5   0  10    1.30    0.80
  -4   0  10    4.50    2.00
   3   0 -10   93.39    9.20
   3   0 -10   95.79    8.70
  -3   0  10   97.99    7.40
  -3   0  10   89.39    8.40
   2   0 -10   81.89    7.30
   2   0 -10   71.39    6.90
  -2   0  10   62.99    6.70
  -2   0  10   68.89    6.50
  -2   0  10   74.39    6.00
   1   0 -10  189.48   14.70
   1   0 -10  190.78   17.20
  -1   0  10  206.08   14.50
  -1   0  10  195.08   16.00
   0   0 -10  132.99   11.60
   0   0 -10  126.49   10.00
   0   0  10  138.99   10.50
   0   0  10  123.69   10.80
  -1   0 -10   73.09    6.70
  -1   0 -10   61.49    7.00
  -1   0 -10   69.89    5.70
   1   0  10   69.29    6.20
   1   0  10   64.09    6.10
  -2   0 -10   25.00    2.90
  -2   0 -10   24.70    4.50
  -2   0 -10   29.80    3.60
  -2   0 -10   24.10    4.30
   2   0  10   29.40    4.20
   2   0  10   34.30    3.80
  -3   0 -10  144.09   10.20
  -3   0 -10  122.59   12.20
  -3   0 -10  140.79   12.80
  -3   0 -10  120.79   10.50
   3   0  10  149.88   11.10
   3   0  10  149.99   11.60
  -4   0 -10   64.79    4.70
  -4   0 -10   58.19    7.10
  -4   0 -10   57.29    5.60
  -4   0 -10   49.00    5.80
   4   0  10   60.19    6.20
  -5   0 -10    5.40    3.30
  -5   0 -10    4.50    0.90
  -5   0 -10    3.40    1.90
   5   0  10    4.50    2.40
  -6   0 -10    3.40    1.90
  -6   0 -10    7.40    1.90
  -6   0 -10   10.50    1.40
   6   0  10    3.20    2.80
  -7   0 -10    1.20    2.10
  -7   0 -10    6.10    2.10
   6  -1 -10   40.10    5.20
  -6   1  10   39.70    3.50
  -6   1  10   40.70    4.90
   5  -1 -10   80.79    8.10
  -5   1  10   81.39    7.50
  -5   1  10   84.39    6.40
   4  -1 -10   30.00    3.90
  -4   1  10   24.90    4.10
   3  -1 -10    2.90    3.00
   3  -1 -10    2.40    2.10
  -3   1  10    1.40    2.00
  -3   1  10    0.00    0.80
   2  -1 -10   30.90    3.60
   2  -1 -10   22.90    4.20
  -2   1  10   29.40    3.90
  -2   1  10   27.70    3.10
   1  -1 -10    0.60    1.60
   1  -1 -10    2.20    1.70
  -1   1  10    1.80    1.60
  -1   1  10    2.10    1.10
   0  -1 -10   11.40    2.10
   0  -1 -10   12.50    2.30
   0   1  10   12.40    2.30
   0   1  10    8.10    1.50
  -1  -1 -10   48.60    4.20
  -1  -1 -10   47.00    4.90
   1   1  10   39.80    4.40
  -2  -1 -10   68.39    6.80
  -2  -1 -10   78.19    6.00
  -2  -1 -10   72.49    7.70
  -2  -1 -10   75.69    7.20
   2   1  10   76.49    6.50
   2   1  10   85.49    6.90
  -3  -1 -10  111.99    8.00
  -3  -1 -10  104.89    9.60
  -3  -1 -10   90.69    8.40
  -3  -1 -10  102.09   10.10
   3   1  10  117.39    9.30
   3   1  10  109.49    8.80
  -4  -1 -10  169.68   14.90
  -4  -1 -10  162.28   12.20
  -4  -1 -10  166.58   11.90
  -4  -1 -10  149.39   14.30
   4   1  10  161.88   13.60
  -5  -1 -10    6.80    3.10
  -5  -1 -10    8.50    1.80
   5   1  10    9.10    2.60
  -6  -1 -10   17.70    2.30
  -6  -1 -10   15.90    2.60
  -6  -1 -10   16.40    1.80
  -6  -1 -10   15.90    3.90
   6   1  10   17.00    3.30
  -7  -1 -10   28.90    4.00
   7   1  10   25.30    4.20
   6  -2 -10   12.00    2.50
  -6   2  10    9.40    2.40
  -6   2  10   11.50    2.00
   5  -2 -10  247.68   22.40
  -5   2  10  262.77   20.80
  -5   2  10  247.78   18.40
   4  -2 -10  164.38   15.30
  -4   2  10  176.08   12.70
   3  -2 -10  499.55   45.30
   3  -2 -10  534.05   38.20
  -3   2  10  544.65   42.30
  -3   2  10  528.15   37.80
   2  -2 -10  284.17   25.20
   2  -2 -10  283.17   21.40
  -2   2  10  286.27   21.10
  -2   2  10  304.77   23.70
   1  -2 -10    9.00    2.20
   1  -2 -10    7.50    2.10
  -1   2  10    6.40    1.70
  -1   2  10    8.10    1.90
   0  -2 -10   35.00    4.00
   0  -2 -10   23.40    4.10
   0   2  10   30.60    3.50
   0   2  10   28.30    3.70
  -1  -2 -10  169.18   16.00
  -1  -2 -10  201.18   13.50
  -1  -2 -10  198.28   15.80
   1   2  10  169.78   13.60
   1   2  10  171.08   14.90
  -2  -2 -10   20.40    2.50
  -2  -2 -10   18.60    3.00
  -2  -2 -10   14.00    2.40
   2   2  10   18.70    2.40
   2   2  10   18.60    2.70
  -3  -2 -10    6.40    1.10
  -3  -2 -10    7.70    1.80
   3   2  10    5.60    1.60
   3   2  10    6.70    1.90
  -4  -2 -10   95.99    9.20
  -4  -2 -10   96.89    8.00
  -4  -2 -10   97.59    7.50
   4   2  10  114.09    9.20
  -5  -2 -10    9.90    1.40
  -5  -2 -10   11.40    2.10
   5   2  10   13.10    2.80
  -6  -2 -10   95.89    7.20
  -6  -2 -10   91.69    6.60
  -6  -2 -10   83.69    8.40
  -6  -2 -10   76.09    9.50
   6   2  10   90.99    9.10
  -7  -2 -10    1.10    3.90
  -7  -2 -10   -0.40    1.70
  -8  -2 -10   18.80    2.90
   8   2  10   18.10    2.50
   5  -3 -10    7.90    2.10
  -5   3  10    5.20    1.20
  -5   3  10    3.50    1.80
   4  -3 -10   63.39    6.60
  -4   3  10   64.39    5.30
  -4   3  10   66.69    6.50
   3  -3 -10   12.50    2.70
  -3   3  10   15.10    2.10
  -3   3  10   14.70    3.10
   2  -3 -10  200.18   19.30
   2  -3 -10  216.28   16.60
  -2   3  10  234.28   18.20
  -2   3  10  223.28   16.20
   1  -3 -10   28.10    4.50
   1  -3 -10   26.30    4.40
  -1   3  10   27.00    4.00
  -1   3  10   28.20    3.90
   0  -3 -10   44.80    5.00
   0  -3 -10   40.30    5.30
   0   3  10   36.70    4.40
   0   3  10   45.20    4.80
  -1  -3 -10   36.90    4.40
  -1  -3 -10   35.90    3.90
  -1  -3 -10   32.30    4.30
   1   3  10   31.00    4.20
   1   3  10   34.10    3.80
  -2  -3 -10   -0.30    1.00
  -2  -3 -10    1.30    1.40
   2   3  10    0.20    1.70
   2   3  10   -0.90    0.90
  -3  -3 -10   -0.30    1.30
  -3  -3 -10   -1.30    0.80
   3   3  10   -0.40    2.00
   3   3  10    0.40    1.10
  -4  -3 -10   41.30    3.60
  -4  -3 -10   38.80    4.60
  -4  -3 -10   40.90    5.00
   4   3  10   49.40    5.00
  -5  -3 -10   11.50    2.20
   5   3  10   18.50    3.00
  -6  -3 -10   37.50    3.00
  -6  -3 -10   40.70    4.30
  -6  -3 -10   29.90    4.30
  -7  -3 -10    0.60    0.60
  -7  -3 -10    0.00    1.60
  -7  -3 -10    0.60    1.80
  -8  -3 -10    2.20    2.30
   8   3  10    0.20    1.90
   5  -4 -10   -0.20    2.20
  -5   4  10   -2.50    2.00
  -5   4  10   -0.90    1.30
   4  -4 -10   65.39    7.00
  -4   4  10   60.39    6.70
  -4   4  10   70.59    5.60
   3  -4 -10   23.20    3.90
  -3   4  10   36.00    3.20
   2  -4 -10   29.70    5.20
   2  -4 -10   37.90    6.10
   2  -4 -10   34.50    5.70
  -2   4  10   42.80    5.90
  -2   4  10   45.30    4.70
   1  -4 -10    2.30    2.70
   1  -4 -10    1.60    2.10
   1  -4 -10    2.70    2.20
  -1   4  10    1.60    2.00
  -1   4  10    1.70    1.90
   0  -4 -10    8.70    2.50
   0  -4 -10   12.20    2.50
   0  -4 -10   12.30    2.40
   0   4  10   10.10    2.20
   0   4  10    7.80    2.10
  -1  -4 -10    6.50    2.20
  -1  -4 -10    4.90    2.10
   1   4  10    5.00    1.70
   1   4  10    3.60    1.90
  -2  -4 -10   24.50    3.40
  -2  -4 -10   23.20    3.70
   2   4  10   31.00    3.60
   2   4  10   23.00    3.50
  -3  -4 -10   18.00    2.60
  -3  -4 -10   16.30    2.80
  -3  -4 -10   21.40    3.10
   3   4  10   15.40    2.70
   3   4  10   20.30    2.90
  -4  -4 -10   20.90    3.20
  -4  -4 -10   15.80    2.60
  -4  -4 -10   22.70    2.40
   4   4  10   19.50    3.50
  -5  -4 -10   11.10    2.20
  -5  -4 -10   13.20    1.70
  -5  -4 -10    6.90    2.30
  -6  -4 -10    1.80    2.10
  -6  -4 -10    0.70    1.80
  -6  -4 -10    2.40    0.80
   6   4  10    1.30    1.60
  -7  -4 -10    6.90    0.90
  -7  -4 -10    5.10    2.10
  -7  -4 -10   10.80    2.30
   7   4  10    8.60    1.90
  -4   5  10    4.50    2.20
  -4   5  10    3.40    1.30
  -4   5  10   -3.10    1.90
   3  -5 -10    0.80    3.00
  -3   5  10    2.10    1.20
  -3   5  10    4.70    1.80
  -3   5  10    0.30    1.80
   2  -5 -10   38.70    6.40
  -2   5  10   58.39    5.90
  -2   5  10   54.49    8.20
   1  -5 -10   27.30    5.50
   1  -5 -10   33.30    4.10
  -1   5  10   43.90    5.50
  -1   5  10   32.90    5.10
   0  -5 -10   76.09    8.10
   0  -5 -10   73.99    8.00
   0  -5 -10   79.39    7.60
   0   5  10   78.19    7.40
   0   5  10   87.09    7.50
  -1  -5 -10    0.60    2.20
  -1  -5 -10    1.60    2.10
   1   5  10   -2.40    2.70
   1   5  10    0.10    1.40
  -2  -5 -10   84.89    7.30
  -2  -5 -10   82.29    8.20
   2   5  10   88.39    8.00
   2   5  10   83.39    8.00
  -3  -5 -10   74.49    7.10
  -3  -5 -10   70.39    6.10
   3   5  10   68.49    7.00
   3   5  10   64.29    7.70
  -4  -5 -10   -0.60    1.20
  -5  -5 -10   22.50    2.50
  -5  -5 -10   19.10    3.30
   5   5  10   20.10    3.10
  -6  -5 -10   12.90    1.90
  -6  -5 -10    7.00    2.70
  -6  -5 -10    7.30    2.20
   6   5  10    7.40    2.20
  -7  -5 -10   21.00    2.30
  -7  -5 -10   18.70    3.30
  -7  -5 -10   29.70    3.50
   7   5  10   20.20    3.10
  -3   6  10    1.70    2.00
  -3   6  10    3.60    1.50
  -3   6  10    1.80    2.00
   2  -6 -10    7.80    3.50
  -2   6  10    8.90    1.50
  -2   6  10    3.60    2.10
  -2   6  10   12.40    2.10
   1  -6 -10   26.00    4.20
   1  -6 -10   26.70    4.10
  -1   6  10   25.30    3.60
  -1   6  10   32.20    4.80
   0  -6 -10    2.30    2.80
   0  -6 -10    2.20    2.70
   0   6  10    4.10    2.70
  -1  -6 -10   58.79    6.30
  -1  -6 -10   49.80    6.60
   1   6  10   59.69    6.90
  -2  -6 -10   18.50    2.70
   2   6  10   18.40    3.30
  -3  -6 -10    6.20    2.10
  -3  -6 -10    4.00    1.80
   3   6  10    6.40    3.50
   3   6  10    5.80    1.60
  -4  -6 -10   -2.00    1.70
   4   6  10   -0.10    1.30
  -5  -6 -10   17.80    2.50
  -5  -6 -10   14.00    2.70
   5   6  10   17.40    2.70
  -6  -6 -10    2.60    1.20
  -6  -6 -10    0.50    1.90
   6   6  10   -1.00    1.90
  -7  -6 -10    8.20    2.60
   7   6  10    5.30    2.30
   2  -7 -10    9.60    1.90
  -2   7  10    7.90    1.60
  -2   7  10    7.80    2.10
   1  -7 -10   19.10    3.50
  -1   7  10   29.30    5.30
  -1   7  10   19.30    3.30
   0  -7 -10    2.30    1.60
   0  -7 -10    7.70    3.60
   0   7  10    3.40    3.30
   0   7  10    0.80    1.60
  -1  -7 -10   49.20    5.60
  -1  -7 -10   49.90    7.10
   1   7  10   59.99    5.40
   1   7  10   55.69    8.00
  -2  -7 -10   24.80    4.10
  -2  -7 -10   24.50    3.80
   2   7  10   32.40    5.90
   2   7  10   29.70    3.60
  -3  -7 -10  112.79    8.90
  -3  -7 -10  105.89   10.50
   3   7  10  122.69   10.00
  -4  -7 -10   10.70    1.80
  -4  -7 -10    9.80    2.50
   4   7  10   13.40    2.30
  -5  -7 -10   50.39    4.80
  -5  -7 -10   57.79    6.10
   5   7  10   57.59    6.00
  -6  -7 -10   14.00    2.80
  -6  -7 -10   11.70    1.90
   6   7  10   12.60    2.60
   1  -8 -10   -0.20    2.00
  -1   8  10   -3.00    1.80
  -1   8  10    3.40    2.00
  -1   8  10    2.00    2.20
   0  -8 -10    8.70    4.50
   0  -8 -10    2.70    2.00
   0   8  10    6.60    2.30
   0   8  10    5.20    1.90
  -1  -8 -10    9.70    3.40
  -1  -8 -10    8.20    2.20
   1   8  10   10.80    4.50
   1   8  10    8.50    2.00
  -2  -8 -10    9.00    2.20
  -2  -8 -10    5.90    1.90
   2   8  10    8.00    4.80
   2   8  10   10.70    1.90
   3   8  10    3.60    1.70
  -4  -8 -10    8.50    2.40
  -4  -8 -10    7.80    1.70
   4   8  10   12.00    2.20
  -5  -8 -10    0.00    1.50
  -5  -8 -10   -2.20    2.20
   5   8  10   -3.10    2.00
   4   6 -11   17.40    3.70
  -4  -6  11   10.90    2.50
   3   6 -11   29.80    4.10
  -3  -6  11   24.90    6.10
  -3  -6  11   31.30    3.70
  -3  -6  11   19.60    3.10
   2   6 -11    4.20    2.50
  -2  -6  11    0.20    1.80
   1   6 -11    8.20    2.70
   1   6 -11    7.80    7.00
  -1  -6  11   11.20    2.90
  -1  -6  11    8.90    3.80
  -1  -6  11   11.80    4.50
   0   6 -11   27.80    4.20
   0   6 -11   33.90    7.10
   0  -6  11   23.30    3.90
   0  -6  11   25.50    5.80
  -1   6 -11    8.00    2.40
  -1   6 -11    8.50    2.20
  -2   6 -11   26.30    3.10
   2  -6  11   20.30    3.70
   5   5 -11    3.80    2.90
  -5  -5  11    3.60    1.40
  -5  -5  11    2.80    1.70
   4   5 -11    3.60    2.60
  -4  -5  11    5.00    1.50
  -4  -5  11    6.80    1.70
  -3  -5  11    2.90    1.50
  -3  -5  11   -0.10    1.50
   2   5 -11    2.90    2.30
   2   5 -11   -0.80    4.60
  -2  -5  11    1.00    3.10
  -2  -5  11   -1.30    5.00
  -2  -5  11    1.30    3.10
   1   5 -11   -0.90    4.50
   1   5 -11    2.60    2.00
  -1  -5  11   -0.60    3.20
  -1  -5  11    0.70    2.90
  -1  -5  11   -0.40    4.90
   0   5 -11   21.30    5.00
   0   5 -11   27.90    4.00
   0  -5  11   20.00    4.70
  -1   5 -11   21.40    3.60
  -1   5 -11   22.30    5.50
   1  -5  11   14.90    2.90
   1  -5  11   15.80    5.30
  -2   5 -11    7.90    1.70
  -2   5 -11    0.50    2.00
   2  -5  11    0.80    2.00
  -3   5 -11    2.00    1.60
  -3   5 -11    4.50    2.30
   3  -5  11    3.20    2.30
  -4   5 -11   18.50    3.30
  -4   5 -11   12.20    2.00
   4  -5  11   20.00    3.30
   5   4 -11   -0.60    2.60
  -5  -4  11    4.50    1.60
  -5  -4  11    0.70    1.20
   4   4 -11   28.10    4.30
  -4  -4  11   28.40    3.50
  -4  -4  11   22.80    3.00
   3   4 -11   82.69    8.30
   2   4 -11   98.99   10.00
   2   4 -11   92.49   10.50
  -2  -4  11  109.79   10.20
  -2  -4  11  127.79   12.00
  -2  -4  11  100.19    9.30
   1   4 -11    7.00    3.30
   1   4 -11    9.40    2.30
  -1  -4  11    5.20    4.20
  -1  -4  11    4.10    2.80
  -1  -4  11    6.50    2.90
   0   4 -11   23.20    3.70
   0  -4  11   23.00    4.50
   0  -4  11   21.40    3.90
   0  -4  11   17.50    3.40
  -1   4 -11    3.60    1.80
  -1   4 -11    3.20    2.80
   1  -4  11    4.40    3.50
   1  -4  11    1.00    3.00
  -2   4 -11   40.20    4.40
   2  -4  11   27.40    4.50
  -3   4 -11   -2.00    1.30
  -3   4 -11   -2.50    2.00
   3  -4  11    5.20    2.00
  -4   4 -11   93.59    7.00
  -4   4 -11   78.89    8.70
   4  -4  11   83.69    8.60
  -5   4 -11   29.50    5.10
  -5   4 -11   22.90    3.20
   5  -4  11   28.00    5.00
   6   3 -11   -1.10    2.90
  -6  -3  11   -2.10    1.70
  -6  -3  11   -1.40    1.00
   5   3 -11    5.60    2.50
  -5  -3  11    1.90    0.90
  -5  -3  11    4.10    1.60
   4   3 -11   35.40    4.40
  -4  -3  11   31.80    3.20
  -4  -3  11   28.40    3.60
   3   3 -11   97.39    9.30
  -3  -3  11   93.79    9.00
  -3  -3  11   96.89    8.00
   2   3 -11   29.60    5.10
   2   3 -11   42.70    6.60
  -2  -3  11   37.80    5.10
  -2  -3  11   39.10    5.00
   1   3 -11  888.01   67.39
   1   3 -11  955.60   80.49
  -1  -3  11  981.20   74.69
  -1  -3  11  990.40   79.69
  -1  -3  11  886.71   67.29
   0   3 -11  133.79   11.80
   0  -3  11  111.69   10.70
   0  -3  11  124.29   11.90
   0  -3  11  114.29   10.50
  -1   3 -11  174.88   14.30
  -1   3 -11  196.18   17.00
   1  -3  11  180.28   16.70
  -2   3 -11  134.09   11.50
   2  -3  11  150.78   12.70
   2  -3  11  151.98   13.60
  -3   3 -11   19.30    2.90
   3  -3  11   21.80    3.50
  -4   3 -11   56.29    4.80
  -4   3 -11   52.99    6.30
   4  -3  11   53.89    6.00
  -5   3 -11   15.50    2.30
  -5   3 -11   11.70    2.80
   5  -3  11   10.80    2.70
   6   2 -11   30.50    5.20
  -6  -2  11   30.50    3.00
  -6  -2  11   30.20    4.10
   5   2 -11   30.00    4.30
  -5  -2  11   23.10    2.60
  -5  -2  11   25.40    3.50
   4   2 -11   68.69    7.70
  -4  -2  11   82.09    6.10
  -4  -2  11   76.79    6.90
   3   2 -11   13.70    3.50
  -3  -2  11   10.10    2.10
  -3  -2  11   11.40    1.90
   2   2 -11    2.90    2.30
   2   2 -11    5.20    2.60
  -2  -2  11    4.30    1.90
  -2  -2  11    7.30    1.90
   1   2 -11    7.40    2.20
   1   2 -11    8.60    2.90
  -1  -2  11    9.70    2.20
  -1  -2  11   11.70    2.40
   0   2 -11   66.69    7.20
   0   2 -11   57.49    6.30
   0  -2  11   63.79    6.90
   0  -2  11   65.29    7.10
   0  -2  11   62.89    6.30
  -1   2 -11  182.98   14.60
  -1   2 -11  217.78   17.40
   1  -2  11  205.78   17.20
   1  -2  11  186.18   14.90
   1  -2  11  171.58   15.90
  -2   2 -11   73.29    6.90
  -2   2 -11   87.49    8.30
   2  -2  11   79.29    8.40
   2  -2  11   82.99    8.00
  -3   2 -11   58.69    6.60
  -3   2 -11   53.09    5.00
   3  -2  11   54.99    6.60
  -4   2 -11   59.69    6.40
  -4   2 -11   60.89    4.90
   4  -2  11   52.29    6.30
  -5   2 -11   18.40    3.30
  -5   2 -11   23.80    2.60
   5  -2  11   17.80    3.50
  -6   2 -11   22.40    3.70
  -6   2 -11   19.90    2.40
   6  -2  11   25.20    4.80
   6   1 -11    4.00    2.60
  -6  -1  11    7.50    1.20
  -6  -1  11    7.10    1.90
   5   1 -11   23.50    4.30
  -5  -1  11   31.00    3.70
  -5  -1  11   30.40    2.80
   4   1 -11   10.90    2.30
  -4  -1  11   11.50    2.00
   3   1 -11    8.10    3.40
   3   1 -11    6.90    2.60
  -3  -1  11    7.20    1.50
  -3  -1  11    8.00    1.70
   2   1 -11   26.40    3.50
   2   1 -11   31.10    4.90
  -2  -1  11   31.00    3.60
  -2  -1  11   30.00    3.70
   1   1 -11   88.49    8.60
   1   1 -11  110.99    9.90
  -1  -1  11  102.89    8.80
  -1  -1  11   97.69    8.20
   0   1 -11   23.10    4.30
   0   1 -11   16.80    2.50
   0  -1  11   22.00    3.00
   0  -1  11   20.40    3.50
   0  -1  11   25.70    4.30
  -1   1 -11  132.09   11.90
  -1   1 -11  122.29   10.00
   1  -1  11  120.59   10.90
   1  -1  11  122.49   10.60
   1  -1  11  142.59   11.80
  -2   1 -11   34.80    5.00
  -2   1 -11   32.90    3.70
   2  -1  11   31.30    4.30
   2  -1  11   37.80    5.20
  -3   1 -11   29.80    4.10
  -3   1 -11   23.70    2.90
   3  -1  11   23.80    3.70
  -4   1 -11    5.60    3.30
  -4   1 -11    3.70    2.60
  -5   1 -11   13.40    1.90
  -5   1 -11   11.30    2.80
  -6   1 -11    5.70    2.50
  -6   1 -11    4.60    2.50
   6  -1  11    9.60    2.60
  -7   1 -11   36.60    5.60
   7  -1  11   31.40    5.60
   6   0 -11    2.20    2.50
  -6   0  11    4.80    0.90
  -6   0  11    4.70    1.80
   5   0 -11   84.29    8.40
  -5   0  11   75.89    7.60
  -5   0  11   86.09    6.50
   4   0 -11   27.30    4.50
  -4   0  11   37.10    3.30
  -4   0  11   42.90    4.10
   3   0 -11   72.69    7.80
   3   0 -11   72.09    8.00
  -3   0  11   73.09    6.00
  -3   0  11   72.09    6.90
   2   0 -11   73.09    7.50
   2   0 -11   70.59    7.20
  -2   0  11   72.09    6.70
  -2   0  11   76.99    6.30
   1   0 -11    9.20    2.50
   1   0 -11    8.80    2.40
  -1   0  11   13.10    2.80
  -1   0  11   10.40    1.90
   0   0 -11  319.17   22.10
   0   0 -11  284.57   26.20
   0   0  11  302.67   24.30
  -1   0 -11    2.50    1.50
  -1   0 -11    2.40    2.00
  -1   0 -11    2.30    2.20
   1   0  11    2.90    1.60
   1   0  11    2.80    2.00
  -2   0 -11   73.19    7.00
  -2   0 -11   75.09    6.00
  -2   0 -11   66.49    7.80
  -2   0 -11   68.49    7.20
   2   0  11   80.89    6.90
   2   0  11   80.19    6.90
  -3   0 -11   34.60    3.10
  -3   0 -11   27.60    5.40
  -3   0 -11   29.30    4.10
   3   0  11   34.60    5.60
   3   0  11   34.30    4.50
  -4   0 -11   34.50    4.30
  -4   0 -11   36.60    6.30
  -4   0 -11   39.20    3.30
  -4   0 -11   37.60    4.90
   4   0  11   35.90    5.10
  -5   0 -11   50.09    5.60
  -5   0 -11   46.40    7.90
  -5   0 -11   57.59    4.20
  -5   0 -11   45.70    5.40
   5   0  11   56.59    6.60
  -6   0 -11    0.50    0.80
  -6   0 -11    2.20    2.10
  -6   0 -11    3.90    1.70
  -7   0 -11    4.40    0.80
  -7   0 -11    9.40    2.20
  -7   0 -11    4.50    2.20
   6  -1 -11    5.20    2.30
  -6   1  11    9.20    2.20
   5  -1 -11   33.00    4.80
  -5   1  11   38.60    3.50
  -5   1  11   41.60    4.40
   4  -1 -11   -2.20    1.60
  -4   1  11    0.90    1.40
  -4   1  11   -1.30    0.80
   3  -1 -11   74.69    8.30
   3  -1 -11   63.59    7.30
  -3   1  11   67.09    5.70
  -3   1  11   69.59    7.20
   2  -1 -11    7.80    2.30
   2  -1 -11    6.30    2.60
  -2   1  11    6.10    1.70
  -2   1  11    5.20    1.80
   1  -1 -11   22.50    3.80
   1  -1 -11   22.10    2.90
  -1   1  11   27.70    3.50
  -1   1  11   24.10    3.10
   0  -1 -11  131.09   12.40
   0   1  11  141.39   11.40
  -1  -1 -11  257.67   16.50
  -1  -1 -11  256.07   19.40
  -1  -1 -11  202.58   19.60
   1   1  11  209.18   18.10
   1   1  11  189.38   16.40
  -2  -1 -11   60.59    6.70
  -2  -1 -11   60.29    6.10
  -2  -1 -11   58.29    5.10
  -2  -1 -11   54.39    6.20
   2   1  11   60.39    5.70
   2   1  11   61.19    5.80
  -3  -1 -11    8.50    1.30
  -3  -1 -11    9.10    1.90
  -3  -1 -11    9.10    2.90
   3   1  11   11.50    2.20
   3   1  11    9.00    2.60
  -4  -1 -11   18.10    2.10
  -4  -1 -11   15.40    2.50
  -4  -1 -11   19.50    2.70
  -4  -1 -11   17.30    3.50
   4   1  11   18.50    2.90
  -5  -1 -11   83.69    5.90
  -5  -1 -11   77.89    9.00
  -5  -1 -11   66.49    7.50
   5   1  11   80.99    8.00
  -6  -1 -11   33.60    4.40
  -6  -1 -11   32.40    5.50
  -6  -1 -11   37.50    4.50
  -6  -1 -11   40.80    3.10
   6   1  11   37.30    6.40
  -7  -1 -11   17.40    3.50
  -7  -1 -11   19.60    1.80
   7   1  11    9.80    3.90
   6  -2 -11  123.19   12.40
  -6   2  11  142.49    9.80
  -6   2  11  118.79   11.50
  -5   2  11   57.59    5.50
  -5   2  11   48.50    4.50
   4  -2 -11  184.98   17.90
  -4   2  11  216.98   16.80
  -4   2  11  200.78   14.80
   3  -2 -11  220.88   20.70
  -3   2  11  244.08   19.50
  -3   2  11  235.58   17.20
   2  -2 -11   10.00    2.80
   2  -2 -11    6.40    2.30
  -2   2  11    9.80    2.20
  -2   2  11    6.00    1.70
   1  -2 -11    8.00    2.50
  -1   2  11    7.30    2.10
  -1   2  11    6.60    1.90
   0  -2 -11  139.89   11.30
   0  -2 -11  122.19    9.80
   0  -2 -11  113.79   11.50
   0   2  11  121.39   10.50
  -1  -2 -11   19.80    3.40
  -1  -2 -11   21.40    3.10
  -1  -2 -11   22.60    3.00
   1   2  11   22.20    3.00
   1   2  11   16.00    2.50
  -2  -2 -11  105.19   10.00
  -2  -2 -11   93.39    9.50
  -2  -2 -11  109.39    8.00
   2   2  11  101.69    8.90
   2   2  11  107.89    8.60
  -3  -2 -11    0.80    1.40
  -3  -2 -11   -0.40    0.80
   3   2  11    0.80    1.60
   3   2  11    1.50    2.20
  -4  -2 -11    1.60    0.80
  -4  -2 -11    2.80    1.50
  -4  -2 -11    1.90    2.00
   4   2  11    3.40    2.00
  -5  -2 -11   36.70    4.50
   5   2  11   35.10    5.90
  -6  -2 -11    0.10    2.20
  -6  -2 -11    0.40    1.70
  -6  -2 -11    0.70    0.70
  -6  -2 -11   -0.40    3.20
   6   2  11   -1.80    2.90
  -7  -2 -11   30.80    4.50
  -7  -2 -11   30.40    2.60
   7   2  11   31.20    4.10
   5  -3 -11   10.80    2.40
  -5   3  11    9.50    1.50
  -5   3  11   11.20    2.40
   4  -3 -11    2.70    1.70
  -4   3  11   -0.40    1.10
  -4   3  11   -1.90    2.00
   2  -3 -11    6.30    2.60
   2  -3 -11    6.80    3.00
  -2   3  11    6.90    2.00
  -2   3  11    7.00    2.30
   1  -3 -11  354.16   26.90
   1  -3 -11  356.06   31.90
  -1   3  11  398.96   29.90
  -1   3  11  363.86   26.80
   0  -3 -11    8.60    2.50
   0  -3 -11    9.30    2.30
   0   3  11    9.50    2.20
  -1  -3 -11   -2.20    1.80
  -1  -3 -11   -0.90    2.00
  -1  -3 -11    0.70    1.60
   1   3  11    1.30    1.20
   1   3  11   -1.00    1.80
  -2  -3 -11   -1.20    1.50
  -2  -3 -11   -2.30    1.30
   2   3  11   -1.40    0.90
  -3  -3 -11   22.50    3.00
  -3  -3 -11   20.70    3.30
  -3  -3 -11   18.50    2.50
   3   3  11   22.10    3.20
   3   3  11   21.60    2.80
  -4  -3 -11    0.00    1.40
  -4  -3 -11    2.10    2.10
  -4  -3 -11    1.70    0.80
   4   3  11    3.50    1.80
  -5  -3 -11    3.90    1.70
  -5  -3 -11    5.20    0.90
  -5  -3 -11    5.70    2.40
   5   3  11    6.50    2.60
  -6  -3 -11    3.60    0.80
  -6  -3 -11    5.00    1.70
  -6  -3 -11    4.40    2.10
  -7  -3 -11   27.00    4.00
  -7  -3 -11   26.30    2.20
  -7  -3 -11   22.40    4.10
   7   3  11   20.80    3.80
   5  -4 -11   12.40    2.60
  -5   4  11    9.10    1.60
  -5   4  11    7.90    2.40
   4  -4 -11    5.10    1.90
  -4   4  11    2.30    2.10
  -4   4  11    2.80    1.20
   3  -4 -11    2.30    1.50
  -3   4  11    2.20    1.20
  -3   4  11   -3.10    1.70
   2  -4 -11    9.80    3.20
   2  -4 -11    9.60    2.90
  -2   4  11   10.30    2.30
  -2   4  11   12.10    3.10
   1  -4 -11   79.49    8.10
   1  -4 -11   76.59    8.50
   1  -4 -11   84.49    8.90
  -1   4  11   87.99    7.80
  -1   4  11   99.69    8.30
   0  -4 -11   17.40    3.10
   0  -4 -11   19.90    3.30
   0   4  11   18.10    2.90
   0   4  11   20.80    3.60
  -1  -4 -11  115.09    9.20
  -1  -4 -11  112.79   10.80
   1   4  11  111.29    9.50
   1   4  11  114.19   10.00
  -2  -4 -11   -1.10    1.70
  -2  -4 -11   -1.00    1.80
   2   4  11   -0.40    1.30
   2   4  11   -2.10    2.30
  -3  -4 -11   63.19    7.10
  -3  -4 -11   57.49    6.30
  -3  -4 -11   59.49    6.30
  -3  -4 -11   63.59    5.40
   3   4  11   62.79    5.90
   3   4  11   66.49    6.70
  -4  -4 -11   39.10    3.70
  -4  -4 -11   39.30    5.00
  -4  -4 -11   38.70    4.60
   4   4  11   37.30    4.70
  -5  -4 -11   11.40    2.70
  -5  -4 -11   12.90    2.40
  -5  -4 -11   16.10    1.90
  -6  -4 -11    5.80    1.00
  -6  -4 -11    6.40    2.40
  -6  -4 -11    2.20    1.80
   6   4  11    5.30    1.70
  -7  -4 -11   -0.50    2.30
  -7  -4 -11    1.90    2.00
  -7  -4 -11    1.80    0.80
   7   4  11    0.60    1.90
   4  -5 -11    2.00    2.20
  -4   5  11    6.50    1.50
  -4   5  11    0.10    2.10
   3  -5 -11   15.70    2.50
  -3   5  11   14.50    2.00
  -3   5  11   12.60    2.60
   2  -5 -11    2.40    2.60
  -2   5  11   -2.50    1.80
   1  -5 -11   27.10    3.90
   1  -5 -11   24.30    4.90
   0  -5 -11   58.19    7.60
   0  -5 -11   73.69    7.40
   0  -5 -11   65.79    7.60
   0   5  11   76.89    7.30
   0   5  11   73.29    6.90
  -1  -5 -11    8.80    2.50
  -1  -5 -11   10.90    2.90
   1   5  11   12.30    3.00
   1   5  11    8.60    2.20
  -2  -5 -11  139.79   13.40
  -2  -5 -11  145.99   11.60
   2   5  11  154.48   12.70
   2   5  11  147.29   12.10
  -3  -5 -11  130.89   12.70
  -3  -5 -11  144.79   10.90
   3   5  11  145.59   12.00
  -4  -5 -11   14.70    2.50
   4   5  11   13.20    2.30
  -5  -5 -11    1.60    1.50
  -5  -5 -11    0.40    1.00
   5   5  11    0.00    1.50
  -6  -5 -11    3.50    2.10
  -6  -5 -11    1.70    0.90
   6   5  11   -2.70    1.70
  -7  -5 -11   14.50    3.60
  -7  -5 -11   15.10    2.00
   7   5  11   17.40    2.70
  -3   6  11    5.80    1.60
  -3   6  11   -0.40    2.10
   2  -6 -11    0.80    3.10
  -2   6  11    0.80    1.40
   1  -6 -11    4.20    3.60
   1  -6 -11    4.00    2.80
   1  -6 -11    4.00    3.20
  -1   6  11    3.50    3.10
  -1   6  11    7.20    1.80
   0  -6 -11   27.90    4.10
   0  -6 -11   25.00    3.80
   0  -6 -11   26.60    5.30
   0   6  11   25.70    3.80
   0   6  11   24.70    3.60
  -1  -6 -11    7.20    2.80
  -1  -6 -11    4.90    2.90
   1   6  11    5.50    3.60
   1   6  11    5.40    1.60
  -2  -6 -11   52.29    6.00
   2   6  11   54.19    7.20
   2   6  11   52.09    5.20
  -3  -6 -11    8.20    2.40
  -3  -6 -11    8.30    2.20
   3   6  11   10.90    1.90
   3   6  11   11.80    4.30
  -4  -6 -11   15.80    2.70
  -4  -6 -11   16.80    3.30
   4   6  11   21.70    3.40
  -5  -6 -11   22.40    2.90
  -5  -6 -11   20.90    3.20
   5   6  11   16.00    2.90
  -6  -6 -11    5.40    2.30
  -6  -6 -11    5.40    1.40
   6   6  11    4.00    1.80
  -7  -6 -11    1.30    2.60
  -7  -6 -11    1.90    1.10
   7   6  11   -1.30    2.20
   2  -7 -11    9.60    1.90
  -2   7  11    7.30    2.30
  -1   7  11    6.30    2.00
  -1   7  11    6.20    1.70
   0  -7 -11    5.70    1.70
   0  -7 -11    3.20    3.50
   0  -7 -11    4.80    3.40
   0   7  11    4.60    3.40
   0   7  11    4.50    1.70
  -1  -7 -11    2.30    1.60
  -1  -7 -11    0.00    2.80
   1   7  11    3.30    3.50
   1   7  11    0.10    1.30
  -2  -7 -11   30.60    3.80
  -2  -7 -11   20.60    3.70
   2   7  11   26.10    4.70
   2   7  11   31.40    3.70
  -3  -7 -11    4.10    1.30
  -3  -7 -11    2.30    1.90
   3   7  11    5.20    1.50
  -4  -7 -11   28.00    4.60
  -4  -7 -11   31.20    3.40
   4   7  11   35.90    4.30
  -5  -7 -11    9.10    1.70
  -5  -7 -11    8.80    2.30
   5   7  11    8.20    2.00
  -6  -7 -11    1.00    2.30
  -6  -7 -11   -2.60    1.40
   6   7  11    2.50    2.10
   0  -8 -11    2.70    4.30
   0  -8 -11    4.20    1.90
   0  -8 -11    2.60    4.10
   0   8  11    6.30    1.90
   0   8  11    2.60    1.80
  -1  -8 -11   23.80    4.30
  -1  -8 -11   29.40    4.90
   1   8  11   28.10    3.90
   1   8  11   28.40    5.10
  -2  -8 -11    4.50    1.90
  -2  -8 -11    0.30    1.40
   2   8  11    3.70    1.50
  -3  -8 -11    0.70    2.00
  -3  -8 -11   -1.70    1.50
   3   8  11    2.90    1.70
  -4  -8 -11   -4.10    2.10
  -4  -8 -11   -0.60    1.40
   4   8  11    3.40    1.70
  -5  -8 -11    3.30    2.40
  -5  -8 -11    5.00    1.50
   3   6 -12   22.30    3.90
  -3  -6  12   24.40    3.80
  -3  -6  12   16.80    6.50
   2   6 -12    2.90    2.50
  -2  -6  12   -3.50    2.00
  -2  -6  12    0.90    2.00
  -2  -6  12    2.10    2.90
   1   6 -12    5.30    5.60
   1   6 -12    2.70    2.50
  -1  -6  12    0.60    2.90
  -1  -6  12    0.60    4.40
  -1  -6  12    2.30    4.80
   0   6 -12    2.40    2.40
   0  -6  12   -4.40    2.70
   0  -6  12    2.30    5.70
  -1   6 -12    3.60    2.30
  -1   6 -12    3.20    2.20
   4   5 -12   -1.10    2.60
  -4  -5  12    2.40    1.70
  -4  -5  12    3.20    1.50
   3   5 -12   -3.50    2.40
  -3  -5  12    0.30    1.60
  -3  -5  12    2.70    1.60
   2   5 -12   14.00    2.90
   2   5 -12    8.60    5.50
  -2  -5  12   11.50    5.80
   1   5 -12    8.90    4.60
   1   5 -12   10.10    2.50
  -1  -5  12    5.60    3.50
  -1  -5  12    7.50    5.70
   0   5 -12   11.80    4.50
   0  -5  12   10.30    3.80
   0  -5  12   11.40    2.70
  -1   5 -12    0.00    2.00
  -2   5 -12   14.70    2.70
   2  -5  12   17.10    3.00
  -3   5 -12   31.30    4.00
   3  -5  12   27.00    4.70
   5   4 -12    2.80    2.80
  -5  -4  12    7.10    1.70
  -5  -4  12    3.00    1.40
   4   4 -12    4.80    2.50
  -4  -4  12    2.10    1.20
  -4  -4  12    5.10    1.80
   3   4 -12    2.40    2.20
  -3  -4  12   -2.30    1.20
  -3  -4  12   -1.80    1.50
   2   4 -12    4.80    2.20
   2   4 -12   13.50    4.60
  -2  -4  12    9.60    3.20
  -2  -4  12    7.90    2.80
   1   4 -12   -0.50    3.70
   1   4 -12   -0.20    2.10
  -1  -4  12   -0.10    3.00
  -1  -4  12    1.80    4.40
  -1  -4  12    0.10    2.60
   0   4 -12    0.00    1.90
   0   4 -12   -1.20    3.30
   0  -4  12    0.90    3.20
   0  -4  12    0.30    4.00
   0  -4  12    1.20    3.10
  -1   4 -12   82.49    8.50
  -1   4 -12   75.69    7.60
   1  -4  12   70.39   10.20
  -2   4 -12   32.80    4.40
  -2   4 -12   32.20    3.90
  -3   4 -12   44.70    4.50
   3  -4  12   45.20    5.40
  -4   4 -12   10.20    1.70
  -4   4 -12    6.70    2.90
   4  -4  12   12.60    2.70
   5   3 -12   10.30    2.80
  -5  -3  12    7.30    1.40
  -5  -3  12    8.20    1.80
   4   3 -12    8.00    2.20
  -4  -3  12    2.30    1.00
  -4  -3  12    2.90    1.50
   3   3 -12   47.10    5.30
  -3  -3  12   41.00    4.40
   2   3 -12  111.79   10.10
   2   3 -12   89.99   10.30
  -2  -3  12  111.99    9.80
  -2  -3  12   99.19    9.00
   1   3 -12    2.20    4.30
  -1  -3  12    0.40    2.60
  -1  -3  12    1.70    3.70
  -1  -3  12   -0.50    2.40
   0   3 -12  320.47   22.90
   0  -3  12  299.87   24.80
   0  -3  12  295.77   22.90
   0  -3  12  301.47   26.70
  -1   3 -12    0.70    2.60
   1  -3  12    1.90    3.10
   1  -3  12    3.90    3.30
  -2   3 -12  140.89   12.00
  -2   3 -12  118.19   10.70
   2  -3  12  125.69   12.20
  -3   3 -12    3.50    1.30
  -3   3 -12    4.90    2.00
   3  -3  12    4.90    1.90
  -4   3 -12   24.90    4.50
  -4   3 -12   24.80    3.10
   4  -3  12   28.30    4.10
  -5   3 -12    7.60    2.80
  -5   3 -12    9.80    1.60
   5  -3  12   15.60    2.80
   6   2 -12    8.00    2.90
  -6  -2  12    1.90    1.00
  -6  -2  12    2.20    1.60
   5   2 -12    2.90    2.30
  -5  -2  12    1.30    1.50
  -5  -2  12    0.20    1.00
   4   2 -12   -1.30    2.10
  -4  -2  12    1.10    1.20
  -4  -2  12   -0.10    1.00
   3   2 -12    4.70    2.00
  -3  -2  12    4.50    1.90
   2   2 -12   61.29    7.40
  -2  -2  12   61.19    6.10
  -2  -2  12   59.19    6.10
   1   2 -12   -1.40    2.70
   1   2 -12    0.00    2.40
  -1  -2  12   -1.90    2.00
  -1  -2  12    2.40    2.40
   0   2 -12    4.50    2.50
   0   2 -12    6.00    2.80
   0  -2  12    3.70    2.30
   0  -2  12    5.40    2.50
   0  -2  12    2.20    3.10
  -1   2 -12   79.59    7.50
  -1   2 -12   86.49    8.50
   1  -2  12   79.89    8.10
   1  -2  12   90.99    8.70
   1  -2  12   71.59    7.90
  -2   2 -12  199.98   15.60
  -2   2 -12  214.18   18.50
   2  -2  12  212.28   16.20
   2  -2  12  196.78   18.40
  -3   2 -12   81.59    7.30
  -4   2 -12  131.99    9.50
  -4   2 -12  129.09   11.70
   4  -2  12  113.29   11.60
  -5   2 -12   26.30    4.90
  -5   2 -12   32.40    3.00
   5  -2  12   22.60    3.90
  -6   2 -12    7.60    1.30
  -6   2 -12    8.90    2.80
   6  -2  12   10.80    3.00
   6   1 -12    6.70    3.00
  -6  -1  12   11.00    1.50
  -6  -1  12   11.20    2.20
   5   1 -12    2.60    2.20
  -5  -1  12    2.30    1.50
  -5  -1  12    3.10    0.90
   4   1 -12    8.90    2.10
  -4  -1  12   11.80    1.90
  -4  -1  12    8.40    1.80
  -3  -1  12    8.20    1.80
   2   1 -12   25.00    3.70
   2   1 -12   22.10    3.90
  -2  -1  12   24.90    3.30
  -2  -1  12   21.80    2.90
   1   1 -12    7.40    2.70
   1   1 -12    6.90    2.50
  -1  -1  12    5.90    2.00
  -1  -1  12    5.10    2.00
   0   1 -12   23.40    3.20
   0   1 -12   23.20    4.60
   0  -1  12   27.80    4.80
   0  -1  12   26.20    4.10
   0  -1  12   25.80    3.40
  -1   1 -12   -0.80    2.30
  -1   1 -12    0.60    1.80
   1  -1  12   -0.50    2.70
   1  -1  12   -0.10    2.20
   1  -1  12    0.40    2.00
  -2   1 -12   -0.70    2.70
  -2   1 -12    0.50    1.50
   2  -1  12   -2.60    2.50
   2  -1  12    0.20    2.00
   2  -1  12    0.00    2.60
  -3   1 -12   52.49    4.70
  -3   1 -12   47.60    6.80
   3  -1  12   60.19    7.00
  -4   1 -12   17.60    4.20
  -4   1 -12   18.90    2.40
   4  -1  12   22.60    3.50
  -5   1 -12   82.69    6.40
  -5   1 -12   81.69    8.30
   5  -1  12   82.29    8.30
  -6   1 -12   51.19    3.80
  -6   1 -12   32.10    5.80
   6  -1  12   42.40    5.80
   6   0 -12   57.09    7.90
  -6   0  12   72.19    7.10
  -6   0  12   81.49    5.70
   5   0 -12   78.89    8.80
  -5   0  12   95.79    7.00
  -5   0  12   90.79    8.20
   4   0 -12  176.68   16.70
  -4   0  12  185.38   15.40
  -4   0  12  191.28   13.70
  -3   0  12   11.80    2.00
   2   0 -12   -1.60    2.20
   2   0 -12    2.00    2.90
  -2   0  12    3.70    1.50
  -2   0  12    1.30    1.70
   1   0 -12  116.79    9.90
  -1   0  12  103.29    9.30
  -1   0  12  103.99    8.70
   0   0 -12    7.60    2.20
   0   0 -12    6.40    2.50
   0   0  12    7.90    1.80
   0   0  12    8.80    2.30
  -1   0 -12   35.30    5.10
  -1   0 -12   33.90    5.30
  -1   0 -12   36.10    4.40
   1   0  12   41.40    5.70
   1   0  12   36.30    4.50
  -2   0 -12   20.20    4.10
  -2   0 -12   25.40    3.90
  -2   0 -12   23.80    3.30
   2   0  12   22.60    3.00
   2   0  12   21.20    3.90
  -3   0 -12   24.10    3.90
  -3   0 -12   20.40    2.50
  -3   0 -12   17.60    3.50
   3   0  12   19.80    3.50
   3   0  12   18.50    2.90
  -4   0 -12    0.20    3.40
  -4   0 -12   -0.80    2.50
   4   0  12    0.50    2.40
  -5   0 -12    0.10    0.80
  -5   0 -12    0.10    1.60
  -5   0 -12    0.60    4.10
  -5   0 -12   -0.20    2.40
  -6   0 -12    1.40    1.80
  -6   0 -12    1.10    2.40
  -6   0 -12    2.20    0.90
  -7   0 -12    4.10    2.10
  -7   0 -12    7.60    2.90
  -7   0 -12    4.50    0.90
   6  -1 -12    1.50    2.50
  -6   1  12    2.90    2.10
  -6   1  12    3.90    1.10
   5  -1 -12    5.40    2.30
  -5   1  12   10.50    2.00
  -5   1  12    6.60    1.20
   4  -1 -12  123.49   11.60
  -4   1  12  130.09   10.80
  -4   1  12  119.29    9.40
  -3   1  12    1.00    1.40
   2  -1 -12  588.84   42.20
   2  -1 -12  629.44   50.19
  -2   1  12  546.25   41.90
  -2   1  12  568.34   46.70
   1  -1 -12   -1.60    2.00
   1  -1 -12    2.10    2.30
  -1   1  12    0.80    1.30
  -1   1  12    0.30    1.40
   0  -1 -12   90.99    8.80
   0  -1 -12   88.49    7.60
   0   1  12   86.79    7.70
   0   1  12   82.49    7.40
  -1  -1 -12   60.59    5.60
  -1  -1 -12   54.09    6.60
  -1  -1 -12   59.69    6.40
   1   1  12   58.09    5.70
   1   1  12   58.19    5.60
  -2  -1 -12   23.20    3.70
  -2  -1 -12   20.10    3.10
  -2  -1 -12   22.00    3.20
   2   1  12   18.70    2.70
   2   1  12   24.40    3.90
  -3  -1 -12  107.59    8.40
  -3  -1 -12  102.19   10.10
  -3  -1 -12  114.59   10.90
   3   1  12  120.49    9.70
   3   1  12  108.49    9.80
  -4  -1 -12   32.40    4.40
  -4  -1 -12   33.40    4.90
  -4  -1 -12   37.00    6.40
  -4  -1 -12   39.10    3.30
   4   1  12   35.80    5.30
  -5  -1 -12    1.00    2.10
  -5  -1 -12    2.00    1.40
  -5  -1 -12    1.40    0.70
  -5  -1 -12   -0.30    3.70
   5   1  12    0.30    2.50
  -6  -1 -12    2.00    4.10
  -6  -1 -12    4.30    1.70
  -6  -1 -12    2.60    0.80
  -6  -1 -12    3.50    2.40
   6   1  12    0.90    3.00
  -7  -1 -12   -0.30    2.60
  -7  -1 -12    0.10    1.90
  -7  -1 -12    3.20    0.80
  -7  -1 -12    4.70    2.10
   7   1  12    2.30    3.50
   5  -2 -12   19.20    3.80
  -5   2  12   15.70    2.30
   4  -2 -12    0.20    1.70
  -4   2  12    1.20    1.60
  -4   2  12   -0.60    1.00
   3  -2 -12   23.00    3.60
  -3   2  12   32.50    3.80
   2  -2 -12   23.60    4.90
   2  -2 -12   26.40    3.80
  -2   2  12   25.30    4.70
  -2   2  12   25.60    3.90
   1  -2 -12   67.79    7.10
   1  -2 -12   71.69    7.80
  -1   2  12   73.69    7.20
  -1   2  12   72.49    7.00
   0  -2 -12   13.40    2.90
   0  -2 -12   14.50    2.60
   0   2  12   17.10    2.40
   0   2  12   11.50    2.40
  -1  -2 -12   19.90    3.00
  -1  -2 -12   15.60    3.10
  -1  -2 -12   18.30    3.10
   1   2  12   18.30    3.00
   1   2  12   13.90    2.50
  -2  -2 -12   38.80    5.20
  -2  -2 -12   40.90    6.10
  -2  -2 -12   47.60    4.70
   2   2  12   43.20    5.10
   2   2  12   45.40    4.70
  -3  -2 -12   -0.20    2.60
  -3  -2 -12    0.80    2.10
  -3  -2 -12    0.70    1.50
  -3  -2 -12    0.10    1.00
   3   2  12    1.90    2.40
   3   2  12    1.10    1.80
  -4  -2 -12    9.00    3.20
  -4  -2 -12   10.00    2.10
  -4  -2 -12    9.40    1.40
  -4  -2 -12    8.60    2.30
   4   2  12   10.70    2.50
  -5  -2 -12    1.70    2.10
  -5  -2 -12    0.70    0.60
  -5  -2 -12    0.40    1.50
   5   2  12   -1.70    2.50
  -6  -2 -12   10.00    1.60
  -6  -2 -12    8.90    2.70
  -6  -2 -12   10.90    2.20
   6   2  12   10.60    3.50
  -7  -2 -12    5.00    2.10
  -7  -2 -12    2.50    4.50
  -7  -2 -12    2.50    0.80
  -7  -2 -12    1.30    2.10
   7   2  12    6.10    1.80
   5  -3 -12   -0.60    2.20
  -5   3  12    1.30    2.00
  -5   3  12    2.30    1.10
  -4   3  12   -1.90    2.10
  -4   3  12   -0.20    1.20
   3  -3 -12   64.69    7.00
  -3   3  12   68.69    5.80
  -3   3  12   80.69    7.00
   2  -3 -12  115.99   11.50
   2  -3 -12  124.19   10.60
  -2   3  12  113.69    9.60
   1  -3 -12  166.98   14.00
   1  -3 -12  181.08   16.60
  -1   3  12  178.68   13.70
  -1   3  12  192.38   15.40
   0  -3 -12  558.24   47.40
   0  -3 -12  567.74   48.00
   0  -3 -12  547.85   40.20
   0   3  12  543.95   40.20
   0   3  12  575.04   44.80
  -1  -3 -12  167.28   14.70
  -1  -3 -12  164.08   12.40
  -1  -3 -12  156.98   14.50
   1   3  12  162.38   13.50
   1   3  12  158.08   12.50
  -2  -3 -12  166.48   12.10
  -2  -3 -12  144.59   14.20
   2   3  12  155.88   13.20
   2   3  12  169.68   12.40
  -3  -3 -12    0.20    1.70
  -3  -3 -12   -0.50    2.50
  -3  -3 -12   -0.30    1.10
   3   3  12   -1.10    1.30
   3   3  12   -0.40    2.60
  -4  -3 -12   25.90    3.80
  -4  -3 -12   23.10    2.70
  -4  -3 -12   25.70    3.30
   4   3  12   24.20    4.30
  -5  -3 -12    4.20    2.70
  -5  -3 -12    2.10    0.80
  -5  -3 -12    1.50    1.50
   5   3  12    0.90    2.60
  -6  -3 -12   10.60    2.20
  -6  -3 -12    9.80    1.50
  -6  -3 -12    8.30    2.50
   6   3  12   11.60    2.00
  -7  -3 -12   -0.20    0.80
  -7  -3 -12    0.10    2.20
  -7  -3 -12    1.10    2.00
   7   3  12   -1.10    1.80
   4  -4 -12   13.40    2.50
  -4   4  12   14.40    2.80
  -4   4  12   11.00    1.80
   3  -4 -12    4.90    1.70
  -3   4  12    4.90    1.90
  -3   4  12    3.60    1.30
   2  -4 -12   32.20    5.40
   2  -4 -12   30.90    6.10
  -2   4  12   31.90    4.00
  -2   4  12   41.00    4.40
   1  -4 -12    1.90    2.60
   1  -4 -12    1.80    2.60
   1  -4 -12   -1.20    2.30
  -1   4  12    0.10    2.20
   0  -4 -12   13.20    3.00
   0  -4 -12   10.20    3.10
   0  -4 -12   13.70    3.20
   0   4  12   15.70    2.70
   0   4  12   10.10    2.50
  -1  -4 -12   22.80    3.30
  -1  -4 -12   24.10    3.60
   1   4  12   20.10    3.80
  -2  -4 -12  215.28   20.60
  -2  -4 -12  249.38   17.60
   2   4  12  238.48   17.90
   2   4  12  241.48   19.40
  -3  -4 -12  136.29   13.10
  -3  -4 -12  146.59   11.20
   3   4  12  150.48   12.00
   3   4  12  150.48   12.40
  -5  -4 -12    0.00    0.90
  -5  -4 -12    1.00    1.70
   5   4  12    0.70    1.60
  -6  -4 -12   10.90    2.50
  -6  -4 -12   14.60    1.80
   6   4  12   11.70    2.20
  -7  -4 -12    1.70    2.10
  -7  -4 -12    2.40    0.80
  -7  -4 -12    4.40    2.70
   7   4  12    5.10    2.00
   4  -5 -12   15.70    2.70
  -4   5  12   14.50    2.80
  -4   5  12   16.20    2.20
   3  -5 -12    3.50    1.70
  -3   5  12    3.30    1.50
  -3   5  12   -2.10    2.00
   2  -5 -12    1.90    1.40
   2  -5 -12    1.30    2.50
  -2   5  12    0.80    1.90
  -2   5  12    1.60    1.30
   1  -5 -12    3.60    3.60
   1  -5 -12    1.20    2.60
   1  -5 -12    4.50    3.20
  -1   5  12    4.90    1.70
  -1   5  12    2.30    2.80
   0  -5 -12   50.19    6.20
   0  -5 -12   42.60    6.40
   0  -5 -12   36.60    6.20
   0   5  12   50.09    6.60
  -1  -5 -12   31.70    6.10
  -1  -5 -12   33.70    5.40
   1   5  12   43.40    5.00
  -2  -5 -12    0.20    2.60
  -2  -5 -12    0.40    2.20
   2   5  12   -1.00    3.30
  -3  -5 -12   88.39    8.00
   3   5  12   97.79    8.40
   3   5  12   96.79    9.60
  -4  -5 -12    1.30    1.60
  -4  -5 -12   -1.10    1.10
   4   5  12    1.60    1.30
  -5  -5 -12    0.50    1.00
  -5  -5 -12    0.10    1.70
   5   5  12   -0.90    1.60
  -6  -5 -12    1.70    1.00
  -6  -5 -12    1.40    2.10
   6   5  12   -0.30    1.80
  -7  -5 -12    0.90    0.90
  -7  -5 -12   -3.70    2.20
   7   5  12   -1.20    2.10
   3  -6 -12   -0.70    2.10
  -3   6  12   -4.60    2.30
  -3   6  12    1.00    1.60
   2  -6 -12   14.40    3.60
  -2   6  12   21.50    3.20
  -2   6  12   16.80    2.90
   1  -6 -12    8.60    3.10
   1  -6 -12    9.70    3.70
   1  -6 -12   11.80    4.50
  -1   6  12   12.60    2.20
   0  -6 -12    4.10    3.10
   0  -6 -12    3.60    3.20
   0  -6 -12    4.60    3.10
   0   6  12    8.40    3.40
   0   6  12    2.10    1.50
  -1  -6 -12    8.20    2.90
   1   6  12    5.70    3.40
   1   6  12    4.00    1.50
  -2  -6 -12   21.70    3.50
  -2  -6 -12   18.20    3.00
   2   6  12   21.00    2.90
   2   6  12   20.40    4.00
  -3  -6 -12   22.90    3.40
   3   6  12   27.20    3.40
  -4  -6 -12    5.20    2.00
  -4  -6 -12    6.40    1.40
   4   6  12    7.00    1.70
  -5  -6 -12   12.70    1.90
  -5  -6 -12    9.10    2.40
   5   6  12   11.20    2.30
  -6  -6 -12   -1.40    2.20
  -6  -6 -12    0.70    1.30
   2  -7 -12    5.50    2.20
  -2   7  12    3.30    1.70
  -2   7  12    4.20    2.30
   1  -7 -12    4.50    1.70
   1  -7 -12    5.00    1.60
  -1   7  12    4.80    1.70
  -1   7  12    7.40    2.10
   0  -7 -12   -0.20    1.60
   0  -7 -12    1.80    3.80
   0   7  12    4.10    3.60
   0   7  12   -0.40    1.60
  -1  -7 -12    4.00    1.60
  -1  -7 -12    1.90    3.00
   1   7  12   -0.50    1.40
   1   7  12    0.60    3.70
  -2  -7 -12   -0.10    2.50
  -2  -7 -12    1.80    1.80
   2   7  12    2.70    4.30
   2   7  12    4.00    1.60
  -3  -7 -12    2.70    1.20
  -3  -7 -12    3.50    2.10
  -4  -7 -12    3.30    1.40
  -4  -7 -12   -2.70    2.00
   4   7  12   -0.10    1.60
  -5  -7 -12    1.70    2.10
  -5  -7 -12    3.40    1.40
   5   7  12    1.30    1.70
  -6  -7 -12    4.00    2.40
  -6  -7 -12    2.90    1.60
   6   7  12    3.00    2.10
   0  -8 -12   33.80    4.80
   0   8  12   29.50    4.60
   0   8  12   45.70    4.60
  -1  -8 -12   11.20    4.20
  -1  -8 -12   12.30    2.50
   1   8  12   12.10    4.90
   1   8  12   13.00    2.20
  -2  -8 -12    6.30    2.00
   2   8  12    5.20    1.80
  -3  -8 -12    9.10    2.30
  -3  -8 -12    8.80    1.70
   3   8  12   11.20    2.10
  -4  -8 -12    2.10    1.50
  -4  -8 -12   -3.90    2.30
   4   8  12    2.90    1.80
   2   6 -13   96.79    9.30
  -2  -6  13   78.39    8.30
  -2  -6  13   95.89    9.30
   1   6 -13    0.80    2.70
   1   6 -13    2.90    6.30
  -1  -6  13   -2.70    3.20
  -1  -6  13    4.90    2.40
  -1  -6  13    1.00    4.90
   0   6 -13  101.49    9.10
   0  -6  13   79.49    9.40
   4   5 -13    3.00    2.90
  -4  -5  13    2.60    1.60
  -4  -5  13    4.70    1.90
   3   5 -13   -1.40    2.50
  -3  -5  13    2.90    1.70
  -3  -5  13   -0.50    1.50
   2   5 -13   48.70    6.40
  -2  -5  13   61.89    5.30
  -2  -5  13   52.09    5.30
  -2  -5  13   43.00    8.00
   1   5 -13   -1.40    5.40
   1   5 -13    0.30    2.30
  -1  -5  13   -1.80    3.60
  -1  -5  13    1.40    4.40
   0   5 -13   29.10    5.40
   0  -5  13   23.20    4.60
   0  -5  13   22.20    5.70
  -1   5 -13    3.90    1.80
  -1   5 -13    1.30    2.20
   1  -5  13    0.50    2.40
  -2   5 -13   25.90    4.30
  -2   5 -13   30.80    4.40
   2  -5  13   28.60    4.00
  -3   5 -13   -0.60    2.50
  -3   5 -13    4.80    1.90
   3  -5  13    9.80    2.60
   4   4 -13    4.90    2.70
  -4  -4  13    4.70    1.90
   3   4 -13   21.50    4.40
  -3  -4  13   23.20    3.50
  -3  -4  13   19.20    3.10
   2   4 -13    7.10    4.80
   2   4 -13    2.10    2.10
   1   4 -13    9.30    2.50
   1   4 -13    9.60    4.30
  -1  -4  13    4.90    3.40
  -1  -4  13    5.30    3.60
  -1  -4  13   11.00    5.00
   0   4 -13   12.30    2.60
   0   4 -13   13.70    4.90
   0  -4  13   13.40    4.90
   0  -4  13   12.00    3.60
   0  -4  13   12.40    4.20
  -1   4 -13   67.09    8.80
  -1   4 -13   78.29    7.40
   1  -4  13   66.59    7.20
   1  -4  13   69.39   10.50
  -2   4 -13    2.40    2.10
  -2   4 -13    5.90    1.70
  -3   4 -13   21.20    3.80
  -3   4 -13   34.60    3.80
  -4   4 -13    5.40    1.60
  -4   4 -13    0.80    2.70
   4  -4  13    3.50    2.50
   5   3 -13    5.70    2.70
  -5  -3  13    1.90    1.20
  -5  -3  13    1.80    1.70
   4   3 -13    3.40    2.60
  -4  -3  13    6.90    1.70
  -4  -3  13    9.10    1.30
   3   3 -13    2.10    2.20
  -3  -3  13    1.60    1.40
  -3  -3  13   -0.60    1.10
   2   3 -13   -0.70    3.90
   2   3 -13    1.00    2.00
  -2  -3  13   -1.00    2.30
  -2  -3  13   -0.50    2.60
   1   3 -13    0.40    1.80
   1   3 -13    1.10    3.50
  -1  -3  13    1.70    2.80
  -1  -3  13    2.00    2.90
   0   3 -13    8.10    3.10
   0   3 -13   11.30    2.70
   0  -3  13   11.70    4.10
   0  -3  13    9.40    3.20
   0  -3  13   10.90    3.20
  -1   3 -13   71.69    6.80
  -1   3 -13   62.09    7.60
   1  -3  13   68.39    9.40
   1  -3  13   46.80    7.20
   1  -3  13   64.99    8.40
   2  -3  13   19.20    3.70
  -3   3 -13    5.50    2.10
  -3   3 -13    5.30    1.40
   3  -3  13    2.20    1.90
  -4   3 -13    5.20    1.40
  -4   3 -13    9.40    2.40
   4  -3  13    7.50    2.20
  -5   3 -13    5.70    3.10
  -5   3 -13    8.50    1.50
   5  -3  13    6.50    2.40
  -5  -2  13   14.00    2.40
  -5  -2  13   19.00    3.30
   4   2 -13   26.60    4.40
  -4  -2  13   25.60    3.50
  -4  -2  13   21.40    2.90
  -3  -2  13   19.10    2.70
   2   2 -13    1.30    2.60
   2   2 -13    4.30    2.00
  -2  -2  13   -1.00    2.00
  -2  -2  13    0.40    2.30
   1   2 -13    4.50    2.50
  -1  -2  13    7.40    2.50
  -1  -2  13    7.70    2.70
   0   2 -13   10.00    3.40
   0   2 -13    6.70    2.60
   0  -2  13    6.30    2.70
   0  -2  13    8.00    2.70
   0  -2  13    9.40    3.50
  -1   2 -13  106.89   10.00
  -1   2 -13   97.29    8.90
   1  -2  13  106.39   10.20
   1  -2  13   84.39    9.30
   1  -2  13   97.59    9.40
  -2   2 -13   59.19    6.60
   2  -2  13   65.19    8.10
   2  -2  13   65.19    7.90
  -3   2 -13  411.26   32.40
  -3   2 -13  370.66   27.10
   3  -2  13  333.87   32.00
  -4   2 -13   59.49    6.80
  -4   2 -13   68.79    5.30
   4  -2  13   59.59    6.80
  -5   2 -13   71.29    7.90
  -5   2 -13   76.79    5.80
   5  -2  13   61.89    7.50
   5   1 -13   39.80    5.50
  -5  -1  13   44.20    3.90
  -5  -1  13   41.80    4.70
   4   1 -13    4.00    2.10
  -4  -1  13    4.20    1.00
   3   1 -13   65.79    7.10
  -3  -1  13   69.69    6.40
   2   1 -13   44.50    7.30
  -2  -1  13   52.29    5.30
  -2  -1  13   47.50    5.50
   1   1 -13    4.60    2.60
   1   1 -13    3.60    2.90
  -1  -1  13    7.50    2.40
  -1  -1  13    7.20    2.30
   0   1 -13  121.09    9.90
   0   1 -13  114.79   11.30
   0  -1  13  128.19   11.20
   0  -1  13  106.59    9.80
   0  -1  13  111.59   10.40
  -1   1 -13    9.50    2.30
  -1   1 -13   11.80    3.10
   1  -1  13   10.40    2.60
   1  -1  13    8.40    3.20
   1  -1  13    9.50    2.70
  -2   1 -13    0.20    1.60
  -2   1 -13   -2.70    3.10
   2  -1  13    0.50    2.30
   2  -1  13   -3.70    3.00
   2  -1  13    0.80    2.70
  -3   1 -13    6.20    3.40
  -3   1 -13    6.20    1.60
   3  -1  13    3.90    2.80
  -4   1 -13   85.89    6.20
   4  -1  13   67.29    7.70
  -5   1 -13   79.89    6.10
  -5   1 -13   74.89    8.00
   5  -1  13   73.79    7.80
  -6   1 -13  152.08   14.30
  -6   1 -13  169.08   11.40
   6  -1  13  134.99   14.10
   5   0 -13    4.00    2.60
  -5   0  13    6.90    1.90
  -5   0  13    8.60    1.30
   4   0 -13    1.90    2.00
  -4   0  13    4.20    1.10
  -4   0  13    6.00    1.60
   3   0 -13    9.70    2.30
  -3   0  13    7.10    1.70
   2   0 -13   20.60    3.80
   2   0 -13   27.40    4.80
  -2   0  13   22.00    3.00
  -2   0  13   28.20    3.80
   1   0 -13   -1.50    2.30
   1   0 -13   -0.10    2.20
  -1   0  13    0.80    1.40
  -1   0  13   -0.50    1.70
   0   0 -13    3.20    2.50
   0   0 -13    4.30    2.20
   0   0  13    2.90    2.20
   0   0  13    3.50    1.80
  -1   0 -13   -1.20    2.70
  -1   0 -13    1.70    1.80
  -1   0 -13   -0.90    2.30
   1   0  13    0.60    2.10
   1   0  13    0.30    2.00
  -2   0 -13    4.00    1.70
  -2   0 -13    3.00    2.40
  -2   0 -13    3.40    3.10
   2   0  13    2.70    2.10
   2   0  13    3.30    2.60
  -3   0 -13   15.80    2.70
  -3   0 -13   16.50    3.00
  -3   0 -13   18.10    3.90
   3   0  13   19.70    3.60
   3   0  13   16.60    2.90
  -4   0 -13    8.30    3.70
  -4   0 -13   10.90    1.70
   4   0  13    6.00    2.70
  -5   0 -13   32.70    5.70
  -5   0 -13   30.30    2.80
  -5   0 -13   23.90    3.80
   5   0  13   25.40    3.80
  -6   0 -13   -3.10    2.10
  -6   0 -13    1.10    0.90
  -6   0 -13    2.60    1.90
   5  -1 -13    1.60    2.30
  -5   1  13    7.20    1.20
  -5   1  13    5.50    1.90
   4  -1 -13   24.30    4.50
  -4   1  13   31.50    3.10
  -4   1  13   32.20    4.20
   3  -1 -13  111.99   11.00
  -3   1  13  122.89   10.40
   2  -1 -13  382.26   28.00
   2  -1 -13  383.96   32.70
  -2   1  13  350.36   27.30
  -2   1  13  385.36   30.60
   1  -1 -13  494.65   39.60
   1  -1 -13  448.46   33.30
  -1   1  13  451.05   36.70
  -1   1  13  432.16   33.00
   0  -1 -13    6.70    2.90
   0  -1 -13    5.70    2.40
   0   1  13    6.50    2.10
   0   1  13    7.40    1.90
  -1  -1 -13  203.38   18.70
  -1  -1 -13  215.08   15.70
  -1  -1 -13  208.88   18.30
   1   1  13  205.68   17.10
   1   1  13  206.28   15.70
  -2  -1 -13  121.09   11.70
  -2  -1 -13  109.99   11.00
  -2  -1 -13  115.59    9.20
   2   1  13  117.89   10.00
   2   1  13  123.29   10.40
  -3  -1 -13    0.50    3.10
  -3  -1 -13   -0.90    1.00
  -3  -1 -13    1.00    2.90
  -3  -1 -13   -0.50    1.90
   3   1  13   -1.10    2.90
   3   1  13    0.30    2.00
  -4  -1 -13   47.10    6.40
  -4  -1 -13   49.50    7.40
   4   1  13   54.39    6.30
  -5  -1 -13    8.00    1.10
  -5  -1 -13    6.50    2.70
  -5  -1 -13    8.20    4.30
  -5  -1 -13    5.60    1.70
   5   1  13    6.70    2.90
  -6  -1 -13    2.70    2.70
  -6  -1 -13    6.60    1.90
  -6  -1 -13    3.80    4.60
  -6  -1 -13    5.30    0.90
   6   1  13    1.70    3.20
  -7  -1 -13   -1.70    2.00
  -7  -1 -13    1.10    2.90
  -7  -1 -13    5.00    2.20
  -7  -1 -13    3.00    0.90
   7   1  13    0.00    3.90
   5  -2 -13   -1.50    2.20
  -5   2  13    5.40    1.90
  -5   2  13   -0.20    1.10
   4  -2 -13   32.80    4.90
  -4   2  13   43.80    3.70
  -4   2  13   33.80    4.70
   3  -2 -13   40.00    5.00
  -3   2  13   37.70    3.90
  -3   2  13   49.99    4.90
   2  -2 -13   16.60    3.80
   2  -2 -13   20.60    3.70
  -2   2  13   11.90    2.30
   1  -2 -13   64.99    7.80
   1  -2 -13   65.19    7.20
  -1   2  13   75.39    6.80
  -1   2  13   66.69    6.40
   0  -2 -13  103.19   10.30
   0  -2 -13   93.39    8.60
   0   2  13  101.39    8.50
   0   2  13  102.29    8.80
  -1  -2 -13   36.80    5.60
  -1  -2 -13   35.70    5.40
  -1  -2 -13   39.10    4.50
   1   2  13   35.60    4.20
   1   2  13   32.10    4.70
  -2  -2 -13  107.29   10.40
  -2  -2 -13   96.89    9.80
  -2  -2 -13   98.39    8.10
   2   2  13  109.19    8.90
   2   2  13   99.39    9.00
  -3  -2 -13    6.10    2.30
  -3  -2 -13    4.60    1.30
  -3  -2 -13    3.70    2.70
  -3  -2 -13    5.50    3.10
   3   2  13    2.70    2.30
   3   2  13    5.00    2.10
  -4  -2 -13   67.89    7.10
  -4  -2 -13   61.89    8.00
   4   2  13   67.99    7.30
  -5  -2 -13   28.50    2.40
  -5  -2 -13   20.40    3.30
  -5  -2 -13   20.10    3.50
   5   2  13   24.00    3.70
  -6  -2 -13   11.60    1.70
  -6  -2 -13   11.20    2.90
  -6  -2 -13    8.20    2.20
  -7  -2 -13    3.40    1.80
  -7  -2 -13    2.40    0.80
  -7  -2 -13    0.30    2.50
  -7  -2 -13    0.10    4.70
   7   2  13    1.90    1.70
   5  -3 -13    6.20    2.30
  -5   3  13    1.10    1.20
  -5   3  13   -3.70    2.10
   4  -3 -13   11.30    2.20
  -4   3  13    6.00    1.30
  -4   3  13    8.60    2.60
   3  -3 -13    7.30    2.00
  -3   3  13    9.10    2.10
   2  -3 -13  314.67   23.90
   2  -3 -13  291.57   28.00
  -2   3  13  315.47   23.30
  -2   3  13  339.17   25.90
   1  -3 -13  114.19   10.20
   1  -3 -13  119.99   11.90
  -1   3  13  117.89    9.80
   0  -3 -13  212.58   18.70
   0  -3 -13  213.78   19.10
   0  -3 -13  205.08   16.10
   0   3  13  219.68   17.70
   0   3  13  206.38   16.10
  -1  -3 -13  196.78   18.60
  -1  -3 -13  219.18   18.90
  -1  -3 -13  213.98   15.90
   1   3  13  217.58   16.10
   1   3  13  206.58   17.40
  -2  -3 -13    6.00    2.60
  -2  -3 -13    5.00    1.80
   2   3  13    7.30    2.60
   2   3  13    5.90    1.60
  -3  -3 -13   17.10    3.00
  -3  -3 -13   14.00    2.10
   3   3  13   16.30    3.50
   3   3  13   17.60    2.60
   4   3  13    1.20    2.20
  -5  -3 -13    6.90    1.10
  -5  -3 -13    7.30    1.90
  -6  -3 -13    4.20    1.80
   6   3  13    7.20    1.70
  -7  -3 -13    7.50    2.20
  -7  -3 -13    5.90    1.00
  -7  -3 -13    8.90    2.80
   7   3  13    8.90    2.00
   4  -4 -13   21.70    3.60
  -4   4  13   25.80    3.70
  -4   4  13   29.40    3.30
   3  -4 -13    4.10    1.90
  -3   4  13    2.30    1.90
  -3   4  13    6.30    1.40
  -2   4  13    7.00    1.90
   1  -4 -13   20.00    3.50
   1  -4 -13   23.00    3.90
   1  -4 -13   24.20    4.10
  -1   4  13   21.60    3.30
  -1   4  13   17.90    3.50
   0  -4 -13   53.29    7.10
   0  -4 -13   46.70    6.60
   0  -4 -13   56.49    7.20
  -1  -4 -13  447.16   42.50
  -1  -4 -13  519.75   36.20
   1   4  13  524.75   40.20
   1   4  13  503.35   36.10
  -2  -4 -13    2.60    1.80
  -2  -4 -13    0.60    2.50
   2   4  13    1.10    1.40
   2   4  13   -0.50    2.80
  -3  -4 -13  831.92   59.49
  -3  -4 -13  796.02   70.69
   3   4  13  870.21   59.79
  -4  -4 -13  105.49    7.60
  -4  -4 -13   88.79    9.10
   4   4  13   96.59    8.60
  -5  -4 -13   23.40    4.30
  -5  -4 -13   30.30    3.10
   5   4  13   37.50    4.10
  -6  -4 -13   13.20    2.40
  -6  -4 -13   11.10    1.90
  -7  -4 -13    9.80    2.70
  -7  -4 -13    9.90    1.70
   7   4  13   11.30    2.30
   3  -5 -13    2.00    2.00
  -3   5  13    5.50    1.70
   2  -5 -13    4.00    2.80
  -2   5  13    6.70    1.60
  -2   5  13    9.30    2.20
   1  -5 -13   17.70    3.50
   1  -5 -13   22.60    4.10
   1  -5 -13   17.80    4.20
  -1   5  13   17.60    3.60
  -1   5  13   24.00    3.50
   0  -5 -13    7.20    3.20
   0  -5 -13    8.80    3.30
   0  -5 -13    6.80    3.10
   0   5  13    5.80    1.60
   0   5  13    7.10    2.80
  -1  -5 -13    4.30    3.20
  -1  -5 -13    2.50    2.60
   1   5  13    5.20    1.30
   1   5  13    3.60    3.40
  -2  -5 -13   10.10    2.80
  -2  -5 -13    8.60    3.20
   2   5  13    9.50    1.70
   2   5  13    7.10    2.80
  -3  -5 -13   52.79    5.70
   3   5  13   49.99    5.20
  -4  -5 -13   11.10    2.40
  -4  -5 -13   13.30    1.80
   4   5  13   13.10    2.10
  -5  -5 -13  140.69   10.10
  -5  -5 -13  124.49   12.30
   5   5  13  133.49   11.60
  -6  -5 -13    2.00    2.30
  -6  -5 -13    2.40    1.20
   6   5  13    5.80    2.00
  -7  -5 -13    2.70    2.50
  -7  -5 -13    5.60    1.10
   7   5  13    6.90    2.30
   2  -6 -13    9.00    2.00
   2  -6 -13    6.40    3.30
  -2   6  13    5.40    2.30
  -2   6  13    7.00    1.70
  -1   6  13   24.40    3.60
  -1   6  13   25.70    4.00
   0  -6 -13   28.80    4.50
   0  -6 -13   30.00    4.90
   0   6  13   32.20    3.90
   0   6  13   28.00    4.60
  -1  -6 -13   16.20    3.60
   1   6  13   21.30    3.00
   1   6  13   18.40    4.10
  -2  -6 -13    3.60    2.70
   2   6  13    4.00    4.20
   2   6  13    5.70    1.40
  -3  -6 -13   18.10    3.70
  -3  -6 -13   17.90    2.40
   3   6  13   23.60    3.30
  -4  -6 -13   33.90    4.80
  -4  -6 -13   36.60    3.70
   4   6  13   34.20    4.30
  -5  -6 -13    2.60    1.40
  -5  -6 -13   -0.20    1.90
   5   6  13    2.90    1.70
  -6  -6 -13   20.00    2.90
   6   6  13   28.50    4.40
   1  -7 -13    1.90    1.80
   1  -7 -13    0.50    1.50
  -1   7  13    0.60    2.00
  -1   7  13    1.80    1.90
   0  -7 -13   49.40    6.40
   0  -7 -13   47.40    5.20
   0   7  13   47.80    5.30
  -1  -7 -13    2.70    3.60
  -1  -7 -13    2.80    1.80
   1   7  13    2.00    4.10
   1   7  13    5.60    1.60
  -2  -7 -13   24.30    3.40
   2   7  13   25.20    3.50
  -3  -7 -13    0.80    1.30
  -3  -7 -13   -1.70    2.00
   3   7  13    5.00    1.60
  -4  -7 -13   13.30    2.80
   4   7  13   15.60    2.30
  -5  -7 -13   28.00    5.10
  -5  -7 -13   31.10    3.80
   5   7  13   40.30    4.60
   1   8  13   -1.00    4.90
  -2  -8 -13   13.80    2.10
  -2  -8 -13   11.90    2.50
   2   8  13   18.40    3.40
  -3  -8 -13    8.20    1.70
  -3  -8 -13    3.80    2.50
   3   8  13    7.80    1.90
  -4  -8 -13    1.50    2.50
  -4  -8 -13    3.90    1.60
   4   8  13    3.40    1.90
  -3  -5  14    6.70    2.00
  -3  -5  14    4.50    1.70
   2   5 -14    6.30    3.00
  -2  -5  14    6.40    1.90
  -2  -5  14    7.10    2.00
   1   5 -14    4.20    5.70
   1   5 -14    5.40    2.50
  -1  -5  14    4.90    4.40
   0  -5  14   17.30    5.50
   0  -5  14   15.40    3.30
  -1   5 -14    7.90    2.30
  -1   5 -14    1.10    2.30
  -2   5 -14   79.49    8.10
  -2   5 -14   77.89    7.40
   4   4 -14    3.20    2.80
  -4  -4  14   -1.70    1.90
   3   4 -14    0.80    2.40
  -3  -4  14    1.30    1.70
  -3  -4  14   -1.60    1.40
   2   4 -14   -3.20    2.10
  -2  -4  14    1.30    1.40
  -2  -4  14    1.20    1.60
   1   4 -14    0.20    4.50
   1   4 -14   -1.70    2.40
  -1  -4  14   -3.10    2.90
  -1  -4  14   -3.40    3.40
  -1  -4  14    1.00    5.30
   0   4 -14   36.10    5.00
   0   4 -14   50.79    8.40
   0  -4  14   32.70    5.20
   0  -4  14   38.60    5.60
   0  -4  14   35.50    6.70
  -1   4 -14   12.40    2.60
   1  -4  14   12.80    6.00
  -2   4 -14   17.70    3.00
  -3   4 -14    8.00    1.80
   3  -4  14    9.60    2.40
   4   3 -14   33.10    5.40
  -4  -3  14   34.10    4.20
  -4  -3  14   33.80    3.60
   3   3 -14   24.70    4.40
  -3  -3  14   17.10    2.20
  -3  -3  14   21.40    3.30
   2   3 -14   -0.10    3.50
   2   3 -14    2.60    2.10
  -2  -3  14    2.40    1.50
  -2  -3  14    1.20    2.80
   1   3 -14   19.40    4.40
  -1  -3  14   15.40    3.70
  -1  -3  14   17.20    3.40
   0   3 -14   -4.30    4.10
   0   3 -14    3.10    2.10
   0  -3  14    1.40    3.20
   0  -3  14    3.20    3.50
   0  -3  14    2.70    4.30
  -1   3 -14    4.60    2.40
  -1   3 -14    4.70    3.60
   1  -3  14    5.20    4.10
   1  -3  14    7.10    3.30
  -2   3 -14    3.10    2.10
  -2   3 -14    3.80    1.50
   2  -3  14    0.00    2.00
  -3   3 -14    0.00    1.40
  -3   3 -14    3.60    2.20
  -4   3 -14    0.20    1.30
  -4   3 -14    2.60    2.40
   4  -3  14    0.20    2.10
   5   2 -14   -2.50    2.80
  -5  -2  14    1.30    1.80
  -5  -2  14   -0.30    1.10
   4   2 -14    2.70    2.30
  -4  -2  14   -0.50    1.20
  -4  -2  14   -0.50    1.60
   3   2 -14    0.50    2.10
  -3  -2  14   -0.30    1.20
   2   2 -14    3.70    2.30
   2   2 -14    5.90    4.30
  -2  -2  14    4.20    2.50
   1   2 -14   37.40    4.60
   1   2 -14   31.20    4.60
  -1  -2  14   23.90    4.00
  -1  -2  14   26.50    3.70
   0   2 -14    8.90    3.30
   0   2 -14    9.40    2.70
   0  -2  14   10.00    3.10
   0  -2  14   13.40    3.20
   0  -2  14    7.40    3.80
  -1   2 -14   41.50    4.90
  -1   2 -14   37.60    6.00
   1  -2  14   34.60    4.70
   1  -2  14   32.10    4.60
   1  -2  14   39.30    6.80
  -2   2 -14   67.79    7.50
  -2   2 -14   78.19    7.70
   2  -2  14   74.59    9.00
   2  -2  14   75.59    9.20
  -3   2 -14   15.70    2.70
  -3   2 -14   10.40    1.70
   3  -2  14    7.60    2.30
  -4   2 -14   85.39    9.00
   4  -2  14   90.99    8.90
  -5   2 -14   19.80    3.60
   5  -2  14   16.80    3.20
   5   1 -14    7.30    2.60
  -5  -1  14    9.80    1.50
  -5  -1  14    6.10    2.00
   4   1 -14   71.09    7.80
  -4  -1  14   67.99    7.10
  -4  -1  14   85.19    6.10
   3   1 -14   32.00    4.70
  -3  -1  14   26.90    3.20
  -3  -1  14   35.40    3.80
   2   1 -14   23.00    3.90
   2   1 -14   14.50    3.90
  -2  -1  14   16.50    2.90
   1   1 -14    3.90    3.60
  -1  -1  14    0.80    2.20
  -1  -1  14    2.10    2.60
   0   1 -14   11.90    3.30
   0   1 -14   13.60    2.90
   0  -1  14   13.80    2.80
   0  -1  14   14.20    2.90
   0  -1  14   11.50    3.60
  -1   1 -14   42.20    5.60
  -1   1 -14   49.90    6.50
   1  -1  14   40.30    6.00
   1  -1  14   43.50    6.90
   1  -1  14   43.10    6.40
  -2   1 -14   35.20    5.00
  -2   1 -14   49.00    7.10
   2  -1  14   41.70    6.80
   2  -1  14   44.50    6.80
   2  -1  14   40.20    5.80
   3  -1  14    2.80    2.80
  -4   1 -14    2.10    1.00
   4  -1  14   -1.00    1.90
  -5   1 -14  114.99    8.00
  -5   1 -14   97.69   10.20
   5  -1  14   92.69    9.90
  -6   1 -14    4.70    1.20
  -6   1 -14    4.00    2.80
   6  -1  14    2.80    2.40
   5   0 -14    2.10    2.60
  -5   0  14    2.70    1.90
  -5   0  14    3.80    1.20
   4   0 -14   11.80    2.70
  -4   0  14   21.50    3.20
  -4   0  14   18.80    2.50
   3   0 -14  128.19   11.60
  -3   0  14  111.89   10.60
  -3   0  14  127.09    9.40
   2   0 -14   90.29    8.90
   2   0 -14   79.89    9.70
  -2   0  14   97.99    8.50
  -2   0  14   87.69    8.10
   1   0 -14  192.98   16.00
   1   0 -14  224.78   18.40
  -1   0  14  192.88   16.90
  -1   0  14  198.78   15.60
   0   0 -14   34.90    5.90
   0   0 -14   37.30    5.80
   0   0  14   36.30    4.90
  -1   0 -14    7.30    3.40
  -1   0 -14    9.80    2.90
  -1   0 -14    7.70    2.90
   1   0  14    4.50    2.50
   1   0  14    5.30    2.50
  -2   0 -14   76.89    8.60
  -2   0 -14   79.79    9.20
  -2   0 -14   84.49    7.20
   2   0  14   76.29    7.90
   2   0  14   86.69    8.00
  -3   0 -14    3.40    3.60
  -3   0 -14    3.90    1.50
  -3   0 -14    3.10    2.70
   3   0  14    3.40    2.50
  -4   0 -14    3.70    3.80
  -4   0 -14    4.50    1.90
   4   0  14    5.20    2.70
  -5   0 -14    6.30    1.10
  -5   0 -14    2.80    2.00
   5   0  14    6.10    3.10
  -6   0 -14    8.40    2.60
  -6   0 -14    5.50    2.20
  -6   0 -14   11.60    1.80
  -5   1  14   31.90    3.30
  -5   1  14   24.90    4.40
   4  -1 -14   -3.10    2.20
  -4   1  14   -0.40    1.70
  -4   1  14    0.40    1.10
   3  -1 -14   53.09    6.20
  -3   1  14   49.30    5.80
  -3   1  14   61.09    4.80
   2  -1 -14    1.60    3.90
  -2   1  14    2.50    2.00
  -2   1  14    4.20    1.50
   1  -1 -14   43.10    6.30
   1  -1 -14   50.49    8.30
  -1   1  14   36.90    5.20
  -1   1  14   35.90    4.60
   0  -1 -14  112.49    9.70
   0  -1 -14  116.19   11.40
   0   1  14  108.79    9.80
   0   1  14  109.59    9.40
  -1  -1 -14   11.70    3.00
  -1  -1 -14   17.60    3.70
  -1  -1 -14   13.00    3.70
   1   1  14   13.60    2.40
  -2  -1 -14   19.90    3.50
  -2  -1 -14   19.80    2.70
  -2  -1 -14   23.70    4.10
   2   1  14   17.40    3.40
   2   1  14   21.80    3.10
  -3  -1 -14   53.39    6.80
  -3  -1 -14   61.79    8.10
  -3  -1 -14   55.39    5.30
   3   1  14   58.49    6.70
   3   1  14   66.69    7.60
  -4  -1 -14   -1.70    0.80
  -4  -1 -14   -0.80    3.60
  -4  -1 -14    1.40    1.40
   4   1  14   -0.50    2.50
  -5  -1 -14   -0.90    0.80
  -5  -1 -14    2.30    4.30
  -5  -1 -14   -0.10    1.50
   5   1  14    0.00    2.90
  -6  -1 -14    5.20    1.90
   6   1  14    3.60    3.50
   5  -2 -14    1.60    2.50
  -5   2  14    1.90    1.30
  -5   2  14    4.70    1.90
   4  -2 -14    2.80    2.20
  -4   2  14    0.80    1.20
  -4   2  14    1.00    1.90
  -3   2  14   37.00    4.60
  -3   2  14   32.10    3.50
   2  -2 -14   -0.30    3.90
  -2   2  14   -0.90    1.80
   1  -2 -14   25.70    3.70
   1  -2 -14   36.00    6.30
  -1   2  14   38.00    5.80
   0  -2 -14   40.30    6.20
   0  -2 -14   40.70    6.70
   0   2  14   36.70    4.50
   0   2  14   36.10    5.30
  -1  -2 -14    9.70    2.40
  -1  -2 -14   12.00    3.30
  -1  -2 -14   12.80    3.00
   1   2  14   10.80    2.00
  -2  -2 -14  142.99   13.20
  -2  -2 -14  131.39   12.70
  -2  -2 -14  132.39   10.60
   2   2  14  137.19   11.70
   2   2  14  131.19   11.20
  -3  -2 -14   63.89    8.20
  -3  -2 -14   69.89    7.40
  -3  -2 -14   63.69    5.80
   3   2  14   64.19    6.90
   3   2  14   60.99    7.20
  -4  -2 -14   12.70    2.30
  -4  -2 -14    9.80    1.40
  -4  -2 -14   10.30    3.70
   4   2  14   15.80    2.90
  -5  -2 -14  105.39   10.30
  -5  -2 -14  118.99    8.40
  -5  -2 -14  104.49   12.00
   5   2  14  110.69   10.90
  -6  -2 -14    3.50    4.50
  -6  -2 -14    5.90    1.10
  -6  -2 -14    6.80    1.90
  -7  -2 -14   13.00    5.40
  -7  -2 -14   12.40    2.60
   7   2  14   17.40    2.30
   4  -3 -14    9.20    2.60
  -4   3  14   13.80    2.80
  -4   3  14   11.30    1.60
   3  -3 -14    0.90    1.90
  -3   3  14    1.10    1.80
   2  -3 -14   -0.80    1.80
  -2   3  14   -0.40    1.60
   1  -3 -14   65.79    8.50
   1  -3 -14   69.19    7.60
  -1   3  14   59.59    6.30
  -1   3  14   65.99    7.10
   0  -3 -14   16.60    3.30
   0  -3 -14   16.40    3.90
   0  -3 -14   13.00    3.20
   0   3  14   14.50    3.00
  -1  -3 -14  129.69   10.50
  -1  -3 -14  132.69   12.50
  -1  -3 -14  120.79   12.30
   1   3  14  126.79   10.90
   1   3  14  133.09   11.10
  -2  -3 -14  100.09    9.60
  -2  -3 -14   92.79    7.80
  -2  -3 -14   86.49    9.50
   2   3  14   88.59    8.20
   2   3  14   87.89    8.70
  -3  -3 -14   50.09    6.60
  -3  -3 -14   50.29    5.10
   3   3  14   49.30    6.90
   3   3  14   53.49    5.70
  -4  -3 -14   82.19    8.10
  -4  -3 -14   88.29    6.70
  -5  -3 -14   -1.20    0.90
  -5  -3 -14    1.10    1.70
   5   3  14    2.60    1.40
  -6  -3 -14   10.90    2.30
  -6  -3 -14   14.60    1.80
   6   3  14   10.80    2.10
  -7  -3 -14   -0.40    0.90
  -7  -3 -14    1.00    2.20
   7   3  14    4.30    1.80
   4  -4 -14    1.90    2.30
  -4   4  14   -4.60    2.40
  -4   4  14    0.20    1.40
   3  -4 -14    3.10    1.90
  -3   4  14   -0.20    1.30
  -3   4  14   -3.20    1.90
   2  -4 -14    1.50    1.80
  -2   4  14    2.10    1.70
  -2   4  14    2.50    1.30
   1  -4 -14   -0.50    2.60
   1  -4 -14    1.60    3.60
  -1   4  14    1.10    1.60
  -1   4  14    0.60    2.70
   0  -4 -14   78.89    8.20
   0  -4 -14   76.49    9.00
   0  -4 -14   88.49    9.40
   0   4  14   90.99    7.70
   0   4  14   82.39    8.40
  -1  -4 -14    1.60    3.00
  -1  -4 -14   -3.50    2.10
  -1  -4 -14   -2.50    2.70
   1   4  14   -0.90    1.10
   1   4  14    1.70    2.50
  -2  -4 -14  254.77   18.70
  -2  -4 -14  234.58   22.10
   2   4  14  253.57   20.50
   2   4  14  254.27   19.00
  -3  -4 -14    9.50    2.40
  -4  -4 -14  160.58   11.70
  -4  -4 -14  140.99   14.00
   4   4  14  164.88   13.20
  -5  -4 -14    7.90    1.20
  -5  -4 -14    4.90    2.10
   5   4  14    6.00    1.70
  -6  -4 -14   26.50    4.40
  -6  -4 -14   28.50    2.90
  -7  -4 -14    5.30    1.00
  -7  -4 -14    2.70    2.50
   7   4  14   10.40    2.10
   3  -5 -14   28.80    4.40
  -3   5  14   27.60    3.30
  -3   5  14   29.00    3.90
   2  -5 -14   13.70    2.50
  -2   5  14   18.70    2.80
  -2   5  14   15.30    2.20
   1  -5 -14    1.90    3.60
   1  -5 -14   -1.50    3.60
   1  -5 -14   -0.70    3.00
  -1   5  14   -3.50    1.80
  -1   5  14    0.70    3.50
   0  -5 -14   58.59    8.00
   0  -5 -14   63.99    8.20
   0  -5 -14   57.69    7.90
   0   5  14   60.79    7.70
   0   5  14   63.59    6.10
  -1  -5 -14    1.00    3.00
   1   5  14   -0.30    3.50
  -2  -5 -14   32.50    4.00
   2   5  14   21.40    3.70
   2   5  14   28.40    3.40
  -3  -5 -14    3.60    1.80
   3   5  14    3.40    1.30
  -4  -5 -14   13.90    2.30
  -4  -5 -14   11.70    2.30
   4   5  14   10.40    2.00
  -5  -5 -14   26.60    3.00
  -5  -5 -14   21.80    4.40
   5   5  14   23.80    3.80
  -6  -5 -14   64.69    5.10
  -6  -5 -14   47.50    6.90
   6   5  14   67.59    6.40
   2  -6 -14   -3.40    1.90
   2  -6 -14    3.00    3.20
  -2   6  14    2.00    1.80
  -2   6  14    0.50    2.10
   1  -6 -14    2.60    1.70
  -1   6  14   -3.40    1.90
  -1   6  14    0.70    1.60
   0  -6 -14    2.10    3.70
   0  -6 -14    6.90    3.70
   0   6  14    4.00    1.70
  -1  -6 -14   10.40    2.30
  -1  -6 -14   13.80    3.50
   1   6  14   23.30    6.30
   1   6  14   11.60    2.10
  -2  -6 -14   11.20    3.30
  -2  -6 -14   10.60    2.10
   2   6  14    6.80    1.60
   2   6  14   12.60    4.60
  -3  -6 -14    0.30    1.90
  -3  -6 -14   -0.20    1.40
   3   6  14    1.80    1.40
  -4  -6 -14   37.70    4.10
  -4  -6 -14   36.90    5.30
   4   6  14   45.60    4.70
  -5  -6 -14   23.30    4.40
  -5  -6 -14   26.40    3.20
   5   6  14   22.80    4.00
  -6  -6 -14   18.10    2.80
  -6  -6 -14   10.40    3.00
   6   6  14   13.10    2.50
   1  -7 -14   17.10    3.00
   1  -7 -14   10.80    2.20
  -1   7  14    7.10    2.30
  -1   7  14    9.60    2.00
   0  -7 -14    1.10    4.40
   0  -7 -14    2.70    1.70
   0   7  14    1.30    1.80
   0   7  14    0.90    1.90
  -1  -7 -14    0.10    3.80
  -1  -7 -14   -0.60    1.80
   1   7  14    2.50    4.70
   1   7  14   -2.20    1.50
  -2  -7 -14    2.10    2.20
  -2  -7 -14    9.80    1.60
   2   7  14    6.10    1.70
  -3  -7 -14   11.40    2.20
  -3  -7 -14   16.10    2.80
   3   7  14   15.90    2.30
  -4  -7 -14    4.90    1.60
  -4  -7 -14    4.40    2.30
   4   7  14    7.10    1.80
  -5  -7 -14    4.80    1.70
  -5  -7 -14    1.70    2.50
   5   7  14    1.50    1.90
   1   5 -15    3.10    6.30
   1   5 -15   -0.20    2.60
  -1  -5  15    8.60    3.30
  -1  -5  15    2.90    2.30
   0   5 -15   34.60    5.10
   0   5 -15   31.60    5.20
   0  -5  15   19.20    6.50
  -1   5 -15    4.30    2.50
   1  -5  15   -4.10    2.80
   3   4 -15   12.60    2.90
  -3  -4  15    7.70    1.60
  -3  -4  15   10.50    2.20
   2   4 -15   -0.10    2.40
  -2  -4  15    6.70    1.80
  -2  -4  15    1.80    1.50
   1   4 -15   -2.40    4.70
   1   4 -15    0.20    2.60
  -1  -4  15    1.60    6.10
  -1  -4  15   -6.30    5.30
   0   4 -15    7.10    2.40
   0   4 -15    6.60    4.70
   0  -4  15    2.70    4.70
   0  -4  15    1.70    4.10
  -1   4 -15    9.60    2.50
  -1   4 -15    9.80    2.20
   1  -4  15    7.40    2.60
  -2   4 -15    8.00    2.60
   2  -4  15    1.70    2.40
  -3   4 -15   11.20    2.10
   3  -4  15    8.00    2.60
   4   3 -15    3.00    2.70
  -4  -3  15    1.30    1.30
  -4  -3  15    0.80    1.80
   3   3 -15   53.99    6.00
  -3  -3  15   41.10    4.50
  -3  -3  15   44.30    5.00
   2   3 -15    3.70    2.30
  -2  -3  15    2.70    1.60
  -2  -3  15   -0.60    1.50
   1   3 -15    5.40    4.30
  -1  -3  15    7.40    3.30
   0   3 -15    7.90    2.60
   0   3 -15   20.40    5.60
   0  -3  15    9.10    4.90
   0  -3  15   17.30    5.80
   0  -3  15    8.10    3.80
  -1   3 -15    7.40    2.60
  -1   3 -15   15.10    5.60
   1  -3  15   11.90    4.70
   1  -3  15   10.10    3.70
  -2   3 -15    1.50    1.50
  -2   3 -15    6.70    2.40
   2  -3  15   -0.50    2.10
  -3   3 -15    6.90    2.40
  -3   3 -15    4.30    1.60
  -4   3 -15   -2.70    2.60
   4  -3  15   -2.50    2.20
   4   2 -15    6.00    2.50
  -4  -2  15    5.00    1.80
  -4  -2  15    2.40    1.40
   3   2 -15    4.60    2.70
  -3  -2  15   -0.60    1.60
  -3  -2  15    2.00    1.30
   2   2 -15    7.00    2.40
   2   2 -15    2.00    4.40
  -2  -2  15    4.30    1.60
   1   2 -15   -0.80    3.10
   1   2 -15    1.20    2.10
  -1  -2  15   -1.60    2.70
   0   2 -15    8.70    2.90
   0   2 -15    5.40    2.40
   0  -2  15    4.90    4.20
   0  -2  15    9.10    3.20
   0  -2  15    7.40    3.20
  -1   2 -15    1.70    2.80
  -1   2 -15   -0.20    2.10
   1  -2  15    1.90    4.00
   1  -2  15    2.40    3.30
   1  -2  15    1.50    3.20
  -2   2 -15   14.20    2.80
   2  -2  15    9.80    3.60
  -3   2 -15   -0.80    1.20
  -3   2 -15    0.90    2.30
   3  -2  15    5.20    2.10
  -4   2 -15    4.30    1.30
   4  -2  15    0.50    2.20
  -5   2 -15    0.70    3.00
  -5   2 -15    5.50    1.40
   5  -2  15    1.60    2.50
   5   1 -15    0.90    2.80
  -5  -1  15    3.70    2.00
  -5  -1  15    2.30    1.30
   4   1 -15    0.90    2.50
  -4  -1  15    2.30    1.20
  -4  -1  15    2.40    1.70
   3   1 -15    2.00    2.30
  -3  -1  15    0.80    1.10
  -3  -1  15    1.90    1.50
   2   1 -15    7.10    3.60
   2   1 -15    6.30    2.60
  -2  -1  15    5.50    1.70
  -2  -1  15    6.90    2.60
   1   1 -15   77.69    7.40
   1   1 -15   60.09    8.20
  -1  -1  15   61.39    7.30
   0   1 -15    3.10    2.30
   0   1 -15   -0.40    2.90
   0  -1  15    1.70    2.70
   0  -1  15   -0.60    2.70
  -1   1 -15    7.10    2.70
   1  -1  15    4.80    4.10
   1  -1  15    4.90    2.90
   1  -1  15    9.60    3.00
  -2   1 -15    2.10    2.00
   2  -1  15    1.80    2.90
   2  -1  15    0.40    2.70
   2  -1  15    0.50    3.80
  -3   1 -15    4.20    2.10
  -3   1 -15    2.90    1.10
   3  -1  15    4.00    2.90
   3  -1  15    3.50    2.00
  -4   1 -15   11.70    2.70
   4  -1  15   11.00    2.40
  -5   1 -15   10.90    2.90
  -5   1 -15   10.00    1.50
   5  -1  15    8.30    2.40
   5   0 -15    5.40    2.70
  -5   0  15   -0.50    2.10
  -5   0  15    3.40    1.30
   4   0 -15    9.00    2.60
  -4   0  15    9.60    1.60
  -4   0  15    7.20    1.90
   3   0 -15    0.20    2.20
  -3   0  15    1.00    1.00
  -3   0  15    0.90    1.60
   2   0 -15   59.89    6.30
   2   0 -15   55.39    8.90
  -2   0  15   51.19    6.20
  -2   0  15   45.50    5.40
   1   0 -15   17.50    3.80
  -1   0  15   18.80    3.10
   0   0 -15    2.40    2.80
   0   0 -15   -2.20    3.10
   0   0  15    2.80    2.30
   0   0  15   -0.80    2.50
  -1   0 -15   12.00    4.20
  -1   0 -15   20.60    4.20
   1   0  15   13.70    3.10
   1   0  15   16.70    3.50
  -2   0 -15    1.70    2.10
  -2   0 -15    3.80    3.00
  -2   0 -15   -2.00    3.60
   2   0  15    4.90    2.60
   2   0  15    3.60    3.10
  -3   0 -15   15.70    4.40
   3   0  15   14.70    3.10
  -4   0 -15   38.70    4.80
  -4   0 -15   42.60    3.70
   4   0  15   36.30    6.20
  -5   0 -15    1.50    1.10
  -5   0 -15   -2.20    1.80
  -5   0 -15    0.70    2.30
   5   0  15    1.00    3.10
  -6   0 -15    2.40    2.60
  -6   0 -15   -1.60    2.10
  -6   0 -15   -0.50    1.00
   4  -1 -15   57.29    7.40
  -4   1  15   78.79    5.90
  -4   1  15   65.69    6.90
   3  -1 -15    3.90    2.10
  -3   1  15    2.70    2.10
  -3   1  15    4.30    1.30
   2  -1 -15   94.59    9.40
   2  -1 -15  101.19   10.70
  -2   1  15   96.79    8.70
  -2   1  15   94.19    8.60
   1  -1 -15   17.30    3.80
  -1   1  15   10.90    2.20
  -1   1  15   16.20    3.00
   0  -1 -15   16.30    4.20
   0  -1 -15   16.00    3.20
   0   1  15   14.30    2.60
   0   1  15   13.80    2.90
  -1  -1 -15   25.20    3.90
  -1  -1 -15   24.40    4.70
  -1  -1 -15   23.40    3.40
   1   1  15   25.40    3.80
   1   1  15   25.00    4.70
  -2  -1 -15   10.00    3.10
  -2  -1 -15   10.60    3.90
  -2  -1 -15    7.30    2.20
   2   1  15   10.70    2.70
   2   1  15    7.20    3.40
  -3  -1 -15    1.60    2.70
  -3  -1 -15   -3.40    3.70
   3   1  15    2.60    2.50
  -4  -1 -15    1.80    3.90
  -4  -1 -15   -0.40    0.90
  -4  -1 -15    0.60    1.50
   4   1  15    0.10    2.70
  -5  -1 -15    2.80    1.00
  -5  -1 -15    2.20    4.60
  -5  -1 -15    7.80    2.00
   5   1  15    3.50    3.20
  -6  -1 -15    0.80    2.30
  -6  -1 -15    0.50    1.90
  -6  -1 -15    1.80    1.00
   6   1  15   -1.20    3.50
   4  -2 -15    7.90    2.60
  -4   2  15    6.30    2.10
  -4   2  15    4.50    1.30
   3  -2 -15    6.40    2.50
  -3   2  15    5.50    1.40
  -3   2  15    6.50    2.20
   2  -2 -15    2.90    2.00
  -2   2  15   -0.70    1.50
   1  -2 -15    7.10    3.10
   1  -2 -15   12.30    3.90
  -1   2  15    7.30    1.70
  -1   2  15    6.10    2.80
   0  -2 -15   31.00    4.50
   0  -2 -15   26.70    4.60
   0   2  15   19.50    3.20
  -1  -2 -15  204.78   18.40
  -1  -2 -15  211.58   19.00
  -1  -2 -15  203.68   15.70
   1   2  15  206.78   15.90
   1   2  15  201.98   17.10
  -2  -2 -15  214.38   20.40
  -2  -2 -15  229.48   17.30
  -2  -2 -15  239.48   20.90
   2   2  15  236.18   19.10
   2   2  15  228.68   17.50
  -3  -2 -15  139.29   13.60
  -3  -2 -15  145.69   14.10
  -3  -2 -15  151.28   11.30
   3   2  15  140.59   12.70
  -4  -2 -15   24.70    3.70
  -4  -2 -15   25.50    2.70
  -4  -2 -15   19.80    4.60
   4   2  15   26.00    3.90
  -5  -2 -15   -2.70    1.70
  -5  -2 -15   -0.20    0.90
  -6  -2 -15    1.70    2.00
   6   2  15    3.70    1.60
   4  -3 -15   -1.50    2.40
  -4   3  15   -1.70    1.20
  -4   3  15   -0.50    2.30
   3  -3 -15    2.90    2.30
  -3   3  15    1.00    1.20
  -3   3  15    4.90    2.00
   2  -3 -15   -2.10    2.10
  -2   3  15    0.90    1.10
  -2   3  15    3.00    1.70
   1  -3 -15   36.10    5.20
   1  -3 -15   27.50    4.80
  -1   3  15   24.40    3.80
  -1   3  15   24.40    3.60
   0  -3 -15   44.10    6.00
   0  -3 -15   37.00    6.60
   0  -3 -15   41.90    7.60
   0   3  15   40.70    4.40
  -1  -3 -15   12.60    2.80
  -1  -3 -15   17.30    3.50
  -1  -3 -15   17.20    4.00
   1   3  15   14.80    3.30
   1   3  15   16.10    2.80
  -2  -3 -15   18.80    3.20
  -2  -3 -15   22.90    4.10
  -2  -3 -15   19.20    3.90
   2   3  15   20.10    3.70
  -3  -3 -15   11.90    3.50
  -3  -3 -15    9.20    2.20
  -4  -3 -15  328.87   24.10
  -4  -3 -15  314.57   28.70
   4   3  15  351.26   26.90
  -5  -3 -15   50.69    4.30
  -5  -3 -15   40.10    5.80
   5   3  15   57.49    5.20
  -6  -3 -15   74.89    5.70
  -6  -3 -15   63.39    7.30
   6   3  15   74.09    6.80
   3  -4 -15   36.60    5.50
  -3   4  15   48.70    4.30
  -3   4  15   41.30    5.50
   2  -4 -15    0.00    1.90
  -2   4  15   -0.10    1.40
  -2   4  15    0.30    1.80
   1  -4 -15   13.50    3.30
  -1   4  15   18.60    3.60
  -1   4  15   12.90    2.60
   0  -4 -15    0.40    2.90
   0  -4 -15   -0.20    2.90
   0  -4 -15   -0.90    3.40
   0   4  15    3.40    1.40
   0   4  15    0.20    2.90
  -1  -4 -15    1.30    3.10
  -1  -4 -15    2.10    3.20
  -1  -4 -15    2.00    3.50
   1   4  15    2.40    1.30
  -2  -4 -15  137.69   10.80
  -2  -4 -15  129.39   13.10
   2   4  15  129.79   11.20
   3   4  15   41.00    4.40
  -4  -4 -15   59.69    6.90
  -4  -4 -15   65.39    5.50
   4   4  15   70.89    6.30
  -5  -4 -15   97.59    7.20
  -5  -4 -15   74.19    8.90
   5   4  15   99.59    8.40
  -6  -4 -15    8.10    2.40
  -6  -4 -15    6.90    1.40
   6   4  15    9.90    2.00
   2  -5 -15    4.90    2.10
  -2   5  15    9.10    2.20
  -2   5  15    8.00    1.80
   1  -5 -15   41.10    7.10
   1  -5 -15   51.99    5.50
  -1   5  15   43.10    5.30
  -1   5  15   36.90    4.70
   0  -5 -15   13.40    3.50
   0  -5 -15   14.10    3.70
   0  -5 -15   18.00    4.30
   0   5  15   20.50    4.10
   0   5  15   24.30    3.40
  -1  -5 -15   28.70    4.60
  -1  -5 -15   28.30    4.10
   1   5  15   30.60    3.70
  -2  -5 -15    2.70    2.30
   2   5  15    2.90    1.30
   2   5  15   -0.40    3.90
  -3  -5 -15   21.00    3.90
  -3  -5 -15   22.00    2.90
   3   5  15   24.80    3.20
  -4  -5 -15   15.30    2.60
  -4  -5 -15   14.00    2.70
   4   5  15   21.70    3.30
  -5  -5 -15  160.28   11.70
  -5  -5 -15  140.79   14.10
   5   5  15  158.78   13.20
  -6  -5 -15    8.00    1.40
  -6  -5 -15    4.40    2.60
   6   5  15    3.70    2.10
   1  -6 -15   -2.90    1.80
  -1   6  15    1.00    1.80
  -1   6  15   -3.70    2.00
   0  -6 -15    3.50    4.00
   0  -6 -15    2.80    4.10
   0   6  15    5.20    1.70
   0   6  15    4.40    3.80
  -1  -6 -15    2.00    3.50
  -1  -6 -15    0.70    1.70
   1   6  15    2.50    3.70
   1   6  15    0.90    1.50
  -2  -6 -15   -2.10    1.70
   2   6  15   -0.70    1.30
   2   6  15   -0.20    3.90
  -3  -6 -15    4.50    1.50
  -3  -6 -15    2.10    2.10
   3   6  15    4.20    1.50
  -4  -6 -15    3.90    1.30
  -4  -6 -15    3.60    2.10
   4   6  15    7.20    1.70
  -5  -6 -15   10.00    2.80
  -5  -6 -15   17.90    2.80
   5   6  15   13.30    2.30
   0  -7 -15    9.80    2.20
   0   7  15   13.30    2.50
   0   7  15   10.20    2.10
  -1  -7 -15   -1.10    2.00
   1   7  15   -2.30    4.50
   1   7  15   -2.50    1.60
  -2  -7 -15    5.40    2.30
  -2  -7 -15    7.50    1.70
   2   7  15    9.40    1.90
  -3  -7 -15   -0.60    2.20
  -3  -7 -15    3.70    1.50
   3   7  15    3.10    1.60
  -4  -7 -15   15.20    2.50
  -4  -7 -15   20.50    3.60
   4   7  15   26.10    3.70
   2   4 -16   -5.60    2.80
  -2  -4  16    5.30    2.00
   1   4 -16    0.30    5.40
   1   4 -16   -1.00    2.80
  -1  -4  16    5.80    2.00
  -1  -4  16    2.90    7.00
   0   4 -16   18.00    3.40
   0  -4  16   20.70    5.40
   0  -4  16   18.50    3.60
   0  -4  16   22.10    5.00
  -1   4 -16   11.30    2.70
  -1   4 -16    9.30    2.20
   1  -4  16    4.10    2.60
  -2   4 -16    7.60    2.70
  -2   4 -16    4.90    2.10
   3   3 -16   -2.30    2.90
  -3  -3  16    1.20    1.90
  -3  -3  16    1.70    1.50
   2   3 -16    0.60    2.50
  -2  -3  16    4.70    1.80
  -2  -3  16   -2.20    1.50
   1   3 -16   47.60    6.50
   1   3 -16   41.70    5.70
  -1  -3  16   32.60    4.50
  -1  -3  16   38.80    5.30
   0   3 -16   -2.90    2.40
   0   3 -16   -3.30    4.40
   0  -3  16   -0.40    4.10
   0  -3  16   -1.30    5.20
   0  -3  16    1.90    3.80
  -1   3 -16    7.80    2.70
   1  -3  16    8.80    4.10
   1  -3  16    7.50    4.90
   1  -3  16    8.00    2.50
  -2   3 -16    0.90    1.80
  -2   3 -16    3.30    2.50
   2  -3  16   -4.20    2.30
  -3   3 -16    2.20    2.60
  -3   3 -16    4.60    1.70
   4   2 -16   41.00    5.60
  -4  -2  16   27.10    4.50
  -4  -2  16   29.20    3.90
  -3  -2  16   12.00    2.50
  -3  -2  16   15.80    2.00
   2   2 -16  104.79    9.30
  -2  -2  16   82.49    8.10
  -2  -2  16   85.19    7.60
   1   2 -16    6.70    2.60
   1   2 -16    2.20    3.50
  -1  -2  16    0.30    3.10
  -1  -2  16    4.70    1.60
   0   2 -16    9.70    2.80
   0   2 -16    2.90    3.30
   0  -2  16    6.80    4.70
   0  -2  16    5.90    3.50
   0  -2  16    5.20    3.50
  -1   2 -16    2.60    2.40
  -1   2 -16   -0.90    3.30
   1  -2  16   -0.20    3.50
   1  -2  16    1.90    4.60
   1  -2  16   -0.70    3.90
  -2   2 -16    1.50    2.50
  -2   2 -16   -0.50    1.40
   2  -2  16    1.50    2.00
   2  -2  16    1.20    3.80
  -3   2 -16   25.80    4.60
  -3   2 -16   20.40    2.50
   3  -2  16   21.40    4.20
  -4   2 -16    1.80    1.40
   4  -2  16    2.90    2.30
   4   1 -16   34.50    5.60
  -4  -1  16   38.10    3.90
   3   1 -16   24.10    4.60
  -3  -1  16   31.60    3.30
  -3  -1  16   28.10    3.90
   2   1 -16    9.20    2.80
   1   1 -16   11.10    2.60
   1   1 -16    8.70    3.60
  -1  -1  16    3.30    2.90
  -1  -1  16    6.50    1.90
   0   1 -16   82.39    8.50
   0   1 -16  104.69   10.30
   0  -1  16   72.99    8.70
   0  -1  16   71.89    8.50
  -1   1 -16    1.20    2.30
  -1   1 -16    1.90    3.50
   1  -1  16    5.40    4.30
   1  -1  16    2.90    3.30
   1  -1  16    2.70    3.00
  -2   1 -16   17.00    3.30
   2  -1  16   21.40    4.00
  -3   1 -16    7.40    2.30
   3  -1  16    4.90    3.40
  -4   1 -16    1.60    2.40
  -4   1 -16    0.30    1.10
   4  -1  16   -0.20    2.20
  -5   1 -16   18.80    3.50
  -5   1 -16   22.00    2.80
   5  -1  16   15.60    3.00
   4   0 -16    3.60    2.70
  -4   0  16    3.70    1.30
   3   0 -16   43.40    6.10
  -3   0  16   48.30    5.20
  -3   0  16   46.40    4.40
   2   0 -16   32.40    4.70
  -2   0  16   23.10    4.10
   1   0 -16   49.99    8.70
   1   0 -16   64.59    6.80
  -1   0  16   55.29    6.90
  -1   0  16   52.19    5.60
   0   0 -16  172.98   15.80
   0   0 -16  197.08   15.50
   0   0  16  154.58   13.90
  -1   0 -16   27.70    4.60
   1   0  16   18.10    3.60
   1   0  16   18.70    3.60
  -2   0 -16   51.19    6.10
  -2   0 -16   42.10    7.40
   2   0  16   54.09    6.90
   2   0  16   51.39    7.70
  -3   0 -16   33.80    4.60
  -3   0 -16   39.40    3.70
   3   0  16   43.40    6.30
  -4   0 -16    3.40    2.10
  -4   0 -16    1.70    1.10
  -4   0 -16    2.00    1.80
   4   0  16    0.60    3.10
  -5   0 -16   27.60    2.90
  -5   0 -16   27.10    4.80
  -5   0 -16   21.60    3.60
   5   0  16   21.40    4.10
   4  -1 -16    6.30    2.70
  -4   1  16    4.20    2.00
  -4   1  16    5.40    1.40
   3  -1 -16   10.80    2.70
  -3   1  16    8.90    2.20
  -3   1  16    8.70    1.50
   2  -1 -16    7.80    2.80
   1  -1 -16    5.80    2.30
   1  -1 -16    1.50    3.40
  -1   1  16    0.50    2.70
  -1   1  16    1.10    1.60
   0  -1 -16   35.10    4.50
   0   1  16   37.90    4.20
   0   1  16   39.60    6.30
  -1  -1 -16   76.59    9.20
  -1  -1 -16   64.89    8.10
  -1  -1 -16   61.49    7.00
   1   1  16   64.99    7.70
   1   1  16   62.69    7.70
  -2  -1 -16   26.80    5.10
  -2  -1 -16   28.70    4.30
  -2  -1 -16   22.20    3.40
   2   1  16   30.00    4.30
   2   1  16   29.40    4.10
  -3  -1 -16   67.99    5.60
  -3  -1 -16   63.39    9.40
   3   1  16   66.89    7.70
  -4  -1 -16    0.30    0.90
  -4  -1 -16   -0.50    4.50
   4   1  16    1.00    3.20
  -5  -1 -16    2.60    1.10
  -5  -1 -16    1.40    1.90
   5   1  16    2.40    3.30
  -6  -1 -16   -0.70    2.10
  -6  -1 -16   -0.30    1.10
  -6  -1 -16    4.20    2.50
   4  -2 -16    3.50    2.60
  -4   2  16    8.10    2.30
  -4   2  16    5.40    1.40
   3  -2 -16    4.70    2.40
  -3   2  16    2.70    1.30
  -3   2  16    0.40    2.10
   2  -2 -16   21.30    4.10
  -2   2  16   16.00    2.20
  -2   2  16   11.20    2.50
   1  -2 -16   11.60    2.80
   1  -2 -16   15.50    4.30
  -1   2  16    8.60    2.90
  -1   2  16   17.00    3.10
   0  -2 -16   33.80    5.20
   0  -2 -16   25.40    3.80
   0   2  16   19.90    3.70
   0   2  16   24.80    3.60
  -1  -2 -16    9.10    4.10
  -1  -2 -16    7.90    2.90
  -1  -2 -16    9.70    3.60
   1   2  16    8.60    3.20
   1   2  16    9.00    1.70
  -2  -2 -16   30.70    4.70
  -2  -2 -16   31.80    5.10
  -2  -2 -16   26.80    3.70
   2   2  16   27.30    4.30
  -3  -2 -16   27.50    4.80
  -3  -2 -16   23.70    3.00
  -4  -2 -16   42.70    5.10
  -4  -2 -16   38.90    6.10
  -4  -2 -16   50.89    4.10
  -5  -2 -16   10.80    4.80
  -5  -2 -16   11.50    1.60
  -5  -2 -16   12.20    2.30
   5   2  16   16.50    3.00
  -6  -2 -16    2.10    1.90
   6   2  16    3.20    1.60
   3  -3 -16   -2.00    2.40
  -3   3  16    6.20    2.20
  -3   3  16   -1.40    1.20
   2  -3 -16    5.30    2.40
  -2   3  16   10.50    1.70
  -2   3  16    6.60    2.20
   1  -3 -16   21.00    3.90
   1  -3 -16   13.60    3.70
  -1   3  16   18.30    3.50
  -1   3  16   21.70    4.30
   0  -3 -16    1.40    2.80
   0  -3 -16    0.80    4.20
   0   3  16   -1.50    1.40
   0   3  16    4.50    3.10
  -1  -3 -16    7.80    3.70
  -1  -3 -16    9.40    3.30
  -1  -3 -16    5.20    2.80
   1   3  16    7.90    1.60
   1   3  16    7.80    3.30
  -2  -3 -16   23.30    4.00
  -2  -3 -16   16.90    3.10
  -2  -3 -16   24.60    4.60
   2   3  16   19.60    2.80
   2   3  16   22.50    4.10
  -3  -3 -16   21.00    2.60
   3   3  16   20.30    3.00
  -4  -3 -16   38.10    5.00
  -4  -3 -16   33.90    3.70
   4   3  16   45.10    4.40
  -5  -3 -16   91.59    9.30
  -5  -3 -16   96.99    7.60
   5   3  16  101.19    8.70
  -6  -3 -16    6.30    2.30
  -6  -3 -16    8.00    1.30
   3  -4 -16    4.80    2.50
  -3   4  16    3.20    1.60
   2  -4 -16    7.80    2.50
  -2   4  16    8.60    1.50
  -2   4  16   11.50    2.40
   1  -4 -16    5.30    2.10
   1  -4 -16    1.10    3.00
  -1   4  16    0.10    1.90
   0  -4 -16   45.70    6.80
   0  -4 -16   39.90    7.50
   0  -4 -16   44.40    6.10
   0   4  16   43.70    4.90
   0   4  16   45.60    7.30
  -1  -4 -16   -0.40    3.40
  -1  -4 -16    1.10    3.70
  -1  -4 -16    3.20    3.00
   1   4  16    1.20    1.30
   1   4  16    1.30    3.20
  -2  -4 -16   -0.30    2.40
  -2  -4 -16    1.70    3.60
   2   4  16    0.40    3.50
   2   4  16   -1.30    1.30
  -3  -4 -16   25.00    3.10
  -3  -4 -16   26.60    3.40
   3   4  16   26.70    3.50
  -4  -4 -16   29.10    3.20
  -4  -4 -16   24.30    3.70
   4   4  16   33.70    3.80
  -5  -4 -16   23.90    3.60
  -5  -4 -16   26.90    3.10
  -6  -4 -16    5.70    2.60
  -6  -4 -16    3.60    1.20
   2  -5 -16   -0.60    2.20
  -2   5  16    3.70    1.80
  -2   5  16    3.60    2.20
   1  -5 -16    4.20    2.20
  -1   5  16    7.80    2.20
  -1   5  16    7.00    1.70
   0  -5 -16    2.40    3.40
   0  -5 -16   -0.20    2.50
   0  -5 -16    4.80    4.10
   0   5  16    1.90    1.60
   0   5  16    0.50    3.30
  -1  -5 -16   12.70    4.30
  -1  -5 -16   12.90    4.10
   1   5  16   11.30    4.00
   1   5  16   12.50    2.20
  -2  -5 -16   11.10    2.10
   2   5  16    4.80    4.30
   2   5  16    6.00    1.60
  -3  -5 -16    6.20    1.40
  -3  -5 -16    2.70    1.90
   3   5  16    1.50    1.40
  -4  -5 -16   53.29    5.00
  -4  -5 -16   54.49    6.50
   4   5  16   57.29    5.70
  -5  -5 -16    1.70    1.30
  -5  -5 -16   -2.80    2.30
   5   5  16    4.00    1.80
  -1   6  16   -1.20    2.00
  -1   6  16    2.40    2.00
   0  -6 -16   17.40    3.70
   0  -6 -16   20.60    5.00
   0  -6 -16   28.40    5.20
   0   6  16   25.30    3.80
  -1  -6 -16   29.30    4.00
  -1  -6 -16   28.60    4.60
   1   6  16   23.20    3.80
   1   6  16   21.80    5.40
  -2  -6 -16   18.60    2.90
  -2  -6 -16   20.90    3.40
   2   6  16   20.00    3.10
  -3  -6 -16    8.00    1.90
  -3  -6 -16   12.40    2.30
   3   6  16    7.60    1.80
  -4  -6 -16   35.30    5.30
  -4  -6 -16   36.80    3.90
   4   6  16   31.80    4.40
  -5  -6 -16   -1.20    1.60
  -5  -6 -16    3.60    2.70
   5   6  16    1.30    1.90
  -1  -7 -16   -2.30    2.00
   1   7  16    1.80    5.20
   1   7  16    0.30    1.90
  -2  -7 -16    4.20    2.20
  -2  -7 -16   -2.80    1.70
   2   7  16    2.80    1.60
  -3  -7 -16    3.10    1.80
  -3  -7 -16    5.90    2.50
   3   7  16    4.50    1.70
   2   3 -17    4.70    2.90
  -2  -3  17    7.20    2.10
  -2  -3  17    2.90    1.70
   1   3 -17   10.30    4.80
   1   3 -17   17.00    3.50
  -1  -3  17   11.80    2.40
   0   3 -17   19.70    3.70
   0   3 -17   17.80    4.40
   0  -3  17   20.90    4.90
   0  -3  17   31.60    6.90
  -1   3 -17    3.20    3.00
   1  -3  17    6.00    4.50
  -2   3 -17    6.00    2.20
  -2   3 -17    9.20    2.90
   2  -3  17    5.50    2.50
   3   2 -17   15.70    3.40
  -3  -2  17   13.70    2.10
  -3  -2  17    8.90    2.60
   2   2 -17    1.50    2.90
  -2  -2  17    2.00    1.80
  -2  -2  17   -0.30    1.50
   1   2 -17    6.20    2.80
   1   2 -17    4.90    4.50
  -1  -2  17    7.80    3.80
  -1  -2  17    6.40    1.90
   0   2 -17    7.30    2.80
   0   2 -17    3.30    3.70
   0  -2  17    4.60    3.80
   0  -2  17    1.00    1.80
   0  -2  17    3.90    5.40
   1  -2  17   17.40    4.30
   1  -2  17   15.50    4.70
  -2   2 -17    9.60    1.90
  -2   2 -17   12.00    2.90
   2  -2  17   11.40    4.30
   2  -2  17   10.30    2.50
  -3   2 -17   11.40    2.80
  -3   2 -17    6.10    1.70
   3  -2  17    6.80    2.40
   3   1 -17    3.90    2.90
  -3  -1  17    6.20    1.40
   2   1 -17    9.80    2.90
  -2  -1  17   10.40    1.60
   1   1 -17   68.19    7.20
   1   1 -17   57.09    9.10
  -1  -1  17   55.69    6.00
  -1  -1  17   54.99    7.80
   0   1 -17   59.99    8.20
   0   1 -17   66.99    7.00
   0  -1  17   47.10    5.70
  -1   1 -17    0.40    2.50
  -1   1 -17    2.60    3.00
   1  -1  17    0.40    4.70
   1  -1  17    1.70    3.40
   1  -1  17    0.60    3.30
  -2   1 -17   10.60    3.00
  -2   1 -17   10.00    1.70
   2  -1  17   13.10    4.10
  -3   1 -17   13.40    1.90
   3  -1  17   14.50    2.70
   3  -1  17   20.90    4.20
  -4   1 -17    4.00    2.60
  -4   1 -17    3.90    1.40
   4  -1  17    3.80    2.30
   3   0 -17   30.50    5.30
  -3   0  17   22.90    3.40
  -3   0  17   31.40    4.30
   2   0 -17    9.40    2.90
  -2   0  17    8.50    2.20
  -2   0  17   10.20    1.60
   1   0 -17  151.28   13.10
   1   0 -17  142.59   13.30
  -1   0  17  122.79   11.60
  -1   0  17  128.79   11.70
   0   0 -17   21.40    4.00
   0   0 -17   20.50    3.50
   0   0  17   19.10    3.40
   0   0  17   16.80    2.70
  -1   0 -17   10.80    2.80
  -1   0 -17    8.20    2.90
   1   0  17    7.00    4.50
   1   0  17   10.90    3.80
  -2   0 -17    7.30    2.40
   2   0  17    1.60    3.30
  -3   0 -17    1.30    1.80
  -3   0 -17    6.90    2.30
  -3   0 -17    2.50    1.30
   3   0  17    6.20    3.50
  -4   0 -17    2.30    1.20
  -4   0 -17    1.10    2.00
  -4   0 -17    4.80    2.20
   4   0  17    3.80    3.60
  -5   0 -17    2.90    2.60
  -5   0 -17    0.20    2.10
  -5   0 -17    4.10    1.30
   3  -1 -17   -1.50    2.50
  -3   1  17    1.60    1.50
  -3   1  17    4.10    2.10
   2  -1 -17    4.50    2.90
  -2   1  17    6.10    1.30
   1  -1 -17    4.40    3.90
   1  -1 -17    9.80    2.80
  -1   1  17    7.80    3.10
   0  -1 -17   24.00    4.40
   0  -1 -17   18.10    4.40
   0   1  17   15.40    3.70
   0   1  17   13.70    2.40
  -1  -1 -17    1.40    2.80
  -1  -1 -17    4.30    3.60
   1   1  17    4.10    1.70
   1   1  17    5.00    3.40
  -2  -1 -17   40.50    8.30
  -2  -1 -17   48.10    7.50
   2   1  17   51.59    7.60
  -3  -1 -17    3.10    1.70
  -3  -1 -17    0.40    1.20
  -3  -1 -17    0.60    4.80
  -4  -1 -17   27.10    3.20
  -4  -1 -17   31.00    4.20
  -5  -1 -17    9.60    2.40
  -5  -1 -17    5.60    1.20
  -5  -1 -17    4.60    2.10
   3  -2 -17   -1.60    2.40
  -3   2  17   -4.60    2.30
  -3   2  17    0.60    1.30
   2  -2 -17    6.30    2.50
  -2   2  17    4.60    1.90
   1  -2 -17    1.60    3.90
   1  -2 -17    1.10    2.40
  -1   2  17    1.20    1.70
  -1   2  17    3.50    2.90
   0  -2 -17   38.00    4.80
   0   2  17   35.70    4.60
   0   2  17   29.90    4.30
  -1  -2 -17   -1.30    4.40
  -1  -2 -17    0.70    2.80
  -1  -2 -17   -1.40    3.30
   1   2  17   -1.90    1.50
   1   2  17   -0.20    2.90
  -2  -2 -17    0.20    3.40
  -2  -2 -17    0.50    4.00
  -2  -2 -17    1.40    2.70
   2   2  17   -2.00    3.50
   2   2  17    1.30    1.40
  -3  -2 -17   51.79    8.80
  -3  -2 -17   62.69    5.00
  -3  -2 -17   51.89    6.00
   3   2  17   55.69    5.60
  -4  -2 -17   44.90    8.80
  -4  -2 -17   53.89    5.70
   4   2  17   49.30    5.20
  -5  -2 -17  134.69   12.00
  -5  -2 -17  131.59    9.80
   5   2  17  119.39   10.90
   3  -3 -17   -1.90    2.60
  -3   3  17    3.90    1.40
  -3   3  17    1.90    2.30
   2  -3 -17   29.40    4.70
  -2   3  17   21.10    3.30
  -2   3  17   22.70    2.90
   1  -3 -17   -2.40    2.10
   1  -3 -17   -0.20    2.60
  -1   3  17    2.30    1.60
   0  -3 -17   13.70    2.80
   0   3  17   18.20    2.70
   0   3  17   21.50    3.80
  -1  -3 -17   11.20    3.70
  -1  -3 -17   11.10    4.30
  -1  -3 -17    7.60    2.60
   1   3  17   10.80    2.00
   1   3  17    9.20    3.50
  -2  -3 -17   18.70    3.40
  -2  -3 -17   21.30    4.50
  -2  -3 -17   22.80    4.80
   2   3  17   20.70    4.30
   2   3  17   17.60    3.20
  -3  -3 -17   11.30    2.30
  -3  -3 -17    8.50    1.60
   3   3  17   10.80    2.00
  -4  -3 -17    5.00    1.90
  -4  -3 -17    2.80    1.20
   4   3  17    7.10    1.60
  -5  -3 -17   20.90    4.30
  -5  -3 -17   27.10    3.00
   5   3  17   28.80    3.80
   2  -4 -17   -3.40    2.30
  -2   4  17   -0.90    1.70
  -2   4  17    4.00    2.10
   1  -4 -17    3.60    2.10
  -1   4  17    5.30    1.60
   0  -4 -17   -2.00    3.70
   0  -4 -17   -0.50    2.30
   0   4  17   -2.40    1.70
   0   4  17    0.70    3.30
  -1  -4 -17   -0.80    4.10
  -1  -4 -17   -0.80    3.50
  -1  -4 -17   -0.10    2.70
   1   4  17    0.30    3.60
   1   4  17    2.90    1.40
   2   4  17    0.80    4.20
   2   4  17   -2.40    1.30
  -3  -4 -17   14.70    2.80
  -3  -4 -17   19.00    2.80
   3   4  17   19.60    3.00
  -4  -4 -17    8.00    2.30
   4   4  17    7.40    1.80
  -5  -4 -17   13.30    2.80
  -5  -4 -17   12.60    1.90
   1  -5 -17   -2.20    2.10
  -1   5  17   -2.00    2.10
  -1   5  17    0.30    1.70
   0  -5 -17   -0.40    4.10
   0  -5 -17    0.70    2.80
   0   5  17    0.60    1.60
   0   5  17   -3.50    3.80
  -1  -5 -17    8.80    4.40
  -1  -5 -17   10.50    3.90
   1   5  17    6.40    1.80
   1   5  17    7.30    3.90
  -2  -5 -17    2.20    1.10
  -2  -5 -17   -1.60    1.90
   2   5  17   -1.50    1.40
  -3  -5 -17    4.10    1.60
  -3  -5 -17    7.80    2.30
   3   5  17    5.50    1.70
  -4  -5 -17   -1.60    1.30
  -4  -5 -17    1.20    2.30
   4   5  17    1.00    1.60
  -5  -5 -17   12.70    3.10
  -5  -5 -17   14.10    1.90
   0  -6 -17    2.80    4.10
   0  -6 -17    3.60    1.90
   0   6  17    6.80    2.00
   0   6  17    2.50    2.20
  -1  -6 -17    0.60    1.90
   1   6  17   -1.30    1.60
   1   6  17   -0.90    4.80
  -2  -6 -17    5.30    1.40
  -2  -6 -17    3.60    2.10
   2   6  17    0.50    1.70
  -3  -6 -17   31.40    4.90
  -3  -6 -17   30.40    3.70
   3   6  17   24.80    4.10
  -4  -6 -17    2.80    1.60
  -4  -6 -17    3.00    2.60
   4   6  17    4.80    1.80
   1   3 -18   53.69    6.70
  -1  -3  18   40.60    5.40
  -1  -3  18   40.90    5.40
   0   3 -18   58.69    7.20
   0  -3  18   51.39    7.40
  -1   3 -18   12.60    2.80
  -1   3 -18   18.40    3.50
   1  -3  18   16.90    5.50
   2   2 -18    0.00    3.00
  -2  -2  18    2.00    2.10
  -2  -2  18    2.10    1.70
   1   2 -18   27.10    5.80
   1   2 -18   18.00    3.80
  -1  -2  18   23.20    2.70
   0   2 -18    1.50    3.90
   0   2 -18    8.50    3.10
   0  -2  18    2.70    1.90
   0  -2  18    6.40    4.40
   0  -2  18    5.30    6.20
  -1   2 -18    7.20    1.80
  -1   2 -18   13.10    3.10
   1  -2  18    1.60    2.60
  -2   2 -18    8.90    1.90
  -2   2 -18   14.60    3.30
   2  -2  18    9.30    2.60
   2  -2  18    9.10    4.60
  -3   2 -18   14.40    2.00
   3  -2  18   11.90    2.70
   3   1 -18   12.60    3.70
  -3  -1  18   12.40    2.00
   2   1 -18   54.09    7.30
  -2  -1  18   41.20    5.80
  -2  -1  18   66.99    5.10
   1   1 -18   10.20    3.10
   1   1 -18    9.30    4.40
  -1  -1  18    5.90    2.00
   0   1 -18    5.20    3.00
   0   1 -18   10.20    3.50
   0  -1  18    8.80    3.60
   0  -1  18    7.40    2.20
  -1   1 -18   31.20    5.30
   1  -1  18   24.20    6.00
   1  -1  18   19.90    3.80
   1  -1  18   30.20    4.80
  -2   1 -18   24.90    4.20
  -2   1 -18   23.40    2.90
   2  -1  18   29.00    4.90
  -3   1 -18   14.70    2.10
  -3   1 -18   16.50    3.20
   3  -1  18   17.60    4.60
  -4   1 -18    4.00    1.60
   4  -1  18    4.70    2.50
   3   0 -18    4.40    3.00
  -3   0  18    5.90    1.50
  -3   0  18    0.20    2.00
   2   0 -18   38.10    6.50
  -2   0  18   40.60    5.00
  -2   0  18   35.30    4.10
   1   0 -18    4.70    4.70
   1   0 -18    8.90    3.10
  -1   0  18    1.30    2.00
   0   0 -18   28.60    5.20
   0   0 -18   14.80    3.80
   0   0  18   19.90    4.30
   0   0  18   20.70    3.60
  -1   0 -18   11.50    3.90
   1   0  18    5.80    2.00
   1   0  18   13.50    4.00
   1   0  18    1.00    4.80
  -2   0 -18    7.40    2.50
  -2   0 -18    3.80    1.30
   2   0  18    4.80    1.80
   2   0  18    3.90    2.40
  -3   0 -18    0.60    1.30
  -3   0 -18    1.20    2.40
  -4   0 -18   14.60    2.00
   4   0  18   16.70    4.40
   3  -1 -18    1.00    3.20
  -3   1  18    2.60    2.10
  -3   1  18    7.10    1.60
   2  -1 -18   54.29    6.70
  -2   1  18   47.60    4.70
  -2   1  18   36.70    5.50
   1  -1 -18   -1.20    4.20
   1  -1 -18    8.30    3.20
  -1   1  18    4.10    1.90
   0  -1 -18    9.70    3.90
   0   1  18    9.50    3.00
   0   1  18    5.50    1.90
  -1  -1 -18    3.00    2.60
  -1  -1 -18    1.80    3.20
  -1  -1 -18    6.30    3.90
   1   1  18    3.30    3.20
   1   1  18    3.80    1.60
  -2  -1 -18   24.70    3.20
  -2  -1 -18   19.90    3.30
   2   1  18   15.40    2.60
  -3  -1 -18   -2.40    1.80
  -3  -1 -18    2.50    2.20
  -3  -1 -18    0.10    1.20
   3   1  18    0.20    1.50
  -4  -1 -18   13.20    2.70
  -4  -1 -18   17.30    2.10
   4   1  18   20.30    3.30
  -5  -1 -18   35.40    5.10
  -5  -1 -18   26.60    4.70
   5   1  18   25.70    4.00
  -2   2  18    1.10    1.40
  -2   2  18    1.00    2.10
   1  -2 -18   16.50    5.00
   0  -2 -18   47.10    5.60
   0   2  18   34.80    4.70
   0   2  18   41.30    6.20
  -1  -2 -18   11.10    4.00
  -1  -2 -18   17.00    4.50
   1   2  18   11.60    3.90
   1   2  18    5.80    2.10
  -2  -2 -18    8.70    1.80
  -2  -2 -18   14.10    4.20
  -2  -2 -18    9.40    4.90
   2   2  18   10.20    1.90
  -3  -2 -18   17.40    2.80
  -3  -2 -18   23.10    2.80
  -3  -2 -18   15.10    5.10
   3   2  18   20.90    3.30
  -4  -2 -18   -1.50    4.90
  -4  -2 -18    3.30    1.90
  -4  -2 -18    3.40    1.30
   4   2  18    2.40    1.60
  -5  -2 -18    8.90    2.40
  -5  -2 -18    8.00    1.50
   5   2  18    5.20    1.90
   2  -3 -18   73.49    7.50
  -2   3  18   64.49    5.70
  -2   3  18   49.10    6.80
   1  -3 -18   12.70    3.10
  -1   3  18    8.10    1.80
  -1   3  18   10.00    2.20
   0  -3 -18    7.20    2.90
   0   3  18    6.40    3.40
   0   3  18    2.10    1.90
  -1  -3 -18    6.70    3.80
  -1  -3 -18    6.40    3.00
  -1  -3 -18   -1.50    4.80
   1   3  18    6.20    5.00
   1   3  18    4.90    1.60
  -2  -3 -18   25.80    3.50
  -2  -3 -18   29.30    5.60
   2   3  18   35.20    4.00
  -3  -3 -18    0.10    1.80
  -3  -3 -18   -0.70    1.40
  -3  -3 -18   -1.30    4.10
   3   3  18    0.00    1.60
  -4  -3 -18   48.10    4.40
  -4  -3 -18   48.00    5.70
   4   3  18   42.10    5.00
  -5  -3 -18    5.10    1.40
   5   3  18    7.80    1.90
   1  -4 -18   13.40    2.70
  -1   4  18    7.90    2.10
  -1   4  18    5.40    1.90
   0  -4 -18   23.30    4.40
   0  -4 -18   13.30    4.60
   0   4  18   12.30    2.50
   0   4  18   15.80    4.30
  -1  -4 -18    0.50    4.50
  -1  -4 -18   -1.80    3.40
  -1  -4 -18    0.50    4.10
   1   4  18    2.80    4.10
   1   4  18    0.30    1.70
  -2  -4 -18    3.50    1.30
  -2  -4 -18   -1.50    1.80
   2   4  18    1.10    1.60
  -3  -4 -18    8.40    2.20
  -3  -4 -18    8.80    1.60
   3   4  18    7.80    1.80
  -4  -4 -18   -1.40    1.30
  -4  -4 -18   -2.60    2.20
   4   4  18    1.90    1.60
  -5  -4 -18    0.90    2.60
  -5  -4 -18    1.20    1.50
   5   4  18    3.40    1.90
   0  -5 -18   30.00    5.70
   0  -5 -18   33.30    5.30
   0  -5 -18   44.90    7.00
   0   5  18   32.40    4.70
   0   5  18   30.90    4.70
  -1  -5 -18   -1.20    1.90
   1   5  18    0.90    4.70
   1   5  18    0.20    1.60
  -2  -5 -18   12.30    2.10
  -2  -5 -18   17.40    2.60
   2   5  18   16.80    2.60
  -3  -5 -18    5.50    2.30
  -3  -5 -18    0.90    1.40
   3   5  18    0.20    1.60
  -4  -5 -18    5.30    2.70
  -4  -5 -18   10.00    2.00
   4   5  18   11.70    2.20
  -2  -6 -18    2.40    1.80
  -2  -6 -18    2.70    2.20
   2   6  18   -1.60    1.60
   0   2 -19   58.99    7.50
   0  -2  19   50.69    5.70
   0  -2  19   46.90    6.80
  -1   2 -19  110.79   11.30
  -1   2 -19  105.79    9.00
   1   1 -19    4.50    3.40
  -1  -1  19    3.30    2.10
   0   1 -19   39.00    6.70
   0   1 -19   39.20    5.40
   0  -1  19   30.00    4.90
   0  -1  19   34.00    5.20
  -1   1 -19   44.90    6.50
  -1   1 -19   48.50    4.70
   1  -1  19   35.00    5.10
  -2   1 -19   -3.30    1.70
   2  -1  19    1.00    2.00
   2  -1  19    6.20    2.60
  -3   1 -19    6.50    1.80
  -3   1 -19    9.70    3.10
   2   0 -19   67.89    8.00
  -2   0  19   50.69    5.50
  -2   0  19   56.49    6.40
   1   0 -19   11.50    3.50
  -1   0  19    1.00    2.20
  -1   0  19    6.20    1.50
   0   0 -19   45.60    6.00
   0   0 -19   59.39    7.40
   0   0  19   44.30    5.90
   0   0  19   51.29    5.60
  -1   0 -19    3.10    3.00
   1   0  19   -1.30    3.50
   1   0  19   -1.40    5.50
   1   0  19   -2.30    1.90
  -2   0 -19    5.80    2.80
  -2   0 -19   -0.90    1.50
   2   0  19   -1.90    2.40
   2   0  19   -2.70    1.80
  -3   0 -19   18.90    3.20
  -3   0 -19   17.80    3.40
   3   0  19   22.70    3.70
   2  -1 -19   10.10    3.40
  -2   1  19    6.70    1.80
  -1   1  19   14.70    2.20
  -1   1  19   12.90    2.50
   0  -1 -19   22.50    3.90
   0  -1 -19   18.70    4.80
   0   1  19   17.10    4.10
  -1  -1 -19   14.30    3.40
   1   1  19   13.00    4.00
   1   1  19   13.50    2.30
  -2  -1 -19   38.10    4.10
  -2  -1 -19   30.80    5.20
   2   1  19   31.00    4.60
  -3  -1 -19   30.50    5.00
  -3  -1 -19   25.80    3.50
  -3  -1 -19   30.30    4.30
   3   1  19   22.70    3.10
  -4  -1 -19    7.80    2.60
  -4  -1 -19    1.80    1.40
  -4  -1 -19    4.50    2.20
   4   1  19    1.60    1.70
   2  -2 -19    6.90    3.40
  -2   2  19    2.80    2.30
  -2   2  19    4.60    1.70
   1  -2 -19    5.10    3.20
   0  -2 -19   13.10    4.30
   0   2  19   13.60    4.00
   0   2  19   14.20    2.50
  -1  -2 -19    4.90    3.90
  -1  -2 -19    1.40    2.50
  -1  -2 -19    2.80    4.00
   1   2  19    3.60    4.20
   1   2  19   -2.40    1.90
  -2  -2 -19   29.90    4.80
   2   2  19   25.20    3.40
  -3  -2 -19   50.19    5.70
  -3  -2 -19   53.39    4.70
   3   2  19   45.60    5.30
  -4  -2 -19    1.20    1.40
  -4  -2 -19    3.90    2.00
   4   2  19    2.40    1.80
   1  -3 -19   16.20    3.50
  -1   3  19    9.90    2.40
  -1   3  19   11.30    2.00
   0  -3 -19   26.50    5.20
   0   3  19   22.00    4.30
   0   3  19   33.20    5.80
  -1  -3 -19    8.90    2.50
  -1  -3 -19    7.00    4.60
   1   3  19    4.40    4.40
  -2  -3 -19   -1.40    5.10
  -2  -3 -19    0.30    2.00
  -2  -3 -19   -2.60    1.50
   2   3  19   -0.60    1.80
  -3  -3 -19    1.60    1.50
  -3  -3 -19    5.70    2.00
  -3  -3 -19    3.70    4.70
   3   3  19    1.80    1.70
  -4  -3 -19    2.60    2.20
  -4  -3 -19    4.10    1.50
   4   3  19    2.30    1.80
   0  -4 -19   52.19    6.40
   0   4  19   35.30    5.20
   1   4  19    3.60    4.30
  -2  -4 -19   82.29    6.40
  -2  -4 -19   66.49    7.50
   2   4  19   73.79    7.10
  -3  -4 -19   -1.40    1.40
  -3  -4 -19   -2.50    2.20
   3   4  19   -3.60    1.70
  -4  -4 -19   14.30    2.30
  -4  -4 -19   20.00    3.30
   4   4  19   16.00    2.70
  -1  -5 -19    3.10    1.60
  -1  -5 -19    2.20    2.10
   1   5  19    5.70    1.90
   1   5  19    3.40    4.70
  -2  -5 -19    9.00    1.80
  -2  -5 -19    9.70    2.40
   2   5  19    7.40    2.00
  -3  -5 -19   -1.10    1.80
   3   5  19   -2.80    1.70
   0   0 -20    7.50    3.80
   0   0 -20    4.80    5.10
   0   0  20    2.00    4.40
   0   0  20    5.60    2.20
  -1   0 -20   12.00    2.10
  -1   0 -20   18.40    3.70
   1   0  20   10.20    2.50
  -2   0 -20   11.50    1.90
  -2   0 -20   15.10    3.50
   2   0  20    7.60    2.70
   2   0  20    4.20    2.30
   1  -1 -20   12.40    3.90
  -1   1  20   12.10    2.60
  -1   1  20   10.90    2.00
   0  -1 -20   -1.20    3.50
   0  -1 -20   -0.50    4.80
   0   1  20    0.70    4.10
   0   1  20   -3.90    2.00
  -1  -1 -20   -1.10    1.90
  -1  -1 -20   -1.80    3.10
   1   1  20    6.10    2.10
  -2  -1 -20   -2.90    2.10
  -2  -1 -20   -1.10    1.70
  -2  -1 -20   -0.30    2.70
   2   1  20    3.30    2.00
  -3  -1 -20   12.80    3.00
  -3  -1 -20   11.50    2.50
  -3  -1 -20    9.40    1.90
   0  -2 -20    8.50    3.20
   0  -2 -20    2.70    4.60
   0   2  20   -0.30    2.00
  -1  -2 -20   10.30    2.00
  -1  -2 -20    4.90    3.10
  -1  -2 -20    6.90    4.80
   1   2  20    2.80    2.10
   1   2  20    6.70    5.00
  -2  -2 -20    0.90    1.60
  -2  -2 -20    0.20    2.50
   2   2  20   -2.70    1.90
  -3  -2 -20    1.30    2.50
   3   2  20   -0.30    1.90
   0  -3 -20   37.30    5.70
   0  -3 -20   22.80    6.10
   0   3  20   24.60    4.50
  -1  -3 -20   35.60    4.50
  -1  -3 -20   38.20    6.40
  -1  -3 -20   49.60    5.80
   1   3  20   32.50    5.00
   1   3  20   34.70    5.80
  -2  -3 -20    0.40    1.80
  -2  -3 -20   -1.80    2.10
  -2  -3 -20    3.40    2.30
   2   3  20   -1.00    1.90
  -3  -3 -20    6.10    2.30
  -3  -3 -20    3.00    1.50
   3   3  20    3.70    1.90
  -2  -4 -20    0.60    1.50
  -2  -4 -20    2.10    2.20
   2   4  20    1.10    2.00
;
_shelx_hkl_checksum              37437
#END Tags that were not found in dictionaries
loop_
_space_group_symop_operation_xyz
'x, y, z'
'-x, -y, -z'
loop_
_atom_site_label
_atom_site_type_symbol
_atom_site_fract_x
_atom_site_fract_y
_atom_site_fract_z
_atom_site_U_iso_or_equiv
_atom_site_adp_type
_atom_site_occupancy
_atom_site_site_symmetry_order
_atom_site_calc_flag
_atom_site_refinement_flags_posn
_atom_site_refinement_flags_adp
F001 F 0.3572(2) 0.1242(2) 1.19703(10) 0.0243(4) Uani 1 1 d . U
F002 F 0.1841(3) 0.7812(2) 1.18594(11) 0.0306(5) Uani 1 1 d . U
F003 F 0.2912(3) 0.0843(3) 1.36564(11) 0.0320(5) Uani 1 1 d . U
F004 F 0.1266(3) 0.7395(3) 1.35390(12) 0.0341(5) Uani 1 1 d . U
F005 F 0.1779(3) 0.3913(3) 1.44345(11) 0.0358(5) Uani 1 1 d . U
O006 O 0.1694(3) 0.3763(3) 1.06757(12) 0.0205(5) Uani 1 1 d . U
O007 O 0.2306(3) -0.1539(3) 0.64602(12) 0.0258(5) Uani 1 1 d . U
O008 O 0.4157(3) 0.2407(3) 0.97643(13) 0.0285(5) Uani 1 1 d . U
C009 C 0.2501(4) 0.2531(4) 1.01497(16) 0.0186(6) Uani 1 1 d . U
C00A C 0.0649(4) -0.1133(4) 0.93540(16) 0.0174(5) Uani 1 1 d . U
C00B C 0.1385(4) -0.2180(4) 0.86729(16) 0.0190(6) Uani 1 1 d . U
C00C C 0.1736(4) 0.0149(4) 0.94752(16) 0.0170(5) Uani 1 1 d . U
H00C H 0.2942 0.0247 0.9119 0.020 Uiso 1 1 calc R U
C00D C 0.1120(4) 0.1280(4) 1.00940(16) 0.0166(5) Uani 1 1 d . U
C00E C 0.2707(4) 0.4535(4) 1.18677(16) 0.0173(6) Uani 1 1 d . U
C00F C 0.2932(4) -0.6162(4) 0.76701(18) 0.0223(6) Uani 1 1 d . U
H00F H 0.2825 -0.6690 0.8240 0.027 Uiso 1 1 calc R U
C00G C 0.1989(4) -0.3038(4) 0.80996(17) 0.0214(6) Uani 1 1 d . U
C00H C 0.2971(4) 0.2784(4) 1.23495(17) 0.0193(6) Uani 1 1 d . U
C00I C 0.2572(4) -0.4224(4) 0.74665(18) 0.0213(6) Uani 1 1 d . U
C00J C 0.2119(4) 0.6079(4) 1.22874(18) 0.0216(6) Uani 1 1 d . U
C00K C 0.2075(4) 0.4124(4) 1.36014(17) 0.0233(6) Uani 1 1 d . U
C00L C 0.2652(4) 0.2556(4) 1.32012(18) 0.0226(6) Uani 1 1 d . U
C00M C 0.3065(4) 0.4723(4) 1.09346(17) 0.0214(6) Uani 1 1 d . U
H00A H 0.2767 0.6061 1.0686 0.026 Uiso 1 1 calc R U
H00B H 0.4499 0.4140 1.0758 0.026 Uiso 1 1 calc R U
C00N C 0.3226(4) -0.4634(4) 0.60168(17) 0.0222(6) Uani 1 1 d . U
H00N H 0.3320 -0.4114 0.5445 0.027 Uiso 1 1 calc R U
C00O C 0.1811(4) 0.5886(4) 1.31454(18) 0.0239(6) Uani 1 1 d . U
C00P C 0.2721(4) -0.3461(4) 0.66189(18) 0.0218(6) Uani 1 1 d . U
C00Q C 0.3437(4) -0.7349(4) 0.7080(2) 0.0281(7) Uani 1 1 d . U
H00Q H 0.3671 -0.8668 0.7238 0.034 Uiso 1 1 calc R U
C00R C 0.3596(5) -0.6566(4) 0.62423(19) 0.0268(6) Uani 1 1 d . U
H00R H 0.3960 -0.7360 0.5825 0.032 Uiso 1 1 calc R U
C00S C 0.2314(5) -0.0736(5) 0.56115(19) 0.0306(7) Uani 1 1 d . U
H00D H 0.3693 -0.1080 0.5332 0.046 Uiso 1 1 calc R U
H00E H 0.1874 0.0632 0.5569 0.046 Uiso 1 1 calc R U
H00G H 0.1379 -0.1204 0.5346 0.046 Uiso 1 1 calc R U
loop_
_atom_site_aniso_label
_atom_site_aniso_U_11
_atom_site_aniso_U_22
_atom_site_aniso_U_33
_atom_site_aniso_U_23
_atom_site_aniso_U_13
_atom_site_aniso_U_12
F001 0.0345(10) 0.0124(8) 0.0256(9) -0.0030(7) -0.0017(7) -0.0056(6)
F002 0.0445(11) 0.0112(8) 0.0359(10) 0.0015(7) -0.0115(8) -0.0057(7)
F003 0.0436(11) 0.0244(10) 0.0244(9) 0.0101(7) -0.0054(7) -0.0093(8)
F004 0.0375(10) 0.0293(10) 0.0383(11) -0.0188(9) -0.0037(8) -0.0033(8)
F005 0.0419(11) 0.0492(13) 0.0172(9) -0.0066(8) -0.0022(7) -0.0117(9)
O006 0.0245(10) 0.0199(10) 0.0190(10) -0.0028(8) -0.0020(7) -0.0086(8)
O007 0.0409(12) 0.0150(10) 0.0190(10) 0.0026(8) -0.0002(8) -0.0070(8)
O008 0.0305(11) 0.0280(12) 0.0308(12) -0.0092(9) 0.0061(9) -0.0152(9)
C009 0.0260(14) 0.0138(12) 0.0150(12) 0.0032(10) -0.0029(10) -0.0061(10)
C00A 0.0230(13) 0.0127(12) 0.0152(12) 0.0033(9) -0.0029(10) -0.0049(10)
C00B 0.0217(13) 0.0166(13) 0.0179(13) 0.0016(10) -0.0018(10) -0.0060(10)
C00C 0.0204(13) 0.0135(12) 0.0156(12) 0.0037(10) -0.0018(9) -0.0051(10)
C00D 0.0210(13) 0.0117(12) 0.0159(12) 0.0051(10) -0.0037(9) -0.0054(9)
C00E 0.0173(12) 0.0140(13) 0.0207(13) 0.0001(10) -0.0038(9) -0.0044(10)
C00F 0.0253(14) 0.0201(14) 0.0205(14) -0.0009(11) -0.0023(10) -0.0047(11)
C00G 0.0212(13) 0.0226(14) 0.0210(13) -0.0009(11) -0.0019(10) -0.0075(11)
C00H 0.0204(13) 0.0165(13) 0.0219(14) -0.0030(11) -0.0016(10) -0.0062(10)
C00I 0.0208(13) 0.0200(14) 0.0231(14) -0.0032(11) -0.0020(10) -0.0048(11)
C00J 0.0236(14) 0.0147(13) 0.0273(15) -0.0008(11) -0.0061(11) -0.0054(10)
C00K 0.0233(14) 0.0292(16) 0.0173(13) -0.0020(12) -0.0023(10) -0.0066(11)
C00L 0.0253(14) 0.0200(14) 0.0220(14) 0.0033(11) -0.0040(11) -0.0080(11)
C00M 0.0273(14) 0.0199(13) 0.0200(14) 0.0006(11) -0.0029(10) -0.0132(11)
C00N 0.0246(14) 0.0233(15) 0.0183(13) -0.0025(11) -0.0013(10) -0.0055(11)
C00O 0.0205(14) 0.0246(15) 0.0283(15) -0.0112(12) -0.0040(11) -0.0025(11)
C00P 0.0229(14) 0.0180(14) 0.0239(14) -0.0013(11) -0.0022(10) -0.0051(10)
C00Q 0.0293(15) 0.0180(14) 0.0363(17) -0.0040(12) -0.0064(12) -0.0025(11)
C00R 0.0331(16) 0.0217(15) 0.0269(15) -0.0096(12) -0.0023(12) -0.0051(12)
C00S 0.0406(18) 0.0258(16) 0.0226(15) 0.0035(12) -0.0027(12) -0.0074(13)
loop_
_atom_type_symbol
_atom_type_description
_atom_type_scat_dispersion_real
_atom_type_scat_dispersion_imag
_atom_type_scat_source
C C 0.0033 0.0016 'International Tables Vol C Tables 4.2.6.8 and 6.1.1.4'
H H 0.0000 0.0000 'International Tables Vol C Tables 4.2.6.8 and 6.1.1.4'
O O 0.0106 0.0060 'International Tables Vol C Tables 4.2.6.8 and 6.1.1.4'
F F 0.0171 0.0103 'International Tables Vol C Tables 4.2.6.8 and 6.1.1.4'
loop_
_geom_angle_atom_site_label_1
_geom_angle_atom_site_label_2
_geom_angle_atom_site_label_3
_geom_angle
_geom_angle_site_symmetry_1
_geom_angle_site_symmetry_3
C009 O006 C00M 117.0(2) . .
C00P O007 C00S 116.1(2) . .
O008 C009 O006 124.5(2) . .
O008 C009 C00D 123.0(2) . .
O006 C009 C00D 112.5(2) . .
C00C C00A C00D 117.5(2) . 2_557
C00C C00A C00B 117.7(2) . .
C00D C00A C00B 124.8(2) 2_557 .
C00G C00B C00A 179.4(3) . .
C00D C00C C00A 122.5(2) . .
C00C C00D C00A 119.9(2) . 2_557
C00C C00D C009 115.4(2) . .
C00A C00D C009 124.6(2) 2_557 .
C00H C00E C00J 116.8(3) . .
C00H C00E C00M 120.7(2) . .
C00J C00E C00M 122.4(2) . .
C00Q C00F C00I 122.7(3) . .
C00B C00G C00I 173.0(3) . .
F001 C00H C00L 118.5(2) . .
F001 C00H C00E 119.0(2) . .
C00L C00H C00E 122.5(3) . .
C00F C00I C00P 118.0(3) . .
C00F C00I C00G 120.9(3) . .
C00P C00I C00G 121.1(3) . .
F002 C00J C00O 118.3(3) . .
F002 C00J C00E 119.9(3) . .
C00O C00J C00E 121.8(3) . .
F005 C00K C00O 120.3(3) . .
F005 C00K C00L 119.7(3) . .
C00O C00K C00L 120.0(3) . .
F003 C00L C00H 121.5(3) . .
F003 C00L C00K 119.3(3) . .
C00H C00L C00K 119.3(3) . .
O006 C00M C00E 106.3(2) . .
C00P C00N C00R 120.5(3) . .
F004 C00O C00K 119.6(3) . .
F004 C00O C00J 120.9(3) . .
C00K C00O C00J 119.6(3) . .
O007 C00P C00N 124.9(3) . .
O007 C00P C00I 115.1(2) . .
C00N C00P C00I 120.0(3) . .
C00F C00Q C00R 118.4(3) . .
C00N C00R C00Q 120.4(3) . .
loop_
_geom_bond_atom_site_label_1
_geom_bond_atom_site_label_2
_geom_bond_distance
_geom_bond_site_symmetry_2
F001 C00H 1.348(3) .
F002 C00J 1.339(3) .
F003 C00L 1.344(3) .
F004 C00O 1.341(3) .
F005 C00K 1.341(3) .
O006 C009 1.335(3) .
O006 C00M 1.455(3) .
O007 C00P 1.373(3) .
O007 C00S 1.416(4) .
O008 C009 1.205(3) .
C009 C00D 1.502(4) .
C00A C00C 1.401(4) .
C00A C00D 1.419(4) 2_557
C00A C00B 1.436(4) .
C00B C00G 1.198(4) .
C00C C00D 1.386(4) .
C00D C00A 1.419(4) 2_557
C00E C00H 1.385(4) .
C00E C00J 1.389(4) .
C00E C00M 1.504(4) .
C00F C00Q 1.376(4) .
C00F C00I 1.390(4) .
C00G C00I 1.431(4) .
C00H C00L 1.372(4) .
C00I C00P 1.407(4) .
C00J C00O 1.382(4) .
C00K C00O 1.375(4) .
C00K C00L 1.385(4) .
C00N C00P 1.384(4) .
C00N C00R 1.388(4) .
C00Q C00R 1.396(4) .
