#------------------------------------------------------------------------------
#$Date: 2016-02-18 17:37:37 +0200 (Thu, 18 Feb 2016) $
#$Revision: 176729 $
#$URL: svn://www.crystallography.net/cod/cif/1/51/74/1517415.cif $
#------------------------------------------------------------------------------
#
# This file is available in the Crystallography Open Database (COD),
# http://www.crystallography.net/
#
# All data on this site have been placed in the public domain by the
# contributors.
#
data_1517415
loop_
_publ_author_name
'Gregoli\'nski, Janusz'
'Slepokura, Katarzyna'
'Pa\'ckowski, Tomasz'
'Lisowski, Jerzy'
_publ_section_title
;
 Expansion of a 2 + 2 Macrocycle into a 6 + 6 Macrocycle: Template Effect
 of Cadmium(II).
;
_journal_issue                   17
_journal_name_full               'Organic letters'
_journal_page_first              4372
_journal_paper_doi               10.1021/ol501602f
_journal_volume                  16
_journal_year                    2014
_chemical_formula_moiety         'C24 H26 N6'
_chemical_formula_sum            'C24 H26 N6'
_chemical_formula_weight         398.51
_chemical_name_systematic
;
 ?
;
_space_group_crystal_system      triclinic
_space_group_IT_number           2
_space_group_name_Hall           '-P 1'
_space_group_name_H-M_alt        'P -1'
_symmetry_space_group_name_Hall  '-P 1'
_symmetry_space_group_name_H-M   'P -1'
_atom_sites_solution_hydrogens   difmap
_atom_sites_solution_primary     direct
_atom_sites_solution_secondary   difmap
_audit_creation_method           SHELXL-2013
_cell_angle_alpha                94.02(4)
_cell_angle_beta                 100.02(4)
_cell_angle_gamma                104.01(4)
_cell_formula_units_Z            1
_cell_length_a                   7.468(4)
_cell_length_b                   7.906(3)
_cell_length_c                   8.990(4)
_cell_measurement_reflns_used    2221
_cell_measurement_temperature    100(2)
_cell_measurement_theta_max      29.00
_cell_measurement_theta_min      3.31
_cell_volume                     503.6(4)
_computing_cell_refinement
;
CrysAlis RED, Oxford Diffraction Ltd.,
Version 1.171.33.42 (release 29-05-2009 CrysAlis171 .NET)
(compiled May 29 2009,17:40:42)
;
_computing_data_collection
;
CrysAlis CCD, Oxford Diffraction Ltd.,
Version 1.171.33.42 (release 29-05-2009 CrysAlis171 .NET)
(compiled May 29 2009,17:40:42)
;
_computing_data_reduction
;
CrysAlis RED, Oxford Diffraction Ltd.,
Version 1.171.33.42 (release 29-05-2009 CrysAlis171 .NET)
(compiled May 29 2009,17:40:42)
;
_computing_structure_refinement  'SHELXL-2013 (Sheldrick, 2013)'
_computing_structure_solution    'SHELXS-97 (Sheldrick, 2008)'
_diffrn_ambient_temperature      100(2)
_diffrn_measured_fraction_theta_full 0.996
_diffrn_measured_fraction_theta_max 0.909
_diffrn_measurement_device_type
;
Kuma KM4-CCD kappa-geometry diffractometer with a Sapphire2 
CCD camera 
;
_diffrn_measurement_method       'omega scan'
_diffrn_radiation_type           MoK\a
_diffrn_radiation_wavelength     0.71073
_diffrn_reflns_av_R_equivalents  0.0279
_diffrn_reflns_av_unetI/netI     0.0519
_diffrn_reflns_Laue_measured_fraction_full 0.996
_diffrn_reflns_Laue_measured_fraction_max 0.909
_diffrn_reflns_limit_h_max       9
_diffrn_reflns_limit_h_min       -9
_diffrn_reflns_limit_k_max       9
_diffrn_reflns_limit_k_min       -10
_diffrn_reflns_limit_l_max       12
_diffrn_reflns_limit_l_min       -11
_diffrn_reflns_number            5146
_diffrn_reflns_point_group_measured_fraction_full 0.996
_diffrn_reflns_point_group_measured_fraction_max 0.909
_diffrn_reflns_theta_full        25.242
_diffrn_reflns_theta_max         29.021
_diffrn_reflns_theta_min         3.312
_diffrn_source                   'Enhance (Mo) X-ray Source'
_exptl_absorpt_coefficient_mu    0.081
_exptl_absorpt_correction_T_max  1.000
_exptl_absorpt_correction_T_min  0.980
_exptl_absorpt_correction_type   multi-scan
_exptl_absorpt_process_details
;
CrysAlis RED, Oxford Diffraction Ltd.,
Version 1.171.33.42 (release 29-05-2009 CrysAlis171 .NET)
(compiled May 29 2009,17:40:42)
Empirical absorption correction using spherical harmonics,
 implemented in SCALE3 ABSPACK scaling algorithm.
;
_exptl_crystal_colour            colourless
_exptl_crystal_density_diffrn    1.314
_exptl_crystal_description       block
_exptl_crystal_F_000             212
_exptl_crystal_size_max          0.14
_exptl_crystal_size_mid          0.11
_exptl_crystal_size_min          0.09
_refine_diff_density_max         0.313
_refine_diff_density_min         -0.161
_refine_diff_density_rms         0.046
_refine_ls_extinction_method     none
_refine_ls_goodness_of_fit_ref   1.005
_refine_ls_hydrogen_treatment    constr
_refine_ls_matrix_type           full
_refine_ls_number_parameters     136
_refine_ls_number_reflns         2442
_refine_ls_number_restraints     0
_refine_ls_restrained_S_all      1.005
_refine_ls_R_factor_all          0.0721
_refine_ls_R_factor_gt           0.0414
_refine_ls_shift/su_max          0.000
_refine_ls_shift/su_mean         0.000
_refine_ls_structure_factor_coef Fsqd
_refine_ls_weighting_details
'w=1/[\s^2^(Fo^2^)+(0.0440P)^2^] where P=(Fo^2^+2Fc^2^)/3'
_refine_ls_weighting_scheme      calc
_refine_ls_wR_factor_gt          0.0862
_refine_ls_wR_factor_ref         0.0929
_reflns_Friedel_coverage         0.000
_reflns_number_gt                1648
_reflns_number_total             2442
_reflns_threshold_expression     'I > 2\s(I)'
_cod_data_source_file            ol501602f_si_002.cif
_cod_data_source_block           1a
_cod_depositor_comments
'Adding full bibliography for 1517415--1517418.cif.'
_cod_database_code               1517415
#BEGIN Tags that were not found in dictionaries:
_shelx_space_group_comment
;
The symmetry employed for this shelxl refinement is uniquely defined
by the following loop, which should always be used as a source of
symmetry information in preference to the above space-group names.
They are only intended as comments.
;
_shelx_estimated_absorpt_t_min   0.989
_shelx_estimated_absorpt_t_max   0.993
_shelxl_version_number           2013-4
_shelx_res_file
;
TITL liggre in P-1
CELL 0.71073   7.468    7.906    8.990   94.02  100.02  104.01
ZERR    1.00   0.004    0.003    0.004    0.04    0.04    0.04
SFAC C H N
UNIT 24 26 6
ACTA
TEMP -173
size 0.14 0.11 0.09
CONF
L.S. 10
BOND $H
FMAP 2
PLAN 19
WGHT    0.044000
FVAR       5.48643
N1    3    0.287395    0.424937    0.566350    11.00000    0.01375    0.01702 =
         0.01796    0.00353    0.00281    0.00517
N2    3    0.530868    0.177142    0.791155    11.00000    0.01812    0.01784 =
         0.01727    0.00455    0.00543    0.00738
N3    3    0.804352    0.191389    0.574357    11.00000    0.01713    0.02019 =
         0.01760    0.00623    0.00499    0.00789
C1    1    0.233267    0.574959    0.575406    11.00000    0.01278    0.01685 =
         0.01866    0.00287    0.00236    0.00391
C2    1    0.211734    0.656816    0.711625    11.00000    0.01837    0.01584 =
         0.02179    0.00226    0.00413    0.00806
AFIX  43
H2    2    0.172179    0.762331    0.713417    11.00000   -1.20000
AFIX   0
C3    1    0.249221    0.581032    0.844045    11.00000    0.02074    0.02225 =
         0.01797    0.00127    0.00652    0.00678
AFIX  43
H3    2    0.231400    0.631386    0.937684    11.00000   -1.20000
AFIX   0
C4    1    0.312974    0.430963    0.837704    11.00000    0.01847    0.02028 =
         0.01616    0.00508    0.00263    0.00590
AFIX  43
H4    2    0.343170    0.378313    0.927324    11.00000   -1.20000
AFIX   0
C5    1    0.332175    0.358157    0.697011    11.00000    0.01333    0.01768 =
         0.01777    0.00356    0.00300    0.00377
C6    1    0.414090    0.207625    0.682257    11.00000    0.01688    0.01743 =
         0.01661    0.00245    0.00504    0.00418
AFIX  43
H6    2    0.378943    0.131726    0.589443    11.00000   -1.20000
AFIX   0
C7    1    0.624431    0.041902    0.757150    11.00000    0.01703    0.01710 =
         0.01593    0.00168    0.00320    0.00683
AFIX  13
H7    2    0.546411   -0.041967    0.667780    11.00000   -1.20000
AFIX   0
C8    1    0.677039   -0.057715    0.889307    11.00000    0.02075    0.02079 =
         0.01807    0.00575    0.00423    0.00772
AFIX  23
H8A   2    0.565872   -0.146093    0.906475    11.00000   -1.20000
H8B   2    0.733945    0.023091    0.984020    11.00000   -1.20000
AFIX   0
C9    1    0.820983   -0.145972    0.836251    11.00000    0.02349    0.02072 =
         0.02454    0.00557    0.00525    0.01088
AFIX  23
H9A   2    0.756741   -0.260492    0.775120    11.00000   -1.20000
H9B   2    0.910457   -0.165112    0.924500    11.00000   -1.20000
AFIX   0
C10   1    0.924927   -0.016289    0.738344    11.00000    0.01959    0.02276 =
         0.02016    0.00478    0.00547    0.01102
AFIX  23
H10A  2    1.058260    0.033584    0.788743    11.00000   -1.20000
H10B  2    0.920526   -0.076553    0.636949    11.00000   -1.20000
AFIX   0
C11   1    0.820616    0.128718    0.723411    11.00000    0.01766    0.01749 =
         0.01564    0.00278    0.00280    0.00693
AFIX  13
H11   2    0.886560    0.229632    0.803183    11.00000   -1.20000
AFIX   0
C12   1    0.798779    0.350203    0.569720    11.00000    0.01393    0.02082 =
         0.01783    0.00150    0.00390    0.00573
AFIX  43
H12   2    0.815742    0.423008    0.662415    11.00000   -1.20000
AFIX   0
HKLF 4

REM  liggre in P-1
REM R1 =  0.0414 for    1648 Fo > 4sig(Fo)  and  0.0721 for all    2442 data
REM    136 parameters refined using      0 restraints

END

WGHT      0.0495      0.0000

REM Highest difference peak  0.313,  deepest hole -0.161,  1-sigma level  0.046
Q1    1   0.3597  0.2818  0.6998  11.00000  0.05    0.31
Q2    1   0.3396  0.3974  0.7608  11.00000  0.05    0.28
Q3    1   0.2314  0.6122  0.6416  11.00000  0.05    0.27
Q4    1   0.1937  0.6024  0.5115  11.00000  0.05    0.27
Q5    1   0.3248  0.4043  0.6364  11.00000  0.05    0.26
Q6    1   0.8590  0.0480  0.7151  11.00000  0.05    0.25
Q7    1   0.6595  0.0050  0.8227  11.00000  0.05    0.25
Q8    1   0.2728  0.5175  0.5746  11.00000  0.05    0.24
Q9    1   0.3326  0.5365  0.8422  11.00000  0.05    0.24
Q10   1   0.6988  0.0700  0.7193  11.00000  0.05    0.23
Q11   1   0.3116  0.3805  0.4766  11.00000  0.05    0.23
Q12   1   0.5782  0.1011  0.7743  11.00000  0.05    0.22
Q13   1   0.2391  0.4817  0.8349  11.00000  0.05    0.20
Q14   1   0.2784  0.6510  0.7929  11.00000  0.05    0.20
Q15   1   0.8751  0.3023  0.5823  11.00000  0.05    0.20
Q16   1   0.8878 -0.0799  0.7912  11.00000  0.05    0.19
Q17   1   0.2440  0.5995  0.8802  11.00000  0.05    0.19
Q18   1   0.8249  0.1543  0.6413  11.00000  0.05    0.18
Q19   1   0.8835 -0.2262  0.8803  11.00000  0.05    0.17
;
_shelx_res_checksum              46448
_shelx_hkl_file
;
   0   0   2 62497.0 197.065   2
   0   0   2 62576.4 216.802   3
   0   0   3 5907.24 92.9203   2
   0   0   3 5970.28 110.912   3
   0   0  -4 58.0046 35.0014   0
   0   0   4 60.9657 82.3604   3
   0   0   4 2.35083 58.1151   2
   0   0  -5 225.550 97.3887   1
   0   0   5 121.823 80.3713   3
   0   0   5 164.824 64.1536   2
   0   0  -5 105.845 37.3516   0
   0   0  -6 4330.12 92.5249   4
   0   0   6 4092.72 140.488   3
   0   0   6 4343.07 116.053   2
   0   0  -6 4062.99 147.311   1
   0   0  -7 17884.5 163.547   4
   0   0   7 18441.8 246.124   3
   0   0   7 18435.9 217.085   2
   0   0  -8 4216.05 186.865   1
   0   0  -8 4595.29 116.731   4
   0   0   8 5137.10 147.279   2
   0   0   8 4592.36 173.700   3
   0   0  -9 63.0148 152.840   1
   0   0   9-21.2490 122.236   3
   0   0  -9 28.3850 96.9416   4
   0   0 -10 91.6514 165.112   1
   0   0  10-49.3992 149.867   3
   0   0 -11 190.051 181.451   1
   0   0  11-3.87850 159.044   3
   0   1 -11 437.007 190.185   1
   0  -1  11 543.337 159.867   3
   0  -1  10 1108.84 156.830   3
   0   1 -10 869.395 184.434   1
   0   1  -9 2732.44 185.026   1
   0  -1   9 2666.43 158.677   3
   0  -1   9 2967.66 147.796   2
   0  -1   8 6825.00 173.370   2
   0   1  -8 6730.09 205.467   1
   0  -1   8 7265.12 188.333   3
   0   1  -8 6957.88 125.569   4
   0   1  -7 6742.60 114.055   4
   0  -1   7 7097.91 169.360   3
   0  -1   7 6873.87 156.104   2
   0  -1   6 1271.54 106.575   3
   0  -1   6 1219.44 96.3487   2
   0  -1   5 10188.3 161.878   3
   0  -1   5 10314.6 152.915   2
   0  -1   4 19815.4 179.554   2
   0  -1   4 19483.8 184.551   3
   0  -1   3 1278.25 81.3265   2
   0  -1   3 1118.75 78.8990   3
   0  -1   2 124.302 65.6644   2
   0  -1   2 155.586 59.9692   3
   0  -1   1 142.915 42.8569   1
   0  -1   1 157.178 45.1805   2
   0  -1   1 176.560 43.8534   3
   0  -1  -1 70380.9 204.410   1
   0  -1  -1 70001.8 204.534   0
   0  -1  -2 96626.3 265.237   0
   0  -1  -2 97731.8 310.990   1
   0  -1  -3 678.478 87.4154   1
   0  -1  -3 610.549 60.5651   0
   0   1   3 671.915 88.1765   3
   0   1   3 701.717 49.3622   2
   0   1   4 751.081 84.3202   3
   0   1   4 801.626 58.1528   2
   0  -1  -4 762.090 93.5785   1
   0  -1  -4 830.486 60.5683   0
   0   1   5 1022.52 94.8504   3
   0  -1  -5 882.797 104.531   1
   0  -1  -5 915.943 61.9982   0
   0   1   5 944.344 66.0053   2
   0   1   6 1999.47 124.085   3
   0   1   6 1829.22 80.8227   2
   0  -1  -6 1923.32 92.2569   4
   0  -1  -6 1782.76 130.727   1
   0   1   7 1517.65 130.819   3
   0  -1  -7 1329.04 135.315   1
   0  -1  -7 1448.74 99.0065   4
   0  -1  -8 3272.21 175.692   1
   0  -1  -8 3604.70 115.542   4
   0   1   8 3403.92 167.982   3
   0   1   9 935.533 145.199   3
   0  -1  -9 885.585 161.571   1
   0  -1  -9 843.203 108.280   4
   0  -1 -10 1799.64 190.758   1
   0   1  10 2076.38 182.863   3
   0  -1 -10 2101.89 125.990   4
   0   1  11 145.934 152.915   3
   0  -1 -11-67.0366 177.288   1
   0   2 -11 217.730 181.187   1
   0   2 -10 1407.54 188.953   1
   0  -2  10 1701.92 146.974   2
   0  -2  10 1517.82 152.212   3
   0  -2   9 84.8200 127.248   3
   0  -2   9 8.36603 121.589   2
   0  -2   8 2302.18 146.936   3
   0  -2   8 2381.73 137.814   2
   0  -2   7 1599.47 117.578   2
   0  -2   7 1590.50 125.058   3
   0  -2   6 2991.36 124.182   3
   0  -2   6 2953.14 121.928   2
   0  -2   5 2610.45 108.553   3
   0  -2   5 2408.82 103.842   2
   0  -2   4 109.994 70.0980   3
   0  -2   4 74.5609 79.6069   2
   0  -2   3 3763.09 63.7732   0
   0  -2   3 3896.92 98.1407   3
   0  -2   3 3863.15 105.918   2
   0  -2   2 2763.90 82.9579   3
   0  -2   2 2715.27 86.6235   2
   0  -2   2 2792.97 85.1485   1
   0  -2   2 2955.40 70.6943   0
   0  -2   1 3.39519 58.9178   1
   0  -2   1-14.7347 58.8290   2
   0  -2   1-13.3308 65.3829   0
   0  -2   1-67.2196 62.0785   3
   0  -2   0 3917.67 90.3790   0
   0  -2   0 4087.84 87.8747   3
   0  -2   0 3995.53 77.6846   1
   0  -2   0 3925.68 63.5824   2
   0  -2  -1 10478.5 113.338   1
   0  -2  -1 10177.3 124.183   0
   0  -2  -2 2041.66 89.1572   1
   0  -2  -2 2323.79 91.9271   0
   0   2   3 25008.5 114.773   2
   0  -2  -3 24785.0 212.830   1
   0  -2  -3 25570.8 194.187   0
   0   2   4 20.5749 83.8952   3
   0  -2  -4 37.3221 86.1507   1
   0   2   4 21.7322 38.4296   2
   0  -2  -4 8.19452 70.0829   0
   0  -2  -5 2375.18 124.795   1
   0  -2  -5 2476.28 92.2811   4
   0   2   5 2410.70 124.080   3
   0  -2  -5 2419.82 91.4865   0
   0   2   5 2542.94 68.5692   2
   0  -2  -6 29.9080 70.7241   0
   0  -2  -6 134.190 82.8357   4
   0   2   6 40.4267 106.276   3
   0  -2  -6 64.1148 110.570   1
   0  -2  -7 25.4759 88.5573   4
   0  -2  -7 44.1770 120.554   1
   0   2   7 54.4147 114.259   3
   0  -2  -8 2927.32 174.213   1
   0   2   8 2495.08 161.704   3
   0  -2  -8 2932.40 123.159   4
   0  -2  -9 189.476 111.339   4
   0  -2  -9 83.0350 151.100   1
   0   2   9 123.539 149.297   3
   0  -2 -10 1600.75 135.535   4
   0   2  10 1335.75 179.899   3
   0  -2 -10 1491.46 186.343   1
   0   2  11 709.918 180.822   3
   0  -2 -11 588.848 177.535   1
   0  -2 -11 616.123 137.998   4
   0   3 -11 240.289 183.439   1
   0  -3  11 338.099 141.988   2
   0  -3  10 383.031 144.095   2
   0  -3   9 337.938 135.901   2
   0  -3   9 291.525 127.878   3
   0  -3   8 592.348 123.804   2
   0  -3   8 791.289 125.660   3
   0  -3   7 174.265 107.727   2
   0  -3   7 213.951 107.050   3
   0  -3   6 1738.14 118.214   2
   0  -3   6 1715.32 110.885   3
   0  -3   5 16121.9 196.322   3
   0  -3   5 15855.4 211.486   2
   0  -3   4 2900.24 103.828   3
   0  -3   4 2948.34 71.1378   0
   0  -3   4 2964.52 108.770   2
   0  -3   3 19901.3 180.752   3
   0  -3   3 19372.6 157.619   0
   0  -3   3 19594.3 196.769   2
   0  -3   3 19493.2 188.204   1
   0  -3   2 285.672 74.6150   3
   0  -3   2 220.887 68.7134   2
   0  -3   2 248.933 70.5225   1
   0  -3   2 223.815 74.0434   0
   0  -3   1 43.6018 62.8317   2
   0  -3   1 66.2794 64.9608   1
   0  -3   1 96.0391 76.9544   0
   0  -3   1 51.3038 72.7434   3
   0  -3   0 149.963 83.1891   0
   0  -3   0 230.942 70.9015   1
   0  -3   0 241.869 73.6286   3
   0  -3   0 153.541 48.8943   2
   0  -3  -1 186.766 82.8392   0
   0  -3  -1 127.876 67.7964   1
   0  -3  -2 2788.74 99.6965   1
   0  -3  -2 3093.70 103.863   0
   0  -3  -3 248.279 79.6894   0
   0  -3  -3 163.544 87.0772   1
   0  -3  -4 1897.51 109.580   1
   0  -3  -4 1906.33 85.9020   4
   0  -3  -4 1779.48 100.107   0
   0  -3  -5 254.481 97.1176   1
   0   3   5 267.946 107.718   3
   0  -3  -5 233.295 87.6213   4
   0  -3  -5 161.889 79.7392   0
   0   3   6 907.932 124.090   3
   0  -3  -6 884.100 98.5484   0
   0  -3  -6 796.793 118.203   1
   0  -3  -6 990.940 100.603   4
   0   3   7 62.9400 126.797   3
   0  -3  -7 285.481 100.517   4
   0  -3  -7 199.068 122.040   1
   0   3   8 955.379 143.191   3
   0  -3  -8 895.240 110.937   4
   0  -3  -8 1007.27 152.040   1
   0  -3  -9 23.1424 159.334   1
   0   3   9 35.6231 155.938   3
   0  -3  -9 53.4489 117.381   4
   0   3  10 343.937 170.314   3
   0  -3 -10 166.931 163.665   1
   0  -3 -10 209.833 123.694   4
   0  -3 -11 34.9062 139.024   4
   0  -4  11 280.268 155.496   2
   0  -4  10 22.1094 147.682   2
   0  -4   9-44.4617 127.829   2
   0  -4   8 538.893 116.567   3
   0  -4   8 746.237 131.890   2
   0  -4   7 1695.01 124.720   3
   0  -4   7 1876.85 135.336   2
   0  -4   6 841.856 108.288   3
   0  -4   6 761.895 111.063   2
   0  -4   5 23.6595 97.9121   2
   0  -4   5 50.2553 86.8758   3
   0  -4   4 480.139 66.7678   0
   0  -4   4 563.284 83.7930   3
   0  -4   4 413.519 89.3948   2
   0  -4   4 600.135 90.3879   1
   0  -4   3 1312.61 91.9400   3
   0  -4   3 1297.94 86.3006   0
   0  -4   3 1389.34 94.1881   1
   0  -4   3 1222.94 94.1700   2
   0  -4   2 534.405 81.4207   2
   0  -4   2 587.676 88.0927   0
   0  -4   2 541.444 76.5991   3
   0  -4   2 663.172 78.1865   1
   0  -4   1 10157.3 133.193   2
   0  -4   1 10252.3 141.084   1
   0  -4   1 10732.5 160.679   0
   0  -4   1 10491.0 151.086   3
   0  -4   0 11564.4 160.466   3
   0  -4   0 11388.3 146.216   1
   0  -4   0 11850.9 168.444   0
   0  -4   0 11627.6 124.507   2
   0  -4  -1 2833.09 97.6096   1
   0  -4  -1 2623.11 111.032   0
   0  -4  -2 441.502 80.7474   1
   0  -4  -2 352.971 90.8920   0
   0  -4  -2 448.021 74.4723   4
   0  -4  -3 10.1255 83.5422   1
   0  -4  -3 56.4674 90.9175   0
   0  -4  -3-40.5147 76.5230   4
   0  -4  -4 266.229 95.2228   0
   0  -4  -4 273.358 83.6446   4
   0  -4  -4 280.901 97.8965   1
   0  -4  -5 93.5917 88.6521   4
   0  -4  -5 30.5833 104.697   1
   0  -4  -5 65.1973 93.4770   0
   0   4   5 90.8964 112.199   3
   0  -4  -6 41.0286 115.591   1
   0  -4  -6 11.1687 98.0784   0
   0  -4  -6-9.43287 96.7474   4
   0   4   6 82.6578 133.320   3
   0  -4  -7 3097.65 169.068   1
   0   4   7 3454.05 187.367   3
   0  -4  -7 3293.74 131.985   4
   0  -4  -8 2434.57 133.991   4
   0  -4  -8 2178.31 173.327   1
   0   4   8 2115.09 170.720   3
   0  -4  -9 1739.04 179.307   1
   0  -4  -9 2105.32 148.274   4
   0   4   9 2039.53 182.025   3
   0  -4 -10 343.246 134.376   4
   0   4  10 406.624 170.137   3
   0  -4 -10 289.265 167.292   1
   0  -5  10 35.5380 149.395   2
   0  -5   9 139.204 140.211   2
   0  -5   8 2324.52 169.222   2
   0  -5   7 18.5886 109.700   3
   0  -5   7 133.858 119.513   2
   0  -5   6 964.667 128.055   2
   0  -5   6 1068.53 113.883   3
   0  -5   5 4287.45 146.831   1
   0  -5   5 4395.31 142.889   3
   0  -5   5 4092.89 147.639   2
   0  -5   4-31.4600 82.8804   3
   0  -5   4-38.8789 89.5486   2
   0  -5   4-39.2126 75.0307   0
   0  -5   4 42.3667 92.9762   1
   0  -5   3 9.30737 80.9813   2
   0  -5   3-17.0638 86.9337   1
   0  -5   3 32.8493 84.2685   0
   0  -5   3 74.1211 86.3474   3
   0  -5   2 2297.93 114.394   0
   0  -5   2 2211.89 101.254   2
   0  -5   2 2367.16 114.826   3
   0  -5   2 2427.02 105.900   1
   0  -5   1 519.023 80.0913   1
   0  -5   1 526.145 93.1735   3
   0  -5   1 462.725 71.5261   2
   0  -5   1 541.122 98.6757   0
   0  -5   0 21005.7 242.486   0
   0  -5   0 21517.6 234.397   3
   0  -5   0 20836.4 181.191   2
   0  -5   0 20680.3 214.418   1
   0  -5  -1 3481.89 117.974   1
   0  -5  -1 3484.48 136.844   0
   0  -5  -2 26.0581 97.5437   0
   0  -5  -2 149.479 90.3120   1
   0  -5  -2 167.812 81.7347   4
   0  -5  -3 2457.07 118.264   1
   0  -5  -3 2178.24 131.986   0
   0  -5  -3 2356.99 100.396   4
   0  -5  -4 123.131 109.994   0
   0  -5  -4 118.650 94.7429   4
   0  -5  -4 118.153 98.5865   1
   0  -5  -5 245.760 111.798   1
   0  -5  -5 234.362 100.388   4
   0  -5  -5 171.122 113.199   0
   0   5   6 93.8337 135.569   3
   0  -5  -6 39.9337 121.891   0
   0  -5  -6 149.990 108.653   4
   0  -5  -6 29.0675 118.136   1
   0  -5  -7 1781.09 161.700   1
   0   5   7 1743.27 177.350   3
   0  -5  -7 1601.70 130.445   4
   0  -5  -8 683.239 150.784   1
   0   5   8 773.388 171.162   3
   0  -5  -8 835.285 129.984   4
   0  -5  -9 1716.79 158.035   4
   0   5   9 1747.15 198.372   3
   0  -5  -9 1495.55 177.446   1
   0  -6   9 326.155 157.665   2
   0  -6   8 106.415 145.172   2
   0  -6   7 1264.36 151.756   2
   0  -6   6 900.370 115.752   3
   0  -6   6 853.591 137.053   2
   0  -6   5 261.662 103.255   3
   0  -6   5 217.674 110.333   2
   0  -6   5 239.022 111.105   1
   0  -6   4 7016.59 174.211   2
   0  -6   4 7246.32 175.447   1
   0  -6   4 7501.72 173.191   3
   0  -6   4 7144.48 164.393   0
   0  -6   3 986.173 112.252   1
   0  -6   3 818.464 107.991   2
   0  -6   3 868.282 101.926   3
   0  -6   3 938.500 107.793   0
   0  -6   2 441.573 93.0003   1
   0  -6   2 468.160 98.3580   3
   0  -6   2 423.682 87.0849   2
   0  -6   2 540.552 109.882   0
   0  -6   1 1185.90 88.2976   2
   0  -6   1 1391.03 124.966   0
   0  -6   1 1277.00 116.576   3
   0  -6   1 1377.67 102.512   1
   0  -6   0 400.816 91.9101   1
   0  -6   0 375.144 103.531   3
   0  -6   0 374.309 116.392   0
   0  -6  -1 487.602 96.8225   1
   0  -6  -1 280.038 117.996   0
   0  -6  -2 5356.50 177.296   0
   0  -6  -2 5157.28 151.691   1
   0  -6  -3 1326.26 115.499   1
   0  -6  -3 967.255 132.725   0
   0  -6  -3 1349.13 104.984   4
   0  -6  -4 411.113 132.750   0
   0  -6  -4 603.532 120.815   1
   0  -6  -4 447.172 106.747   4
   0  -6  -5 70.5925 110.485   4
   0  -6  -5 71.6399 130.121   0
   0  -6  -5 12.4038 114.022   1
   0  -6  -6-58.5804 132.139   0
   0  -6  -6 6.44005 118.734   4
   0  -6  -6-29.7682 126.670   1
   0   6   6 46.6123 151.012   3
   0   6   7 395.830 176.445   3
   0  -6  -7 70.3730 130.380   4
   0  -6  -7 130.851 136.377   1
   0   6   8 245.875 169.615   3
   0  -6  -8 148.191 134.264   4
   0  -6  -8 77.5712 143.391   1
   0  -6  -9 665.240 154.900   4
   0  -7   9 889.840 170.184   2
   0  -7   8 557.881 160.075   2
   0  -7   7 146.757 146.739   2
   0  -7   6 429.111 130.485   2
   0  -7   5 1586.30 131.323   1
   0  -7   5 1576.07 134.913   3
   0  -7   5 1578.71 137.432   2
   0  -7   4 1749.17 134.551   1
   0  -7   4 1619.61 135.585   2
   0  -7   4 1733.40 130.601   0
   0  -7   4 1514.74 130.947   3
   0  -7   3 4376.83 151.738   1
   0  -7   3 4270.05 150.617   2
   0  -7   3 4196.86 159.321   3
   0  -7   3 4564.23 167.201   0
   0  -7   2 18.3197 120.635   0
   0  -7   2 77.0655 115.113   3
   0  -7   2 54.4818 94.2770   1
   0  -7   1 65.6397 122.369   0
   0  -7   1-25.4304 98.6234   1
   0  -7   1 25.3469 107.165   3
   0  -7   0 351.513 132.670   0
   0  -7   0 319.855 94.5101   1
   0  -7  -1 729.454 110.948   1
   0  -7  -1 979.276 145.147   0
   0  -7  -2 160.509 137.010   0
   0  -7  -2-18.2973 108.162   1
   0  -7  -3 2690.03 138.367   1
   0  -7  -3 2433.88 171.254   0
   0  -7  -4 2586.60 180.135   0
   0  -7  -4 2686.77 145.717   1
   0  -7  -5 2141.45 144.162   4
   0  -7  -5 2109.19 178.179   0
   0  -7  -6 747.260 165.683   0
   0  -7  -6 862.784 143.062   4
   0   7   6 678.129 179.767   3
   0  -7  -7 608.531 143.259   4
   0   7   7 544.830 182.948   3
   0  -8   8 1693.36 184.865   2
   0  -8   7 117.319 153.791   2
   0  -8   6 152.083 143.725   2
   0  -8   5 3634.35 176.147   2
   0  -8   4 913.424 142.903   3
   0  -8   4 675.135 126.804   2
   0  -8   3 4483.12 184.931   0
   0  -8   3 4736.19 184.028   3
   0  -8   2 459.462 132.113   3
   0  -8   2 528.492 141.648   0
   0  -8   1 420.660 145.490   0
   0  -8   1 402.506 138.121   3
   0  -8   0 2421.02 176.884   0
   0  -8  -1 175.150 153.946   0
   0  -8  -2 49.3701 156.118   0
   0  -8  -3 139.014 163.205   0
   0  -8  -4 958.167 177.922   0
   0  -8  -5 118.002 166.903   0
   0  -8  -6 598.066 177.271   0
   0  -9   6 165.084 146.375   2
   0  -9   3 759.185 156.412   0
   0  -9   2 293.488 154.929   0
   0  -9   2 134.806 135.206   3
   0  -9   1 500.840 162.349   0
   0  -9   0 361.326 161.419   0
   0  -9  -1 1150.56 185.698   0
   0  -9  -2 155.758 172.598   0
   0  -9  -3 423.170 180.437   0
   0 -10   2 117.566 161.688   0
   0 -10   1-60.0030 166.433   0
   1 -10  -1 181.630 175.385   0
   1 -10   0 95.6192 170.375   0
   1 -10   1 61.0596 163.934   0
   1 -10   2 954.327 177.079   0
   1 -10   3-10.9608 150.406   0
   1  -9  -4 130.280 173.152   0
   1  -9  -3 364.591 176.112   0
   1  -9  -2 691.340 181.575   0
   1  -9  -1 585.013 171.556   0
   1  -9   0 645.149 166.512   0
   1  -9   1 2112.96 149.003   1
   1  -9   1 2013.75 182.635   0
   1  -9   2 10.4419 133.105   1
   1  -9   2 8.33476 144.807   0
   1  -9   3 401.765 145.467   0
   1  -9   3 466.540 133.438   1
   1  -9   4-9.35961 142.421   1
   1  -9   5 221.493 146.891   1
   1  -9   6 885.293 155.815   2
   1  -9   6 885.660 159.370   1
   1  -9   7 145.770 143.923   2
   1  -8  -6 992.568 158.152   1
  -1   8   6 1432.98 197.301   3
   1  -8  -6 1227.62 178.071   0
   1  -8  -5 270.702 170.494   0
   1  -8  -5 76.1177 130.821   1
   1  -8  -4 124.911 157.474   0
   1  -8  -4 222.561 135.381   1
   1  -8  -3 267.344 157.616   0
   1  -8  -3 138.730 132.869   1
   1  -8  -2 1169.08 135.560   1
   1  -8  -2 1103.86 167.038   0
   1  -8  -1 144.132 146.088   0
   1  -8  -1 43.0137 114.772   1
   1  -8   0 3089.11 148.938   1
   1  -8   0 3018.38 174.918   0
   1  -8   1 183.519 120.997   1
   1  -8   1 205.892 139.879   0
   1  -8   2 112.066 113.018   1
   1  -8   2-77.4436 131.091   0
   1  -8   3 1009.40 138.143   0
   1  -8   3 816.948 138.687   1
   1  -8   4 2.99576 128.794   1
   1  -8   4 76.5640 110.575   2
   1  -8   5 835.888 133.640   2
   1  -8   5 977.449 150.926   1
   1  -8   6 126.261 142.414   1
   1  -8   6 89.8985 136.078   2
   1  -8   7 287.147 151.466   2
   1  -8   8 1080.64 159.184   2
   1  -7  -8 66.7183 143.222   4
   1  -7  -8 272.318 151.705   1
   1  -7  -7 60.5239 144.575   1
   1  -7  -7 154.091 131.449   4
  -1   7   7 159.340 177.478   3
   1  -7  -6 269.534 145.314   1
   1  -7  -6 235.381 149.471   0
  -1   7   6 39.5173 156.969   3
   1  -7  -5 4729.36 194.237   1
   1  -7  -5 4622.42 201.667   0
   1  -7  -4 6272.86 196.262   1
   1  -7  -4 6607.21 218.042   0
   1  -7  -3 676.514 143.839   0
   1  -7  -3 621.611 125.277   1
   1  -7  -2 2165.16 136.362   1
   1  -7  -2 2072.59 158.041   0
   1  -7  -1 15.3645 110.061   1
   1  -7  -1 46.0686 124.234   0
   1  -7   0 234.284 110.211   1
   1  -7   0 392.005 128.734   0
   1  -7   1 4177.67 152.027   1
   1  -7   1 4458.14 170.797   0
   1  -7   1 3889.81 143.358   3
   1  -7   2 682.588 91.8874   2
   1  -7   2 914.302 114.929   1
   1  -7   2 773.364 125.437   0
   1  -7   2 716.679 109.609   3
   1  -7   3 3771.82 154.172   0
   1  -7   3 3858.26 154.910   1
   1  -7   3 3808.52 139.083   3
   1  -7   3 3889.55 141.162   2
   1  -7   4 9894.91 215.181   1
   1  -7   4 10180.2 201.648   0
   1  -7   4 9484.74 209.863   2
   1  -7   5 367.016 128.289   1
   1  -7   5 290.345 129.114   2
   1  -7   6 1377.15 152.105   2
   1  -7   6 1140.49 148.286   1
   1  -7   7 154.708 144.531   2
   1  -7   8 263.212 148.422   2
   1  -7   9 325.782 167.783   2
   1  -6  -9 279.662 139.234   4
   1  -6  -9 249.587 154.746   1
  -1   6   8 2600.11 198.679   3
   1  -6  -8 2510.78 147.240   4
   1  -6  -8 2037.87 179.013   1
  -1   6   7 1561.31 176.071   3
   1  -6  -7 1314.30 127.491   4
   1  -6  -7 1104.59 156.334   1
  -1   6   6 9.49553 150.322   3
   1  -6  -6 16.6000 127.349   0
   1  -6  -6 3.58323 129.801   1
   1  -6  -6-22.7718 118.010   4
   1  -6  -5 4303.59 177.029   0
   1  -6  -5 4431.92 171.503   1
   1  -6  -5 4311.31 134.945   4
  -1   6   5 4685.96 182.743   3
   1  -6  -4 16721.0 268.774   0
   1  -6  -4 15920.4 257.997   1
   1  -6  -3 21088.1 291.438   0
   1  -6  -3 20956.0 271.404   1
   1  -6  -2 104.430 115.561   0
   1  -6  -2-24.7594 98.7162   1
   1  -6  -1-120.764 98.2105   1
   1  -6  -1 40.8774 107.681   0
   1  -6   0 11.8890 109.325   0
   1  -6   0-2.70001 91.3214   1
   1  -6   1 11.2985 68.2703   2
   1  -6   1 53.7011 107.802   0
   1  -6   1 106.725 95.2855   1
   1  -6   1 38.7939 86.1984   3
   1  -6   2 692.504 98.8478   3
   1  -6   2 808.022 103.577   1
   1  -6   2 925.454 111.600   0
   1  -6   2 670.992 87.8677   2
   1  -6   3 5971.66 141.700   3
   1  -6   3 5621.40 150.412   2
   1  -6   3 6109.08 163.164   1
   1  -6   3 6214.79 155.777   0
   1  -6   4 19615.6 239.584   0
   1  -6   4 19398.4 263.643   1
   1  -6   4 19870.1 232.175   3
   1  -6   4 18995.7 259.151   2
   1  -6   5 4251.39 158.827   2
   1  -6   5 4528.65 165.742   1
   1  -6   6 6.75537 123.066   2
   1  -6   7-12.9678 136.626   2
   1  -6   8 142.123 137.527   2
   1  -6   9 116.188 147.256   2
   1  -5 -10 79.4778 142.711   4
   1  -5  -9 237.586 162.782   1
   1  -5  -9 183.546 132.335   4
  -1   5   9 214.652 177.559   3
  -1   5   8 332.256 155.371   3
   1  -5  -8 195.942 154.588   1
   1  -5  -8 187.382 120.873   4
  -1   5   7 943.038 151.650   3
   1  -5  -7 805.752 144.799   1
   1  -5  -7 712.192 119.331   4
  -1   5   6 532.488 144.700   3
   1  -5  -6 563.392 120.545   0
   1  -5  -6 566.487 101.705   4
   1  -5  -6 361.713 130.215   1
  -1   5   5 322.453 129.742   3
   1  -5  -5 337.835 115.118   1
   1  -5  -5 346.224 99.1912   4
   1  -5  -5 280.877 112.320   0
   1  -5  -4 85.8037 100.372   1
   1  -5  -4 115.590 106.960   0
   1  -5  -4 99.2823 92.3393   4
   1  -5  -3 285.847 106.372   0
   1  -5  -3 279.306 103.026   1
   1  -5  -2 3045.36 132.515   0
   1  -5  -2 3212.79 125.702   1
   1  -5  -1 4787.98 145.731   0
   1  -5  -1 4310.96 131.603   1
   1  -5   0 133.918 54.4270   2
   1  -5   0 203.307 94.8677   0
   1  -5   0 130.659 86.8938   1
   1  -5   1 93.0345 78.6715   3
   1  -5   1 77.4210 84.2719   1
   1  -5   1 76.6047 65.9447   2
   1  -5   1 68.5554 95.0242   0
   1  -5   2 890.734 97.0294   0
   1  -5   2 735.189 85.3157   2
   1  -5   2 983.260 97.0907   1
   1  -5   2 840.412 81.6279   3
   1  -5   3 99.7629 75.0452   3
   1  -5   3 93.8660 78.1949   0
   1  -5   3 131.371 93.7788   1
   1  -5   3 241.848 92.0810   2
   1  -5   4 37.2794 77.8949   3
   1  -5   4 149.585 92.3992   2
   1  -5   4 89.6455 97.6539   1
   1  -5   4 148.029 79.5723   0
   1  -5   5 185.593 84.1287   3
   1  -5   5 213.742 108.041   2
   1  -5   5 230.491 110.846   1
   1  -5   6 9285.41 209.156   2
   1  -5   7 1649.68 147.763   2
   1  -5   8 1786.81 162.688   2
   1  -5   9 268.670 147.519   2
   1  -5  10-167.089 144.058   2
   1  -4 -10 1230.39 137.458   4
   1  -4 -10 1065.34 184.690   1
  -1   4  10 1092.87 192.408   3
   1  -4  -9 32.9439 116.557   4
  -1   4   9 113.558 167.225   3
   1  -4  -9 23.8591 157.258   1
   1  -4  -8 9.71239 106.948   4
  -1   4   8-38.7062 140.949   3
   1  -4  -8 10.0727 143.524   1
   1  -4  -7 183.725 131.143   1
   1  -4  -7 141.818 102.667   4
  -1   4   7 44.7562 130.459   3
   1  -4  -6 641.964 95.5077   4
  -1   4   6 665.072 123.545   3
   1  -4  -6 629.607 106.876   0
   1  -4  -6 590.322 125.663   1
  -1   4   5 76.8708 108.296   3
   1  -4  -5 138.353 89.6702   4
   1  -4  -5 100.520 91.6716   0
   1  -4  -5 159.357 109.514   1
   1  -4  -4 860.437 87.3443   4
   1  -4  -4 978.419 105.486   1
   1  -4  -4 683.808 98.1113   0
   1  -4  -3-0.53111 76.2251   4
   1  -4  -3 60.9774 88.1899   0
   1  -4  -3-22.6650 87.7621   1
   1  -4  -2 1636.90 100.180   1
   1  -4  -2 1692.29 106.253   0
   1  -4  -1 6586.68 140.279   0
   1  -4  -1 6348.81 130.515   1
   1  -4  -1 6093.56 72.4791   2
   1  -4   0 18.5118 90.1841   0
   1  -4   0 42.1848 80.2803   1
   1  -4   0-1.77453 50.8060   2
   1  -4   1 4377.36 100.267   3
   1  -4   1 4458.78 115.094   1
   1  -4   1 4343.25 98.0861   2
   1  -4   1 4575.78 120.475   0
   1  -4   2 29.1992 76.3191   0
   1  -4   2 86.6610 80.9474   1
   1  -4   2 30.5123 63.2457   3
   1  -4   2 13.0475 72.4719   2
   1  -4   3 304.062 78.2508   0
   1  -4   3 318.196 88.6577   1
   1  -4   3 294.967 80.8892   2
   1  -4   3 321.629 67.6135   3
   1  -4   4 272.161 89.8657   2
   1  -4   4 297.692 69.5123   3
   1  -4   4 290.293 93.6090   1
   1  -4   5 345.357 97.2817   2
   1  -4   5 272.474 79.1809   3
   1  -4   6 1193.26 101.576   3
   1  -4   6 1128.47 115.032   2
   1  -4   7 803.686 127.185   2
   1  -4   8 747.355 142.226   2
   1  -4   9 1375.81 159.298   2
   1  -4  10-67.9085 136.138   2
   1  -4  11 483.769 156.911   2
   1  -3 -10 1733.14 192.085   1
  -1   3  10 1651.48 191.327   3
   1  -3 -10 1952.20 137.454   4
  -1   3   9 1106.08 173.888   3
   1  -3  -9 1042.09 117.963   4
   1  -3  -9 1194.28 169.733   1
  -1   3   8 3959.39 188.085   3
   1  -3  -8 4027.82 131.901   4
   1  -3  -8 4255.10 189.191   1
   1  -3  -7 561.730 128.791   1
  -1   3   7 620.357 122.496   3
   1  -3  -7 787.985 99.2548   4
  -1   3   6 135.869 112.107   3
   1  -3  -6 200.904 86.2897   4
   1  -3  -6 56.0834 106.677   1
   1  -3  -6 157.230 86.4872   0
  -1   3   5 122.652 95.2208   3
   1  -3  -5 47.9149 102.106   1
   1  -3  -5 90.0958 75.7188   0
   1  -3  -5 45.7697 72.8556   4
   1  -3  -4 18.4528 78.7825   0
   1  -3  -4 34.3440 69.4694   4
  -1   3   4-49.6894 94.4330   3
   1  -3  -4-28.0573 93.0682   1
   1  -3  -3 131.307 88.0076   1
   1  -3  -3 147.159 77.8389   0
   1  -3  -2 34.9001 76.9782   1
   1  -3  -2 1.76595 78.2450   0
   1  -3  -1 4315.90 54.0240   2
   1  -3  -1 4728.72 110.982   1
   1  -3  -1 4563.53 114.668   0
   1  -3   0 3828.32 72.7089   2
   1  -3   0 3987.34 104.079   1
   1  -3   0 3757.79 106.264   0
   1  -3   1 5644.05 88.9627   3
   1  -3   1 5061.38 95.6583   2
   1  -3   1 5121.12 112.196   0
   1  -3   1 5405.88 108.782   1
   1  -3   2 125.178 78.3154   1
   1  -3   2 76.4765 67.4882   0
   1  -3   2 167.791 69.3006   2
   1  -3   2 88.4644 54.8492   3
   1  -3   3 7019.34 134.676   2
   1  -3   3 6947.02 137.315   1
   1  -3   3 7275.69 106.296   3
   1  -3   4 567.472 69.2022   3
   1  -3   4 609.284 88.9347   1
   1  -3   4 707.601 84.8961   2
   1  -3   5 959.101 97.2956   2
   1  -3   5 1082.24 83.1324   3
   1  -3   6 71.6623 83.2247   3
   1  -3   6 166.386 94.4142   2
   1  -3   7 82.6245 108.634   2
   1  -3   7 6.23209 95.6319   3
   1  -3   8 579.614 119.271   2
   1  -3   9 180.056 134.131   2
   1  -3  10 318.731 147.979   2
   1  -3  11 275.095 149.841   2
  -1   3 -11 142.585 184.847   1
   1  -2 -11 759.289 183.786   1
  -1   2  11 1239.80 190.026   3
  -1   2  10 154.461 160.123   3
   1  -2 -10 134.415 165.758   1
  -1   2   9 346.950 141.498   3
   1  -2  -9 244.757 103.425   4
   1  -2  -9 253.786 152.345   1
  -1   2   8 206.380 136.014   3
   1  -2  -8 150.963 95.1821   4
   1  -2  -8 184.592 130.547   1
   1  -2  -7 1330.19 134.029   1
   1  -2  -7 1400.86 90.0876   4
  -1   2   7 1372.22 131.516   3
   1  -2  -6 175.183 77.4826   4
   1  -2  -6 138.596 112.394   1
  -1   2   6 93.8866 100.023   3
   1  -2  -5 155.079 64.1884   0
   1  -2  -5 198.071 100.086   1
  -1   2   5 184.707 44.9536   2
  -1   2   5 207.158 94.4935   3
   1  -2  -4 22304.2 182.111   0
  -1   2   4 21841.7 120.884   2
   1  -2  -4 20952.5 223.579   1
  -1   2   4 21230.4 213.997   3
   1  -2  -3 6733.17 109.862   0
  -1   2   3 6500.51 130.499   3
   1  -2  -3 6108.47 128.693   1
   1  -2  -2 2100.01 93.7467   1
   1  -2  -2 2023.75 83.0299   0
   1  -2  -1 99.3713 72.7202   0
   1  -2  -1 74.2187 75.5754   1
   1  -2   0 3869.15 88.4118   1
   1  -2   0 3725.32 92.2854   0
   1  -2   0 3753.18 65.5337   2
   1  -2   1 4019.47 59.8901   3
   1  -2   1 3774.83 82.7619   2
   1  -2   1 3535.65 88.9940   0
   1  -2   1 4043.45 92.7435   1
   1  -2   2 1152.98 54.1467   3
   1  -2   2 1022.87 77.8748   2
   1  -2   2 1156.25 82.9484   1
   1  -2   3 5922.27 119.059   2
   1  -2   3 5633.38 121.571   1
   1  -2   3 5938.35 93.1817   3
  -1   2  -4 55874.3 223.870   0
   1  -2   4 54356.9 273.769   3
   1  -2   4 55297.6 322.440   2
   1  -2   5 86.1947 81.6500   2
   1  -2   5 42.1352 74.2126   3
  -1   2  -5 95.6178 48.0280   0
   1  -2   6 6797.38 155.055   2
   1  -2   6 6889.33 147.281   3
   1  -2   7 784.066 111.401   2
   1  -2   7 844.571 110.096   3
   1  -2   8 87.6996 112.562   3
   1  -2   8 51.3330 108.640   2
  -1   2  -9 275.163 108.987   4
   1  -2   9 192.371 113.532   2
   1  -2  10 1106.12 147.392   2
  -1   2 -10 956.369 183.117   1
  -1   2 -11 2014.77 209.136   1
   1  -1 -11 343.990 180.406   1
  -1   1  11 692.676 166.879   3
  -1   1  10 370.842 156.687   3
   1  -1 -10 22.6496 166.495   1
  -1   1   9 76.4450 141.012   3
   1  -1  -9 92.1175 145.696   1
   1  -1  -8 4111.96 182.466   1
   1  -1  -8 4420.06 111.686   4
  -1   1   8 4444.32 171.947   3
   1  -1  -7 1373.55 136.037   1
   1  -1  -7 1497.37 81.9918   4
  -1   1   7 1388.39 126.427   3
  -1   1   6 13.5138 57.4021   2
   1  -1  -6 14.1403 109.874   1
  -1   1   6 53.5750 103.385   3
   1  -1  -5-2.92003 46.4739   0
  -1   1   5 29.8619 55.0214   2
   1  -1  -5 12.7091 89.1908   1
  -1   1   5 39.0186 83.7605   3
   1  -1  -4 9113.62 152.671   1
   1  -1  -4 9273.10 98.4094   0
  -1   1   4 9654.59 104.197   2
  -1   1   4 9310.84 146.399   3
  -1   1   3 8499.02 85.4163   2
   1  -1  -3 8173.89 91.7151   0
  -1   1   3 8190.89 126.471   3
   1  -1  -3 8382.24 134.303   1
   1  -1  -2 92.4791 74.9372   1
   1  -1  -2 55.2188 51.5296   0
  -1   1   2 49.2279 69.0021   3
  -1   1   1 90088.6 867.483   3
   1  -1  -1 88768.3 960.408   1
   1  -1  -1 87935.6 228.322   0
   1  -1   0 4160.85 59.3506   2
   1  -1   0 4051.23 62.9118   1
   1  -1   1 10028.9 99.8933   1
   1  -1   1 10304.7 102.755   2
   1  -1   2 5432.96 100.931   1
   1  -1   2 5167.27 98.0376   2
  -1   1  -2 5277.98 79.3530   0
   1  -1   2 5517.01 75.0349   3
   1  -1   3 9478.15 112.336   3
  -1   1  -3 10062.7 102.365   0
   1  -1   3 9965.24 131.393   2
   1  -1   4 1403.12 87.6047   2
  -1   1  -4 1388.66 58.8187   0
   1  -1   4 1311.21 81.1241   3
  -1   1  -5 6786.21 93.7249   0
   1  -1   5 6505.69 130.267   3
   1  -1   5 6675.34 133.916   2
   1  -1   6 20339.4 231.372   2
   1  -1   6 20192.0 229.093   3
   1  -1   7 734.202 93.8127   2
   1  -1   7 715.999 108.984   3
   1  -1   8 3830.62 147.972   2
   1  -1   8 3858.64 157.345   3
  -1   1  -8 3609.98 119.943   4
  -1   1  -9 1484.06 122.873   4
  -1   1  -9 1199.55 166.154   1
   1  -1   9 1579.57 144.582   3
   1  -1   9 1432.80 132.970   2
  -1   1 -10 6.35801 115.076   4
  -1   1 -10-54.4495 168.013   1
  -1   1 -11 2133.44 207.505   1
   1   0 -11 559.451 178.241   1
  -1   0  11 693.619 176.829   3
  -1   0  10 443.289 155.906   3
   1   0 -10 396.188 166.869   1
   1   0  -9 255.206 146.570   1
  -1   0   9 183.574 137.391   3
  -1   0   8 230.560 114.839   3
   1   0  -8 164.870 133.892   1
  -1   0   8 161.638 90.6130   2
  -1   0   7 1180.08 95.9555   2
  -1   0   7 1207.88 125.014   3
   1   0  -7 1256.36 125.707   1
   1   0  -7 1126.84 76.5306   4
   1   0  -6 87.0093 104.935   1
  -1   0   6-4.27337 71.5184   2
  -1   0   6 38.7795 98.2776   3
   1   0  -5 3212.59 121.338   1
  -1   0   5 3441.54 94.5569   2
  -1   0   5 2987.36 118.874   3
   1   0  -4 122.015 81.7878   1
  -1   0   4 116.094 85.9486   3
  -1   0   4 219.814 62.0775   2
  -1   0   3 4.17839 55.7758   2
   1   0  -3 24.0936 77.1898   1
  -1   0   3-32.3841 75.5973   3
   1   0  -2 11794.8 114.739   1
  -1   0   2 11501.4 121.111   3
  -1   0   2 11245.5 102.146   2
  -1   0   1 2046.99 54.6638   3
  -1   0  -1 1580.90 62.5512   0
   1   0   1 1522.58 61.8354   2
   1   0   2 24.6579 58.4406   2
   1   0   2 34.7879 59.3904   3
  -1   0  -2 8.05882 64.2627   0
  -1   0  -3 769.442 64.0144   0
   1   0   3 752.842 72.7432   2
   1   0   3 720.476 76.6015   3
  -1   0  -4 1009.96 63.3179   0
   1   0   4 1083.69 76.8555   2
   1   0   4 768.185 77.7223   3
   1   0   5 2143.68 106.249   3
   1   0   5 2318.14 92.3678   2
  -1   0  -5 2280.67 73.5426   0
  -1   0  -5 2413.42 88.5398   4
  -1   0  -6 2874.09 142.572   1
  -1   0  -6 3303.33 100.524   4
   1   0   6 3199.21 109.709   2
   1   0   6 3177.15 124.295   3
   1   0   7 10705.4 199.317   3
   1   0   7 10629.1 181.079   2
  -1   0  -7 10750.5 149.801   4
  -1   0  -7 10179.1 221.268   1
   1   0   8 2286.53 124.570   2
  -1   0  -8 2208.05 117.597   4
  -1   0  -8 1640.54 157.118   1
   1   0   8 2215.85 142.635   3
  -1   0  -9 3582.86 194.460   1
   1   0   9 3724.40 176.726   3
  -1   0  -9 3784.91 140.425   4
   1   0  10 514.513 154.151   3
  -1   0 -10 342.689 121.998   4
  -1   0 -10 266.095 167.172   1
  -1   0 -11 500.777 138.759   4
  -1   0 -11 370.657 183.065   1
  -1  -1  12-14.8204 161.380   3
   1   1 -11-19.7533 177.464   1
  -1  -1  11 129.459 162.501   3
   1   1 -10 303.992 166.152   1
  -1  -1  10 169.704 150.341   3
  -1  -1   9 2717.25 141.164   2
   1   1  -9 2538.14 179.485   1
  -1  -1   9 2854.40 174.840   3
   1   1  -8 1146.86 144.510   1
  -1  -1   8 1265.72 126.028   3
  -1  -1   8 1186.80 108.953   2
   1   1  -7 8800.73 197.911   1
  -1  -1   7 8856.95 170.837   2
  -1  -1   7 9232.61 195.571   3
  -1  -1   6 13921.8 187.180   2
  -1  -1   6 14065.0 209.984   3
  -1  -1   5 1157.57 86.5451   2
  -1  -1   5 1281.54 96.6524   3
  -1  -1   4 67.0184 79.9318   3
  -1  -1   4 10.7709 72.1109   2
  -1  -1   3 522.299 72.1838   2
  -1  -1   3 571.265 82.9824   3
  -1  -1   2 4345.10 59.8681   0
  -1  -1   2 4026.61 94.8244   2
  -1  -1   2 4134.37 97.5060   3
  -1  -1   1 120381. 1067.57   0
  -1  -1   1 118680. 304.022   2
  -1  -1   0 7421.23 98.1895   0
  -1  -1   0 7254.42 92.0853   3
  -1  -1  -1 293130. 1603.02   1
  -1  -1  -1 294172. 2038.17   0
   1   1   1 294442. 1757.70   2
  -1  -1  -2 2417.00 87.4743   0
  -1  -1  -2 2531.61 83.7088   1
   1   1   2 2336.93 71.1126   2
   1   1   3 2408.09 73.6240   2
  -1  -1  -3 2289.52 84.5079   0
  -1  -1  -3 2174.86 94.9172   1
   1   1   4 6948.34 108.489   2
  -1  -1  -4 6187.51 136.753   1
  -1  -1  -4 6715.82 114.832   0
   1   1   4 6325.29 139.019   3
  -1  -1  -5 119.488 100.744   1
  -1  -1  -5 140.632 65.7039   0
  -1  -1  -5 91.3399 79.7046   4
   1   1   5 70.2000 63.9560   2
   1   1   5 144.918 94.6394   3
   1   1   6 57.1085 96.1436   3
  -1  -1  -6-23.4123 90.8280   4
  -1  -1  -6-42.6244 105.208   1
   1   1   6-16.5783 69.7754   2
  -1  -1  -7 1131.41 135.859   1
   1   1   7 1188.76 124.978   3
  -1  -1  -7 1482.28 105.103   4
  -1  -1  -8 2203.34 121.604   4
   1   1   8 2300.95 144.743   3
  -1  -1  -8 1942.80 163.510   1
  -1  -1  -9 261.127 154.685   1
  -1  -1  -9 291.723 120.482   4
   1   1   9 176.657 146.409   3
  -1  -1 -10 115.163 165.856   1
  -1  -1 -10 361.320 125.724   4
   1   1  10 454.248 159.055   3
  -1  -1 -11 779.750 177.402   1
  -1  -1 -11 1135.18 149.263   4
   1   1  11 933.395 172.395   3
  -1  -2  12 1014.76 175.643   3
   1   2 -11 1135.39 192.914   1
  -1  -2  11 1401.19 175.931   3
  -1  -2  10 128.982 123.703   2
  -1  -2  10 127.295 142.136   3
   1   2 -10 341.821 159.316   1
  -1  -2   9 763.716 125.570   2
  -1  -2   9 649.883 142.457   3
   1   2  -9 676.139 156.480   1
  -1  -2   8 4667.88 161.694   2
  -1  -2   8 5045.45 168.630   3
  -1  -2   7 2270.24 123.509   2
  -1  -2   7 2063.60 124.708   3
  -1  -2   6 737.408 95.2459   2
  -1  -2   6 821.763 104.447   3
  -1  -2   5 114.729 83.5653   3
  -1  -2   5 157.613 80.5474   2
  -1  -2   4 47738.5 296.169   3
  -1  -2   4 47699.9 296.999   2
  -1  -2   4 45830.9 160.790   0
  -1  -2   3 5973.14 78.5491   0
  -1  -2   3 5883.24 121.702   2
  -1  -2   3 5673.91 117.344   3
  -1  -2   2 3102.53 95.2360   2
  -1  -2   2 3250.64 97.2659   3
  -1  -2   2 3423.35 80.2733   0
  -1  -2   2 3282.08 74.4398   1
  -1  -2   1 1017.52 72.8526   2
  -1  -2   1 1029.24 86.4056   3
  -1  -2   1 1092.62 50.7132   1
  -1  -2   1 1074.83 74.5287   0
  -1  -2   0 138.793 77.3162   3
  -1  -2   0 251.363 43.0946   1
  -1  -2   0 268.592 80.6580   0
  -1  -2  -1 4684.39 112.339   3
  -1  -2  -1 4744.62 81.3353   1
  -1  -2  -1 4680.51 112.559   0
   1   2   2 10123.2 102.813   2
  -1  -2  -2 10161.1 140.888   0
  -1  -2  -2 10042.1 123.309   1
   1   2   3 35833.7 190.367   2
  -1  -2  -3 34672.3 242.941   1
  -1  -2  -3 35942.8 248.411   0
   1   2   4 71.9845 51.4798   2
  -1  -2  -4 83.3691 87.1707   1
  -1  -2  -4 41.4349 71.7262   0
  -1  -2  -4 41.9016 73.3645   4
  -1  -2  -5-31.5638 81.1411   0
  -1  -2  -5-28.3806 97.8260   1
  -1  -2  -5-26.3922 89.0606   4
   1   2   5 46.1186 56.5473   2
   1   2   5 55.6573 104.432   3
  -1  -2  -6 1300.57 99.5259   0
   1   2   6 1092.50 130.049   3
  -1  -2  -6 1178.33 126.514   1
  -1  -2  -6 1375.37 99.2709   4
   1   2   7 50.4981 115.309   3
  -1  -2  -7-6.25652 100.967   4
  -1  -2  -7-82.7741 118.741   1
  -1  -2  -8 1343.66 157.330   1
  -1  -2  -8 1701.47 125.630   4
   1   2   8 1364.20 151.997   3
   1   2   9 322.849 153.035   3
  -1  -2  -9 265.743 148.895   1
  -1  -2  -9 417.023 118.768   4
  -1  -2 -10 81.1675 162.204   1
  -1  -2 -10 147.002 135.305   4
   1   2  10 285.237 152.666   3
  -1  -2 -11 706.524 153.870   4
  -1  -3  11 3071.60 186.299   3
  -1  -3  11 3172.70 187.718   2
  -1  -3  10 359.218 149.581   3
  -1  -3  10 188.375 125.085   2
   1   3 -10 214.641 162.961   1
  -1  -3   9 869.488 145.285   3
  -1  -3   9 705.518 130.934   2
  -1  -3   8 118.217 116.963   2
  -1  -3   8 90.0351 123.267   3
  -1  -3   7 2669.52 143.858   3
  -1  -3   7 2560.01 134.974   2
  -1  -3   6 600.535 102.616   3
  -1  -3   6 432.113 95.2099   2
  -1  -3   5 2198.90 120.049   3
  -1  -3   5 1973.76 107.764   2
  -1  -3   4-14.1541 78.4335   2
  -1  -3   4 21.4389 87.4017   3
  -1  -3   4 2.38473 49.3324   0
  -1  -3   3 4539.08 120.789   2
  -1  -3   3 4862.03 96.5568   0
  -1  -3   3 4762.59 102.204   1
  -1  -3   3 4632.98 119.651   3
  -1  -3   2 5112.47 92.1382   1
  -1  -3   2 5021.95 113.315   2
  -1  -3   2 5162.76 120.129   3
  -1  -3   2 5123.07 108.324   0
  -1  -3   1 3284.43 73.6547   1
  -1  -3   1 3434.58 107.801   0
  -1  -3   1 3391.42 93.4498   2
  -1  -3   1 3315.26 105.778   3
  -1  -3   0 355.610 88.6661   0
  -1  -3   0 363.115 80.8854   3
  -1  -3   0 330.779 53.7500   1
  -1  -3  -1 456.325 91.9754   3
  -1  -3  -1 541.798 87.2682   0
  -1  -3  -1 522.092 59.6468   1
  -1  -3  -2 5473.10 130.386   0
  -1  -3  -2 5318.29 109.210   1
   1   3   2 5608.24 86.1852   2
  -1  -3  -3 13.7393 85.2709   0
   1   3   3-8.03666 44.2094   2
  -1  -3  -3 11.8438 78.9625   1
  -1  -3  -3-19.7274 75.1768   4
  -1  -3  -4 12259.7 147.003   4
  -1  -3  -4 12348.9 186.925   1
  -1  -3  -4 12959.9 193.764   0
  -1  -3  -5 84.8254 98.0022   0
  -1  -3  -5 90.9633 100.562   1
  -1  -3  -5 81.2591 87.4932   4
   1   3   6 501.383 118.993   3
  -1  -3  -6 620.994 109.681   0
  -1  -3  -6 686.020 124.928   1
  -1  -3  -6 773.173 104.201   4
  -1  -3  -7 56.6584 102.274   4
   1   3   7 58.5859 137.829   3
  -1  -3  -7 22.6666 120.272   1
  -1  -3  -8 223.148 134.605   1
   1   3   8 139.167 146.140   3
  -1  -3  -8 160.617 116.332   4
   1   3   9 864.020 165.736   3
  -1  -3  -9 970.617 129.324   4
  -1  -3  -9 835.871 161.158   1
   1   3  10 155.197 163.897   3
  -1  -3 -10 152.781 161.247   1
  -1  -3 -10 225.092 138.128   4
   1   4 -11-21.7288 169.899   1
  -1  -4  11 50.5116 149.638   2
  -1  -4  10 708.339 158.514   2
  -1  -4  10 835.206 149.483   3
  -1  -4   9 71.6674 133.020   3
  -1  -4   9 84.3429 130.422   2
  -1  -4   8 160.993 128.956   2
  -1  -4   8 128.611 128.178   3
  -1  -4   7 1425.33 131.193   2
  -1  -4   7 1475.73 134.782   3
  -1  -4   6 55.4297 100.531   2
  -1  -4   6 32.7506 99.6645   3
  -1  -4   5 2096.57 124.071   2
  -1  -4   5 1856.61 119.190   3
  -1  -4   4 7691.28 162.044   2
  -1  -4   4 8002.16 128.806   0
  -1  -4   4 8333.08 168.927   3
  -1  -4   3 334.549 76.3774   1
  -1  -4   3 367.562 87.1644   2
  -1  -4   3 426.984 88.6151   3
  -1  -4   3 330.667 78.7287   0
  -1  -4   2 4598.89 129.407   3
  -1  -4   2 4591.51 118.797   0
  -1  -4   2 4283.91 100.165   1
  -1  -4   2 4518.88 122.649   2
  -1  -4   1 9.92139 78.4978   3
  -1  -4   1 8.91148 86.5359   0
  -1  -4   1 55.1029 67.9739   2
  -1  -4   1 23.6858 56.8648   1
  -1  -4   0 2.70586 81.7249   3
  -1  -4   0 51.1656 87.2064   0
  -1  -4   0 16.6313 56.4872   1
  -1  -4  -1 33.7077 91.6213   0
  -1  -4  -1 3.46221 61.1709   1
  -1  -4  -1 73.9616 88.1931   3
  -1  -4  -1 94.2067 73.8718   4
  -1  -4  -2 0.63864 69.8126   1
  -1  -4  -2-29.3329 94.0482   0
  -1  -4  -2-23.3843 75.1424   4
   1   4   2 11.3022 47.6859   2
  -1  -4  -3 614.313 101.677   0
  -1  -4  -3 606.734 88.9204   4
  -1  -4  -3 731.499 89.2795   1
  -1  -4  -4 24.0740 87.7466   4
  -1  -4  -4 10.9377 100.550   0
  -1  -4  -4 48.4366 93.3966   1
  -1  -4  -5 649.172 115.065   0
  -1  -4  -5 873.856 110.747   1
  -1  -4  -5 861.531 99.1024   4
   1   4   6 260.058 141.455   3
  -1  -4  -6 287.248 115.116   0
  -1  -4  -6 304.326 103.501   4
  -1  -4  -6 223.186 111.555   1
   1   4   7 332.649 140.365   3
  -1  -4  -7 305.806 130.936   1
  -1  -4  -7 377.502 114.772   4
  -1  -4  -8 332.950 127.250   4
   1   4   8 277.418 148.917   3
  -1  -4  -8 411.034 149.456   1
   1   4   9 633.032 178.739   3
  -1  -4  -9 588.356 143.570   4
  -1  -4  -9 601.901 164.351   1
  -1  -4 -10 0.00000 157.152   1
  -1  -4 -10 193.274 150.912   4
  -1  -5  10 654.027 157.382   2
  -1  -5   9 120.594 131.874   3
  -1  -5   9 4.56833 151.292   2
  -1  -5   8 518.027 137.201   3
  -1  -5   8 578.024 146.885   2
  -1  -5   7 2530.13 160.085   2
  -1  -5   7 2615.58 147.866   3
  -1  -5   6 522.901 113.239   3
  -1  -5   6 549.496 119.074   2
  -1  -5   5 4337.47 156.204   2
  -1  -5   5 4460.86 152.712   3
  -1  -5   4 23.9905 85.7045   1
  -1  -5   4 36.8786 78.9718   0
  -1  -5   4-36.9652 95.0670   3
  -1  -5   4-40.3167 97.6633   2
  -1  -5   3 451.429 89.0066   0
  -1  -5   3 398.328 79.3514   1
  -1  -5   3 318.598 101.203   3
  -1  -5   3 340.903 92.3878   2
  -1  -5   2 441.360 100.062   3
  -1  -5   2 504.291 94.1007   0
  -1  -5   2 493.331 71.6794   1
  -1  -5   2 472.157 89.1226   2
  -1  -5   1 353.573 78.8426   2
  -1  -5   1 332.000 101.935   3
  -1  -5   1 370.600 68.0272   1
  -1  -5   1 349.555 103.421   0
  -1  -5   0 4535.08 150.116   0
  -1  -5   0 4525.44 141.773   3
  -1  -5   0 4719.91 110.544   1
  -1  -5  -1 3369.11 141.878   0
  -1  -5  -1 3202.86 97.6372   4
  -1  -5  -1 3199.43 106.613   1
  -1  -5  -2 1840.75 100.892   1
  -1  -5  -2 1935.23 96.5732   4
  -1  -5  -2 1818.24 130.807   0
  -1  -5  -3 127.808 109.201   0
  -1  -5  -3 162.496 89.2699   1
  -1  -5  -3 116.532 92.6834   4
  -1  -5  -4 90.6604 116.736   0
  -1  -5  -4-41.0017 95.2291   1
  -1  -5  -4 90.4971 96.8059   4
  -1  -5  -5 747.445 117.185   1
  -1  -5  -5 707.956 109.993   4
  -1  -5  -5 618.575 127.713   0
  -1  -5  -6 75.1206 128.744   0
  -1  -5  -6 136.214 117.987   1
  -1  -5  -6-29.7747 114.946   4
   1   5   7 124.700 150.913   3
  -1  -5  -7 223.974 121.223   4
   1   5   8 606.900 178.933   3
  -1  -5  -8 876.424 138.563   4
  -1  -5  -9 857.271 150.845   4
  -1  -6   9 254.565 157.075   2
  -1  -6   8 1020.41 146.963   3
  -1  -6   8 755.471 152.659   2
  -1  -6   7 2606.37 169.617   2
  -1  -6   7 2806.92 165.692   3
  -1  -6   6 726.686 128.851   2
  -1  -6   6 930.278 131.132   3
  -1  -6   5 5496.97 173.770   2
  -1  -6   5 5654.80 182.312   3
  -1  -6   4 5414.94 172.670   3
  -1  -6   4 5711.17 152.730   1
  -1  -6   4 5788.80 157.571   0
  -1  -6   4 5532.56 169.487   2
  -1  -6   3 1060.81 118.334   3
  -1  -6   3 1254.18 113.920   2
  -1  -6   3 1026.77 94.7836   1
  -1  -6   3 1161.04 114.092   0
  -1  -6   2 60.7055 94.8745   2
  -1  -6   2 111.025 105.101   3
  -1  -6   2 58.6484 106.653   0
  -1  -6   2 216.261 80.7137   1
  -1  -6   1 3566.17 152.711   3
  -1  -6   1 3505.97 149.674   0
  -1  -6   0 626.026 123.276   0
  -1  -6   0 628.180 120.948   3
  -1  -6  -1 7046.71 191.150   0
  -1  -6  -2 1982.76 115.054   4
  -1  -6  -2 1998.61 147.295   0
  -1  -6  -3 1773.82 150.875   0
  -1  -6  -3 1887.78 115.165   4
  -1  -6  -4 2102.58 121.825   4
  -1  -6  -4 2017.95 162.456   0
  -1  -6  -5 66.1924 114.621   4
  -1  -6  -5 232.486 141.548   0
  -1  -6  -6 38.5198 143.720   0
  -1  -6  -6 24.8982 120.118   4
   1   6   7 315.893 174.762   3
  -1  -6  -7 141.353 139.524   4
  -1  -6  -8 508.123 151.181   4
  -1  -7   8 94.2279 146.130   2
  -1  -7   7 247.051 141.289   3
  -1  -7   7 375.737 156.302   2
  -1  -7   6-79.4131 130.743   3
  -1  -7   6 56.2531 134.262   2
  -1  -7   5 105.564 131.785   3
  -1  -7   5 97.1103 122.744   2
  -1  -7   4 11948.9 236.825   2
  -1  -7   4 12251.4 244.957   3
  -1  -7   3 10818.4 213.290   2
  -1  -7   3 10892.7 232.865   3
  -1  -7   3 10865.3 229.674   0
  -1  -7   2 468.952 131.666   3
  -1  -7   2 335.064 126.603   0
  -1  -7   1 437.134 131.174   3
  -1  -7   1 414.206 131.634   0
  -1  -7   0 1187.76 143.584   0
  -1  -7   0 1034.94 134.362   3
  -1  -7  -1 2607.44 174.064   0
  -1  -7  -2 498.932 146.961   0
  -1  -7  -3 16962.4 305.016   0
  -1  -7  -3 16619.7 211.039   4
  -1  -7  -4 2707.49 144.941   4
  -1  -7  -4 2737.10 188.717   0
  -1  -7  -5 109.487 126.161   4
  -1  -7  -5 102.121 155.591   0
  -1  -7  -6 440.147 167.592   0
  -1  -7  -6 361.552 141.091   4
  -1  -7  -7-25.3432 151.577   4
  -1  -8   7 191.686 152.948   2
  -1  -8   6 35.9541 137.546   3
  -1  -8   6 56.9717 144.988   2
  -1  -8   5 199.905 134.852   3
  -1  -8   5 139.758 129.755   2
  -1  -8   4 1519.13 157.655   3
  -1  -8   4 1655.00 145.869   2
  -1  -8   3 25.4452 138.083   3
  -1  -8   3-87.8683 141.575   0
  -1  -8   2 978.063 150.570   3
  -1  -8   2 1016.11 162.068   0
  -1  -8   1 2291.43 178.875   0
  -1  -8   1 2152.13 161.769   3
  -1  -8   0 766.074 157.742   0
  -1  -8  -1 159.617 151.347   0
  -1  -8  -2 2140.47 188.440   0
  -1  -8  -3-126.161 166.538   0
  -1  -8  -4 3621.24 215.900   0
  -1  -8  -5 313.111 173.461   0
  -1  -9   6 578.530 153.926   2
  -1  -9   4 1801.26 175.075   3
  -1  -9   3 215.736 154.558   3
  -1  -9   3-60.4827 148.383   0
  -1  -9   2 658.238 164.655   0
  -1  -9   2 770.414 160.108   3
  -1  -9   1 699.714 181.336   0
  -1  -9   0 411.111 170.504   0
  -1  -9  -1 789.631 183.234   0
  -1  -9  -2 174.596 180.854   0
  -1 -10   3 103.740 144.792   3
   2 -10  -1 16.9781 139.153   1
   2 -10  -1 207.213 174.360   0
   2 -10   0 719.083 178.214   0
   2 -10   0 634.750 145.953   1
   2 -10   1 34.1808 141.740   1
   2 -10   1 92.8808 165.122   0
   2 -10   2-14.2728 144.741   1
   2 -10   2 110.393 158.715   0
   2 -10   3 134.445 143.462   1
   2 -10   3 76.0549 150.111   0
   2 -10   4-9.48935 151.360   1
   2  -9  -5 51.5748 145.596   1
  -2   9   5 121.600 156.094   3
   2  -9  -5 167.540 166.450   0
   2  -9  -4 529.369 153.994   1
   2  -9  -4 698.653 177.062   0
   2  -9  -3-4.95225 167.421   0
   2  -9  -3 41.0680 143.309   1
   2  -9  -2 236.444 137.867   1
   2  -9  -2 207.181 163.881   0
   2  -9  -1 577.997 168.326   0
   2  -9  -1 525.650 138.069   1
   2  -9   0 4.74409 151.729   0
   2  -9   0-56.6789 135.263   1
   2  -9   1 181.548 135.455   1
   2  -9   1 30.6522 151.171   0
   2  -9   2-7.77332 132.821   1
   2  -9   2 105.757 147.081   0
   2  -9   3 380.380 143.267   1
   2  -9   3 666.150 148.239   0
   2  -9   4 114.511 146.100   1
   2  -9   5-148.321 150.235   1
   2  -9   6 169.237 146.373   2
   2  -9   6 134.656 151.226   1
   2  -8  -7 490.184 155.226   1
  -2   8   6 296.248 174.658   3
   2  -8  -6 334.591 153.646   1
   2  -8  -6 100.233 158.093   0
  -2   8   5 135.693 152.096   3
   2  -8  -5 92.4893 156.502   0
   2  -8  -5-23.5716 144.221   1
   2  -8  -4 743.627 145.396   1
   2  -8  -4 634.997 160.775   0
   2  -8  -3 354.812 154.166   0
   2  -8  -3 107.733 129.911   1
   2  -8  -2 466.999 150.470   0
   2  -8  -2 582.587 135.490   1
   2  -8  -1 91.6398 119.541   1
   2  -8  -1 234.264 145.885   0
   2  -8   0 4427.14 177.236   1
   2  -8   0 4458.10 192.111   0
   2  -8   1 2813.17 157.557   1
   2  -8   1 2713.72 166.805   0
   2  -8   2 1528.27 147.536   0
   2  -8   2 1345.90 143.730   1
   2  -8   3 60.0366 129.023   1
   2  -8   3-16.4779 125.105   0
   2  -8   4 199.286 139.917   1
   2  -8   4 198.279 123.543   2
   2  -8   5 17.7057 127.680   2
   2  -8   5 18.7585 146.428   1
   2  -8   6 460.253 155.335   1
   2  -8   6 257.439 138.029   2
   2  -8   7 4447.71 208.414   2
   2  -7  -8 754.294 164.209   1
  -2   7   7 1671.77 192.141   3
   2  -7  -7 1876.10 179.053   1
   2  -7  -6 1067.62 167.721   1
  -2   7   6 1107.21 166.970   3
   2  -7  -6 1223.33 155.541   0
  -2   7   5 400.269 149.890   3
   2  -7  -5 252.848 138.171   1
   2  -7  -5 429.072 146.401   0
   2  -7  -4 2621.19 147.499   1
   2  -7  -4 2690.03 169.641   0
   2  -7  -3 131.874 121.642   1
   2  -7  -3 18.1856 134.348   0
   2  -7  -2 262.466 118.533   1
   2  -7  -2 269.065 128.638   0
   2  -7  -1 2217.68 150.051   0
   2  -7  -1 2522.80 145.972   1
   2  -7   0 53.7124 108.829   1
   2  -7   0-77.1403 119.713   0
   2  -7   1 885.724 117.835   1
   2  -7   1 837.192 128.873   0
   2  -7   2 9117.08 176.620   2
   2  -7   2 9529.00 209.818   0
   2  -7   2 9271.32 203.960   1
   2  -7   3 5075.48 174.546   1
   2  -7   3 5091.18 155.039   2
   2  -7   3 5170.40 171.857   0
   2  -7   4 4116.85 162.710   2
   2  -7   4 4116.59 173.660   1
   2  -7   5 386.440 136.658   1
   2  -7   5 285.810 127.445   2
   2  -7   6 1289.77 153.257   2
   2  -7   6 1591.53 161.833   1
   2  -7   7 242.400 145.932   2
   2  -7   8 1060.70 173.453   2
   2  -6  -9-69.1287 159.227   1
   2  -6  -9 125.354 134.221   4
  -2   6   8 727.832 174.721   3
   2  -6  -8 470.249 159.545   1
   2  -6  -8 864.431 136.081   4
  -2   6   7 523.039 154.633   3
   2  -6  -7 430.670 148.807   1
  -2   6   6 2187.95 165.516   3
   2  -6  -6 2176.81 161.860   1
   2  -6  -6 2101.52 152.788   0
   2  -6  -5 2084.44 147.926   0
   2  -6  -5 1831.78 150.052   1
   2  -6  -4 3468.06 158.841   0
   2  -6  -4 3693.52 160.255   1
  -2   6   4 3569.18 162.923   3
   2  -6  -3 4925.40 170.469   0
   2  -6  -3 5106.91 167.617   1
   2  -6  -2 484.276 107.628   1
   2  -6  -2 628.317 123.161   0
   2  -6  -1 2533.34 139.630   0
   2  -6  -1 2329.04 130.835   1
   2  -6   0 1058.35 115.918   0
   2  -6   0 1134.70 113.748   1
   2  -6   1-3.56663 73.2475   2
   2  -6   1 23.0047 98.7550   1
   2  -6   1 90.0733 102.963   0
   2  -6   2 1974.70 122.890   1
   2  -6   2 1934.80 128.211   0
   2  -6   2 1886.54 104.594   2
   2  -6   3 2143.50 136.357   1
   2  -6   3 2132.36 115.860   2
   2  -6   4-26.8535 108.415   1
   2  -6   4-58.1069 103.431   2
   2  -6   5 2181.52 140.747   2
   2  -6   5 2282.67 146.246   1
   2  -6   6 40.1750 119.503   2
   2  -6   6 115.031 128.573   1
   2  -6   7 119.673 127.977   2
   2  -6   8 2162.78 180.809   2
   2  -6   9 92.3710 153.535   2
   2  -5 -10 2231.10 151.439   4
  -2   5   9 620.085 177.417   3
   2  -5  -9 655.119 172.904   1
   2  -5  -9 591.772 126.785   4
   2  -5  -8 859.413 163.925   1
   2  -5  -8 1209.41 123.993   4
  -2   5   8 1221.53 174.593   3
  -2   5   7 883.147 155.122   3
   2  -5  -7 950.869 149.880   1
   2  -5  -7 692.285 105.472   4
   2  -5  -6 5612.11 137.171   4
   2  -5  -6 5608.40 187.714   1
   2  -5  -6 5803.99 174.623   0
  -2   5   6 5299.07 189.656   3
   2  -5  -5 1765.12 124.743   0
  -2   5   5 1595.22 137.174   3
   2  -5  -5 1744.48 132.718   1
  -2   5   4 12803.0 215.195   3
   2  -5  -4 12628.9 215.252   0
   2  -5  -4 12382.3 219.385   1
   2  -5  -3 18795.7 246.002   1
   2  -5  -3 19117.6 245.397   0
   2  -5  -2 20056.5 241.025   0
   2  -5  -2 19605.6 239.199   1
   2  -5  -1 118.530 94.0751   0
   2  -5  -1 279.532 96.1232   1
   2  -5   0 179.453 94.6073   1
   2  -5   0 87.7182 56.1151   2
   2  -5   0 36.3460 90.6543   0
   2  -5   1 778.979 100.884   0
   2  -5   1 755.878 75.0142   2
   2  -5   1 737.990 97.2854   1
   2  -5   2 3533.21 115.347   2
   2  -5   2 3655.33 130.299   1
   2  -5   2 3514.09 129.290   0
   2  -5   2 3636.34 90.9228   3
   2  -5   3 495.234 108.551   1
   2  -5   3 632.354 99.0109   2
   2  -5   4 8150.11 173.860   2
   2  -5   4 8250.90 183.967   1
   2  -5   5 4148.52 151.934   2
   2  -5   5 4386.75 162.247   1
   2  -5   6 138.289 113.663   2
   2  -5   7 334.047 130.849   2
   2  -5   8 466.429 144.553   2
   2  -5   9 106.290 144.622   2
   2  -5  10 405.620 158.398   2
   2  -4 -10 1211.13 186.160   1
  -2   4  10 1691.09 201.200   3
  -2   4   9 214.175 150.855   3
   2  -4  -9 145.510 113.101   4
   2  -4  -9 340.095 163.175   1
   2  -4  -8 959.315 157.580   1
   2  -4  -8 1062.77 109.852   4
  -2   4   8 1186.69 157.927   3
   2  -4  -7 1883.13 157.170   1
   2  -4  -7 1875.62 103.138   4
  -2   4   7 1835.91 155.241   3
   2  -4  -6 1105.91 97.1244   4
  -2   4   6 1284.77 125.882   3
   2  -4  -6 1108.01 110.780   0
   2  -4  -6 1025.26 130.790   1
   2  -4  -5 185.376 90.1226   0
  -2   4   5 195.857 110.850   3
   2  -4  -5 221.424 115.137   1
   2  -4  -5 291.693 81.9525   4
   2  -4  -4 2394.13 124.669   1
  -2   4   4 2766.43 119.977   3
   2  -4  -4 2471.77 118.115   0
  -2   4   3 2470.06 107.723   3
   2  -4  -3 2363.34 111.858   0
   2  -4  -3 2135.33 113.742   1
   2  -4  -2 4544.51 129.821   0
   2  -4  -2 4491.58 134.743   1
   2  -4  -1 24979.4 234.732   1
   2  -4  -1 24571.1 151.514   2
   2  -4  -1 25611.3 234.425   0
   2  -4   0 32608.0 203.778   2
   2  -4   0 33077.1 260.050   0
   2  -4   0 32344.6 257.381   1
   2  -4   1 358.136 81.6182   1
   2  -4   1 425.923 90.4710   0
   2  -4   1 388.962 72.7399   2
   2  -4   1 332.070 52.4781   3
   2  -4   2 1507.87 61.4363   3
   2  -4   2 1579.90 102.768   1
   2  -4   2 1651.31 89.7005   2
   2  -4   3 336.238 89.1225   1
   2  -4   3 461.877 91.3656   2
   2  -4   3 393.428 52.7434   3
   2  -4   4 77.0938 95.9714   1
   2  -4   4 67.5544 88.1040   2
   2  -4   5 61.9542 100.819   1
   2  -4   5 176.264 97.6913   2
   2  -4   6-9.84289 106.483   2
   2  -4   7 7994.57 208.360   2
   2  -4   8 136.442 134.750   2
   2  -4   9 931.058 154.738   2
   2  -4  10 1257.71 174.762   2
  -2   3  10 1193.93 188.854   3
   2  -3 -10 1033.52 178.941   1
  -2   3   9 366.488 158.843   3
   2  -3  -9 277.259 153.574   1
  -2   3   8 631.228 141.305   3
   2  -3  -8 575.692 141.518   1
   2  -3  -8 559.267 97.4802   4
  -2   3   7 390.985 123.567   3
   2  -3  -7 336.143 125.736   1
   2  -3  -7 317.493 87.6222   4
   2  -3  -6 57.8078 116.200   1
   2  -3  -6 105.849 76.5661   0
   2  -3  -6 49.0132 71.6435   4
  -2   3   6 160.471 108.195   3
  -2   3   5 538.617 101.501   3
   2  -3  -5 525.294 68.3256   4
   2  -3  -5 549.405 110.942   1
   2  -3  -5 487.744 82.6865   0
   2  -3  -4-1.82322 78.5067   0
  -2   3   4 46.0302 83.9665   3
   2  -3  -4 6.88374 95.3285   1
   2  -3  -3 893.847 97.5873   1
   2  -3  -3 1011.55 82.2413   0
  -2   3   3 1056.47 86.9501   3
   2  -3  -2 626.408 39.7677   2
   2  -3  -2 666.434 84.0292   0
  -2   3   2 799.549 79.6079   3
   2  -3  -2 652.899 88.6531   1
   2  -3  -1 12918.1 108.413   2
   2  -3  -1 13028.3 160.361   1
   2  -3  -1 12743.8 160.435   0
   2  -3   0 6867.04 102.921   2
   2  -3   0 6796.43 124.951   1
   2  -3   0 6775.38 129.718   0
   2  -3   1 3008.92 101.184   1
   2  -3   1 2734.24 89.8865   2
   2  -3   1 2950.21 54.0599   3
   2  -3   2 2264.17 93.2748   2
   2  -3   2 2324.50 97.9811   1
   2  -3   2 2377.00 51.6295   3
   2  -3   3 1139.99 93.2705   2
   2  -3   3 1220.24 95.7255   1
   2  -3   3 1184.69 52.5790   3
   2  -3   4 612.324 91.3404   1
   2  -3   4 756.249 58.9342   3
   2  -3   4 878.611 95.2671   2
   2  -3   5 1663.50 112.539   2
   2  -3   5 1532.44 80.5465   3
  -2   3  -5 1676.88 85.5294   0
   2  -3   6 318.937 101.673   2
   2  -3   7 118.654 112.610   2
   2  -3   8 1077.39 141.633   2
   2  -3   9 152.336 125.390   2
   2  -3  10 2800.73 182.023   2
   2  -3  11 135.919 153.826   2
  -2   2  11 130.387 174.474   3
   2  -2 -11 79.4834 174.407   1
   2  -2 -10 378.376 174.321   1
  -2   2  10 503.546 172.032   3
  -2   2   9 507.394 140.217   3
   2  -2  -9 507.889 155.128   1
  -2   2   8 770.965 143.882   3
   2  -2  -8 618.542 140.977   1
   2  -2  -7 1731.52 138.563   1
   2  -2  -7 1580.47 83.9833   4
  -2   2   7 1739.60 134.644   3
  -2   2   6 222.097 108.874   3
   2  -2  -6 341.667 112.343   1
   2  -2  -6 333.460 69.9974   4
   2  -2  -5 90.4012 60.4189   0
   2  -2  -5 170.575 95.2860   1
  -2   2   5 34.5988 89.1767   3
  -2   2   4 64.5517 85.5801   3
   2  -2  -4 38.6105 61.3681   0
   2  -2  -4 34.7746 81.7522   1
   2  -2  -3-29.1519 78.6818   1
   2  -2  -3-4.74457 68.3824   0
  -2   2   3-31.3378 70.6500   3
  -2   2   2 281.192 70.6861   3
   2  -2  -2 268.197 47.2036   2
   2  -2  -2 203.545 76.2045   1
   2  -2  -1 4255.31 75.7832   2
   2  -2  -1 4362.96 101.736   1
  -2   2   1 4294.92 75.0770   3
   2  -2   0 3032.43 91.1171   1
   2  -2   0 3276.96 86.3519   2
   2  -2   1 399.241 75.3217   1
   2  -2   1 354.831 71.2464   2
   2  -2   2 12576.2 154.181   2
   2  -2   2 13154.6 153.779   1
   2  -2   3 893.525 89.5878   2
  -2   2  -3 922.115 77.2153   0
   2  -2   3 850.953 84.5316   1
   2  -2   3 925.224 52.2924   3
   2  -2   4 11114.4 125.353   3
  -2   2  -4 11972.2 145.242   0
   2  -2   4 11575.6 172.018   2
  -2   2  -5 698.935 74.2629   0
   2  -2   5 888.406 100.943   2
   2  -2   5 761.748 73.1937   3
   2  -2   6 1403.77 113.616   2
   2  -2   6 1262.11 92.4741   3
   2  -2   7 64.3138 103.227   2
   2  -2   8 129.265 118.282   2
  -2   2  -9 684.348 119.993   4
   2  -2   9 486.905 126.783   2
   2  -2  10 117.142 132.965   2
  -2   2 -10 13.9895 121.137   4
  -2   2 -11 36.3146 133.336   4
  -2   1  11 702.626 177.975   3
   2  -1 -11 478.745 177.600   1
   2  -1 -10 4551.58 221.321   1
  -2   1  10 4416.31 210.021   3
  -2   1   9 90.3283 131.735   3
   2  -1  -9-76.7645 147.058   1
   2  -1  -8 0.69619 131.988   1
  -2   1   8 99.2252 118.342   3
  -2   1   7 12.2313 76.3193   2
   2  -1  -7-63.2171 111.083   1
  -2   1   7-53.5213 108.150   3
  -2   1   6 1078.92 79.7745   2
   2  -1  -6 711.820 114.753   1
  -2   1   6 957.779 109.088   3
   2  -1  -5 2266.05 113.845   1
  -2   1   5 2355.07 81.3220   2
  -2   1   5 2135.47 107.812   3
  -2   1   4 2186.14 75.1093   2
  -2   1   4 2045.46 105.033   3
   2  -1  -4 2269.80 104.758   1
   2  -1  -3 59518.2 295.472   1
  -2   1   3 59574.3 292.717   3
  -2   1   2 388.886 73.2759   3
   2  -1  -2 381.178 71.8473   1
  -2   1   1 2404.54 64.0633   3
   2  -1  -1 2302.71 72.9776   1
   2  -1  -1 2520.29 79.7922   2
   2  -1   0 2332.66 81.0294   2
   2  -1   0 2164.53 67.8672   1
  -2   1  -1 44.1984 78.9156   0
   2  -1   1 77.8452 62.7696   1
   2  -1   1 113.695 75.5738   2
   2  -1   2 5023.48 110.377   2
  -2   1  -2 5277.95 110.481   0
   2  -1   2 5035.92 99.8701   1
   2  -1   2 4910.46 66.6285   3
  -2   1  -3 113.816 75.6500   0
   2  -1   3 91.0443 74.9068   2
   2  -1   3 89.7129 52.4060   3
   2  -1   4 1141.36 92.4237   2
  -2   1  -4 1005.24 77.0464   0
   2  -1   4 952.213 68.5054   3
  -2   1  -5 14220.3 160.000   0
   2  -1   5 13696.8 191.074   2
   2  -1   5 12821.4 165.638   3
   2  -1   6 181.573 86.8870   3
   2  -1   6 261.858 97.1077   2
   2  -1   7 776.739 111.517   2
   2  -1   7 673.171 108.598   3
  -2   1  -8 151.346 114.305   4
   2  -1   8 150.939 108.036   2
  -2   1  -9 175.926 159.818   1
  -2   1  -9 124.686 122.076   4
   2  -1   9 128.556 110.684   2
  -2   1 -10 119.257 129.179   4
  -2   1 -10-36.7501 163.546   1
  -2   1 -11 604.214 143.537   4
   2   0 -11 1080.81 191.286   1
  -2   0  11 1575.21 183.909   3
  -2   0  10 7.36568 150.657   3
   2   0 -10 136.888 162.748   1
  -2   0   9 153.795 139.786   3
   2   0  -9 87.0771 149.265   1
   2   0  -8 11735.9 243.518   1
  -2   0   8 12739.3 203.716   2
  -2   0   8 12876.7 240.393   3
  -2   0   7 7761.75 157.680   2
   2   0  -7 7502.89 189.346   1
  -2   0   7 7230.87 181.318   3
  -2   0   6 457.887 79.9950   2
   2   0  -6 474.029 105.086   1
  -2   0   6 396.495 105.100   3
  -2   0   5 257.491 93.5675   3
  -2   0   5 159.220 70.5255   2
   2   0  -5 174.464 87.2983   1
  -2   0   4 3214.40 58.5253   0
   2   0  -4 3249.92 108.035   1
  -2   0   4 3217.18 94.9177   2
  -2   0   4 3240.01 109.900   3
  -2   0   3 10620.8 143.536   3
   2   0  -3 10535.5 132.302   1
  -2   0   3 10262.3 96.8414   0
  -2   0   2 36842.2 204.688   3
   2   0  -2 37821.8 177.821   1
  -2   0   2 36636.1 181.439   0
  -2   0   1 61518.7 225.908   3
   2   0  -1 62018.4 168.291   1
  -2   0   1 61097.1 242.520   0
  -2   0   0 114206. 272.204   3
  -2   0   0 115382. 343.470   0
   2   0   0 114471. 346.167   2
  -2   0  -1 946.955 84.2577   0
   2   0   1 1227.36 79.0910   2
  -2   0  -1 1058.30 58.5817   3
  -2   0  -2 841.745 84.7621   0
   2   0   2 771.678 79.9788   2
  -2   0  -3 503.649 76.8198   0
   2   0   3 484.762 72.7687   2
  -2   0  -4 6624.76 125.523   0
   2   0   4 6553.85 131.481   2
   2   0   4 5939.59 125.208   3
  -2   0  -5-10.6148 73.3671   0
  -2   0  -5 78.8958 82.1311   4
   2   0   5-29.3949 80.9694   3
   2   0   5-2.61670 72.7025   2
   2   0   6 5744.13 142.374   2
  -2   0  -6 5679.94 131.416   4
   2   0   6 5382.54 143.086   3
  -2   0  -7 28377.7 340.872   1
   2   0   7 29963.2 296.847   2
  -2   0  -7 28904.9 236.451   4
   2   0   7 28855.2 303.865   3
   2   0   8 81.5816 115.389   3
  -2   0  -8 94.3398 106.919   4
   2   0   8 143.865 105.666   2
  -2   0  -8 172.100 136.087   1
  -2   0  -9 1493.21 173.210   1
  -2   0  -9 1737.18 133.518   4
  -2   0 -10 412.708 141.674   4
  -2   0 -10 615.599 178.481   1
  -2   0 -11 349.244 142.441   4
   2   1 -11 1574.26 194.673   1
  -2  -1  11 1409.75 179.330   3
  -2  -1  10 538.038 166.734   3
   2   1 -10 382.758 163.572   1
   2   1  -9 11.6652 141.662   1
  -2  -1   9 84.8642 112.626   2
  -2  -1   9 51.4841 139.024   3
  -2  -1   8 1498.31 120.730   2
   2   1  -8 1354.72 143.618   1
  -2  -1   8 1708.21 138.614   3
   2   1  -7 7803.45 191.433   1
  -2  -1   7 8231.43 172.654   2
  -2  -1   7 8464.33 190.952   3
  -2  -1   6 3349.38 118.837   2
   2   1  -6 3218.80 130.038   1
  -2  -1   6 3499.10 138.476   3
  -2  -1   5 1504.24 104.419   3
   2   1  -5 1469.39 104.526   1
  -2  -1   5 1409.46 94.4346   2
  -2  -1   4 11.8567 37.5456   0
  -2  -1   4 3.32166 84.6611   3
  -2  -1   4 69.3568 77.4129   2
   2   1  -4 2.86928 71.9179   1
  -2  -1   3 7772.79 131.268   2
  -2  -1   3 7770.69 90.5041   0
  -2  -1   3 7607.66 129.753   3
   2   1  -3 7779.99 111.506   1
   2   1  -2 37383.8 158.318   1
  -2  -1   2 35584.3 192.270   0
  -2  -1   2 36096.0 228.090   3
  -2  -1   1 76834.2 295.610   0
  -2  -1   1 76247.3 295.318   3
  -2  -1   0 135356. 412.600   0
  -2  -1   0 134715. 381.504   3
  -2  -1  -1 5317.59 69.5365   1
  -2  -1  -1 4992.99 118.283   0
   2   1   1 4936.12 105.224   2
  -2  -1  -1 4856.38 101.810   3
  -2  -1  -2 7396.06 102.851   1
  -2  -1  -2 7402.77 132.847   0
   2   1   2 7488.20 117.668   2
   2   1   3 124.412 68.7361   2
  -2  -1  -3 89.4448 72.9154   1
  -2  -1  -3 15.0473 75.9630   0
  -2  -1  -4 280.276 82.0408   4
   2   1   4 310.754 69.4050   2
  -2  -1  -4 333.092 85.1067   1
  -2  -1  -4 395.029 80.8009   0
  -2  -1  -5 2237.97 103.459   0
   2   1   5 2421.72 104.063   2
  -2  -1  -5 2312.13 123.487   1
   2   1   5 2338.59 115.034   3
  -2  -1  -5 2364.69 104.333   4
   2   1   6 75.4966 109.665   3
  -2  -1  -6 105.682 110.453   1
   2   1   6-6.07425 78.5490   2
  -2  -1  -6-48.5440 80.6008   0
  -2  -1  -6-24.4607 97.3403   4
  -2  -1  -7 9015.29 161.795   4
  -2  -1  -7 9114.79 215.956   1
   2   1   7 9158.22 199.269   3
  -2  -1  -8 9989.51 248.796   1
  -2  -1  -8 10499.9 184.178   4
   2   1   8 10248.7 225.172   3
   2   1   9 134.061 129.941   3
  -2  -1  -9 46.0669 124.025   4
  -2  -1  -9 86.4884 149.369   1
  -2  -1 -10 166.787 144.129   4
  -2  -1 -10 163.666 163.158   1
  -2  -1 -11 337.156 145.273   4
  -2  -2  11 142.431 160.155   3
   2   2 -11 422.394 173.459   1
  -2  -2  11 185.567 146.159   2
   2   2 -10 1840.64 179.135   1
  -2  -2  10 1662.15 168.214   3
  -2  -2  10 1829.38 160.386   2
  -2  -2   9 457.830 139.193   3
   2   2  -9 275.856 141.878   1
  -2  -2   9 313.835 122.154   2
  -2  -2   8 8383.40 200.247   2
   2   2  -8 7769.54 210.636   1
  -2  -2   8 7785.78 205.946   3
  -2  -2   7 947.386 117.661   2
   2   2  -7 913.124 123.244   1
  -2  -2   7 1025.55 121.078   3
  -2  -2   6 2158.76 119.612   2
  -2  -2   6 2312.34 129.454   3
  -2  -2   5 1128.01 98.2069   2
  -2  -2   5 1062.40 104.866   3
  -2  -2   4 4894.08 78.2648   0
  -2  -2   4 4727.59 129.018   2
  -2  -2   4 4897.45 133.309   3
  -2  -2   3 2063.98 98.8430   2
  -2  -2   3 2006.74 102.555   3
  -2  -2   3 2069.07 74.0887   0
  -2  -2   2-6.41754 80.0264   3
  -2  -2   2-42.0745 71.5602   0
  -2  -2   1 7243.74 126.490   0
  -2  -2   1 7308.15 132.590   3
  -2  -2   0 19275.7 185.733   3
  -2  -2   0 19293.1 190.766   0
  -2  -2  -1 647.407 46.3852   1
  -2  -2  -1 540.643 76.4834   3
   2   2   1 492.641 70.3071   2
  -2  -2  -1 631.502 90.6458   0
  -2  -2  -2 1219.94 93.4453   0
   2   2   2 1272.69 73.6389   2
  -2  -2  -2 1192.64 65.5195   1
  -2  -2  -3 9985.83 124.327   4
   2   2   3 10511.7 138.111   2
  -2  -2  -3 9873.38 142.132   1
  -2  -2  -3 10138.8 164.014   0
   2   2   4 31.5624 65.4604   2
  -2  -2  -4 17.9434 84.7303   0
  -2  -2  -4 2.97586 77.4198   1
  -2  -2  -4 40.3900 85.7962   4
  -2  -2  -5 2199.46 121.676   1
  -2  -2  -5 2398.04 117.981   0
  -2  -2  -5 2330.93 106.793   4
   2   2   5 2595.80 98.1767   2
   2   2   6 443.273 125.142   3
  -2  -2  -6 367.358 113.165   1
  -2  -2  -6 395.737 97.4575   0
  -2  -2  -6 497.291 108.512   4
   2   2   7 164.936 129.887   3
  -2  -2  -7 106.695 118.507   1
  -2  -2  -7 55.9648 106.715   4
   2   2   8 115.837 135.701   3
  -2  -2  -8 85.2631 140.476   1
  -2  -2  -8-26.1665 122.420   4
  -2  -2  -9 604.790 129.348   4
  -2  -2  -9 706.227 163.006   1
   2   2   9 576.078 142.566   3
  -2  -2 -10 2813.99 157.916   4
   2   2  10 2441.43 189.157   3
  -2  -3  11 1761.96 176.979   2
   2   3 -11 1659.84 191.195   1
  -2  -3  11 1212.36 176.292   3
  -2  -3  10 885.652 163.816   3
  -2  -3  10 735.627 143.948   2
   2   3 -10 702.304 161.373   1
  -2  -3   9 1229.72 155.718   3
   2   3  -9 1289.32 164.330   1
  -2  -3   9 1296.01 145.829   2
  -2  -3   8-33.1600 118.656   2
  -2  -3   8-32.3623 123.909   3
  -2  -3   7 4143.34 160.281   2
  -2  -3   7 4216.51 160.721   3
  -2  -3   6 14.3392 103.153   2
  -2  -3   6 15.0034 100.185   3
  -2  -3   5 1513.72 111.421   2
  -2  -3   5 1395.30 112.818   3
  -2  -3   4 372.186 96.4628   3
  -2  -3   4 380.383 62.7086   0
  -2  -3   4 346.138 90.4381   2
  -2  -3   3 8365.46 128.894   0
  -2  -3   3 8227.72 159.180   3
  -2  -3   3 8024.53 153.465   2
  -2  -3   2 2.65604 45.2163   1
  -2  -3   2 77.9722 74.6496   0
  -2  -3   2 26.9834 80.9997   3
  -2  -3   1 1278.37 92.2052   0
  -2  -3   1 1130.05 99.2302   3
  -2  -3   1 1136.85 46.7377   1
  -2  -3   0 16.2132 38.0426   1
  -2  -3   0 58.1506 83.8237   0
  -2  -3   0 78.4717 79.1374   3
  -2  -3  -1 294.193 49.1707   1
  -2  -3  -1 276.901 94.2326   0
   2   3   1 339.207 69.4142   2
  -2  -3  -1 369.133 87.5367   3
  -2  -3  -2 7102.07 156.437   0
  -2  -3  -2 7310.88 112.056   1
   2   3   2 7606.09 122.216   2
  -2  -3  -2 7318.51 116.243   4
  -2  -3  -3 73.9921 91.4003   0
  -2  -3  -3-58.4792 70.0999   1
   2   3   3 11.4985 57.8465   2
  -2  -3  -3 94.5659 79.8443   4
  -2  -3  -4 2848.94 132.727   0
  -2  -3  -4 3198.00 113.621   1
  -2  -3  -4 2900.20 105.249   4
  -2  -3  -5 499.870 104.475   1
  -2  -3  -5 456.965 105.838   0
  -2  -3  -5 501.591 102.295   4
   2   3   6 282.940 134.539   3
  -2  -3  -6 465.392 118.860   0
  -2  -3  -6 385.015 112.057   1
  -2  -3  -6 372.997 107.435   4
   2   3   7 453.534 154.885   3
  -2  -3  -7 494.935 126.349   1
  -2  -3  -7 503.418 118.222   4
   2   3   8 419.489 146.444   3
  -2  -3  -8 466.360 139.361   1
  -2  -3  -8 558.192 124.808   4
   2   3   9 144.814 147.195   3
  -2  -3  -9 164.635 134.053   4
   2   3  10 356.178 163.798   3
  -2  -3 -10 2.48083 155.457   4
  -2  -4  11 553.459 164.818   3
  -2  -4  11 540.347 165.429   2
   2   4 -11 504.916 180.560   1
  -2  -4  10 968.626 171.963   3
   2   4 -10 671.257 165.906   1
  -2  -4  10 892.947 160.639   2
  -2  -4   9 674.264 154.002   3
  -2  -4   9 443.619 148.591   2
  -2  -4   8 1050.95 135.431   3
  -2  -4   8 1126.96 144.800   2
  -2  -4   7 2537.02 152.472   2
  -2  -4   7 2508.85 147.090   3
  -2  -4   6 2536.63 145.335   2
  -2  -4   6 2810.50 147.607   3
  -2  -4   5 3869.98 144.499   2
  -2  -4   5 3895.66 148.851   3
  -2  -4   4 114.333 101.188   3
  -2  -4   4 15.1546 73.3213   0
  -2  -4   4 60.7243 92.9496   2
  -2  -4   3 1709.14 75.7551   1
  -2  -4   3 1617.93 101.187   0
  -2  -4   3 1894.00 120.163   3
  -2  -4   3 1818.32 110.382   2
  -2  -4   2 134.888 52.7203   1
  -2  -4   2 105.480 92.9471   0
  -2  -4   2 192.623 94.3334   3
  -2  -4   1 0.44733 91.6201   3
  -2  -4   1 37.8316 97.1721   0
  -2  -4   0 2862.99 124.900   0
  -2  -4   0 2756.50 123.304   3
  -2  -4  -1 592.306 109.600   0
  -2  -4  -1 465.064 97.2882   3
  -2  -4  -1 527.744 72.8507   4
  -2  -4  -2 889.035 90.7296   4
   2   4   2 845.335 73.1244   2
  -2  -4  -2 732.464 108.319   0
  -2  -4  -3 893.197 117.345   0
  -2  -4  -3 992.819 101.241   4
  -2  -4  -4-86.8558 112.067   0
  -2  -4  -4 135.602 95.0530   4
  -2  -4  -5 402.701 121.332   0
  -2  -4  -5 483.110 111.565   4
  -2  -4  -6 806.268 136.947   0
  -2  -4  -6 657.333 116.613   4
   2   4   7 494.151 161.559   3
  -2  -4  -7 542.104 130.369   4
   2   4   8 65.0220 150.822   3
  -2  -4  -8 115.187 135.378   4
   2   4   9 206.026 159.512   3
  -2  -4  -9 292.539 147.567   4
  -2  -5  10 302.660 155.214   3
  -2  -5  10 172.718 153.017   2
  -2  -5   9 59.4075 150.415   2
  -2  -5   9-39.1655 138.149   3
  -2  -5   8 461.706 148.448   3
  -2  -5   8 435.156 146.482   2
  -2  -5   7 480.872 134.712   3
  -2  -5   7 669.661 135.550   2
  -2  -5   6 2029.12 149.084   2
  -2  -5   6 2099.60 142.397   3
  -2  -5   5 367.492 112.876   3
  -2  -5   5 459.859 115.991   2
  -2  -5   4 265.157 109.948   3
  -2  -5   4 337.678 88.4822   0
  -2  -5   4 280.916 103.137   2
  -2  -5   3 1672.23 121.256   2
  -2  -5   3 1701.17 125.481   3
  -2  -5   3 1679.17 114.305   0
  -2  -5   2 641.886 106.602   0
  -2  -5   2 656.394 111.543   3
  -2  -5   1 9868.53 196.239   0
  -2  -5   1 9343.46 194.564   3
  -2  -5   0 1664.83 84.3755   4
  -2  -5   0 1630.30 123.731   3
  -2  -5   0 1721.88 129.879   0
  -2  -5  -1 570.453 117.586   0
  -2  -5  -1 593.344 85.8107   4
  -2  -5  -1 651.895 111.962   3
  -2  -5  -2 346.500 119.337   0
  -2  -5  -2 344.285 93.9416   4
  -2  -5  -3-31.1239 119.141   0
  -2  -5  -3-60.2671 104.436   4
  -2  -5  -4 89.7115 126.563   0
  -2  -5  -4 162.274 109.029   4
  -2  -5  -5 45.2612 132.603   0
  -2  -5  -5-11.2508 111.823   4
  -2  -5  -6 1278.27 153.844   0
  -2  -5  -6 1227.83 128.059   4
  -2  -5  -7 3638.14 165.115   4
   2   5   7 4052.78 210.533   3
   2   5   8 202.107 173.489   3
  -2  -5  -8 105.050 142.968   4
  -2  -6  10 577.837 158.029   3
  -2  -6   9 481.889 158.838   2
  -2  -6   9 585.038 156.415   3
  -2  -6   8-19.5209 146.786   3
  -2  -6   8 48.6911 143.756   2
  -2  -6   7 12.6730 143.701   3
  -2  -6   7 109.904 133.715   2
  -2  -6   6 44.8325 136.871   3
  -2  -6   6 17.7711 132.192   2
  -2  -6   5 919.017 135.092   3
  -2  -6   5 780.305 137.958   2
  -2  -6   4 4475.40 172.681   2
  -2  -6   4 4649.31 174.997   3
  -2  -6   3-18.6719 109.817   0
  -2  -6   3-31.2098 121.042   3
  -2  -6   2 32.3423 113.653   0
  -2  -6   2-47.2350 108.786   3
  -2  -6   1 116.950 117.806   3
  -2  -6   1-35.0423 117.424   0
  -2  -6   0 2823.19 153.823   0
  -2  -6   0 2576.17 150.367   3
  -2  -6  -1-15.4871 129.399   0
  -2  -6  -1 64.6079 96.1969   4
  -2  -6  -2 1463.27 154.462   0
  -2  -6  -2 1741.13 120.459   4
  -2  -6  -3 2536.47 169.663   0
  -2  -6  -3 2833.65 125.943   4
  -2  -6  -4 950.917 158.417   0
  -2  -6  -4 895.289 117.329   4
  -2  -6  -5 35.4385 121.603   4
  -2  -6  -5 151.687 149.071   0
  -2  -6  -6 860.672 161.081   0
  -2  -6  -6 1001.44 137.581   4
   2   6   7 268.449 174.902   3
  -2  -6  -7 263.168 150.611   4
  -2  -7   9 3183.92 204.124   3
  -2  -7   8 760.850 179.521   2
  -2  -7   8 516.966 158.868   3
  -2  -7   7 507.201 151.918   3
  -2  -7   7 796.569 164.460   2
  -2  -7   6 657.457 152.000   3
  -2  -7   6 643.124 152.432   2
  -2  -7   5 622.450 151.115   2
  -2  -7   5 926.200 149.016   3
  -2  -7   4 1231.16 144.681   2
  -2  -7   4 1425.72 158.227   3
  -2  -7   3 1899.16 155.935   0
  -2  -7   3 1894.15 157.740   3
  -2  -7   2 2851.07 168.625   0
  -2  -7   2 2922.07 175.136   3
  -2  -7   1-28.3676 130.077   0
  -2  -7   1 27.3266 140.616   3
  -2  -7   0 981.236 150.436   0
  -2  -7   0 993.353 153.588   3
  -2  -7  -1 41.4098 143.749   0
  -2  -7  -2-94.5878 147.730   0
  -2  -7  -3 147.521 114.296   4
  -2  -7  -3 133.588 158.939   0
  -2  -7  -4 127.454 160.568   0
  -2  -7  -4 231.607 122.173   4
  -2  -7  -5 683.703 169.673   0
  -2  -7  -5 561.507 134.582   4
  -2  -7  -6-9.07176 165.969   0
  -2  -7  -6 195.220 148.767   4
  -2  -8   8 39.9278 155.993   3
  -2  -8   7 95.6316 147.145   3
  -2  -8   7-43.7668 152.321   2
  -2  -8   6 1209.03 176.472   3
  -2  -8   6 897.317 160.056   2
  -2  -8   5 1438.46 158.982   2
  -2  -8   5 1846.15 180.010   3
  -2  -8   4 54.8595 144.693   3
  -2  -8   3 5506.57 221.966   3
  -2  -8   3 5764.27 209.443   0
  -2  -8   2 3678.97 190.144   3
  -2  -8   2 3395.93 191.647   0
  -2  -8   1 120.046 148.100   0
  -2  -8   1 125.786 144.742   3
  -2  -8   0 371.913 161.537   0
  -2  -8  -1 305.002 160.821   0
  -2  -8  -2 3014.01 208.111   0
  -2  -8  -3 172.688 172.582   0
  -2  -8  -5 38.9730 147.298   4
  -2  -9   5 340.405 164.237   3
  -2  -9   4 277.118 167.931   3
  -2  -9   3 163.776 150.561   3
  -2  -9   2 28.3718 164.740   0
  -2  -9   2 243.192 155.693   3
  -2  -9   1 3225.16 211.005   0
  -2  -9   0 1430.15 195.236   0
   3 -10  -3 974.630 166.816   1
   3 -10  -2-59.6744 155.751   1
   3 -10  -1 201.840 150.960   1
   3 -10  -1 155.690 172.647   0
   3 -10   0 181.926 152.714   1
   3 -10   0 232.123 171.907   0
   3 -10   1 110.774 151.842   1
   3 -10   1-10.3174 165.050   0
   3 -10   2 2324.14 183.103   1
   3 -10   3 1057.48 172.586   1
   3 -10   4 4357.54 220.766   1
   3  -9  -5 310.886 159.904   1
   3  -9  -5 171.902 161.724   0
   3  -9  -4 342.460 159.899   1
   3  -9  -4 212.143 169.891   0
   3  -9  -3 220.702 148.587   1
   3  -9  -3 238.909 164.300   0
   3  -9  -2 69.8357 148.329   1
   3  -9  -2 16.3743 161.394   0
   3  -9  -1 137.552 140.687   1
   3  -9  -1 305.557 160.678   0
   3  -9   0 233.487 144.165   1
   3  -9   0 150.349 155.952   0
   3  -9   1 345.536 145.766   1
   3  -9   1 394.251 159.258   0
   3  -9   2-4.42690 143.059   1
   3  -9   3 181.573 154.360   1
   3  -9   4 236.555 152.198   1
   3  -9   5 818.823 170.084   1
   3  -9   6 183.979 157.609   1
   3  -9   6 582.540 156.737   2
  -3   8   7 453.410 162.231   3
  -3   8   6 124.895 150.652   3
   3  -8  -6 104.914 158.190   1
   3  -8  -6 93.1851 147.818   0
  -3   8   5 440.131 150.070   3
   3  -8  -5 401.317 154.459   1
   3  -8  -5 269.966 153.646   0
  -3   8   4 139.764 141.463   3
   3  -8  -4 94.2513 144.595   1
   3  -8  -4 125.384 152.521   0
   3  -8  -3 360.293 140.171   1
   3  -8  -3 423.980 152.688   0
   3  -8  -2 21.6120 138.003   1
   3  -8  -2 235.484 148.812   0
   3  -8  -1 267.465 134.525   1
   3  -8  -1 314.046 145.489   0
   3  -8   0 1944.64 163.480   0
   3  -8   0 1595.93 151.463   1
   3  -8   1 108.486 129.141   1
   3  -8   1 38.8749 137.296   0
   3  -8   2 253.593 136.656   1
   3  -8   3 171.317 139.247   1
   3  -8   4 15.3088 145.544   1
   3  -8   4 138.614 123.127   2
   3  -8   5 712.224 159.940   1
   3  -8   5 475.458 137.940   2
   3  -8   6 51.9759 141.450   2
   3  -8   6-49.4487 156.799   1
   3  -8   7-38.3956 143.864   2
  -3   7   8-46.0669 163.297   3
   3  -7  -8 28.8145 158.516   1
  -3   7   7 1206.43 168.818   3
   3  -7  -7 1095.71 179.030   1
   3  -7  -6 2063.49 165.213   0
  -3   7   6 1840.08 166.451   3
   3  -7  -6 1908.80 174.888   1
  -3   7   5 811.452 152.114   3
   3  -7  -5 495.523 145.092   1
   3  -7  -5 532.612 146.458   0
  -3   7   4 25.4453 120.789   3
   3  -7  -4 75.4967 131.403   1
   3  -7  -4 110.473 137.672   0
  -3   7   3 121.938 114.518   3
   3  -7  -3 347.232 129.839   1
   3  -7  -3 306.807 140.135   0
   3  -7  -2 326.829 125.083   1
   3  -7  -2 331.785 130.904   0
   3  -7  -1 260.976 119.042   1
   3  -7  -1 309.694 124.162   0
   3  -7   0 28.9004 116.806   1
   3  -7   0-99.7602 119.613   0
   3  -7   1 6401.73 186.694   0
   3  -7   1 6247.93 180.498   1
   3  -7   2 3964.33 139.138   2
   3  -7   2 3866.92 161.597   1
   3  -7   3 1.39722 105.661   2
   3  -7   3-89.9563 122.644   1
   3  -7   4 21.0922 125.212   1
   3  -7   4 52.2830 115.577   2
   3  -7   5 276.264 139.407   1
   3  -7   5 169.186 126.727   2
   3  -7   6 249.079 151.795   1
   3  -7   6 160.231 142.991   2
   3  -7   7 370.320 151.585   2
   3  -7   8 2976.64 199.318   2
  -3   6   9 462.103 165.596   3
   3  -6  -9 280.151 166.605   1
  -3   6   8 550.853 171.917   3
   3  -6  -8 622.553 165.499   1
  -3   6   7 519.352 153.187   3
   3  -6  -7 508.175 156.017   1
  -3   6   6 612.660 141.329   3
   3  -6  -6 760.733 147.820   1
   3  -6  -6 717.354 139.296   0
  -3   6   5 127.299 127.750   3
   3  -6  -5 101.717 126.606   0
   3  -6  -5 70.0174 132.935   1
   3  -6  -4 15550.1 251.846   0
   3  -6  -4 15178.8 263.462   1
  -3   6   4 15368.2 247.289   3
   3  -6  -3 4754.75 167.207   0
   3  -6  -3 4823.86 169.490   1
  -3   6   3 5273.09 156.974   3
   3  -6  -2-12.2549 107.522   1
   3  -6  -2 13.4261 111.059   0
   3  -6  -1 260.538 104.998   1
   3  -6  -1 512.980 119.225   0
   3  -6   0 2374.61 133.731   0
   3  -6   0 1850.96 126.266   1
   3  -6   1 308.816 106.761   1
   3  -6   1 299.217 79.0180   2
   3  -6   2 303.353 108.202   1
   3  -6   2 257.050 95.4364   2
   3  -6   3 41243.6 353.841   2
   3  -6   3 40409.8 377.061   1
   3  -6   4 14088.1 235.934   2
   3  -6   4 13248.5 244.079   1
   3  -6   5 3254.15 157.864   2
   3  -6   5 3330.19 174.713   1
   3  -6   6 97.2557 123.666   2
   3  -6   6 159.892 134.753   1
   3  -6   7 234.252 138.851   2
   3  -6   8 204.810 148.867   2
   3  -6   9 567.998 169.150   2
  -3   5   9 205.805 172.742   3
   3  -5  -9 188.741 160.943   1
   3  -5  -8 667.703 161.377   1
  -3   5   8 732.835 161.811   3
   3  -5  -7 313.945 140.205   1
  -3   5   7 132.000 136.318   3
   3  -5  -6 3520.24 144.011   0
  -3   5   6 3392.80 166.271   3
   3  -5  -6 3127.59 162.361   1
   3  -5  -5 2694.97 132.154   0
  -3   5   5 2616.92 145.053   3
   3  -5  -5 2483.45 145.361   1
   3  -5  -4 11471.2 202.328   0
  -3   5   4 11966.4 205.599   3
   3  -5  -4 11068.0 217.087   1
  -3   5   3-30.7601 96.2527   3
   3  -5  -3-16.2118 103.154   1
   3  -5  -3-5.40737 100.698   0
   3  -5  -2 918.316 111.209   0
   3  -5  -2 1077.89 109.998   1
  -3   5   2 1073.03 92.2069   3
   3  -5  -1 5513.05 156.053   0
   3  -5  -1 5649.65 149.681   1
   3  -5   0 451.411 100.891   1
   3  -5   0 409.331 70.1808   2
   3  -5   1 623.049 102.123   1
   3  -5   1 609.454 86.0783   2
   3  -5   2 658.348 99.8192   1
   3  -5   2 732.720 94.7878   2
   3  -5   3 172.074 100.238   1
   3  -5   3 199.925 92.5139   2
   3  -5   4 11036.5 208.253   2
   3  -5   4 11465.3 213.982   1
   3  -5   5 6589.02 180.340   2
   3  -5   5 6174.89 182.023   1
   3  -5   6 294.953 126.891   2
   3  -5   7 572.297 139.545   2
   3  -5   8 98.6194 136.002   2
   3  -5   9 2173.38 176.443   2
  -3   4  10 131.190 173.117   3
   3  -4 -10 84.3900 169.492   1
  -3   4   9 68.9701 163.372   3
   3  -4  -9 347.727 164.703   1
  -3   4   8 188.711 151.180   3
   3  -4  -8 23.1468 147.424   1
  -3   4   7 397.394 138.518   3
   3  -4  -7 502.561 134.240   1
  -3   4   6 4.46387 120.884   3
   3  -4  -6 78.0434 116.665   1
   3  -4  -6 92.5033 98.5516   0
   3  -4  -5 5979.97 152.848   0
  -3   4   5 5577.86 160.138   3
   3  -4  -5 5196.40 163.257   1
   3  -4  -4 3381.87 137.562   1
   3  -4  -4 3831.67 126.910   0
  -3   4   4 3901.32 126.364   3
   3  -4  -3 16481.7 206.751   0
  -3   4   3 17164.7 196.653   3
   3  -4  -2 7070.06 96.1453   2
   3  -4  -2 7546.28 158.576   1
  -3   4   2 7802.22 129.798   3
   3  -4  -1 547.301 92.0871   1
   3  -4  -1 570.834 60.7560   2
  -3   4   1 618.130 67.2818   3
   3  -4   0 1783.30 83.2311   2
   3  -4   0 2002.76 104.539   1
   3  -4   1 87.1996 88.1149   1
   3  -4   1 33.4087 71.0399   2
   3  -4   2-2.26756 84.5867   1
   3  -4   2 104.596 85.8604   2
   3  -4   3 4328.48 133.979   2
   3  -4   3 4005.39 139.056   1
   3  -4   4 909.661 107.289   2
   3  -4   4 836.631 113.214   1
   3  -4   5 1246.10 124.057   2
  -3   4  -5 1503.95 102.933   0
   3  -4   5 1276.26 127.906   1
   3  -4   6 1998.76 137.945   2
   3  -4   7 1125.03 136.774   2
   3  -4   8 235.615 146.684   2
   3  -4   9 818.767 147.434   2
   3  -4  10 163.008 152.682   2
  -3   3  10-31.5273 170.422   3
   3  -3 -10-7.15024 167.437   1
  -3   3   9 251.843 148.351   3
   3  -3  -9 364.846 155.430   1
   3  -3  -8 1739.61 161.194   1
  -3   3   8 2264.81 166.178   3
  -3   3   7 535.297 134.401   3
   3  -3  -7 576.422 133.024   1
  -3   3   6 850.997 122.493   3
   3  -3  -6 525.718 122.899   1
   3  -3  -6 726.068 76.7611   4
  -3   3   5 1854.92 120.318   3
   3  -3  -5 1692.29 120.658   1
   3  -3  -4-26.5229 86.8002   1
  -3   3   4-37.0304 86.4624   3
   3  -3  -3 6852.90 94.8589   2
   3  -3  -3 6846.70 145.009   1
  -3   3   3 7172.81 127.613   3
   3  -3  -2 20452.5 156.549   2
  -3   3   2 20421.3 172.159   3
   3  -3  -2 20605.5 213.844   1
   3  -3  -1 25901.6 189.067   2
   3  -3  -1 26565.5 226.508   1
  -3   3   1 26503.2 159.647   3
   3  -3   0 21031.7 186.072   2
   3  -3   0 21864.8 204.151   1
  -3   3   0 21746.3 107.616   3
   3  -3   1 5064.17 116.334   2
   3  -3   1 5065.35 117.173   1
   3  -3   2 313.056 80.6891   1
   3  -3   2 367.202 83.7906   2
   3  -3   3 91.3338 85.7364   1
   3  -3   3 32.2681 81.5268   2
   3  -3   4 500.178 101.301   2
  -3   3  -4 594.216 89.6366   0
   3  -3   4 545.444 100.271   1
   3  -3   5-0.74550 103.827   2
  -3   3  -5-9.63836 85.0177   0
   3  -3   6 253.191 114.186   2
   3  -3   7 32.1272 116.381   2
   3  -3   8 1112.63 144.188   2
   3  -3   9 579.488 154.690   2
   3  -3  10 95.3897 142.373   2
   3  -2 -11 3769.89 223.601   1
  -3   2  11 4175.50 232.075   3
  -3   2  10 90.4010 159.991   3
   3  -2 -10 207.569 163.171   1
   3  -2  -9 2580.07 184.817   1
  -3   2   9 2975.32 181.807   3
  -3   2   8-23.2543 129.782   3
   3  -2  -8 11.7594 129.410   1
  -3   2   7 111.303 113.463   3
   3  -2  -7 158.284 118.647   1
  -3   2   6 561.499 106.903   3
   3  -2  -6 558.780 112.889   1
  -3   2   5-15.5184 90.4227   3
   3  -2  -5 133.037 94.6233   1
   3  -2  -4 3567.86 122.689   1
  -3   2   4 3605.75 112.259   3
  -3   2   3 94.8289 67.8104   3
   3  -2  -3 94.7712 78.2381   1
   3  -2  -3 118.093 59.7891   2
   3  -2  -2 1693.30 77.8001   2
  -3   2   2 1687.07 75.6781   3
   3  -2  -2 1625.68 89.7106   1
   3  -2  -1 1238.75 78.6262   2
  -3   2   1 1372.86 57.5040   3
   3  -2  -1 1384.83 80.1832   1
   3  -2   0 14100.8 159.993   2
   3  -2   0 14097.4 149.129   1
   3  -2   1 56.1464 66.8966   1
   3  -2   1-60.3298 76.9248   2
   3  -2   2 1553.05 97.8403   2
  -3   2  -2 1596.01 96.3368   0
   3  -2   2 1571.12 88.2884   1
   3  -2   3 2131.79 102.637   2
  -3   2  -3 2143.65 105.514   0
   3  -2   3 2013.33 49.5415   3
   3  -2   3 2217.23 101.544   1
   3  -2   4 2367.28 116.486   2
  -3   2  -4 2327.81 110.479   0
  -3   2  -5 106.555 81.7210   0
   3  -2   5 50.6407 95.1085   2
   3  -2   6 1188.50 119.564   2
   3  -2   7 219.923 116.552   2
   3  -2   8 92.0170 128.699   2
   3  -2   9 386.940 137.374   2
  -3   2  -9 252.951 126.823   4
   3  -2  10 418.999 144.793   2
  -3   2 -10 587.114 147.986   4
  -3   1  11 75.4870 169.061   3
   3  -1 -11 72.2205 164.486   1
  -3   1  10 695.446 163.107   3
   3  -1 -10 563.727 165.831   1
   3  -1  -9 3560.01 187.856   1
  -3   1   9 3831.42 190.164   3
  -3   1   8-86.3613 121.663   3
   3  -1  -8 53.8866 127.442   1
  -3   1   7 53.3926 112.302   3
   3  -1  -7 271.887 113.939   1
  -3   1   6 1015.14 117.050   3
   3  -1  -6 1101.31 110.469   1
   3  -1  -5 5271.09 139.975   1
  -3   1   5 5553.19 139.491   3
   3  -1  -4 7431.64 138.552   1
  -3   1   4 7860.30 142.695   3
   3  -1  -3 1644.67 84.2804   1
  -3   1   3 1668.61 85.1416   3
  -3   1   2 4576.36 107.452   0
  -3   1   2 5160.91 101.267   3
   3  -1  -2 4887.58 93.9207   1
   3  -1  -1 3365.27 102.025   2
  -3   1   1 3053.46 103.825   0
  -3   1   1 3176.85 72.4397   3
   3  -1  -1 3196.70 80.5382   1
  -3   1   0 1865.90 53.0850   3
   3  -1   0 1774.85 90.4373   2
  -3   1   0 1802.03 99.9811   0
   3  -1   0 1898.39 68.4878   1
  -3   1  -1 868.045 91.2508   0
   3  -1   1 852.995 63.5221   1
   3  -1   1 834.065 88.0626   2
   3  -1   2 171.359 67.9789   1
  -3   1  -2 173.150 85.8326   0
   3  -1   2 167.492 78.3238   2
   3  -1   3 32281.1 267.403   2
  -3   1  -3 32692.3 252.722   0
   3  -1   3 31187.8 184.704   3
  -3   1  -4 9951.58 161.944   0
   3  -1   4 9900.15 173.447   2
   3  -1   4 9484.77 125.836   3
  -3   1  -5 974.855 96.7373   0
   3  -1   5 1085.28 111.408   2
   3  -1   6 3180.87 141.892   2
   3  -1   7 412.424 112.287   2
   3  -1   8 366.001 126.285   2
  -3   1  -8 563.951 116.465   4
   3  -1   9 80.5915 122.770   2
  -3   1  -9 100.509 124.249   4
  -3   1  -9 118.895 158.006   1
  -3   1 -10 865.369 180.904   1
  -3   1 -10 1097.72 144.881   4
  -3   0  11 1088.25 192.735   3
   3   0 -11 690.711 178.467   1
  -3   0  10 380.107 161.185   3
   3   0 -10 310.859 162.854   1
   3   0  -9 1271.67 157.441   1
  -3   0   9 1355.67 168.627   3
   3   0  -8 3243.15 163.320   1
  -3   0   8 3447.95 137.940   2
  -3   0   8 3661.27 172.234   3
   3   0  -7 1322.79 128.522   1
  -3   0   7 1519.70 113.225   2
  -3   0   7 1277.16 125.654   3
  -3   0   6 384.655 103.271   3
  -3   0   6 413.967 89.2877   2
   3   0  -6 250.017 100.424   1
  -3   0   5 260.856 96.9837   3
   3   0  -5 254.030 91.5347   1
   3   0  -4 6852.65 128.149   1
  -3   0   4 6764.69 103.520   0
  -3   0   4 6835.84 136.694   3
   3   0  -3 809.394 69.3124   1
  -3   0   3 810.886 75.0600   0
  -3   0   3 878.140 80.2013   3
   3   0  -2 3682.89 72.1429   1
  -3   0   2 3679.16 100.487   0
  -3   0   2 3684.23 95.7845   3
  -3   0   1 31333.2 227.815   0
  -3   0   1 33077.1 196.734   3
   3   0  -1 32194.7 138.373   1
   3   0   0 2635.34 52.1088   1
  -3   0   0 2473.06 104.569   0
   3   0   0 2636.73 99.4114   2
  -3   0   0 2542.60 74.3206   3
  -3   0  -1 2117.32 105.469   0
   3   0   1 2338.70 96.8176   2
  -3   0  -1 2048.88 71.1327   3
   3   0   2 498.262 77.6519   2
  -3   0  -2 411.843 89.1815   0
  -3   0  -3 1054.86 98.4892   0
   3   0   3 1052.76 92.3867   2
   3   0   4 384.708 79.0426   3
  -3   0  -4 594.430 97.3635   0
   3   0   4 441.101 84.9874   2
  -3   0  -5 5603.55 143.191   0
   3   0   5 5296.33 145.699   2
  -3   0  -5 5420.52 126.089   4
   3   0   5 5374.16 133.872   3
   3   0   6 274.665 92.2373   3
   3   0   6 176.961 96.8603   2
  -3   0  -6 305.867 99.7918   4
  -3   0  -6 323.952 94.1283   0
  -3   0  -7 50.7027 105.772   4
   3   0   7 58.6569 103.835   2
  -3   0  -7 59.1983 126.317   1
  -3   0  -8 46.8657 138.896   1
  -3   0  -8 46.4329 115.218   4
  -3   0  -9 158.464 152.558   1
  -3   0  -9-36.3132 130.392   4
  -3   0 -10-29.8824 151.532   4
  -3   0 -10 38.6032 163.005   1
  -3  -1  11 362.062 170.870   3
   3   1 -11 151.125 158.198   1
  -3  -1  10 153.296 152.210   3
   3   1 -10 193.151 153.279   1
   3   1  -9 2503.64 168.719   1
  -3  -1   9 2482.83 148.650   2
  -3  -1   9 2559.44 167.980   3
  -3  -1   8 27.5791 121.182   3
   3   1  -8 135.517 122.853   1
  -3  -1   8-7.37405 105.449   2
  -3  -1   7 18851.7 269.508   3
   3   1  -7 19070.3 263.101   1
  -3  -1   7 19572.9 256.411   2
  -3  -1   6 634.282 110.588   3
  -3  -1   6 497.999 96.5370   2
   3   1  -6 514.277 98.6036   1
   3   1  -5 8496.92 152.194   1
  -3  -1   5 8167.18 157.086   2
  -3  -1   5 7903.60 162.811   3
  -3  -1   4 587.413 86.6666   3
   3   1  -4 594.266 71.5034   1
  -3  -1   4 514.342 61.9852   0
   3   1  -3 9995.49 111.023   1
  -3  -1   3 9709.79 130.191   0
  -3  -1   3 9770.69 154.563   3
  -3  -1   2 34.9996 76.3376   3
  -3  -1   2 49.1788 76.7896   0
   3   1  -2 5.94318 33.4070   1
  -3  -1   1 914.525 81.3541   3
  -3  -1   1 873.271 92.3311   0
  -3  -1   0 15906.9 189.523   0
   3   1   0 16141.6 187.763   2
  -3  -1   0 15777.7 163.521   3
  -3  -1  -1 6793.70 75.5405   1
  -3  -1  -1 6826.89 146.585   0
   3   1   1 7226.06 134.636   2
  -3  -1  -1 7120.48 120.600   3
  -3  -1  -2 602.114 60.1785   1
  -3  -1  -2 664.721 92.8549   0
   3   1   2 665.222 83.4902   2
  -3  -1  -3 504.432 74.4331   1
  -3  -1  -3 626.658 99.1899   0
   3   1   3 517.542 87.9883   2
  -3  -1  -3 612.648 81.0057   4
  -3  -1  -4 192.846 85.7597   4
  -3  -1  -4 171.789 86.1626   1
   3   1   4 171.861 81.4489   2
  -3  -1  -4 345.254 102.824   0
  -3  -1  -5 2122.33 123.308   0
  -3  -1  -5 1747.59 115.232   1
   3   1   5 2153.47 114.709   2
  -3  -1  -5 2122.99 111.205   4
   3   1   5 2055.12 123.035   3
  -3  -1  -6 4772.49 161.826   1
  -3  -1  -6 5072.14 153.925   0
   3   1   6 5396.57 153.781   2
  -3  -1  -6 5266.11 138.234   4
   3   1   6 5402.16 163.001   3
   3   1   7-7.83694 116.259   3
  -3  -1  -7 40.0331 122.322   1
  -3  -1  -7 20.1010 112.018   4
  -3  -1  -8 9059.05 184.549   4
  -3  -1  -8 7903.86 226.266   1
  -3  -1  -9 240.859 154.466   1
  -3  -1  -9 8.04909 141.816   4
  -3  -1 -10 92.7584 145.042   4
  -3  -2  11 391.953 176.613   3
  -3  -2  11 294.179 147.220   2
   3   2 -11 434.071 181.859   1
  -3  -2  10 367.436 156.691   3
  -3  -2  10 180.533 133.290   2
   3   2 -10 221.115 158.264   1
  -3  -2   9 558.332 153.596   3
   3   2  -9 470.143 145.690   1
  -3  -2   9 729.464 139.898   2
   3   2  -8 1527.27 139.959   1
  -3  -2   8 1402.41 135.358   2
  -3  -2   8 1338.01 145.467   3
   3   2  -7 833.182 122.474   1
  -3  -2   7 736.134 112.530   2
  -3  -2   7 892.284 120.070   3
   3   2  -6 11918.1 191.848   1
  -3  -2   6 11433.2 208.576   2
  -3  -2   6 11782.0 214.004   3
   3   2  -5 9655.08 154.276   1
  -3  -2   5 9089.18 179.380   2
  -3  -2   5 9459.69 185.965   3
  -3  -2   4 27.0771 87.1144   3
   3   2  -4 49.1131 63.3526   1
  -3  -2   4 79.3918 62.3672   0
   3   2  -3 9492.34 105.156   1
  -3  -2   3 9478.40 137.988   0
  -3  -2   3 9207.28 164.414   3
  -3  -2   2 16269.4 184.898   0
  -3  -2   2 15965.2 191.526   3
  -3  -2   1 41182.3 291.696   0
  -3  -2   1 42861.9 290.035   3
  -3  -2   0 23978.6 239.937   0
  -3  -2   0 24193.5 219.944   3
  -3  -2  -1 18863.7 225.156   0
   3   2   1 20060.4 204.704   2
  -3  -2  -1 19551.6 204.555   3
  -3  -2  -2 433.139 54.6654   1
   3   2   2 448.170 79.2979   2
  -3  -2  -2 421.228 71.4770   4
  -3  -2  -2 356.743 92.8645   0
  -3  -2  -3 4577.11 145.408   0
  -3  -2  -3 4429.21 105.671   1
   3   2   3 4771.49 123.328   2
  -3  -2  -3 4601.25 111.457   4
   3   2   4-27.1576 80.6373   2
  -3  -2  -4-36.8864 83.1026   1
  -3  -2  -4-29.9807 98.4732   0
  -3  -2  -4-55.3642 91.0545   4
   3   2   5 2.97527 85.0631   2
  -3  -2  -5 23.1597 98.3330   1
  -3  -2  -5-34.5832 111.623   0
  -3  -2  -5 47.3869 100.245   4
  -3  -2  -6 937.827 118.581   0
  -3  -2  -6 988.153 121.081   4
   3   2   6 875.513 133.061   3
   3   2   7 392.823 131.520   3
  -3  -2  -7 483.308 127.441   4
  -3  -2  -8 915.953 135.228   4
   3   2   8 1254.85 149.604   3
  -3  -2  -9 832.204 151.054   4
  -3  -2 -10 381.694 159.946   4
  -3  -3  11 319.458 166.305   3
  -3  -3  11 307.894 147.214   2
   3   3 -11 275.401 166.835   1
  -3  -3  10 21.0876 163.962   3
   3   3 -10 76.0178 144.404   1
  -3  -3  10-73.7580 136.799   2
   3   3  -9 1666.60 160.180   1
  -3  -3   9 1648.33 165.946   2
  -3  -3   9 2075.01 180.928   3
  -3  -3   8 86.5182 127.267   3
  -3  -3   8 115.122 125.072   2
   3   3  -8 23.5330 118.861   1
  -3  -3   7 1983.29 145.272   3
   3   3  -7 1962.65 133.279   1
  -3  -3   7 1790.54 135.556   2
  -3  -3   6 2266.94 140.192   2
  -3  -3   6 2192.37 142.821   3
  -3  -3   5 73.5707 101.480   3
  -3  -3   5 4.28255 98.2108   2
  -3  -3   4 15877.8 177.912   0
  -3  -3   4 15018.2 222.756   3
  -3  -3   3 3652.56 114.609   0
  -3  -3   3 3804.97 133.132   3
  -3  -3   2 5953.04 142.226   0
  -3  -3   2 6031.64 148.708   3
  -3  -3   1 178.653 86.6328   3
  -3  -3   1 60.9503 91.9087   0
  -3  -3   0 5868.66 152.880   0
  -3  -3   0 5695.59 148.270   3
  -3  -3  -1-27.5823 65.3013   4
  -3  -3  -1 17.0262 103.071   0
   3   3   1 78.8426 77.8086   2
  -3  -3  -1 21.5283 88.6700   3
   3   3   2 715.800 84.7725   2
  -3  -3  -2 805.958 87.1040   4
  -3  -3  -2 632.529 107.466   0
  -3  -3  -3 1572.58 126.137   0
   3   3   3 2090.70 102.334   2
  -3  -3  -3 1806.90 98.3913   4
  -3  -3  -4 3850.50 156.605   0
  -3  -3  -4 3919.80 121.205   4
  -3  -3  -5 193.991 112.718   0
  -3  -3  -5 166.916 103.313   4
  -3  -3  -6 480.525 130.323   0
  -3  -3  -6 458.799 120.577   4
   3   3   7 393.779 143.297   3
  -3  -3  -7 285.627 125.195   4
   3   3   8 17.3449 146.974   3
  -3  -3  -8 128.920 139.372   4
  -3  -3  -9-49.6703 152.668   4
  -3  -4  10 876.403 178.258   3
  -3  -4  10 1093.32 171.663   2
  -3  -4   9 533.944 153.306   3
  -3  -4   9 373.726 163.153   2
  -3  -4   8 630.026 154.090   3
  -3  -4   8 753.585 146.372   2
  -3  -4   7 94.5740 122.317   3
  -3  -4   7 19.7457 125.295   2
  -3  -4   6 1439.89 139.711   2
  -3  -4   6 1556.14 143.522   3
  -3  -4   5 78.5962 113.010   3
  -3  -4   5 117.784 110.986   2
  -3  -4   4 1150.61 100.357   0
  -3  -4   4 1194.24 127.269   3
  -3  -4   3 942.533 101.413   0
  -3  -4   3 922.495 112.221   3
  -3  -4   2 294.058 101.803   3
  -3  -4   2 229.630 98.4345   0
  -3  -4   1 277.440 98.7408   3
  -3  -4   1 221.359 101.761   0
  -3  -4   0 2587.62 132.740   0
  -3  -4   0 2710.35 87.2732   4
  -3  -4   0 2748.82 135.801   3
  -3  -4  -1 199.150 114.623   0
  -3  -4  -1 133.035 73.8769   4
   3   4   1 163.141 85.4257   2
  -3  -4  -1 244.005 105.218   3
  -3  -4  -2 1847.88 139.063   0
   3   4   2 1890.35 102.642   2
  -3  -4  -2 1915.89 98.3844   4
  -3  -4  -3 1761.74 141.766   0
  -3  -4  -3 1865.19 113.403   4
  -3  -4  -4 179.862 107.309   4
  -3  -4  -4 82.4917 126.252   0
  -3  -4  -5-21.7889 108.966   4
  -3  -4  -5-121.057 132.562   0
  -3  -4  -6 247.482 142.302   0
  -3  -4  -6 26.4660 119.708   4
   3   4   7 879.740 172.838   3
  -3  -4  -7 639.363 140.259   4
   3   4   8 5.79450 157.364   3
  -3  -4  -8-21.3969 146.645   4
  -3  -5  10 1278.14 171.328   2
  -3  -5  10 1445.17 181.985   3
  -3  -5   9 158.356 159.464   3
  -3  -5   9 33.9663 149.269   2
  -3  -5   8 228.588 155.858   3
  -3  -5   8 321.955 157.606   2
  -3  -5   7 294.611 133.574   3
  -3  -5   7 354.245 139.402   2
  -3  -5   6 1069.59 145.167   2
  -3  -5   6 1283.61 152.691   3
  -3  -5   5 3276.58 168.351   3
  -3  -5   4 1473.28 114.223   0
  -3  -5   4 1360.94 137.158   3
  -3  -5   3 188.788 111.015   3
  -3  -5   3 175.376 104.120   0
  -3  -5   2 811.429 120.495   3
  -3  -5   2 1002.41 126.116   0
  -3  -5   1 191.265 114.579   0
  -3  -5   1 195.536 115.334   3
  -3  -5   0 329.161 123.549   0
  -3  -5   0 488.257 76.9851   4
  -3  -5   0 418.071 115.102   3
  -3  -5  -1 497.148 94.5761   4
  -3  -5  -1 435.799 125.783   0
  -3  -5  -1 559.668 121.861   3
  -3  -5  -2 2765.12 169.329   0
  -3  -5  -2 2487.62 122.359   4
  -3  -5  -3 274.577 136.541   0
  -3  -5  -3 226.396 103.693   4
  -3  -5  -4 119.321 142.045   0
  -3  -5  -4-28.2402 116.012   4
  -3  -5  -5 51.4328 146.407   0
  -3  -5  -5-20.7462 116.751   4
  -3  -5  -6 117.777 132.855   4
  -3  -5  -6 51.8443 145.279   0
   3   5   7 825.630 183.627   3
  -3  -5  -7 427.206 146.322   4
  -3  -6   9-97.3587 153.775   3
  -3  -6   9 1.10474 158.099   2
  -3  -6   8 315.823 159.913   3
  -3  -6   8 196.480 151.792   2
  -3  -6   7 2677.94 194.295   2
  -3  -6   7 2890.35 194.375   3
  -3  -6   6 329.328 141.871   3
  -3  -6   6 144.558 137.602   2
  -3  -6   5 588.195 150.003   3
  -3  -6   4 296.173 131.057   3
  -3  -6   3 178.060 128.267   3
  -3  -6   3 337.215 125.957   0
  -3  -6   2 1080.69 138.571   0
  -3  -6   2 1095.86 141.705   3
  -3  -6   1 133.649 134.186   0
  -3  -6   1 113.530 122.753   3
  -3  -6   0 6477.91 209.786   0
  -3  -6   0 6099.33 204.866   3
  -3  -6  -1 637.326 149.013   0
  -3  -6  -1 527.770 99.5075   4
  -3  -6  -2 477.228 155.049   0
  -3  -6  -2 721.469 112.390   4
  -3  -6  -3 204.827 160.242   0
  -3  -6  -3 410.860 111.122   4
  -3  -6  -4 189.042 159.299   0
  -3  -6  -4 268.920 123.796   4
  -3  -6  -5 101.302 161.013   0
  -3  -6  -5-95.4409 131.703   4
  -3  -6  -6 205.319 160.013   0
  -3  -6  -6 174.527 138.603   4
  -3  -7   8-5.35752 169.120   3
  -3  -7   8 40.5240 150.989   2
  -3  -7   7-25.0932 163.701   3
  -3  -7   6 364.375 159.953   3
  -3  -7   5 2697.95 183.263   3
  -3  -7   4 3165.94 191.195   3
  -3  -7   3 1025.37 158.345   3
  -3  -7   3 959.484 151.971   0
  -3  -7   2 108.121 145.508   0
  -3  -7   2 8.25145 144.745   3
  -3  -7   1 686.656 155.338   0
  -3  -7   1 662.197 161.496   3
  -3  -7   0-3.73959 149.457   0
  -3  -7   0 189.593 154.328   3
  -3  -7  -1 1113.37 171.708   0
  -3  -7  -2 853.500 177.913   0
  -3  -7  -2 817.805 117.975   4
  -3  -7  -3 5540.52 233.646   0
  -3  -7  -3 6429.96 173.570   4
  -3  -7  -4 1692.35 152.503   4
  -3  -7  -4 1404.20 190.353   0
  -3  -7  -5 737.527 149.917   4
  -3  -8   6 96.5378 159.891   3
  -3  -8   5 38.5096 160.358   3
  -3  -8   4 6872.95 246.836   3
  -3  -8   3 54.3233 139.974   0
  -3  -8   3 212.290 156.642   3
  -3  -8   2 134.750 152.927   0
  -3  -8   2 109.820 164.147   3
  -3  -8   1 1416.39 177.584   3
  -3  -8   1 1584.85 183.052   0
  -3  -8   0 26.3416 162.422   0
  -3  -8  -1 241.333 170.160   0
  -3  -8  -2 19.2422 172.926   0
  -3  -9   2 45.1037 165.179   0
   4 -10  -1 141.690 154.871   1
   4 -10   0 724.705 162.936   1
   4 -10   1-45.1781 153.311   1
   4 -10   2 13.1579 156.347   1
   4  -9  -5 3548.35 210.059   0
   4  -9  -4 743.233 170.632   1
   4  -9  -4 909.618 176.220   0
   4  -9  -3 1504.40 187.936   0
   4  -9  -3 1577.90 178.683   1
   4  -9  -2 941.351 170.605   1
   4  -9  -2 886.722 174.848   0
   4  -9  -1 107.710 148.693   1
   4  -9   0 176.747 148.048   1
   4  -9   1 208.087 154.687   1
   4  -9   2 462.586 159.721   1
   4  -9   3 3348.15 202.382   1
   4  -9   4 1206.92 179.719   1
   4  -9   5 961.263 178.026   1
   4  -9   6 976.324 158.552   2
  -4   8   7 220.820 153.012   3
   4  -8  -6 274.133 166.722   1
   4  -8  -6 158.059 156.654   0
   4  -8  -5 73.6995 156.257   1
   4  -8  -5 323.112 157.231   0
   4  -8  -4 238.111 157.261   1
   4  -8  -4 294.246 153.904   0
   4  -8  -3 91.6304 145.425   1
   4  -8  -3 210.086 151.385   0
   4  -8  -2 89.0431 144.318   1
   4  -8  -1 218.127 137.913   1
   4  -8   0 748.551 143.253   1
   4  -8   1 395.050 143.748   1
   4  -8   2 83.1371 139.539   1
   4  -8   3 618.416 154.881   1
   4  -8   4 957.636 161.597   1
   4  -8   4 1205.06 146.360   2
   4  -8   5 503.889 168.815   1
   4  -8   5 553.704 138.866   2
   4  -8   6 208.519 164.781   1
   4  -8   6 301.441 144.164   2
   4  -8   7 3051.40 191.037   2
  -4   7   8 685.160 177.202   3
  -4   7   7 176.556 159.089   3
   4  -7  -7 165.187 161.148   1
  -4   7   6 111.633 141.425   3
   4  -7  -6 78.5885 155.333   1
   4  -7  -5 1565.78 158.755   0
   4  -7  -5 1715.11 169.765   1
  -4   7   5 1746.09 147.896   3
   4  -7  -4 1410.18 154.403   0
   4  -7  -4 1179.32 158.181   1
   4  -7  -3 0.76578 125.355   1
   4  -7  -2 637.509 141.041   1
   4  -7  -1 1562.86 141.723   1
   4  -7   0 4260.41 170.692   1
   4  -7   1 340.287 121.800   1
   4  -7   2 567.217 137.033   1
   4  -7   2 602.532 109.046   2
   4  -7   3 1604.56 127.231   2
   4  -7   3 1880.42 154.569   1
   4  -7   4 25.4159 139.207   1
   4  -7   4 123.942 115.247   2
   4  -7   5 106.992 153.451   1
   4  -7   5 259.779 133.381   2
   4  -7   6 1777.83 177.276   1
   4  -7   6 1801.98 165.467   2
   4  -7   7 616.122 161.784   2
  -4   6   9 1064.16 182.133   3
  -4   6   8 445.290 160.860   3
   4  -6  -8 454.181 162.528   1
  -4   6   7 874.817 151.481   3
   4  -6  -7 668.858 155.477   1
  -4   6   6 746.090 133.182   3
   4  -6  -6 755.661 150.852   1
  -4   6   5 150.405 114.906   3
   4  -6  -5 124.044 133.717   1
  -4   6   4 145.846 104.956   3
   4  -6  -4 105.297 127.168   1
  -4   6   3 181.343 98.8946   3
   4  -6  -3 146.021 114.747   1
   4  -6  -2 33.1313 111.895   1
   4  -6  -1 292.105 116.775   1
   4  -6   0 442.406 114.111   1
   4  -6   1 1722.90 109.576   2
   4  -6   1 1838.05 130.566   1
   4  -6   2 133.558 109.793   1
   4  -6   2 97.7327 103.037   2
   4  -6   3 19.3425 116.401   1
   4  -6   3 141.159 112.615   2
   4  -6   4-1.68647 129.254   1
   4  -6   4 63.7760 120.971   2
   4  -6   5 17.2025 135.545   1
   4  -6   5 21.2376 125.793   2
   4  -6   6 265.643 149.523   1
   4  -6   6 345.001 135.619   2
   4  -6   7 266.189 147.311   2
   4  -6   8 183.729 162.169   2
  -4   5   9 218.347 170.676   3
   4  -5  -9 185.549 165.099   1
  -4   5   8 515.608 155.915   3
   4  -5  -8 327.896 156.553   1
  -4   5   7 45.4258 140.942   3
   4  -5  -7 87.7086 141.722   1
  -4   5   6 589.689 135.063   3
   4  -5  -6 522.550 133.746   1
  -4   5   5 2130.43 131.285   3
   4  -5  -5 2047.29 146.760   1
  -4   5   4 1313.70 115.567   3
   4  -5  -4 1352.75 133.785   1
   4  -5  -3 17932.8 254.569   1
  -4   5   3 18723.0 214.401   3
  -4   5   2 498.821 77.3382   3
   4  -5  -2 473.225 104.357   1
   4  -5  -1 47.1705 96.9298   1
   4  -5  -1 127.199 69.7294   2
   4  -5   0 899.515 88.1210   2
   4  -5   0 988.330 108.894   1
   4  -5   1 3647.32 126.825   2
   4  -5   1 3255.15 134.028   1
   4  -5   2 4030.07 142.558   2
   4  -5   2 3727.67 145.148   1
   4  -5   3 2860.14 137.005   2
   4  -5   3 2982.16 141.956   1
   4  -5   4 24496.8 304.577   2
   4  -5   4 23602.4 303.422   1
   4  -5   5 2988.87 160.494   2
  -4   5  -5 3080.23 142.965   0
   4  -5   5 2754.98 160.096   1
   4  -5   6 1358.93 147.906   2
   4  -5   7-46.6221 135.974   2
   4  -5   8-20.9303 150.045   2
   4  -5   9-83.1315 143.077   2
  -4   4  10 538.748 178.874   3
   4  -4 -10 372.481 175.257   1
  -4   4   9 264.451 169.782   3
   4  -4  -9 318.055 162.761   1
   4  -4  -8 3709.78 197.993   1
  -4   4   8 3833.40 196.497   3
  -4   4   7 116.233 131.753   3
   4  -4  -7 114.556 130.849   1
  -4   4   6 295.360 119.148   3
   4  -4  -6 433.397 123.246   1
   4  -4  -5 10198.5 205.593   1
  -4   4   5 11005.6 201.617   3
  -4   4   4 77.1185 89.8932   3
   4  -4  -4 104.255 100.678   1
  -4   4   3 6882.70 138.028   3
   4  -4  -3 6677.41 160.996   1
   4  -4  -2 548.867 70.9601   2
   4  -4  -2 586.699 93.5207   1
  -4   4   2 610.050 69.0230   3
   4  -4  -1 12878.5 166.122   2
   4  -4  -1 12608.2 190.409   1
   4  -4   0 3665.90 114.012   2
   4  -4   0 3676.25 124.145   1
   4  -4   1 378.250 91.6161   1
   4  -4   1 465.659 93.2289   2
   4  -4   2 265.282 92.9282   1
   4  -4   2 231.933 101.578   2
   4  -4   3 1152.45 114.759   2
   4  -4   3 1052.40 112.648   1
   4  -4   4-19.8524 109.436   1
   4  -4   4 31.7352 103.475   2
  -4   4  -4 73.7617 110.761   0
   4  -4   5 3186.11 155.903   2
  -4   4  -5 3439.24 144.334   0
   4  -4   5 3486.65 158.303   1
   4  -4   6 4818.03 186.271   2
   4  -4   7 610.787 141.573   2
   4  -4   8 443.280 141.884   2
   4  -4   9 39.9846 142.544   2
  -4   3  10 457.623 172.776   3
   4  -3 -10 673.988 175.709   1
  -4   3   9-40.6736 162.925   3
   4  -3  -9 20.7983 152.655   1
  -4   3   8 265.722 140.591   3
   4  -3  -8 218.271 138.262   1
   4  -3  -7 1318.42 139.444   1
  -4   3   7 1542.85 143.656   3
  -4   3   6-26.0832 113.522   3
   4  -3  -6 31.7584 115.170   1
   4  -3  -5 1070.27 112.567   1
  -4   3   5 1169.20 116.750   3
   4  -3  -4 2009.68 83.2487   2
  -4   3   4 2482.45 114.822   3
   4  -3  -4 2148.69 114.820   1
  -4   3   3 91.7367 75.8934   3
   4  -3  -3 107.326 65.2603   2
   4  -3  -3 36.3484 84.0521   1
   4  -3  -2 1327.66 79.0032   2
  -4   3   2 1363.38 74.2563   3
   4  -3  -2 1352.43 94.1492   1
   4  -3  -1 422.890 78.2937   1
   4  -3  -1 370.653 78.4418   2
  -4   3   1 446.129 50.8554   3
   4  -3   0 8920.21 146.704   1
   4  -3   0 8733.02 154.367   2
   4  -3   1 3981.34 127.402   2
   4  -3   1 3765.00 114.957   1
  -4   3  -2 361.786 101.014   0
   4  -3   2 423.045 86.2615   1
   4  -3   2 422.769 98.2058   2
   4  -3   3 1484.80 111.639   2
  -4   3  -3 1556.09 114.153   0
   4  -3   3 1575.25 103.823   1
  -4   3  -4 140.745 107.447   0
   4  -3   4 232.683 100.472   1
   4  -3   4 266.266 102.755   2
   4  -3   5 3271.62 150.848   2
  -4   3  -5 3728.39 145.085   0
   4  -3   6 145.616 118.920   2
   4  -3   7 4125.20 182.309   2
   4  -3   8 788.636 151.477   2
   4  -3   9 113.329 150.082   2
  -4   2  11 361.937 173.988   3
   4  -2 -11 252.283 170.711   1
  -4   2  10 96.0342 171.322   3
   4  -2 -10 194.355 163.899   1
  -4   2   9 111.304 157.347   3
   4  -2  -9-150.180 148.714   1
   4  -2  -8 1265.01 148.523   1
  -4   2   8 1602.07 150.166   3
   4  -2  -7 1980.24 139.558   1
  -4   2   7 1930.46 142.236   3
  -4   2   6 93.2117 112.676   3
   4  -2  -6 73.1480 104.214   1
  -4   2   5 241.543 93.3175   3
   4  -2  -5 232.544 95.6238   1
   4  -2  -4 2468.28 107.454   1
  -4   2   4 2813.00 111.895   3
  -4   2   3 523.432 76.7995   3
   4  -2  -3 524.150 77.3538   2
   4  -2  -3 669.760 83.5376   1
   4  -2  -2 7982.88 138.185   2
  -4   2   2 8634.80 120.513   3
   4  -2  -2 8573.54 135.666   1
   4  -2  -1 8759.33 148.901   2
  -4   2   1 8538.85 98.3517   3
   4  -2  -1 8984.68 129.594   1
   4  -2   0 5426.67 129.018   2
  -4   2   0 5595.98 139.050   0
  -4   2   0 5357.61 61.9767   3
   4  -2   0 5846.47 109.393   1
   4  -2   1 2960.51 117.070   2
  -4   2  -1 2821.74 117.712   0
   4  -2   1 3090.37 97.5861   1
  -4   2  -2-37.6611 91.9250   0
   4  -2   2 62.4931 78.6065   1
   4  -2   2-8.90967 85.7881   2
   4  -2   3 32.2332 85.1871   1
   4  -2   3 69.1901 92.5880   2
  -4   2  -3 76.3979 103.269   0
  -4   2  -4 296.691 107.705   0
   4  -2   4 202.439 102.389   2
   4  -2   5 304.216 114.461   2
  -4   2  -5 167.160 98.7922   0
   4  -2   6 8.13256 119.953   2
   4  -2   7 14.3288 128.610   2
   4  -2   8-63.5582 127.349   2
   4  -2   9 495.267 153.647   2
  -4   2  -9 538.701 139.312   4
   4  -2  10 11.3659 140.932   2
  -4   2 -10-7.68011 151.149   4
  -4   2 -10 263.306 170.149   1
  -4   1  11 253.605 179.949   3
   4  -1 -11 132.544 159.039   1
   4  -1 -10 3866.56 205.229   1
  -4   1  10 4067.50 220.384   3
  -4   1   9 269.075 148.426   3
   4  -1  -9 46.3085 140.218   1
   4  -1  -8 2885.20 163.827   1
  -4   1   8 2834.88 173.454   3
  -4   1   7 16.5271 126.416   3
   4  -1  -7 93.1959 115.800   1
   4  -1  -6 1126.74 111.728   1
  -4   1   6 1175.32 125.081   3
  -4   1   5 222.540 95.3425   3
   4  -1  -5 305.010 91.5129   1
  -4   1   5 158.390 71.1842   0
  -4   1   4 333.889 84.9230   3
   4  -1  -4 314.275 80.0841   1
  -4   1   4 364.567 77.2440   0
  -4   1   3 7493.48 139.547   0
  -4   1   3 7809.81 136.113   3
   4  -1  -3 7526.10 122.280   1
   4  -1  -2 648.985 89.6369   2
  -4   1   2 680.881 96.5416   0
  -4   1   2 687.546 70.6835   3
   4  -1  -2 828.766 65.9158   1
   4  -1  -1 1119.43 94.0388   2
  -4   1   1 1110.19 106.906   0
  -4   1   1 1028.94 62.5647   3
   4  -1  -1 1067.51 62.6430   1
   4  -1   0 710.386 87.9664   2
  -4   1   0 866.549 101.998   0
  -4   1   0 691.909 53.5273   3
   4  -1   0 649.535 58.7432   1
   4  -1   1 1066.14 96.4911   2
  -4   1  -1 1001.59 103.347   0
  -4   1  -1 882.894 51.7290   3
   4  -1   1 1087.63 68.2219   1
   4  -1   2 253.131 67.9776   1
  -4   1  -2 220.578 97.1678   0
   4  -1   2 286.855 89.2423   2
  -4   1  -3 1023.21 109.683   0
   4  -1   3 986.106 102.612   2
  -4   1  -4 3093.36 132.426   0
   4  -1   4 3006.73 135.729   2
  -4   1  -5 91.9252 112.848   0
   4  -1   5 152.091 108.601   2
   4  -1   6 272.219 115.376   2
   4  -1   7 406.196 130.261   2
  -4   1  -8 118.754 126.192   4
   4  -1   8 26.7483 124.432   2
  -4   1  -9 25.4280 142.394   4
  -4   1  -9 166.186 163.329   1
  -4   1 -10 460.838 157.646   4
  -4   1 -10 406.096 179.589   1
   4   0 -11 1008.15 177.407   1
  -4   0  11 1293.27 189.851   3
  -4   0  10 116.743 158.154   3
   4   0 -10 190.840 150.881   1
   4   0  -9 1031.30 147.365   1
  -4   0   9 1111.60 160.708   3
   4   0  -8 5465.58 182.123   1
  -4   0   8 5657.32 190.840   3
  -4   0   7 86.9107 114.342   3
   4   0  -7 183.194 107.221   1
  -4   0   6 206.100 100.935   3
   4   0  -6 151.718 98.2490   1
   4   0  -5 2199.42 104.268   1
  -4   0   5 2336.70 119.827   3
   4   0  -4 10121.8 144.260   1
  -4   0   4 9686.90 143.903   0
  -4   0   4 9683.28 164.077   3
   4   0  -3 10401.0 122.419   1
  -4   0   3 9552.74 147.705   0
  -4   0   3 10389.3 154.614   3
  -4   0   2 5508.26 131.703   0
  -4   0   2 5521.55 116.593   3
   4   0  -2 5467.13 80.2948   1
  -4   0   1 10495.0 167.878   0
   4   0  -1 10473.9 172.357   2
  -4   0   1 11374.3 140.811   3
   4   0  -1 10746.6 90.3153   1
  -4   0   0 1711.59 107.435   0
   4   0   0 1631.75 100.028   2
   4   0   0 1629.05 51.0762   1
  -4   0   0 1622.68 76.5657   3
  -4   0  -1 1200.14 107.114   0
   4   0   1 1563.94 104.256   2
  -4   0  -1 1258.28 70.8366   3
  -4   0  -2 1115.63 107.312   0
   4   0   2 1165.69 101.248   2
  -4   0  -3 12.5132 100.179   0
   4   0   3 135.106 92.7094   2
  -4   0  -4 15000.6 230.780   0
   4   0   4 14578.8 225.418   2
  -4   0  -5 3907.41 154.293   0
   4   0   5 3498.61 146.054   2
  -4   0  -5 3321.93 124.333   4
  -4   0  -6 7.72000 115.950   0
   4   0   6-54.4157 112.559   2
  -4   0  -6 46.2710 112.684   4
  -4   0  -7 3382.90 170.687   1
   4   0   7 3696.05 164.951   2
  -4   0  -7 3364.67 149.313   4
  -4   0  -8-23.0636 135.384   4
  -4   0  -9 353.859 150.685   4
  -4   0 -10 102.674 161.958   4
  -4  -1  11 344.618 171.309   3
   4   1 -11 85.4650 154.355   1
  -4  -1  10 282.392 173.698   3
   4   1 -10 282.992 148.594   1
  -4  -1   9 36.5563 149.283   3
   4   1  -9 108.648 126.107   1
   4   1  -8 1529.41 135.098   1
  -4  -1   8 1578.24 157.771   3
   4   1  -7 8175.55 185.585   1
  -4  -1   7 7841.12 204.623   3
   4   1  -6 1659.73 111.929   1
  -4  -1   6 1789.50 128.022   3
   4   1  -5 1385.18 91.3467   1
  -4  -1   5 1332.63 113.809   3
   4   1  -4 662.842 67.7607   1
  -4  -1   4 769.643 85.2306   0
  -4  -1   4 810.629 104.447   3
  -4  -1   3 2108.36 103.342   0
  -4  -1   3 2176.65 105.526   3
  -4  -1   2 149.516 79.4040   3
  -4  -1   2 46.6492 92.6770   0
  -4  -1   1 19871.3 226.723   0
   4   1  -1 19991.0 228.960   2
  -4  -1   1 20077.1 205.828   3
  -4  -1   0 48148.1 349.507   0
   4   1   0 49290.7 343.263   2
  -4  -1   0 48967.8 302.848   3
  -4  -1  -1 331.437 111.131   0
   4   1   1 378.353 89.1813   2
  -4  -1  -1 402.052 78.5070   3
  -4  -1  -2 598.742 108.499   0
   4   1   2 678.481 96.8718   2
  -4  -1  -2 807.003 82.1134   4
  -4  -1  -3 395.099 109.523   0
   4   1   3 201.448 92.9248   2
  -4  -1  -3 170.566 86.1019   4
  -4  -1  -4 2064.66 134.806   0
   4   1   4 1931.47 120.879   2
  -4  -1  -4 2061.36 108.730   4
   4   1   5 17.8283 97.1531   2
  -4  -1  -5-20.7447 106.185   4
  -4  -1  -5 118.717 112.368   0
  -4  -1  -6 13313.8 238.922   0
   4   1   6 13672.9 235.749   2
  -4  -1  -6 12911.0 192.641   4
  -4  -1  -7 5500.44 164.386   4
  -4  -1  -8 90.5374 135.063   4
  -4  -1  -9-17.2611 152.848   4
  -4  -2  11 626.865 176.045   3
  -4  -2  10-173.992 153.674   3
  -4  -2   9-9.54077 147.314   3
  -4  -2   8 8947.46 237.177   3
  -4  -2   7 492.049 123.699   3
  -4  -2   6 4463.09 165.359   3
  -4  -2   5 2210.07 133.700   3
  -4  -2   4 6517.53 136.724   0
  -4  -2   4 6267.08 159.451   3
  -4  -2   3 399.271 93.1563   3
  -4  -2   3 374.738 92.5025   0
  -4  -2   2 401.694 96.1788   3
  -4  -2   2 480.216 98.8485   0
  -4  -2   1 4194.42 142.010   0
  -4  -2   1 3960.93 123.090   3
  -4  -2   0 3347.55 138.713   0
   4   2   0 3281.94 130.629   2
  -4  -2   0 3039.02 123.110   3
  -4  -2  -1 414.357 115.830   0
   4   2   1 557.202 95.2776   2
  -4  -2  -1 438.003 76.2202   4
  -4  -2  -1 373.180 94.3823   3
  -4  -2  -2 2088.28 135.685   0
   4   2   2 2474.75 114.962   2
  -4  -2  -2 2391.01 99.4886   4
  -4  -2  -3 94.2571 93.0801   4
   4   2   3 64.6256 93.4837   2
  -4  -2  -3 13.9607 112.990   0
  -4  -2  -4 1212.01 132.912   0
   4   2   4 1263.94 110.085   2
  -4  -2  -4 1133.00 111.724   4
  -4  -2  -5 1649.15 148.833   0
  -4  -2  -5 1722.46 125.873   4
  -4  -2  -6 1418.49 148.190   0
  -4  -2  -6 1663.76 132.950   4
  -4  -2  -7 8023.20 188.525   4
  -4  -2  -8 1613.46 159.216   4
  -4  -2  -9 223.993 156.214   4
  -4  -3  10 735.779 184.932   3
  -4  -3   9 105.966 149.517   3
  -4  -3   8 2109.71 169.136   3
  -4  -3   7 2475.63 167.109   3
  -4  -3   6 359.977 126.955   3
  -4  -3   5 635.982 124.832   3
  -4  -3   4 2635.49 118.252   0
  -4  -3   4 2683.25 138.809   3
  -4  -3   3 95.8990 105.269   3
  -4  -3   3 76.2246 94.5561   0
  -4  -3   2 6709.02 163.637   0
  -4  -3   2 6443.07 165.221   3
  -4  -3   1 9424.03 192.831   0
  -4  -3   1 9091.05 180.337   3
  -4  -3   0 10204.1 203.627   0
  -4  -3   0 10590.8 195.645   3
   4   3   0 10957.4 195.788   2
  -4  -3  -1 4352.14 160.379   0
   4   3   1 4356.08 145.628   2
  -4  -3  -1 4187.64 104.355   4
  -4  -3  -1 4470.99 151.305   3
   4   3   2 44.2597 93.4201   2
  -4  -3  -2 35.8946 86.0900   4
  -4  -3  -2 45.3884 113.584   0
  -4  -3  -3 1635.94 111.016   4
  -4  -3  -3 1719.98 148.408   0
   4   3   3 1718.06 114.474   2
  -4  -3  -4 800.388 114.732   4
  -4  -3  -4 812.401 140.991   0
  -4  -3  -5 56.8404 129.333   0
  -4  -3  -5 2.99840 110.161   4
  -4  -3  -6 629.210 139.530   0
  -4  -3  -6 510.487 128.423   4
  -4  -3  -7 48.5772 130.492   4
  -4  -3  -8 558.821 149.359   4
  -4  -4  10 261.970 170.263   3
  -4  -4   9 119.254 154.851   3
  -4  -4   8 81.3342 153.436   3
  -4  -4   7 87.2938 133.908   3
  -4  -4   6 188.990 132.451   3
  -4  -4   5 9851.46 228.368   3
  -4  -4   4 31.1813 112.847   3
  -4  -4   4 72.9159 94.4457   0
  -4  -4   3 5501.73 161.696   0
  -4  -4   3 5173.64 172.872   3
  -4  -4   2 576.874 124.437   3
  -4  -4   2 576.148 115.947   0
  -4  -4   1 3216.81 148.905   0
  -4  -4   1 3186.82 151.467   3
  -4  -4   0 446.838 121.720   0
   4   4   0 486.273 110.011   2
  -4  -4   0 407.922 114.882   3
  -4  -4  -1 6535.41 195.610   0
   4   4   1 6453.35 167.815   2
  -4  -4  -1 6219.38 124.577   4
  -4  -4  -1 5963.05 185.329   3
  -4  -4  -2 1489.75 142.919   0
   4   4   2 1793.93 118.987   2
  -4  -4  -2 1625.49 109.998   4
  -4  -4  -3 239.267 136.409   0
  -4  -4  -3 257.280 113.759   4
  -4  -4  -4 158.268 139.221   0
  -4  -4  -4 93.3228 108.184   4
  -4  -4  -5 3.30967 144.762   0
  -4  -4  -5 42.5761 124.450   4
  -4  -4  -6 183.461 144.680   0
  -4  -4  -6 18.1186 130.509   4
   4   4   7 140.269 161.672   3
  -4  -4  -7-40.7239 143.450   4
  -4  -5   9 786.581 174.348   3
  -4  -5   8 1320.95 185.427   3
  -4  -5   7 11.0273 150.111   3
  -4  -5   6 53.2431 139.276   3
  -4  -5   5 245.021 146.201   3
  -4  -5   4 805.563 136.669   3
  -4  -5   3 218.575 129.525   3
  -4  -5   3 246.361 120.896   0
  -4  -5   2 56.0872 128.854   3
  -4  -5   2 63.9686 117.616   0
  -4  -5   1 440.506 130.318   0
  -4  -5   1 297.605 126.660   3
   4   5   0 910.868 119.560   2
  -4  -5   0 715.874 141.542   0
  -4  -5   0 657.729 135.832   3
  -4  -5  -1 1916.03 159.278   0
  -4  -5  -1 2253.37 110.443   4
  -4  -5  -1 1918.32 164.455   3
  -4  -5  -2 154.584 142.276   0
  -4  -5  -2 45.4279 101.383   4
  -4  -5  -3 1429.06 170.325   0
  -4  -5  -3 1848.29 123.840   4
  -4  -5  -4 79.2284 148.525   0
  -4  -5  -4 202.092 120.294   4
  -4  -5  -5-100.106 161.485   0
  -4  -5  -5 27.4066 129.036   4
  -4  -5  -6 594.038 176.943   0
  -4  -5  -6 456.620 153.582   4
  -4  -6   8 33.9485 167.538   3
  -4  -6   7 958.016 167.937   3
  -4  -6   6 67.8358 159.722   3
  -4  -6   5 15.1690 153.794   3
  -4  -6   4 3195.15 193.351   3
  -4  -6   3 171.236 150.984   3
  -4  -6   3 239.540 135.814   0
  -4  -6   2 495.319 144.631   0
  -4  -6   2 571.528 152.194   3
  -4  -6   1 169.775 148.184   0
  -4  -6   1 230.201 156.351   3
  -4  -6   0 1226.68 165.265   0
  -4  -6   0 1401.47 168.706   3
  -4  -6  -1 120.987 157.639   0
  -4  -6  -2 125.966 160.948   0
  -4  -6  -2 49.1092 115.491   4
  -4  -6  -3 2354.53 199.719   0
  -4  -6  -3 2641.23 136.378   4
  -4  -6  -4-7.64777 171.358   0
  -4  -6  -4 49.3470 132.657   4
  -4  -6  -5 213.151 168.588   0
  -4  -6  -5-16.0257 145.308   4
  -4  -7   6 705.213 181.754   3
  -4  -7   5 996.954 189.945   3
  -4  -7   4 92.7263 157.064   3
  -4  -7   3 33.5210 146.703   0
  -4  -7   3 95.5113 157.328   3
  -4  -7   2 1061.26 160.643   0
  -4  -7   2 851.508 172.408   3
  -4  -7   1 1221.45 174.162   0
  -4  -7   1 922.221 175.685   3
  -4  -7   0-69.8310 163.342   0
  -4  -7   0-22.4893 155.736   3
  -4  -7  -1 180.834 171.298   0
  -4  -7  -2 1095.21 188.100   0
  -4  -7  -2 1317.92 127.843   4
  -4  -7  -3 37.4663 135.540   4
  -4  -7  -4 209.940 142.270   4
  -4  -8   3 642.408 187.002   3
  -4  -8   2-44.7648 161.738   0
  -4  -8   2-33.1511 174.392   3
  -4  -8   1 70.2452 165.619   0
   5  -9  -4 321.451 166.312   1
   5  -9  -3 20.6171 164.302   1
   5  -9  -2 58.6715 159.323   1
   5  -9  -1 179.746 159.692   1
   5  -9   0 995.344 167.519   1
   5  -9   1 30.3206 156.129   1
   5  -9   2 968.438 173.052   1
   5  -9   3 47.0226 165.058   1
   5  -9   4 763.162 171.142   1
   5  -8  -6 1466.02 184.171   1
   5  -8  -5 22.4861 163.612   1
   5  -8  -4 4464.36 215.171   1
   5  -8  -3 713.143 157.552   1
   5  -8  -2 614.626 155.330   1
   5  -8  -1 659.653 151.555   1
   5  -8   0 29.9354 140.839   1
   5  -8   1 38.0945 144.661   1
   5  -8   2-125.904 146.703   1
   5  -8   3 432.087 157.775   1
   5  -8   4 1096.53 176.227   1
   5  -8   4 935.621 147.334   2
   5  -8   5 1897.15 170.190   2
   5  -8   5 1877.74 193.565   1
   5  -8   6 211.336 153.351   2
  -5   7   8-20.7666 163.798   3
   5  -7  -7 2061.42 195.096   1
   5  -7  -6 219.765 158.221   1
   5  -7  -5-77.5651 150.389   1
   5  -7  -4 16.2286 144.847   1
   5  -7  -3 254.684 138.257   1
   5  -7  -2 193.419 133.143   1
   5  -7  -1 491.555 136.399   1
   5  -7   0 929.292 136.162   1
   5  -7   1 671.752 137.058   1
   5  -7   2-7.04989 136.823   1
   5  -7   2-19.8230 107.015   2
   5  -7   3 92.5242 141.679   1
   5  -7   3 144.507 125.415   2
   5  -7   4 312.784 153.328   1
   5  -7   4 101.893 129.225   2
   5  -7   5 1274.42 156.049   2
   5  -7   5 1187.12 171.316   1
   5  -7   6 68.5179 162.182   1
   5  -7   6 22.5087 152.613   2
   5  -7   7 213.363 152.244   2
  -5   6   9 458.278 159.397   3
  -5   6   8 208.677 148.936   3
   5  -6  -8 119.083 164.136   1
  -5   6   7 1233.87 155.943   3
   5  -6  -7 1250.62 178.704   1
  -5   6   6 601.566 140.519   3
   5  -6  -6 340.534 157.171   1
   5  -6  -5 1363.65 157.767   1
   5  -6  -4 5579.18 200.114   1
   5  -6  -3 354.762 125.701   1
   5  -6  -2 17.4669 120.867   1
   5  -6  -1 1332.44 132.684   1
   5  -6   0 2450.44 116.925   2
   5  -6   0 2751.02 149.302   1
   5  -6   1 8128.45 180.922   2
   5  -6   1 7826.92 198.300   1
   5  -6   2 147.335 120.331   1
   5  -6   2 168.752 113.005   2
   5  -6   3 5378.96 182.068   2
   5  -6   3 5428.76 191.839   1
   5  -6   4 1014.91 148.519   1
   5  -6   4 939.818 139.110   2
   5  -6   5 105.314 143.792   1
   5  -6   5 13.8039 129.195   2
   5  -6   6 241.663 142.442   2
   5  -6   6 77.5125 148.653   1
   5  -6   7 2197.98 179.838   2
  -5   5   9 1160.89 177.766   3
   5  -5  -9 1266.47 181.849   1
  -5   5   8 2128.08 178.314   3
   5  -5  -8 1684.36 173.033   1
  -5   5   7 1128.85 154.074   3
   5  -5  -7 969.847 157.083   1
  -5   5   6 74.3165 129.398   3
   5  -5  -6 145.314 138.177   1
  -5   5   5 13.6679 108.553   3
   5  -5  -5-4.60118 122.807   1
   5  -5  -4 6250.08 187.391   1
   5  -5  -3 3865.49 153.523   1
   5  -5  -2 1243.14 123.677   1
   5  -5  -1 144.325 107.375   1
   5  -5  -1 78.7800 86.3080   2
   5  -5   0 437.791 108.926   1
   5  -5   0 294.172 98.6443   2
   5  -5   1 4795.79 152.922   2
   5  -5   1 4697.14 155.703   1
   5  -5   2 3964.65 155.511   2
   5  -5   2 3604.98 151.265   1
   5  -5   3 14015.6 248.010   2
   5  -5   3 14678.7 248.467   1
   5  -5   4 2730.33 155.072   2
  -5   5  -4 2977.62 163.944   0
   5  -5   4 3119.10 162.599   1
   5  -5   5 136.722 140.725   1
  -5   5  -5 170.714 124.976   0
   5  -5   5 111.833 127.309   2
   5  -5   6-28.3960 139.166   2
   5  -5   7-6.73355 155.224   2
   5  -5   8-17.2218 159.810   2
  -5   4  10 783.131 176.323   3
   5  -4 -10 789.881 172.495   1
   5  -4  -9 1575.14 175.069   1
  -5   4   9 1691.03 189.461   3
  -5   4   8 358.383 155.729   3
   5  -4  -8 279.290 147.143   1
  -5   4   7 3301.77 170.636   3
   5  -4  -7 2957.57 170.925   1
  -5   4   6 318.714 119.100   3
   5  -4  -6 409.710 126.493   1
  -5   4   5 5108.06 156.997   3
   5  -4  -5 4458.57 166.034   1
  -5   4   4 7031.28 156.530   3
   5  -4  -4 6684.94 175.501   1
   5  -4  -3 775.690 109.666   1
   5  -4  -2 1081.68 90.5629   2
   5  -4  -2 925.026 103.185   1
   5  -4  -1 4199.51 129.646   2
   5  -4  -1 4193.53 134.677   1
   5  -4   0-15.9379 85.4268   1
   5  -4   0 59.3920 95.0518   2
   5  -4   1 1079.20 107.646   1
   5  -4   1 1112.70 105.743   2
   5  -4   2 4752.79 155.723   1
   5  -4   2 4802.20 159.014   2
  -5   4  -2 4817.99 164.395   0
   5  -4   3 2635.52 143.447   2
  -5   4  -3 2859.64 148.176   0
   5  -4   3 2796.78 139.019   1
   5  -4   4 4672.68 173.808   2
  -5   4  -4 5497.07 177.269   0
   5  -4   4 5185.43 173.066   1
   5  -4   5 985.419 141.776   2
  -5   4  -5 1226.00 143.587   0
   5  -4   6 507.530 139.273   2
   5  -4   7-7.12842 150.504   2
   5  -4   8 406.405 151.588   2
  -5   3  10 563.952 183.075   3
   5  -3 -10 732.453 174.029   1
   5  -3  -9 1193.95 168.714   1
  -5   3   9 1536.54 181.925   3
  -5   3   8 582.002 150.618   3
   5  -3  -8 377.649 146.775   1
   5  -3  -7 6061.70 197.727   1
  -5   3   7 5720.54 197.016   3
  -5   3   6 2934.10 152.122   3
   5  -3  -6 2805.58 148.638   1
  -5   3   5 1308.55 120.455   3
   5  -3  -5 1089.44 112.561   1
   5  -3  -4 15723.7 197.450   2
  -5   3   4 15550.0 207.138   3
   5  -3  -4 16236.0 227.943   1
   5  -3  -3 1168.58 95.1768   2
  -5   3   3 1465.24 91.2210   3
   5  -3  -3 1250.82 101.354   1
   5  -3  -2 69.7973 84.9724   1
   5  -3  -2 21.5336 81.3213   2
   5  -3  -1 292.072 82.7145   1
   5  -3  -1 172.436 88.5040   2
   5  -3   0 5282.36 149.779   2
  -5   3   0 4713.51 154.887   0
   5  -3   0 4976.78 128.695   1
   5  -3   1-9.66769 84.9429   1
  -5   3  -1-20.5131 111.078   0
   5  -3   1 28.6331 97.9507   2
   5  -3   2-8.26168 86.9422   1
  -5   3  -2 45.5455 113.834   0
   5  -3   2 63.1462 101.796   2
   5  -3   3 1920.58 132.547   2
  -5   3  -3 1844.63 139.457   0
   5  -3   3 1905.25 123.708   1
  -5   3  -4 91.9084 119.064   0
   5  -3   4 94.5664 117.390   2
   5  -3   4 23.6618 102.488   1
  -5   3  -5 376.186 127.623   0
   5  -3   5 122.231 120.502   2
   5  -3   6 278.692 141.175   2
   5  -3   7 91.4380 143.819   2
   5  -3   8 116.154 147.507   2
   5  -3   9 125.333 144.987   2
   5  -2 -11 156.908 159.128   1
  -5   2  10 531.585 176.586   3
   5  -2 -10 332.782 156.905   1
  -5   2   9 1087.95 177.001   3
   5  -2  -9 779.239 157.613   1
   5  -2  -8 2908.15 167.979   1
  -5   2   8 3102.20 174.111   3
  -5   2   7 104.012 124.993   3
   5  -2  -7 129.613 119.618   1
   5  -2  -6 3190.72 144.051   1
  -5   2   6 3310.07 150.014   3
  -5   2   5-18.5284 101.925   3
  -5   2   5 58.0366 88.6248   0
   5  -2  -5 28.9475 94.5210   1
   5  -2  -4 9262.94 172.556   2
  -5   2   4 9446.53 171.477   0
  -5   2   4 9850.79 171.346   3
   5  -2  -4 10156.7 173.842   1
  -5   2   3 236.833 78.2979   3
   5  -2  -3 221.322 80.4747   1
  -5   2   3 261.414 101.155   0
   5  -2  -3 230.511 92.4431   2
   5  -2  -2 9439.54 174.893   2
  -5   2   2 9924.08 184.787   0
  -5   2   2 9898.96 134.103   3
   5  -2  -2 10255.6 152.366   1
   5  -2  -1 3265.89 128.813   2
  -5   2   1 3297.67 136.496   0
   5  -2  -1 3714.16 104.192   1
   5  -2   0 467.917 69.9837   1
  -5   2   0 541.872 108.843   0
   5  -2   0 470.606 100.983   2
   5  -2   1 1633.06 116.042   2
  -5   2  -1 1721.40 134.605   0
   5  -2   1 1837.35 92.4563   1
   5  -2   2 431.841 87.6082   1
  -5   2  -2 557.446 120.990   0
   5  -2   2 614.910 112.629   2
   5  -2   3 1757.90 104.361   1
   5  -2   3 1776.24 124.123   2
  -5   2  -3 1938.17 139.912   0
  -5   2  -4 548.451 120.340   0
   5  -2   4 467.932 118.009   2
   5  -2   5 417.849 127.535   2
  -5   2  -5 772.095 125.726   0
   5  -2   6 2545.81 168.495   2
   5  -2   7-49.3585 143.661   2
   5  -2   8 499.287 149.775   2
   5  -2   9 244.579 144.302   2
  -5   2  -9 292.122 156.770   4
   5  -1 -11 785.376 168.474   1
  -5   1  10 68.8851 168.134   3
   5  -1 -10 105.972 146.797   1
  -5   1   9 346.223 152.014   3
   5  -1  -9 381.450 149.115   1
  -5   1   8-112.979 142.804   3
   5  -1  -8-30.9540 118.903   1
  -5   1   7 26.0436 130.779   3
   5  -1  -7 85.3036 111.983   1
  -5   1   6 101.181 113.970   3
   5  -1  -6-10.0667 99.6312   1
   5  -1  -5 1434.51 101.746   1
  -5   1   5 1495.59 105.460   0
  -5   1   5 1611.25 121.928   3
  -5   1   4 138.728 88.9391   3
   5  -1  -4 273.078 79.4106   1
  -5   1   4 225.058 103.395   0
   5  -1  -3 6035.54 156.515   2
  -5   1   3 6498.25 157.102   0
  -5   1   3 6295.16 134.332   3
   5  -1  -3 6305.55 119.236   1
   5  -1  -2 4160.59 137.261   2
  -5   1   2 4298.80 146.463   0
  -5   1   2 4416.71 108.873   3
   5  -1  -2 4200.93 94.8819   1
   5  -1  -1 1541.05 116.768   2
  -5   1   1 1650.18 123.445   0
  -5   1   1 1587.08 76.0799   3
   5  -1  -1 1521.71 68.6816   1
   5  -1   0 395.784 60.7681   1
  -5   1   0 405.921 117.309   0
   5  -1   0 429.037 101.727   2
  -5   1  -1 206.401 114.130   0
   5  -1   1 432.316 66.6663   1
   5  -1   1 396.362 99.9513   2
  -5   1  -2 4335.34 158.217   0
   5  -1   2 4213.12 148.386   2
  -5   1  -3 1351.36 132.389   0
   5  -1   3 1311.48 120.883   2
  -5   1  -4 1057.32 131.956   0
   5  -1   4 1213.45 123.451   2
  -5   1  -5 746.068 136.289   0
   5  -1   5 816.833 126.894   2
  -5   1  -6 52.0574 127.955   0
   5  -1   6 55.7567 126.941   2
   5  -1   7 385.206 130.073   2
  -5   1  -7 377.356 129.941   4
   5  -1   8-4.53704 140.782   2
  -5   1  -8 70.6987 142.068   4
  -5   1  -9-98.2259 148.104   4
  -5   0  10 241.650 159.813   3
   5   0 -10 117.521 146.243   1
  -5   0   9 173.962 152.956   3
   5   0  -9 150.046 131.088   1
   5   0  -8 2435.16 147.189   1
  -5   0   8 2192.94 165.637   3
   5   0  -7 2602.56 136.524   1
  -5   0   7 2635.24 155.403   3
  -5   0   6 75.2915 111.881   3
   5   0  -6 103.528 92.4446   1
  -5   0   5 35.5276 96.0617   3
  -5   0   4 1810.89 112.101   0
  -5   0   4 1856.40 114.094   3
  -5   0   3 64.0381 84.4981   3
  -5   0   3 107.275 96.7068   0
  -5   0   2 50.3508 77.7583   3
   5   0  -2 170.390 104.490   2
  -5   0   2 154.703 106.957   0
  -5   0   1 7958.51 178.715   0
   5   0  -1 7281.69 167.668   2
  -5   0   1 7464.66 136.443   3
  -5   0   0 1748.31 123.816   0
   5   0   0 1893.63 119.532   2
  -5   0   0 1850.94 88.5147   3
   5   0   1 843.804 106.458   2
  -5   0  -1 719.920 122.571   0
  -5   0  -1 837.930 75.8555   3
  -5   0  -2-6.06305 118.276   0
   5   0   2 106.252 98.1861   2
  -5   0  -3 5131.71 176.201   0
   5   0   3 5236.72 163.750   2
  -5   0  -4 97.8893 124.409   0
   5   0   4 144.374 115.737   2
  -5   0  -5-68.0951 130.660   0
   5   0   5-16.4303 117.928   2
  -5   0  -5-54.5018 110.000   4
  -5   0  -6 1965.20 158.318   0
   5   0   6 1982.94 156.725   2
  -5   0  -6 1995.00 140.433   4
   5   0   7 319.150 132.855   2
  -5   0  -7 443.601 136.317   4
  -5   0  -8 10.4095 145.880   4
  -5   0  -9-4.21579 159.640   4
  -5  -1  10 872.197 175.012   3
  -5  -1   9 158.136 156.695   3
  -5  -1   8 139.522 139.491   3
  -5  -1   7 1891.53 152.374   3
  -5  -1   6 3292.64 160.806   3
  -5  -1   5 271.791 105.560   3
  -5  -1   4 3042.68 128.320   0
  -5  -1   4 3281.51 138.444   3
  -5  -1   3 3101.76 130.309   0
  -5  -1   3 3095.31 129.401   3
  -5  -1   2 83.8764 90.9188   3
  -5  -1   2-15.9050 108.500   0
  -5  -1   1 140.399 85.1239   3
  -5  -1   1 267.152 117.247   0
   5   1  -1 188.423 102.067   2
  -5  -1   0 3749.36 157.262   0
   5   1   0 3196.07 138.850   2
  -5  -1   0 3373.49 119.272   3
  -5  -1  -1-53.7616 113.188   0
   5   1   1 27.4911 99.4716   2
  -5  -1  -1 60.3217 71.9889   4
  -5  -1  -1-14.5715 80.4151   3
  -5  -1  -2 1787.42 144.277   0
   5   1   2 2033.44 130.232   2
  -5  -1  -2 2012.99 104.031   4
  -5  -1  -3 645.874 128.482   0
  -5  -1  -3 758.877 108.409   4
   5   1   3 671.860 113.145   2
  -5  -1  -4 617.664 139.092   0
   5   1   4 459.480 121.067   2
  -5  -1  -4 559.889 115.267   4
   5   1   5 489.713 122.741   2
  -5  -1  -5 520.383 123.669   4
  -5  -1  -5 459.194 139.528   0
   5   1   6 86.6044 120.805   2
  -5  -1  -6 25.1016 123.677   4
  -5  -1  -6 84.2724 136.411   0
  -5  -1  -7-101.231 132.958   4
  -5  -1  -8 957.975 153.618   4
  -5  -2  10 296.130 166.686   3
  -5  -2   9 1865.07 184.669   3
  -5  -2   8 44.7045 151.728   3
  -5  -2   7 4847.65 200.927   3
  -5  -2   6 2449.20 157.072   3
  -5  -2   5 55.7795 116.030   3
  -5  -2   4 254.779 114.202   3
  -5  -2   4 261.864 101.830   0
  -5  -2   3 1943.42 130.825   0
  -5  -2   3 1776.34 128.793   3
  -5  -2   2 1842.91 130.943   0
  -5  -2   2 1575.03 114.901   3
  -5  -2   1 1569.19 131.636   0
   5   2  -1 1199.01 127.532   2
  -5  -2   1 1392.62 110.271   3
  -5  -2   0 11078.5 220.976   0
   5   2   0 10999.9 213.673   2
  -5  -2   0 10938.8 192.661   3
  -5  -2  -1 10824.2 227.776   0
   5   2   1 11265.0 214.371   2
  -5  -2  -1 10280.5 135.448   4
  -5  -2  -1 10915.3 200.700   3
  -5  -2  -2 67.5025 122.865   0
   5   2   2 24.0847 107.022   2
  -5  -2  -2 38.4118 98.7109   4
   5   2   3 219.450 113.876   2
  -5  -2  -3 224.185 107.332   4
  -5  -2  -3 199.787 131.757   0
   5   2   4 162.977 112.547   2
  -5  -2  -4 12.2731 110.463   4
  -5  -2  -4 28.7195 135.356   0
  -5  -2  -5 3147.51 182.196   0
  -5  -2  -5 2988.93 143.184   4
  -5  -2  -6 888.067 152.807   0
  -5  -2  -6 964.520 142.242   4
  -5  -2  -7 5516.35 187.262   4
  -5  -2  -8 1154.03 161.407   4
  -5  -3  10 113.935 161.918   3
  -5  -3   9 485.077 173.438   3
  -5  -3   8 1573.92 169.707   3
  -5  -3   7 3142.68 186.756   3
  -5  -3   6 584.268 139.016   3
  -5  -3   5-90.2943 119.287   3
  -5  -3   4 993.716 120.104   0
  -5  -3   4 934.558 128.276   3
  -5  -3   3 34.9654 106.150   3
  -5  -3   3-4.10205 107.470   0
  -5  -3   2 1300.85 132.337   0
  -5  -3   2 1226.55 130.451   3
  -5  -3   1 1476.19 135.172   0
   5   3  -1 1434.09 128.149   2
  -5  -3   1 1161.22 118.317   3
   5   3   0 293.273 119.408   2
  -5  -3   0 194.542 126.581   0
  -5  -3   0 295.459 109.340   3
   5   3   1 131.997 108.376   2
  -5  -3  -1 95.2433 81.3512   4
  -5  -3  -1 263.282 131.171   0
  -5  -3  -1 87.1464 115.457   3
  -5  -3  -2 2622.65 170.964   0
   5   3   2 2707.72 146.652   2
  -5  -3  -2 2896.74 118.055   4
  -5  -3  -3 3101.54 175.746   0
   5   3   3 2794.12 145.844   2
  -5  -3  -3 3008.03 123.528   4
  -5  -3  -4 60.3414 142.954   0
  -5  -3  -4 209.813 121.743   4
  -5  -3  -5 542.445 158.972   0
  -5  -3  -5 789.076 125.187   4
  -5  -3  -6 1429.36 171.233   0
  -5  -3  -6 1826.15 145.760   4
  -5  -3  -7 939.267 157.650   4
  -5  -4   9 1004.86 178.073   3
  -5  -4   8 364.329 163.136   3
  -5  -4   7 149.715 159.813   3
  -5  -4   6 76.7677 136.920   3
  -5  -4   5 1704.04 167.774   3
  -5  -4   4 913.729 126.503   0
  -5  -4   4 996.372 147.515   3
  -5  -4   3 646.099 136.970   3
  -5  -4   3 558.321 125.571   0
  -5  -4   2 61.2454 125.733   3
  -5  -4   2-20.9614 119.669   0
  -5  -4   1 325.403 128.021   0
  -5  -4   1 240.945 132.211   3
  -5  -4   0 1905.25 156.084   0
   5   4   0 1972.28 138.539   2
  -5  -4   0 2253.33 152.591   3
  -5  -4  -1 68.9003 136.253   0
   5   4   1 212.470 118.487   2
  -5  -4  -1 22.6120 125.319   3
  -5  -4  -2 2024.60 170.050   0
  -5  -4  -2 2267.05 116.941   4
  -5  -4  -3 2313.94 182.388   0
  -5  -4  -3 2226.68 125.736   4
  -5  -4  -4 1747.43 176.824   0
  -5  -4  -4 1984.80 140.617   4
  -5  -4  -5 420.699 165.101   0
  -5  -4  -5 528.763 140.493   4
  -5  -4  -6 430.711 163.581   0
  -5  -4  -6 599.068 145.974   4
  -5  -5   8 92.7396 162.835   3
  -5  -5   7 98.2515 157.145   3
  -5  -5   6-0.31394 158.096   3
  -5  -5   5 479.890 160.396   3
  -5  -5   4 4987.03 205.185   3
  -5  -5   3 391.456 141.754   3
  -5  -5   3 168.236 126.162   0
  -5  -5   2 830.561 161.218   3
  -5  -5   2 739.805 140.812   0
  -5  -5   1 413.561 144.254   0
  -5  -5   1 252.167 146.592   3
  -5  -5   0 386.515 151.641   0
   5   5   0 445.787 127.836   2
  -5  -5   0 429.499 150.452   3
  -5  -5  -1-48.2362 150.975   0
  -5  -5  -2 2751.59 192.587   0
  -5  -5  -2 2951.16 134.889   4
  -5  -5  -3 127.225 163.012   0
  -5  -5  -3 125.567 115.015   4
  -5  -5  -4 161.440 171.660   0
  -5  -5  -4 173.279 132.924   4
  -5  -5  -5 342.115 171.143   0
  -5  -5  -5 117.606 147.528   4
  -5  -6   7 1058.02 184.548   3
  -5  -6   6 6.56866 165.550   3
  -5  -6   5 22.4219 162.381   3
  -5  -6   4 104.947 153.515   3
  -5  -6   3 783.554 175.375   3
  -5  -6   3 821.627 153.480   0
  -5  -6   2 398.415 151.966   0
  -5  -6   2 229.966 161.054   3
  -5  -6   1 41.5985 157.270   0
  -5  -6   1 79.5620 156.423   3
  -5  -6   0 946.900 175.016   0
  -5  -6   0 892.323 176.422   3
  -5  -6  -1 135.275 168.277   0
  -5  -6  -2 230.827 174.900   0
  -5  -6  -3 248.870 174.139   0
  -5  -6  -3 160.715 128.203   4
  -5  -6  -4 553.276 144.674   4
  -5  -7   4 417.602 168.875   3
  -5  -7   3 918.568 182.736   3
  -5  -7   2 427.740 162.266   0
  -5  -7   2 377.755 167.863   3
  -5  -7   1 126.403 163.309   0
  -5  -7   1 333.861 172.300   3
  -5  -7   0 512.715 182.843   0
   6  -9  -2 106.918 162.022   1
   6  -9  -1-71.6643 160.362   1
   6  -9   0 356.706 168.265   1
   6  -9   1 513.159 170.488   1
   6  -9   2 2896.76 205.015   1
   6  -8  -5 330.928 169.788   1
   6  -8  -4 380.648 167.389   1
   6  -8  -3-37.5156 156.109   1
   6  -8  -2 68.5486 148.903   1
   6  -8  -1-12.4639 149.031   1
   6  -8   0 430.407 153.457   1
   6  -8   1 1606.71 178.161   1
   6  -8   2 615.841 163.008   1
   6  -8   3 2308.46 194.815   1
   6  -8   4 97.4325 162.344   1
   6  -8   4 23.7337 146.018   2
   6  -8   5 149.643 140.986   2
   6  -7  -6 2289.65 190.679   1
   6  -7  -5 204.073 154.597   1
   6  -7  -4 31.5191 147.425   1
   6  -7  -3 1073.53 160.789   1
   6  -7  -2 99.2270 140.339   1
   6  -7  -1 1626.93 157.063   1
   6  -7   0 989.649 147.638   1
   6  -7   1 61.3885 141.442   1
   6  -7   2 1022.45 154.055   1
   6  -7   2 889.641 128.784   2
   6  -7   3 422.406 151.634   1
   6  -7   3 412.315 130.214   2
   6  -7   4-46.3937 154.238   1
   6  -7   4-79.2897 142.932   2
   6  -7   5 78.0844 156.452   1
   6  -7   5 142.739 145.619   2
   6  -7   6 3297.66 200.116   2
   6  -7   6 2953.33 204.984   1
   6  -6  -8 491.759 167.364   1
   6  -6  -7 65.8447 156.439   1
   6  -6  -6 907.900 161.474   1
   6  -6  -5 779.068 152.991   1
   6  -6  -4 1271.33 153.072   1
   6  -6  -3 157.726 134.084   1
   6  -6  -2 318.279 132.731   1
   6  -6  -1 480.321 127.890   1
   6  -6   0 84.2312 127.879   1
   6  -6   0 45.6544 105.286   2
   6  -6   1 112.269 127.507   1
   6  -6   1 176.411 115.527   2
   6  -6   2 210.877 132.088   1
   6  -6   2 153.222 126.848   2
   6  -6   3 929.924 147.599   1
   6  -6   3 1136.23 145.502   2
  -6   6  -3 1132.57 161.558   0
   6  -6   4 193.346 144.753   1
  -6   6  -4 245.461 146.091   0
   6  -6   4 191.139 145.199   2
   6  -6   5 103.977 146.481   1
   6  -6   5 71.1418 143.654   2
   6  -6   6 231.625 157.550   2
  -6   5   9 214.127 155.796   3
   6  -5  -9 94.9270 156.823   1
  -6   5   8 725.542 160.015   3
   6  -5  -8 492.855 164.076   1
   6  -5  -7-55.7798 149.296   1
   6  -5  -6-99.6393 136.822   1
   6  -5  -5 238.714 133.624   1
   6  -5  -4 2794.10 158.538   1
   6  -5  -3 2925.82 152.186   1
   6  -5  -2 809.631 124.814   1
   6  -5  -1 253.177 110.422   1
   6  -5  -1 394.286 104.005   2
   6  -5   0 2905.19 137.680   2
   6  -5   0 3435.89 147.753   1
   6  -5   1 134.781 113.508   1
   6  -5   1 117.003 105.642   2
  -6   5  -2 358.060 141.524   0
   6  -5   2 423.990 119.951   1
   6  -5   2 463.410 118.809   2
  -6   5  -3 5.15729 138.451   0
   6  -5   3 9.61490 125.819   1
   6  -5   3 177.442 127.787   2
   6  -5   4 3352.91 181.350   2
  -6   5  -4 3515.94 186.697   0
   6  -5   4 3367.53 175.060   1
   6  -5   5 123.630 134.025   1
   6  -5   5-97.8774 145.060   2
  -6   5  -5-133.789 139.211   0
   6  -5   6 71.5643 156.958   2
   6  -5   7 151.822 160.536   2
  -6   4   9 321.254 159.327   3
   6  -4  -9 214.039 150.825   1
  -6   4   8 963.539 149.495   3
   6  -4  -8 987.635 155.135   1
  -6   4   7 187.745 130.248   3
   6  -4  -7 169.752 135.363   1
  -6   4   6-48.3611 118.954   3
   6  -4  -6 11.6992 128.232   1
   6  -4  -5 3117.07 157.996   1
   6  -4  -4 81.6867 115.449   1
   6  -4  -3 8288.18 170.319   2
   6  -4  -3 8090.51 185.264   1
   6  -4  -2 5053.22 149.033   2
   6  -4  -2 5136.82 157.207   1
   6  -4  -1 1293.60 121.136   2
   6  -4  -1 1303.63 109.012   1
   6  -4   0 3081.68 138.573   2
  -6   4   0 3161.03 163.224   0
   6  -4   0 3167.99 129.302   1
   6  -4   1 301.670 102.482   1
  -6   4  -1 393.701 130.864   0
   6  -4   1 323.911 112.927   2
   6  -4   2 17074.2 271.389   2
  -6   4  -2 15944.7 274.754   0
   6  -4   2 16480.3 246.996   1
   6  -4   3 1360.16 141.262   2
  -6   4  -3 1358.08 155.812   0
   6  -4   3 1371.63 133.093   1
   6  -4   4 10753.6 249.798   2
  -6   4  -4 11974.1 256.082   0
   6  -4   4 12194.5 238.345   1
  -6   4  -5 602.319 150.574   0
   6  -4   5 794.933 150.324   2
   6  -4   6 74.8052 147.164   2
   6  -4   7 171.136 162.717   2
   6  -3 -10 1527.06 178.892   1
  -6   3  10 1855.53 192.783   3
  -6   3   9 466.896 164.492   3
   6  -3  -9 190.786 147.544   1
  -6   3   8 158.761 140.479   3
   6  -3  -8-36.1642 130.989   1
  -6   3   7 277.137 138.189   3
   6  -3  -7 221.695 127.558   1
  -6   3   6 2299.71 145.186   3
   6  -3  -6 2439.12 144.681   1
   6  -3  -5 755.581 118.975   1
  -6   3   5 1090.55 118.240   3
  -6   3   5 809.036 120.865   0
   6  -3  -4 2258.77 121.613   2
  -6   3   4 2149.68 142.252   0
   6  -3  -4 2251.25 127.027   1
   6  -3  -3 131.415 86.7931   1
  -6   3   3 208.998 123.569   0
   6  -3  -3 110.313 97.6801   2
   6  -3  -2 618.421 99.4170   1
   6  -3  -2 475.576 107.166   2
  -6   3   2 487.229 122.343   0
   6  -3  -1 3812.39 144.324   2
  -6   3   1 3849.08 164.951   0
   6  -3  -1 3890.65 126.727   1
   6  -3   0 7554.34 182.245   2
  -6   3   0 7542.77 198.169   0
   6  -3   0 8144.93 162.107   1
   6  -3   1 1568.50 130.416   2
  -6   3  -1 1488.10 142.678   0
   6  -3   1 1590.95 105.135   1
   6  -3   2 1793.52 141.533   2
  -6   3  -2 1460.44 150.636   0
   6  -3   2 1676.50 115.227   1
   6  -3   3 5030.06 180.880   2
  -6   3  -3 5030.52 189.228   0
   6  -3   3 5005.04 151.904   1
  -6   3  -4 55.4732 137.896   0
   6  -3   4 139.788 124.825   2
   6  -3   5 1695.09 166.931   2
  -6   3  -5 1469.58 154.970   0
   6  -3   6 294.694 149.561   2
   6  -3   7 1113.38 165.445   2
  -6   2  10 32.4302 167.800   3
   6  -2 -10-13.6493 156.287   1
   6  -2  -9 1502.42 161.597   1
  -6   2   9 1646.95 171.036   3
   6  -2  -8 4245.88 179.690   1
  -6   2   8 4156.40 198.612   3
  -6   2   7 626.811 144.843   3
   6  -2  -7 666.611 127.781   1
  -6   2   6 4119.69 161.851   3
   6  -2  -6 4314.18 153.285   1
   6  -2  -5 2713.43 135.943   2
  -6   2   5 2755.03 138.143   0
  -6   2   5 3169.90 137.123   3
   6  -2  -5 2874.87 129.647   1
  -6   2   4 241.041 94.4247   3
  -6   2   4 209.215 117.472   0
   6  -2  -4 303.473 89.0034   1
   6  -2  -4 214.398 107.997   2
   6  -2  -3 8104.30 186.512   2
  -6   2   3 7784.57 193.021   0
   6  -2  -3 7726.91 148.217   1
  -6   2   2-12.1226 122.128   0
   6  -2  -2-47.0079 103.669   2
   6  -2  -1 302.634 110.326   2
  -6   2   1 284.088 120.306   0
   6  -2   0 1322.53 124.875   2
  -6   2   0 1467.83 143.155   0
  -6   2  -1-0.85412 127.874   0
   6  -2   1 66.7391 107.102   2
  -6   2  -2 31.2448 128.722   0
   6  -2   2 99.1190 114.547   2
   6  -2   3 2452.24 154.996   2
  -6   2  -3 2780.75 167.785   0
   6  -2   4 1099.94 138.566   2
  -6   2  -4 808.392 143.766   0
  -6   2  -5 2152.82 163.519   0
   6  -2   5 2015.01 161.735   2
   6  -2   6 16.5017 144.437   2
   6  -2   7 1017.74 163.622   2
   6  -2   8 197.677 142.443   2
  -6   2  -8 180.690 160.734   4
  -6   1  10-35.4161 165.076   3
  -6   1   9 171.861 158.241   3
  -6   1   8 2776.59 183.231   3
  -6   1   7 5049.56 192.037   3
  -6   1   6 374.410 124.501   3
  -6   1   5 4638.21 158.296   3
  -6   1   4 184.283 100.792   3
  -6   1   4 152.229 115.049   0
   6  -1  -4 75.3540 113.662   2
  -6   1   3 9226.58 201.255   0
   6  -1  -3 8679.01 198.459   2
  -6   1   3 8784.96 164.779   3
  -6   1   2 717.076 126.375   0
   6  -1  -2 431.632 114.247   2
  -6   1   1 8326.36 197.847   0
   6  -1  -1 7855.99 192.233   2
  -6   1   0 1022.06 134.829   0
   6  -1   0 1200.00 119.973   2
   6  -1   1 187.792 110.476   2
  -6   1  -1 302.958 125.155   0
   6  -1   2 303.566 121.493   2
  -6   1  -2 305.881 128.407   0
   6  -1   3-5.26639 117.767   2
  -6   1  -3 50.1564 131.578   0
  -6   1  -4 1009.90 156.667   0
   6  -1   4 947.507 136.696   2
  -6   1  -5 553.121 152.138   0
   6  -1   5 440.104 137.420   2
  -6   1  -6 1033.30 153.452   0
   6  -1   6 784.499 154.901   2
  -6   1  -6 896.699 136.071   4
   6  -1   7-1.59268 132.588   2
  -6   1  -7-67.4772 140.195   4
   6  -1   8 7.55078 149.386   2
  -6   1  -8 377.479 157.365   4
  -6   0  10 1094.25 183.021   3
  -6   0   9-14.8670 150.589   3
  -6   0   8 541.409 158.221   3
  -6   0   7-5.50378 132.781   3
  -6   0   6 170.593 118.234   3
  -6   0   5 432.754 121.366   3
  -6   0   4 4122.06 153.415   0
  -6   0   4 4147.81 146.974   3
  -6   0   3 143.492 96.4795   3
  -6   0   3 235.667 113.690   0
   6   0  -3 337.121 115.603   2
  -6   0   2 1634.75 134.270   0
   6   0  -2 1631.46 135.527   2
  -6   0   2 1491.93 104.254   3
  -6   0   1 1183.54 132.157   0
   6   0  -1 1338.97 129.540   2
  -6   0   1 1173.43 93.9250   3
  -6   0   0 208.217 121.183   0
   6   0   0 292.011 116.619   2
  -6   0  -1 7.52577 127.177   0
   6   0   1-9.10540 114.392   2
  -6   0  -2 212.771 140.423   0
   6   0   2 134.595 117.102   2
  -6   0  -3 1692.93 160.261   0
   6   0   3 1975.72 143.657   2
  -6   0  -3 1763.98 119.965   4
  -6   0  -4 1130.11 159.082   0
   6   0   4 1098.38 150.868   2
  -6   0  -4 1123.26 123.683   4
  -6   0  -5 1022.38 157.746   0
   6   0   5 1090.66 139.147   2
  -6   0  -5 1072.31 135.602   4
  -6   0  -6 482.782 154.227   0
   6   0   6 447.528 141.605   2
  -6   0  -6 360.698 132.328   4
   6   0   7 119.009 148.571   2
  -6   0  -7 173.138 141.669   4
  -6   0  -8 368.948 163.757   4
  -6  -1  10 295.858 178.445   3
  -6  -1   9 1002.79 166.086   3
  -6  -1   8 1024.70 158.672   3
  -6  -1   7 2844.45 174.177   3
  -6  -1   6 1363.40 150.702   3
  -6  -1   5 33.8294 109.332   3
  -6  -1   4 87.8904 112.928   3
  -6  -1   4 62.0163 106.193   0
  -6  -1   3 3755.38 162.068   0
  -6  -1   3 3497.56 146.730   3
  -6  -1   2 2078.83 147.824   0
   6   1  -2 1964.06 147.327   2
  -6  -1   2 2121.06 126.149   3
  -6  -1   1 2775.14 159.050   0
   6   1  -1 2749.12 158.328   2
  -6  -1   1 2478.61 125.998   3
  -6  -1   0 4147.62 180.417   0
   6   1   0 3964.19 161.590   2
  -6  -1   0 3891.82 139.032   3
  -6  -1  -1 237.521 138.013   0
   6   1   1 270.733 120.425   2
  -6  -1  -1 334.325 84.0051   4
  -6  -1  -2 1275.03 153.804   0
   6   1   2 943.206 131.856   2
  -6  -1  -2 916.120 97.6420   4
  -6  -1  -3 184.385 145.135   0
   6   1   3 86.6296 117.427   2
  -6  -1  -3 204.058 105.216   4
  -6  -1  -4 3162.68 187.986   0
   6   1   4 3209.22 167.981   2
  -6  -1  -4 3570.07 145.598   4
   6   1   5 215.892 125.230   2
  -6  -1  -5 82.5457 129.449   4
  -6  -1  -5-52.9928 144.486   0
  -6  -1  -6 1742.89 173.124   0
  -6  -1  -6 1941.33 148.170   4
  -6  -1  -7 3800.62 182.803   4
  -6  -2   9 198.674 167.477   3
  -6  -2   8 1992.06 182.773   3
  -6  -2   7 136.509 148.171   3
  -6  -2   6-14.4779 134.338   3
  -6  -2   5 5920.87 191.308   3
  -6  -2   4 460.645 122.180   3
  -6  -2   4 393.114 121.029   0
  -6  -2   3-2.73214 117.962   3
  -6  -2   3 46.9282 114.970   0
  -6  -2   2 1232.07 136.053   0
   6   2  -2 1143.91 136.777   2
  -6  -2   2 1134.74 128.412   3
  -6  -2   1 10153.7 229.457   0
   6   2  -1 9906.97 227.273   2
  -6  -2   1 9735.37 210.147   3
  -6  -2   0 4348.17 182.615   0
   6   2   0 4123.58 176.834   2
  -6  -2   0 4253.93 156.464   3
  -6  -2  -1 492.533 147.221   0
   6   2   1 704.269 135.374   2
  -6  -2  -1 629.495 119.412   3
   6   2   2 552.807 131.978   2
  -6  -2  -2 480.097 98.8667   4
  -6  -2  -2 549.532 153.255   0
  -6  -2  -3 1228.33 172.305   0
   6   2   3 1208.17 133.340   2
  -6  -2  -3 1259.52 120.781   4
   6   2   4 11.1151 131.218   2
  -6  -2  -4 77.9444 124.567   4
  -6  -2  -4-101.990 153.220   0
  -6  -2  -5 170.973 137.484   4
  -6  -2  -5 48.6065 152.377   0
  -6  -2  -6 800.886 145.280   4
  -6  -2  -6 710.256 167.888   0
  -6  -2  -7 2527.46 171.874   4
  -6  -3   9 2337.79 202.064   3
  -6  -3   8 8114.09 262.940   3
  -6  -3   7 172.123 148.512   3
  -6  -3   6 1289.92 165.918   3
  -6  -3   5 48.3155 137.409   3
  -6  -3   4 1076.78 130.161   0
  -6  -3   4 1100.35 145.045   3
  -6  -3   3 116.642 114.497   3
  -6  -3   3 192.669 126.366   0
  -6  -3   2 1001.67 146.291   0
   6   3  -2 912.115 139.306   2
  -6  -3   2 993.877 140.021   3
  -6  -3   1 2838.59 172.440   0
   6   3  -1 2613.23 167.853   2
  -6  -3   1 2906.90 167.367   3
  -6  -3   0 1431.80 162.630   0
   6   3   0 1220.21 138.360   2
  -6  -3   0 1523.15 143.984   3
   6   3   1-50.6606 118.460   2
  -6  -3  -1 97.6192 145.645   0
  -6  -3  -1 94.6003 125.581   3
   6   3   2 139.331 126.910   2
  -6  -3  -2 71.4886 152.055   0
  -6  -3  -3 11.3304 108.033   4
  -6  -3  -3 90.0181 153.329   0
  -6  -3  -4 122.190 127.538   4
  -6  -3  -4 63.7869 161.171   0
  -6  -3  -5 450.669 176.013   0
  -6  -3  -5 681.855 135.475   4
  -6  -3  -6 1090.68 178.459   0
  -6  -3  -6 1503.90 154.296   4
  -6  -4   8 372.051 179.782   3
  -6  -4   7 5693.47 232.837   3
  -6  -4   6 92.1323 156.623   3
  -6  -4   5 210.679 149.894   3
  -6  -4   4 416.445 156.612   3
  -6  -4   3 95.4122 141.018   3
  -6  -4   3-0.75034 127.101   0
  -6  -4   2 624.161 149.440   3
  -6  -4   2 435.278 138.991   0
   6   4  -2 643.586 143.917   2
  -6  -4   1 1741.97 168.546   0
   6   4  -1 1552.35 158.522   2
  -6  -4   1 1342.52 162.278   3
   6   4   0 1334.40 146.394   2
  -6  -4   0 1047.79 162.854   0
  -6  -4   0 972.929 154.078   3
  -6  -4  -1 130.469 158.859   0
   6   4   1 204.936 125.934   2
  -6  -4  -2 612.770 170.708   0
  -6  -4  -3 191.186 167.893   0
  -6  -4  -3 320.398 125.056   4
  -6  -4  -4 506.711 177.628   0
  -6  -4  -4 519.955 140.671   4
  -6  -4  -5 41.6559 143.888   4
  -6  -5   7 1715.71 195.208   3
  -6  -5   6 675.291 175.253   3
  -6  -5   5 4192.95 224.403   3
  -6  -5   4 278.473 171.081   3
  -6  -5   3 836.762 159.699   3
  -6  -5   3 641.016 147.050   0
  -6  -5   2 373.810 156.498   0
   6   5  -2 205.641 146.199   2
  -6  -5   2 383.444 161.458   3
  -6  -5   1 874.598 168.218   0
   6   5  -1 872.220 157.457   2
  -6  -5   1 907.382 158.407   3
  -6  -5   0-43.3591 160.595   0
  -6  -5   0 154.401 150.821   3
  -6  -5  -1 50.8867 161.555   0
  -6  -5  -2 806.335 181.329   0
  -6  -5  -4 388.542 138.727   4
  -6  -6   4 98.1260 158.229   3
  -6  -6   3 82.0975 149.154   0
  -6  -6   3 383.407 162.321   3
  -6  -6   2 127.055 159.982   0
   6   6  -2 60.7852 150.958   2
  -6  -6   2-50.9697 170.401   3
  -6  -6   1 541.250 172.650   0
  -6  -6   1 503.378 171.904   3
  -6  -6   0 824.187 184.071   0
  -6  -6   0 959.517 175.803   3
   7  -8  -4 1993.21 190.018   1
   7  -8  -3 371.013 155.300   1
   7  -8  -2 193.941 157.151   1
   7  -8  -1 120.258 154.678   1
   7  -8   0 519.956 158.232   1
   7  -8   1 444.755 164.710   1
   7  -8   2 260.032 159.614   1
   7  -8   3 1041.53 175.965   1
  -7   8  -4 5.28969 173.246   0
   7  -8   4 30.2100 147.252   2
   7  -7  -6 1335.50 174.166   1
   7  -7  -5 589.802 164.738   1
   7  -7  -4 844.624 164.119   1
   7  -7  -3 1764.02 173.069   1
   7  -7  -2-45.0274 146.232   1
   7  -7  -1 208.035 141.229   1
   7  -7   0 222.117 141.547   1
   7  -7   1 772.468 156.923   1
   7  -7   2 99.8961 145.338   1
   7  -7   2 155.568 126.578   2
   7  -7   3 1503.18 169.601   2
  -7   7  -3 1535.79 190.263   0
   7  -7   3 1730.79 174.937   1
   7  -7   4 590.156 158.601   1
   7  -7   4 635.957 149.611   2
  -7   7  -4 746.758 177.116   0
   7  -6  -7 247.091 152.024   1
   7  -6  -6 391.098 158.083   1
   7  -6  -5 2144.78 172.794   1
   7  -6  -4 182.416 140.134   1
   7  -6  -3 26.7086 133.746   1
   7  -6  -2 126.856 128.164   1
   7  -6  -1 1373.20 146.560   1
   7  -6   0 2356.92 147.755   2
   7  -6   0 2780.77 166.814   1
   7  -6   1 574.866 139.838   1
   7  -6   1 490.643 122.121   2
  -7   6  -1 659.588 170.062   0
  -7   6  -2 225.340 157.214   0
   7  -6   2 314.729 139.006   1
   7  -6   2 251.797 133.338   2
   7  -6   3 2264.42 179.809   2
  -7   6  -3 2141.66 187.380   0
   7  -6   3 2029.24 168.842   1
   7  -6   4 279.880 145.572   1
  -7   6  -4-32.5965 162.902   0
   7  -6   4 4.58864 147.159   2
   7  -6   5 386.291 158.910   1
   7  -6   5 296.225 161.413   2
   7  -5  -8-20.2901 150.815   1
   7  -5  -7 1285.63 163.114   1
   7  -5  -6-149.332 140.992   1
   7  -5  -5 53.2349 137.286   1
   7  -5  -4 5368.34 193.795   1
   7  -5  -3 1461.77 144.186   1
   7  -5  -2 891.247 135.250   1
  -7   5   1 506.411 158.880   0
   7  -5  -1 573.500 115.566   1
   7  -5  -1 447.202 116.298   2
   7  -5   0 1862.93 140.101   2
  -7   5   0 1978.40 176.840   0
   7  -5   0 1744.62 133.614   1
   7  -5   1 368.600 123.854   1
  -7   5  -1 417.923 158.053   0
   7  -5   1 306.114 124.923   2
   7  -5   2 894.658 126.975   1
   7  -5   2 1029.69 143.675   2
  -7   5  -2 784.447 167.036   0
   7  -5   3 5086.17 202.672   2
  -7   5  -3 5549.19 220.678   0
   7  -5   3 4983.97 190.548   1
   7  -5   4 1773.71 170.576   2
  -7   5  -4 1963.51 186.385   0
   7  -5   4 1782.94 161.336   1
  -7   5  -5 306.650 163.935   0
   7  -5   5 29.0857 152.385   2
   7  -4  -9 1146.61 171.900   1
   7  -4  -8 1304.96 170.674   1
   7  -4  -7 289.683 140.931   1
   7  -4  -6 176.737 123.283   1
  -7   4   5 1874.95 158.827   0
   7  -4  -5 1688.60 146.613   1
  -7   4   4 4147.67 181.635   0
   7  -4  -4 4182.25 165.130   1
  -7   4   3 556.810 145.173   0
   7  -4  -3 543.903 121.212   1
   7  -4  -3 644.415 111.497   2
   7  -4  -2 146.641 100.482   1
  -7   4   2 52.5728 138.712   0
   7  -4  -2 140.778 109.635   2
   7  -4  -1 3192.06 155.417   2
  -7   4   1 2947.49 175.266   0
   7  -4  -1 3152.29 134.067   1
   7  -4   0 828.958 114.647   1
   7  -4   0 694.684 136.129   2
  -7   4   0 577.668 155.521   0
  -7   4  -1 745.200 154.727   0
   7  -4   1 540.432 135.101   2
   7  -4   2 200.121 135.058   2
  -7   4  -2 215.316 159.910   0
   7  -4   3 2245.52 165.169   2
  -7   4  -3 2639.74 188.528   0
   7  -4   4 1155.36 162.174   2
  -7   4  -4 1382.44 168.860   0
  -7   4  -5-43.2288 146.057   0
   7  -4   5-138.621 161.593   2
   7  -4   6 340.877 163.424   2
  -7   3   9 408.134 163.369   3
  -7   3   8-12.4887 139.406   3
  -7   3   5 1908.79 156.862   0
   7  -3  -4 6791.95 185.656   2
  -7   3   4 7883.79 217.129   0
  -7   3   3 302.308 134.784   0
   7  -3  -3 50.6102 109.368   2
  -7   3   2 504.476 139.919   0
   7  -3  -2 710.389 123.386   2
   7  -3  -1 822.380 124.053   2
  -7   3   1 1071.32 149.348   0
   7  -3   0 520.344 129.561   2
  -7   3   0 411.902 153.987   0
   7  -3   1 5565.79 194.666   2
  -7   3  -1 5662.29 208.013   0
  -7   3  -2 569.921 163.046   0
   7  -3   2 774.411 144.100   2
   7  -3   3 12842.5 276.123   2
  -7   3  -3 12959.0 282.250   0
   7  -3   4 350.699 145.799   2
  -7   3  -4 426.732 156.707   0
   7  -3   5 711.633 166.923   2
  -7   3  -5 737.285 167.102   0
   7  -3   6 494.453 171.440   2
  -7   2   9 568.613 158.718   3
  -7   2   8 130.416 141.240   3
  -7   2   7 69.9682 131.460   3
  -7   2   6 169.104 121.063   3
  -7   2   5 238.400 127.578   0
   7  -2  -5 333.103 127.232   2
  -7   2   4 309.863 137.998   0
   7  -2  -4 228.035 123.726   2
  -7   2   3 68.2882 138.137   0
   7  -2  -3 11.7865 118.488   2
   7  -2  -2 5654.59 187.708   2
  -7   2   2 6042.74 200.909   0
   7  -2  -1 1181.52 133.490   2
  -7   2   1 1290.86 154.200   0
   7  -2   0 3078.27 160.373   2
  -7   2   0 2983.78 175.130   0
  -7   2  -1 2065.94 167.452   0
   7  -2   1 1734.88 146.783   2
  -7   2  -2 1557.38 165.674   0
   7  -2   2 1659.01 155.123   2
   7  -2   3 912.632 149.406   2
  -7   2  -3 837.881 161.725   0
  -7   2  -4 3676.11 198.097   0
   7  -2   4 3870.37 191.446   2
  -7   2  -5 1405.98 170.224   0
   7  -2   5 1427.25 164.409   2
   7  -2   6-0.34522 157.843   2
  -7   1   9 1261.95 173.617   3
  -7   1   8 2.04782 154.410   3
  -7   1   7 1207.67 150.802   3
  -7   1   6 407.380 131.847   3
   7  -1  -6 255.426 120.544   2
   7  -1  -5 3198.88 170.399   2
  -7   1   5 3150.48 149.938   3
  -7   1   4 48.1724 132.476   0
   7  -1  -4-20.6676 124.716   2
  -7   1   3 429.040 131.196   0
   7  -1  -3 301.104 125.579   2
  -7   1   2 856.761 136.477   0
   7  -1  -2 742.007 127.823   2
  -7   1   1 3716.37 179.295   0
   7  -1  -1 3347.19 167.710   2
   7  -1   0 597.903 129.078   2
  -7   1   0 505.809 146.516   0
   7  -1   1 237.975 130.103   2
  -7   1  -1 210.935 149.491   0
  -7   1  -2 35.5547 151.519   0
   7  -1   2-27.2892 138.871   2
  -7   1  -3 265.912 159.053   0
   7  -1   3 195.135 135.324   2
  -7   1  -4 4359.39 210.839   0
   7  -1   4 4271.50 208.335   2
  -7   1  -5 70.0444 162.174   0
   7  -1   5 55.2352 142.260   2
   7  -1   6 3391.53 195.636   2
  -7   1  -6 3453.01 175.571   4
  -7   1  -7 189.670 152.490   4
  -7   0   9 70.5759 150.375   3
  -7   0   8 110.935 151.473   3
  -7   0   7 451.722 153.755   3
  -7   0   6 972.719 144.537   3
  -7   0   5 54.7150 121.467   3
   7   0  -5-27.4817 129.190   2
  -7   0   4 4373.04 173.402   0
   7   0  -4 4416.31 188.749   2
  -7   0   4 4719.14 164.462   3
  -7   0   3 1019.96 144.228   0
   7   0  -3 1123.54 142.855   2
  -7   0   2 552.762 144.078   0
   7   0  -2 729.752 141.591   2
  -7   0   1 3284.17 174.245   0
   7   0  -1 3033.36 169.640   2
  -7   0   0 2076.37 164.229   0
   7   0   0 1935.51 152.780   2
  -7   0  -1 448.227 152.637   0
   7   0   1 479.185 141.171   2
  -7   0  -2 317.910 161.087   0
   7   0   2 352.243 139.923   2
  -7   0  -2 307.949 107.492   4
  -7   0  -3 1202.88 181.040   0
   7   0   3 1231.32 153.717   2
  -7   0  -3 1486.04 126.113   4
  -7   0  -4 301.734 160.643   0
   7   0   4 4.85926 137.443   2
  -7   0  -4 169.988 134.349   4
  -7   0  -5 34.7218 159.578   0
   7   0   5 41.6876 148.287   2
  -7   0  -5 103.773 130.763   4
  -7   0  -6 1933.01 186.864   0
   7   0   6 1675.77 175.478   2
  -7   0  -6 1994.30 158.707   4
  -7  -1   9 38.8879 167.875   3
  -7  -1   8 790.161 165.434   3
  -7  -1   7 66.6837 150.032   3
  -7  -1   6 220.090 130.867   3
  -7  -1   5 116.596 120.962   3
  -7  -1   4 72.2961 120.199   3
  -7  -1   4 38.6795 136.225   0
   7   1  -4 74.6210 142.943   2
  -7  -1   3 1702.71 161.278   0
   7   1  -3 1544.79 152.417   2
  -7  -1   3 1392.06 130.522   3
  -7  -1   2 584.087 147.849   0
   7   1  -2 729.055 149.824   2
  -7  -1   1 98.7311 148.080   0
   7   1  -1 91.5480 138.406   2
  -7  -1   0 19.6489 149.012   0
   7   1   0 126.027 134.493   2
  -7  -1  -1 1424.68 175.878   0
   7   1   1 1135.70 154.723   2
  -7  -1  -2 215.337 157.274   0
   7   1   2 162.383 142.814   2
  -7  -1  -3 541.649 164.532   0
   7   1   3 476.589 146.480   2
  -7  -1  -3 500.451 123.769   4
  -7  -1  -4 130.281 166.621   0
   7   1   4 4.92932 137.725   2
  -7  -1  -4 117.913 132.731   4
   7   1   5 20.2307 139.849   2
  -7  -1  -5 24.3691 145.666   4
  -7  -1  -5 134.654 171.952   0
  -7  -1  -6-63.7314 154.993   4
  -7  -1  -6 113.776 160.211   0
  -7  -2   8 849.385 179.437   3
  -7  -2   7 409.040 158.851   3
  -7  -2   6 22.6117 141.325   3
  -7  -2   5 278.146 141.257   3
  -7  -2   4 203.099 140.982   3
  -7  -2   4 202.491 135.124   0
  -7  -2   3 541.412 134.922   3
  -7  -2   3 416.700 148.310   0
   7   2  -3 348.156 151.173   2
  -7  -2   2 2.99663 115.186   3
  -7  -2   2 22.3267 144.055   0
   7   2  -2 95.0627 148.223   2
  -7  -2   1 631.788 157.657   0
   7   2  -1 628.985 155.071   2
  -7  -2   0 1322.58 170.583   0
   7   2   0 1200.16 150.808   2
  -7  -2  -1 266.026 161.648   0
   7   2   1 191.803 134.549   2
   7   2   2-44.5524 129.336   2
  -7  -2  -2-36.7322 160.241   0
   7   2   3 680.172 151.335   2
  -7  -2  -3 609.202 126.737   4
  -7  -2  -3 649.502 175.062   0
   7   2   4-6.60533 136.169   2
  -7  -2  -4 77.6844 132.827   4
  -7  -2  -4 100.117 169.545   0
  -7  -2  -5-1.99747 145.184   4
  -7  -2  -5 140.519 165.363   0
  -7  -3   7 2252.90 193.087   3
  -7  -3   6 151.183 161.930   3
  -7  -3   5 146.753 140.098   3
  -7  -3   4 1206.20 160.563   3
  -7  -3   3 184.482 130.886   3
   7   3  -3 320.670 160.297   2
  -7  -3   3 328.946 144.482   0
  -7  -3   2 2664.83 186.914   0
   7   3  -2 2976.40 192.804   2
  -7  -3   2 2598.12 171.616   3
  -7  -3   1 2397.82 186.568   0
   7   3  -1 2444.92 183.968   2
  -7  -3   1 2401.67 171.527   3
  -7  -3   0 7789.00 253.081   0
   7   3   0 8111.93 240.908   2
  -7  -3  -1 2307.14 197.714   0
   7   3   1 2316.79 167.229   2
   7   3   2 215.518 142.977   2
  -7  -3  -2 217.669 169.780   0
  -7  -3  -3 133.616 168.637   0
  -7  -3  -4 187.007 141.608   4
  -7  -4   6 551.781 183.513   3
  -7  -4   5-32.6138 150.894   3
  -7  -4   4 318.146 151.964   3
  -7  -4   3 169.158 145.104   3
  -7  -4   3 160.904 148.622   0
   7   4  -3 89.2177 150.790   2
  -7  -4   2-62.5465 152.077   0
   7   4  -2 144.855 146.084   2
  -7  -4   2-58.0888 153.955   3
  -7  -4   1 139.163 157.127   0
   7   4  -1 120.208 149.014   2
  -7  -4   1 245.785 148.229   3
  -7  -4   0 62.7200 165.285   0
   7   4   0-63.0460 141.649   2
  -7  -4   0 68.6994 144.258   3
  -7  -4  -1-77.0718 165.211   0
   7   4   1 51.7678 144.605   2
  -7  -5   4 41.3537 165.063   3
  -7  -5   3-6.94764 163.636   3
  -7  -5   3 139.874 155.891   0
   7   5  -3 28.9048 153.610   2
  -7  -5   2 239.914 166.368   0
   7   5  -2 33.4246 148.867   2
  -7  -5   2 201.744 170.419   3
  -7  -5   1 138.742 163.130   0
   7   5  -1 123.319 148.400   2
  -7  -5   1 125.292 149.694   3
  -7  -5   0 1212.47 180.123   3
   8  -8  -1 2101.13 185.385   1
   8  -8   0 189.007 154.777   1
   8  -7  -5 35.9698 156.807   1
   8  -7  -4 227.006 151.885   1
   8  -7  -3-62.9599 149.203   1
   8  -7  -2 824.768 161.829   1
   8  -7  -1 70.3048 141.374   1
   8  -7   0 1049.99 161.174   1
  -8   7   0 697.857 189.088   0
  -8   7  -1 2426.67 212.926   0
   8  -7   1 2821.11 187.527   1
  -8   7  -2 129.519 176.786   0
   8  -7   2-40.1273 150.880   1
   8  -7   2 121.311 146.718   2
   8  -7   3 315.197 164.994   1
   8  -7   3 369.259 155.404   2
   8  -6  -6 99.9403 149.744   1
   8  -6  -5 29.8024 146.075   1
   8  -6  -4 1255.72 154.578   1
   8  -6  -3 308.017 140.368   1
   8  -6  -2 196.262 129.087   1
  -8   6   2 200.677 173.618   0
   8  -6  -1 769.661 139.484   1
  -8   6   1 799.810 184.343   0
   8  -6   0 1014.85 144.128   1
  -8   6   0 932.494 181.043   0
   8  -6   0 867.092 142.820   2
   8  -6   1 210.658 138.225   1
   8  -6   1 42.5951 142.229   2
  -8   6  -1 21.3832 173.826   0
  -8   6  -2 66.6964 177.356   0
   8  -6   2 124.537 148.070   2
  -8   6  -3 1003.10 189.556   0
   8  -6   3 1106.60 165.311   2
  -8   6  -4 1073.98 191.701   0
  -8   5   5 558.589 158.285   0
  -8   5   4 593.583 160.456   0
  -8   5   3-49.8412 155.005   0
  -8   5   2-8.79210 160.310   0
   8  -5  -1 338.439 128.132   2
  -8   5   1 405.076 169.010   0
  -8   5   0 466.058 174.169   0
   8  -5   0 334.599 145.633   2
  -8   5  -1 335.778 172.998   0
   8  -5   1 310.609 148.032   2
   8  -5   2 240.438 151.399   2
  -8   5  -2 328.618 181.049   0
   8  -5   3 152.725 152.694   2
  -8   5  -3 355.598 182.352   0
  -8   5  -4 1012.18 189.990   0
   8  -5   4 936.731 169.083   2
  -8   5  -5 1148.22 179.983   0
  -8   4   5 191.327 152.020   0
  -8   4   4 1531.23 174.792   0
   8  -4  -3 2522.22 156.606   2
  -8   4   3 2695.18 191.603   0
  -8   4   2 155.187 159.978   0
   8  -4  -2 50.7806 134.591   2
  -8   4   1 366.170 167.187   0
   8  -4  -1 629.531 144.864   2
   8  -4   0 784.068 154.441   2
  -8   4   0 677.931 179.222   0
   8  -4   1 183.079 137.466   2
  -8   4  -1 112.148 171.749   0
  -8   4  -2 196.626 177.727   0
   8  -4   2 454.087 159.517   2
  -8   4  -3 472.256 175.806   0
   8  -4   3 775.415 158.165   2
   8  -4   4 3900.58 220.687   2
  -8   4  -4 3563.92 217.364   0
  -8   4  -5 580.567 168.864   0
   8  -3  -4 695.142 141.028   2
  -8   3   4 1004.24 167.767   0
   8  -3  -3 3541.25 169.705   2
  -8   3   3 3300.71 195.328   0
   8  -3  -2 69.7149 131.219   2
  -8   3   2 108.349 156.050   0
  -8   3   1 104.942 160.344   0
   8  -3  -1 40.5700 130.773   2
  -8   3   0 227.463 167.736   0
   8  -3   0 64.7476 142.609   2
  -8   3  -1 855.002 179.967   0
   8  -3   1 731.198 159.779   2
  -8   3  -2 741.024 176.818   0
   8  -3   2 812.322 163.580   2
   8  -3   3-45.2357 158.056   2
  -8   3  -3 184.799 167.311   0
   8  -3   4 1320.56 185.095   2
  -8   3  -4 1271.55 190.847   0
  -8   3  -5 687.044 180.267   0
   8  -2  -5 101.861 142.664   2
  -8   2   4 1480.79 160.542   0
   8  -2  -4 1774.61 154.224   2
  -8   2   3 883.833 162.033   0
   8  -2  -3 700.413 140.746   2
  -8   2   2 38.6009 150.756   0
   8  -2  -2 60.9652 139.827   2
  -8   2   1 1317.36 173.551   0
   8  -2  -1 1160.65 153.680   2
  -8   2   0 25.7395 156.577   0
   8  -2   0 42.6754 145.345   2
   8  -2   1 1058.92 163.600   2
  -8   2  -1 1075.38 171.654   0
  -8   2  -2 1632.32 187.865   0
   8  -2   2 1558.50 169.253   2
   8  -2   3 416.373 168.394   2
  -8   2  -3 406.371 177.929   0
  -8   2  -4 1497.63 195.252   0
   8  -2   4 1964.17 181.459   2
  -8   2  -5 1005.46 192.010   0
   8  -1  -7 176.601 137.810   2
   8  -1  -6 410.343 150.052   2
   8  -1  -5 678.603 152.609   2
   8  -1  -4 53.9388 132.734   2
  -8   1   4 146.029 143.019   0
   8  -1  -3-34.5316 135.122   2
  -8   1   3 132.409 143.760   0
   8  -1  -2 387.113 143.085   2
  -8   1   2 604.634 159.674   0
  -8   1   1 4972.87 215.917   0
   8  -1  -1 5035.40 205.323   2
   8  -1   0 543.938 151.945   2
  -8   1   0 757.096 170.879   0
  -8   1  -1 351.474 171.840   0
   8  -1   1 208.620 147.085   2
  -8   1  -2 570.638 179.063   0
   8  -1   2 766.752 174.264   2
  -8   1  -3 25.5170 174.305   0
   8  -1   3-34.6208 153.100   2
  -8   1  -4 276.864 179.906   0
   8  -1   4 318.671 156.049   2
  -8   1  -4 336.670 139.325   4
  -8   1  -5 1203.60 193.851   0
  -8   1  -5 1421.72 161.883   4
  -8   0   8 2797.15 194.659   3
   8   0  -7 1602.97 181.298   2
  -8   0   7 1712.53 168.913   3
   8   0  -6 75.5944 152.646   2
   8   0  -5 25.7413 148.712   2
  -8   0   4 1671.99 169.997   0
   8   0  -4 1378.99 173.226   2
  -8   0   3 593.094 158.972   0
   8   0  -3 423.014 160.662   2
  -8   0   2 207.727 159.684   0
   8   0  -2 327.671 149.901   2
  -8   0   1 113.070 164.307   0
   8   0  -1-60.1082 147.914   2
  -8   0   0 3193.21 211.492   0
   8   0   0 3465.90 190.226   2
  -8   0  -1 438.713 178.635   0
   8   0   1 278.936 155.846   2
  -8   0  -2-1.69867 180.060   0
   8   0   2 21.5306 150.188   2
  -8   0  -3 140.415 178.294   0
   8   0   3 214.256 153.740   2
  -8   0  -3 240.267 127.722   4
  -8   0  -4 423.893 174.799   0
   8   0   4 464.709 153.916   2
  -8   0  -4 278.637 141.669   4
  -8   0  -5 793.281 147.936   4
  -8  -1   8 1548.81 177.325   3
  -8  -1   7-18.3123 155.167   3
  -8  -1   6-144.839 147.043   3
   8   1  -6-36.1733 159.974   2
   8   1  -5 92.8877 163.488   2
  -8  -1   4 94.5999 151.581   0
   8   1  -4 168.015 154.890   2
  -8  -1   3 1906.50 176.198   0
   8   1  -3 1841.42 175.131   2
  -8  -1   2 533.438 164.829   0
   8   1  -2 558.311 159.950   2
  -8  -1   1 96.8838 163.753   0
   8   1  -1-25.3197 143.695   2
  -8  -1   0 2508.71 198.362   0
   8   1   0 2707.07 191.504   2
  -8  -1  -1 256.363 174.009   0
   8   1   1 277.639 159.449   2
  -8  -1  -2 800.140 185.293   0
   8   1   2 669.970 162.665   2
  -8  -1  -3 256.070 178.287   0
   8   1   3 282.484 155.933   2
   8   1   4 1325.76 172.838   2
  -8  -1  -4 1210.50 152.749   4
  -8  -2   7 1620.44 183.735   3
  -8  -2   6 422.062 157.566   3
  -8  -2   5 507.088 151.859   3
   8   2  -5 577.121 166.871   2
   8   2  -4 445.308 177.744   2
  -8  -2   3 360.581 160.824   0
   8   2  -3 305.233 168.850   2
  -8  -2   2 139.831 156.978   0
   8   2  -2 75.2038 160.470   2
  -8  -2   1 2809.75 205.890   0
   8   2  -1 2779.51 201.350   2
  -8  -2   0 243.439 173.708   0
   8   2   0 418.357 160.084   2
   8   2   1 157.568 158.924   2
  -8  -2  -1-56.7655 173.107   0
  -8  -2  -2 1772.53 201.961   0
   8   2   2 1544.77 177.176   2
   8   2   3 335.662 159.151   2
  -8  -3   6 117.808 156.077   3
  -8  -3   5 411.441 158.032   3
   8   3  -5 372.508 179.388   2
  -8  -3   4 81.9858 144.714   3
   8   3  -4-82.3539 158.223   2
   8   3  -3 8.67573 172.084   2
  -8  -3   3-117.110 153.334   0
  -8  -3   2 1503.14 188.288   0
   8   3  -2 1543.81 184.989   2
  -8  -3   1 1508.62 193.602   0
   8   3  -1 1887.93 180.816   2
   8   3   0 187.324 157.080   2
  -8  -3   0 121.854 170.763   0
   8   3   1 141.539 144.896   2
   8   3   2 162.018 159.961   2
  -8  -4   4 86.2721 148.687   3
  -8  -4   3-66.4059 161.681   3
  -8  -4   3 74.1436 163.704   0
  -8  -4   2 3.22952 158.321   0
  -9   6   4 160.903 173.853   0
  -9   6   3 387.063 186.069   0
  -9   6   2 597.797 186.403   0
  -9   6   1 591.397 187.073   0
   9  -6   1 800.074 168.025   2
  -9   5   4 900.938 179.614   0
  -9   5   3 1755.72 202.685   0
  -9   5   2 218.127 180.697   0
  -9   5   1 247.252 184.233   0
   9  -5  -1 51.8009 143.329   2
   9  -5   0 2257.34 186.010   2
  -9   5   0 2694.04 224.377   0
   9  -5   1 772.834 162.565   2
  -9   5  -1 734.474 199.765   0
   9  -5   2 14.2729 151.375   2
  -9   4   4 2040.64 193.194   0
  -9   4   3 54.0086 170.807   0
   9  -4  -2 1442.99 161.017   2
  -9   4   2 1624.24 200.927   0
  -9   4   1 170.682 177.818   0
   9  -4  -1 217.212 143.007   2
  -9   4   0 380.354 185.358   0
   9  -4   0 392.018 156.936   2
  -9   4  -1-7.98785 183.089   0
   9  -4   1-15.4517 159.186   2
  -9   4  -2 986.836 191.929   0
   9  -4   2 947.172 169.707   2
  -9   3   4 571.111 170.637   0
   9  -3  -4 707.803 150.779   2
  -9   3   3 938.961 184.462   0
   9  -3  -3 878.462 154.769   2
  -9   3   2 106.872 171.352   0
   9  -3  -2-21.7415 151.486   2
  -9   3   1 1067.28 187.413   0
   9  -3  -1 1103.93 166.996   2
  -9   3   0 228.108 180.628   0
   9  -3   0 120.386 161.454   2
  -9   3  -1 105.037 176.246   0
   9  -3   1 209.106 152.807   2
   9  -3   2 344.341 172.329   2
  -9   3  -2 547.143 189.455   0
   9  -2  -5 207.616 143.036   2
  -9   2   4 7837.38 247.345   0
   9  -2  -4 7675.11 239.420   2
   9  -2  -3 314.337 161.070   2
  -9   2   3 568.865 175.424   0
   9  -2  -2 259.681 157.777   2
  -9   2   2 275.970 172.176   0
   9  -2  -1 315.788 157.526   2
  -9   2   1 503.727 174.522   0
   9  -2   0 150.407 155.633   2
  -9   2   0 258.210 182.021   0
   9  -2   1 517.968 163.774   2
  -9   2  -1 919.915 196.938   0
  -9   2  -2 1098.40 197.228   0
   9  -2   2 795.589 174.315   2
   9  -1  -7 422.869 155.830   2
   9  -1  -6 75.4663 149.738   2
   9  -1  -5 420.107 162.236   2
  -9   1   4 1091.82 180.435   0
   9  -1  -4 801.298 159.635   2
  -9   1   3 121.116 168.270   0
   9  -1  -3-5.42102 165.786   2
  -9   1   2 3684.58 214.886   0
   9  -1  -2 3507.50 209.363   2
  -9   1   1 473.526 182.004   0
   9  -1  -1 613.928 160.007   2
  -9   1   0 2009.43 206.974   0
   9  -1   0 1596.62 190.914   2
  -9   1  -1 196.876 186.693   0
   9  -1   1-76.5008 162.861   2
   9   0  -6 885.979 167.023   2
   9   0  -5 774.001 181.150   2
  -9   0   4 169.689 160.919   0
   9   0  -4-26.8193 159.555   2
  -9   0   3 786.793 178.077   0
   9   0  -3 590.221 178.640   2
  -9   0   2 198.307 178.260   0
   9   0  -2 24.8035 162.102   2
  -9   0   1-11.4571 181.168   0
   9   0  -1 24.5425 160.724   2
  -9   0   0 40.0660 184.139   0
   9   0   0 90.7609 154.839   2
  -9   0  -1-84.3423 178.547   0
   9   0   1 93.4151 157.950   2
   9   1  -4 777.140 176.297   2
  -9  -1   3 196.637 165.060   0
   9   1  -3 382.112 176.374   2
  -9  -1   2 28.3475 169.302   0
   9   1  -2-23.7287 160.179   2
  -9  -1   1 397.148 184.748   0
   9   1  -1 518.735 173.320   2
  -9  -2   3-95.1395 157.878   0
;
_shelx_hkl_checksum              96822
#END Tags that were not found in dictionaries
loop_
_space_group_symop_operation_xyz
'x, y, z'
'-x, -y, -z'
loop_
_atom_site_label
_atom_site_type_symbol
_atom_site_fract_x
_atom_site_fract_y
_atom_site_fract_z
_atom_site_U_iso_or_equiv
_atom_site_adp_type
_atom_site_occupancy
_atom_site_site_symmetry_order
_atom_site_calc_flag
_atom_site_refinement_flags_posn
_atom_site_refinement_flags_adp
N1 N 0.28740(14) 0.42494(14) 0.56635(12) 0.0160(3) Uani 1 1 d . .
N2 N 0.53087(15) 0.17714(14) 0.79116(12) 0.0169(3) Uani 1 1 d . .
N3 N 0.80435(15) 0.19139(15) 0.57436(12) 0.0174(3) Uani 1 1 d . .
C1 C 0.23327(17) 0.57496(17) 0.57541(15) 0.0161(3) Uani 1 1 d . .
C2 C 0.21173(18) 0.65682(18) 0.71163(15) 0.0180(3) Uani 1 1 d . .
H2 H 0.1722 0.7623 0.7134 0.022 Uiso 1 1 calc R U
C3 C 0.24922(19) 0.58103(18) 0.84405(15) 0.0198(3) Uani 1 1 d . .
H3 H 0.2314 0.6314 0.9377 0.024 Uiso 1 1 calc R U
C4 C 0.31297(18) 0.43096(17) 0.83770(15) 0.0181(3) Uani 1 1 d . .
H4 H 0.3432 0.3783 0.9273 0.022 Uiso 1 1 calc R U
C5 C 0.33217(18) 0.35816(17) 0.69701(14) 0.0162(3) Uani 1 1 d . .
C6 C 0.41409(18) 0.20762(17) 0.68226(15) 0.0168(3) Uani 1 1 d . .
H6 H 0.3789 0.1317 0.5894 0.020 Uiso 1 1 calc R U
C7 C 0.62443(18) 0.04190(17) 0.75715(14) 0.0163(3) Uani 1 1 d . .
H7 H 0.5464 -0.0420 0.6678 0.020 Uiso 1 1 calc R U
C8 C 0.67704(19) -0.05772(18) 0.88931(15) 0.0192(3) Uani 1 1 d . .
H8A H 0.5659 -0.1461 0.9065 0.023 Uiso 1 1 calc R U
H8B H 0.7339 0.0231 0.9840 0.023 Uiso 1 1 calc R U
C9 C 0.8210(2) -0.14597(19) 0.83625(16) 0.0218(3) Uani 1 1 d . .
H9A H 0.7567 -0.2605 0.7751 0.026 Uiso 1 1 calc R U
H9B H 0.9105 -0.1651 0.9245 0.026 Uiso 1 1 calc R U
C10 C 0.92493(19) -0.01629(18) 0.73834(15) 0.0196(3) Uani 1 1 d . .
H10A H 1.0583 0.0336 0.7887 0.023 Uiso 1 1 calc R U
H10B H 0.9205 -0.0766 0.6369 0.023 Uiso 1 1 calc R U
C11 C 0.82062(18) 0.12872(17) 0.72341(14) 0.0165(3) Uani 1 1 d . .
H11 H 0.8866 0.2296 0.8032 0.020 Uiso 1 1 calc R U
C12 C 0.79878(17) 0.35020(18) 0.56972(15) 0.0173(3) Uani 1 1 d . .
H12 H 0.8157 0.4230 0.6624 0.021 Uiso 1 1 calc R U
loop_
_atom_site_aniso_label
_atom_site_aniso_U_11
_atom_site_aniso_U_22
_atom_site_aniso_U_33
_atom_site_aniso_U_23
_atom_site_aniso_U_13
_atom_site_aniso_U_12
N1 0.0138(5) 0.0170(6) 0.0180(6) 0.0035(4) 0.0028(4) 0.0052(5)
N2 0.0181(6) 0.0178(6) 0.0173(6) 0.0045(4) 0.0054(5) 0.0074(5)
N3 0.0171(6) 0.0202(6) 0.0176(6) 0.0062(4) 0.0050(5) 0.0079(5)
C1 0.0128(6) 0.0168(7) 0.0187(7) 0.0029(5) 0.0024(5) 0.0039(5)
C2 0.0184(7) 0.0158(7) 0.0218(7) 0.0023(5) 0.0041(5) 0.0081(5)
C3 0.0207(7) 0.0222(7) 0.0180(7) 0.0013(5) 0.0065(6) 0.0068(6)
C4 0.0185(7) 0.0203(7) 0.0162(6) 0.0051(5) 0.0026(5) 0.0059(6)
C5 0.0133(6) 0.0177(7) 0.0178(7) 0.0036(5) 0.0030(5) 0.0038(5)
C6 0.0169(7) 0.0174(7) 0.0166(6) 0.0025(5) 0.0050(5) 0.0042(5)
C7 0.0170(6) 0.0171(7) 0.0159(6) 0.0017(5) 0.0032(5) 0.0068(5)
C8 0.0207(7) 0.0208(7) 0.0181(7) 0.0058(5) 0.0042(6) 0.0077(6)
C9 0.0235(7) 0.0207(7) 0.0245(7) 0.0056(6) 0.0052(6) 0.0109(6)
C10 0.0196(7) 0.0228(8) 0.0202(7) 0.0048(5) 0.0055(6) 0.0110(6)
C11 0.0177(7) 0.0175(7) 0.0156(6) 0.0028(5) 0.0028(5) 0.0069(6)
C12 0.0139(6) 0.0208(7) 0.0178(6) 0.0015(5) 0.0039(5) 0.0057(5)
loop_
_atom_type_symbol
_atom_type_description
_atom_type_scat_dispersion_real
_atom_type_scat_dispersion_imag
_atom_type_scat_source
C C 0.0033 0.0016 'International Tables Vol C Tables 4.2.6.8 and 6.1.1.4'
H H 0.0000 0.0000 'International Tables Vol C Tables 4.2.6.8 and 6.1.1.4'
N N 0.0061 0.0033 'International Tables Vol C Tables 4.2.6.8 and 6.1.1.4'
loop_
_geom_angle_atom_site_label_1
_geom_angle_atom_site_label_2
_geom_angle_atom_site_label_3
_geom_angle
_geom_angle_site_symmetry_1
_geom_angle_site_symmetry_3
C5 N1 C1 117.36(12) . .
C6 N2 C7 116.68(11) . .
C12 N3 C11 116.80(12) . .
N1 C1 C2 123.07(13) . .
N1 C1 C12 114.92(12) . 2_666
C2 C1 C12 122.01(12) . 2_666
C3 C2 C1 118.68(13) . .
C3 C2 H2 120.7 . .
C1 C2 H2 120.7 . .
C4 C3 C2 118.93(13) . .
C4 C3 H3 120.5 . .
C2 C3 H3 120.5 . .
C3 C4 C5 118.76(13) . .
C3 C4 H4 120.6 . .
C5 C4 H4 120.6 . .
N1 C5 C4 123.05(13) . .
N1 C5 C6 114.73(12) . .
C4 C5 C6 122.14(12) . .
N2 C6 C5 121.34(12) . .
N2 C6 H6 119.3 . .
C5 C6 H6 119.3 . .
N2 C7 C8 115.11(11) . .
N2 C7 C11 109.48(11) . .
C8 C7 C11 101.44(11) . .
N2 C7 H7 110.2 . .
C8 C7 H7 110.2 . .
C11 C7 H7 110.2 . .
C7 C8 C9 102.84(11) . .
C7 C8 H8A 111.2 . .
C9 C8 H8A 111.2 . .
C7 C8 H8B 111.2 . .
C9 C8 H8B 111.2 . .
H8A C8 H8B 109.1 . .
C8 C9 C10 105.15(11) . .
C8 C9 H9A 110.7 . .
C10 C9 H9A 110.7 . .
C8 C9 H9B 110.7 . .
C10 C9 H9B 110.7 . .
H9A C9 H9B 108.8 . .
C11 C10 C9 105.74(11) . .
C11 C10 H10A 110.6 . .
C9 C10 H10A 110.6 . .
C11 C10 H10B 110.6 . .
C9 C10 H10B 110.6 . .
H10A C10 H10B 108.7 . .
N3 C11 C10 113.67(11) . .
N3 C11 C7 111.37(11) . .
C10 C11 C7 103.77(11) . .
N3 C11 H11 109.3 . .
C10 C11 H11 109.3 . .
C7 C11 H11 109.3 . .
N3 C12 C1 121.94(13) . 2_666
N3 C12 H12 119.0 . .
C1 C12 H12 119.0 2_666 .
loop_
_geom_bond_atom_site_label_1
_geom_bond_atom_site_label_2
_geom_bond_distance
_geom_bond_site_symmetry_2
N1 C5 1.3439(17) .
N1 C1 1.3442(17) .
N2 C6 1.2708(17) .
N2 C7 1.4543(17) .
N3 C12 1.2696(17) .
N3 C11 1.4565(17) .
C1 C2 1.3972(19) .
C1 C12 1.4757(19) 2_666
C2 C3 1.3856(19) .
C2 H2 0.9500 .
C3 C4 1.3824(19) .
C3 H3 0.9500 .
C4 C5 1.3974(19) .
C4 H4 0.9500 .
C5 C6 1.4720(19) .
C6 H6 0.9500 .
C7 C8 1.5181(19) .
C7 C11 1.551(2) .
C7 H7 1.0000 .
C8 C9 1.538(2) .
C8 H8A 0.9900 .
C8 H8B 0.9900 .
C9 C10 1.552(2) .
C9 H9A 0.9900 .
C9 H9B 0.9900 .
C10 C11 1.5352(19) .
C10 H10A 0.9900 .
C10 H10B 0.9900 .
C11 H11 1.0000 .
C12 C1 1.4757(19) 2_666
C12 H12 0.9500 .
loop_
_geom_torsion_atom_site_label_1
_geom_torsion_atom_site_label_2
_geom_torsion_atom_site_label_3
_geom_torsion_atom_site_label_4
_geom_torsion
_geom_torsion_site_symmetry_1
_geom_torsion_site_symmetry_4
C5 N1 C1 C2 -3.78(18) . .
C5 N1 C1 C12 175.12(11) . 2_666
N1 C1 C2 C3 0.53(19) . .
C12 C1 C2 C3 -178.29(12) 2_666 .
C1 C2 C3 C4 2.30(19) . .
C2 C3 C4 C5 -1.82(19) . .
C1 N1 C5 C4 4.31(18) . .
C1 N1 C5 C6 -172.24(11) . .
C3 C4 C5 N1 -1.57(19) . .
C3 C4 C5 C6 174.72(12) . .
C7 N2 C6 C5 -170.94(12) . .
N1 C5 C6 N2 150.16(12) . .
C4 C5 C6 N2 -26.42(19) . .
C6 N2 C7 C8 -149.44(12) . .
C6 N2 C7 C11 97.09(14) . .
N2 C7 C8 C9 -163.46(11) . .
C11 C7 C8 C9 -45.38(13) . .
C7 C8 C9 C10 32.54(14) . .
C8 C9 C10 C11 -6.72(14) . .
C12 N3 C11 C10 -150.12(12) . .
C12 N3 C11 C7 93.10(14) . .
C9 C10 C11 N3 -142.16(11) . .
C9 C10 C11 C7 -21.03(13) . .
N2 C7 C11 N3 -74.05(14) . .
C8 C7 C11 N3 163.88(10) . .
N2 C7 C11 C10 163.28(10) . .
C8 C7 C11 C10 41.22(13) . .
C11 N3 C12 C1 -174.85(11) . 2_666
