#------------------------------------------------------------------------------
#$Date: 2016-02-18 17:37:37 +0200 (Thu, 18 Feb 2016) $
#$Revision: 176729 $
#$URL: svn://www.crystallography.net/cod/cif/1/51/75/1517500.cif $
#------------------------------------------------------------------------------
#
# This file is available in the Crystallography Open Database (COD),
# http://www.crystallography.net/
#
# All data on this site have been placed in the public domain by the
# contributors.
#
data_1517500
loop_
_publ_author_name
'Kuang, Yulong'
'Lu, Yan'
'Tang, Yu'
'Liu, Xiaohua'
'Lin, Lili'
'Feng, Xiaoming'
_publ_section_title
;
 Asymmetric Synthesis of Spiro-epoxyoxindoles by the Catalytic Darzens
 Reaction of Isatins with Phenacyl Bromides.
;
_journal_issue                   16
_journal_name_full               'Organic letters'
_journal_page_first              4244
_journal_page_last               4247
_journal_paper_doi               10.1021/ol501941n
_journal_volume                  16
_journal_year                    2014
_chemical_formula_moiety         'C17 H12 Br N O3'
_chemical_formula_sum            'C17 H12 Br N O3'
_chemical_formula_weight         358.19
_chemical_name_systematic
;
 ?
;
_space_group_crystal_system      monoclinic
_space_group_IT_number           4
_space_group_name_Hall           'P 2yb'
_space_group_name_H-M_alt        'P 1 21 1'
_symmetry_space_group_name_Hall  'P 2yb'
_symmetry_space_group_name_H-M   'P 1 21 1'
_atom_sites_solution_hydrogens   geom
_atom_sites_solution_primary     iterative
_audit_creation_date             2014-05-04
_audit_creation_method
;
Olex2 1.2
(compiled 2014.03.20 svn.r2914 for OlexSys, GUI svn.r4816)
;
_cell_angle_alpha                90
_cell_angle_beta                 97.974(5)
_cell_angle_gamma                90
_cell_formula_units_Z            2
_cell_length_a                   7.1926(4)
_cell_length_b                   8.6657(3)
_cell_length_c                   12.0477(5)
_cell_measurement_reflns_used    1248
_cell_measurement_temperature    293(2)
_cell_measurement_theta_max      25.0480
_cell_measurement_theta_min      3.4030
_cell_volume                     743.66(6)
_computing_cell_refinement
;
CrysAlisPro, Agilent Technologies,
Version 1.171.36.28 (release 01-02-2013 CrysAlis171 .NET)
(compiled Feb  1 2013,16:14:44)
;
_computing_data_collection
;
CrysAlisPro, Agilent Technologies,
Version 1.171.36.28 (release 01-02-2013 CrysAlis171 .NET)
(compiled Feb  1 2013,16:14:44)
;
_computing_data_reduction
;
CrysAlisPro, Agilent Technologies,
Version 1.171.36.28 (release 01-02-2013 CrysAlis171 .NET)
(compiled Feb  1 2013,16:14:44)
;
_computing_molecular_graphics    'Olex2 (Dolomanov et al., 2009)'
_computing_publication_material  'Olex2 (Dolomanov et al., 2009)'
_computing_structure_refinement  'ShelXL (Sheldrick, 2008)'
_computing_structure_solution    'olex2.solve (Bourhis et al., 2013)'
_diffrn_ambient_temperature      293.15
_diffrn_detector_area_resol_mean 16.0874
_diffrn_measured_fraction_theta_full 0.999
_diffrn_measured_fraction_theta_max 0.999
_diffrn_measurement_details
;
  1 omega  -18.00    8.00   1.0000   18.0000
omega____ theta____ kappa____ phi______ frames
    -      -17.5174  -99.0000  -90.0000 26

  2 omega  -86.00  -11.00   1.0000   18.0000
omega____ theta____ kappa____ phi______ frames
    -      -17.5174  -57.0000  -90.0000 75

  3 omega  -88.00   -1.00   1.0000   18.0000
omega____ theta____ kappa____ phi______ frames
    -      -17.5174  -38.0000  150.0000 87

  4 omega   25.00   51.00   1.0000   18.0000
omega____ theta____ kappa____ phi______ frames
    -      -17.5174   57.0000   60.0000 26

  5 omega  -39.00  -14.00   1.0000   18.0000
omega____ theta____ kappa____ phi______ frames
    -      -17.5174   57.0000  -90.0000 25
;
_diffrn_measurement_device_type  'Xcalibur, Eos'
_diffrn_measurement_method       '\w scans'
_diffrn_orient_matrix_UB_11      -0.0316449000
_diffrn_orient_matrix_UB_12      -0.0133525000
_diffrn_orient_matrix_UB_13      0.0524057000
_diffrn_orient_matrix_UB_21      0.0943611000
_diffrn_orient_matrix_UB_22      -0.0016417000
_diffrn_orient_matrix_UB_23      0.0264916000
_diffrn_orient_matrix_UB_31      -0.0032383000
_diffrn_orient_matrix_UB_32      0.0807153000
_diffrn_orient_matrix_UB_33      0.0092902000
_diffrn_radiation_monochromator  graphite
_diffrn_radiation_type           MoK\a
_diffrn_radiation_wavelength     0.71073
_diffrn_reflns_av_R_equivalents  0.0203
_diffrn_reflns_av_unetI/netI     0.0462
_diffrn_reflns_Laue_measured_fraction_full 0.999
_diffrn_reflns_Laue_measured_fraction_max 0.999
_diffrn_reflns_limit_h_max       8
_diffrn_reflns_limit_h_min       -7
_diffrn_reflns_limit_k_max       10
_diffrn_reflns_limit_k_min       -10
_diffrn_reflns_limit_l_max       15
_diffrn_reflns_limit_l_min       -14
_diffrn_reflns_number            3466
_diffrn_reflns_point_group_measured_fraction_full 0.822
_diffrn_reflns_point_group_measured_fraction_max 0.806
_diffrn_reflns_theta_full        25.242
_diffrn_reflns_theta_max         26.369
_diffrn_reflns_theta_min         2.860
_diffrn_source                   'Enhance (Mo) X-ray Source'
_exptl_absorpt_coefficient_mu    2.775
_exptl_absorpt_correction_T_max  1.00000
_exptl_absorpt_correction_T_min  0.73600
_exptl_absorpt_correction_type   multi-scan
_exptl_absorpt_process_details
;
CrysAlisPro, Agilent Technologies,
Version 1.171.36.28 (release 01-02-2013 CrysAlis171 .NET)
(compiled Feb  1 2013,16:14:44)
Empirical absorption correction using spherical harmonics,
 implemented in SCALE3 ABSPACK scaling algorithm.
;
_exptl_crystal_colour
;
;
_exptl_crystal_density_diffrn    1.600
_exptl_crystal_description
;
;
_exptl_crystal_F_000             360
_exptl_crystal_size_max          0.3
_exptl_crystal_size_mid          0.3
_exptl_crystal_size_min          0.2
_refine_diff_density_max         0.406
_refine_diff_density_min         -0.584
_refine_diff_density_rms         0.051
_refine_ls_abs_structure_details
;
 Flack x determined using 611 quotients [(I+)-(I-)]/[(I+)+(I-)]
 (Parsons and Flack (2004), Acta Cryst. A60, s61).
;
_refine_ls_abs_structure_Flack   0.048(10)
_refine_ls_extinction_method     none
_refine_ls_goodness_of_fit_ref   1.069
_refine_ls_hydrogen_treatment    constr
_refine_ls_matrix_type           full
_refine_ls_number_parameters     200
_refine_ls_number_reflns         2441
_refine_ls_number_restraints     1
_refine_ls_restrained_S_all      1.068
_refine_ls_R_factor_all          0.0580
_refine_ls_R_factor_gt           0.0419
_refine_ls_shift/su_max          0.001
_refine_ls_shift/su_mean         0.000
_refine_ls_structure_factor_coef Fsqd
_refine_ls_weighting_details
;
 w=1/[\s^2^(Fo^2^)+(0.0228P)^2^+0.2548P]
 where P=(Fo^2^+2Fc^2^)/3
;
_refine_ls_weighting_scheme      calc
_refine_ls_wR_factor_gt          0.0724
_refine_ls_wR_factor_ref         0.0806
_reflns_Friedel_coverage         0.510
_reflns_Friedel_fraction_full    0.618
_reflns_Friedel_fraction_max     0.584
_reflns_number_gt                1976
_reflns_number_total             2441
_reflns_threshold_expression     'I > 2\s(I)'
_cod_data_source_file            ol501941n_si_002.cif
_cod_data_source_block           140314_s1_kcc
_cod_database_code               1517500
#BEGIN Tags that were not found in dictionaries:
_shelxl_version_number           2013-2
_chemical_oxdiff_formula         c15h12n2o3br1
_shelx_space_group_comment
;
The symmetry employed for this shelxl refinement is uniquely defined
by the following loop, which should always be used as a source of
symmetry information in preference to the above space-group names.
They are only intended as comments.
;
_shelx_estimated_absorpt_t_max   0.607
_shelx_estimated_absorpt_t_min   0.490
_reflns_odcompleteness_completeness 99.82
_reflns_odcompleteness_iscentric 1
_reflns_odcompleteness_theta     26.32
_olex2_refinement_description
;
1. Fixed Uiso
 At 1.2 times of:
  All C(H) groups
 At 1.5 times of:
  All C(H,H,H) groups
2.a Ternary CH refined with riding coordinates:
 C8(H8)
2.b Aromatic/amide H refined with riding coordinates:
 C2(H2), C3(H3), C5(H5), C6(H6), C13(H13), C14(H14), C15(H15), C16(H16)
2.c Idealised Me refined as rotating group:
 C17(H17A,H17B,H17C)
;
_shelx_res_file
;
TITL
CELL 0.71073 7.192558 8.665728 12.047704 90 97.9742 90
ZERR 2 0.000372 0.000311 0.000524 0 0.0049 0
LATT -1
SYMM -X,0.5+Y,-Z

SFAC C H Br N O
UNIT 34 24 2 2 6

L.S. 4
PLAN  20
SIZE 0.2 0.3 0.3
TEMP 20
htab
MORE -1
BOND $H
CONF
fmap 2
acta
SHEL 999 0.8
REM <HKL>E:/CCD%20data/1403/olex2_140314_s1_kcc/140314_s1_kcc.hkl</HKL>

WGHT    0.022800    0.254800
FVAR       6.71446
BR1   3    1.524637    0.271629    0.467820    11.00000    0.12191    0.07445 =
         0.05490   -0.00865   -0.02749    0.04044
C1    1    1.132520    0.597141    0.232997    11.00000    0.03983    0.03705 =
         0.03874   -0.00819    0.00175   -0.00247
C2    1    1.300622    0.545235    0.202044    11.00000    0.04563    0.04982 =
         0.03469   -0.00083    0.00518    0.00606
AFIX  43
H2    2    1.334423    0.576375    0.133726    11.00000   -1.20000
AFIX   0
C3    1    1.419062    0.448288    0.270404    11.00000    0.04288    0.06087 =
         0.04916   -0.00743   -0.00245    0.00906
AFIX  43
H3    2    1.530217    0.412605    0.248288    11.00000   -1.20000
AFIX   0
C4    1    1.368077    0.406437    0.371374    11.00000    0.07128    0.04527 =
         0.03901   -0.01097   -0.01435    0.01489
C5    1    1.203487    0.454798    0.404892    11.00000    0.08355    0.05987 =
         0.03631    0.00026    0.01126    0.00541
AFIX  43
H5    2    1.171302    0.423014    0.473458    11.00000   -1.20000
AFIX   0
C6    1    1.085472    0.551174    0.336153    11.00000    0.05349    0.05173 =
         0.05053   -0.00615    0.01348    0.01507
AFIX  43
H6    2    0.974201    0.585425    0.358935    11.00000   -1.20000
AFIX   0
C7    1    0.999706    0.700326    0.161965    11.00000    0.04293    0.04474 =
         0.04511   -0.01346   -0.00085    0.00620
C8    1    1.059189    0.763811    0.056088    11.00000    0.03600    0.03107 =
         0.04517   -0.00305   -0.00101    0.00417
AFIX  13
H8    2    1.194388    0.779876    0.057600    11.00000   -1.20000
AFIX   0
C9    1    0.950110    0.740400   -0.056410    11.00000    0.03288    0.02880 =
         0.04413    0.00192    0.00094   -0.00202
C10   1    1.061575    0.740173   -0.154261    11.00000    0.04245    0.03814 =
         0.04756    0.00761   -0.00066    0.00212
N1    4    0.973044    0.638596   -0.230841    11.00000    0.04623    0.04885 =
         0.04136    0.00364    0.00921    0.00024
C11   1    0.807751    0.582669   -0.195649    11.00000    0.03785    0.03630 =
         0.03959    0.00416   -0.00244    0.00189
C12   1    0.784498    0.640308   -0.090979    11.00000    0.03248    0.02316 =
         0.03741    0.00116    0.00290    0.00202
C13   1    0.628187    0.602346   -0.042220    11.00000    0.04083    0.04096 =
         0.05083    0.00216    0.01023    0.00230
AFIX  43
H13   2    0.611057    0.641940    0.027391    11.00000   -1.20000
AFIX   0
C14   1    0.495547    0.502194   -0.100636    11.00000    0.02851    0.04570 =
         0.07345    0.00679    0.00856   -0.00275
AFIX  43
H14   2    0.388871    0.474793   -0.069566    11.00000   -1.20000
AFIX   0
C15   1    0.522403    0.444604   -0.203166    11.00000    0.04034    0.04609 =
         0.06556    0.00517   -0.00939   -0.01054
AFIX  43
H15   2    0.433435    0.377530   -0.239934    11.00000   -1.20000
AFIX   0
C16   1    0.676782    0.482739   -0.253603    11.00000    0.05809    0.04666 =
         0.03370    0.00095   -0.01096   -0.00087
AFIX  43
H16   2    0.692920    0.443408   -0.323453    11.00000   -1.20000
AFIX   0
C17   1    1.041409    0.597213   -0.334489    11.00000    0.07047    0.07914 =
         0.04998   -0.00608    0.01881    0.00359
AFIX 137
H17A  2    1.155010    0.652898   -0.340379    11.00000   -1.50000
H17B  2    0.948391    0.622963   -0.396800    11.00000   -1.50000
H17C  2    1.066114    0.488365   -0.334950    11.00000   -1.50000
AFIX   0
O1    5    0.849934    0.735348    0.189617    11.00000    0.04945    0.09291 =
         0.05949    0.00014    0.01555    0.03005
O2    5    0.939597    0.882639    0.001192    11.00000    0.05069    0.02449 =
         0.05493   -0.00018   -0.00414    0.00348
O3    5    1.203156    0.813783   -0.162642    11.00000    0.04542    0.06815 =
         0.06974    0.00881    0.01356   -0.01913
HKLF 4

REM
REM R1 =  0.0419 for    1976 Fo > 4sig(Fo)  and  0.0580 for all    2441 data
REM    200 parameters refined using      1 restraints

END

WGHT      0.0226      0.2556

REM Instructions for potential hydrogen bonds
EQIV $1 -x+3, y-1/2, -z
HTAB C3 O3_$1
EQIV $2 x-1, y, z-1
HTAB C16 Br1_$2
EQIV $3 -x+3, y+1/2, -z
HTAB C17 Br1_$3

REM Highest difference peak  0.406,  deepest hole -0.584,  1-sigma level  0.051
Q1    1   1.4025  0.2779  0.5012  11.00000  0.05    0.40
Q2    1   1.6032  0.3541  0.4533  11.00000  0.05    0.34
Q3    1   1.6383  0.2706  0.3764  11.00000  0.05    0.22
Q4    1   1.6121  0.2712  0.5429  11.00000  0.05    0.21
Q5    1   0.3395  0.1931 -0.3781  11.00000  0.05    0.18
Q6    1   0.3008  0.3769 -0.2348  11.00000  0.05    0.17
Q7    1   0.4348  0.3782 -0.3190  11.00000  0.05    0.17
Q8    1   1.0362  0.6965  0.0032  11.00000  0.05    0.17
Q9    1   0.7481  0.5705 -0.0456  11.00000  0.05    0.16
Q10   1   0.6604  0.7771  0.0838  11.00000  0.05    0.16
Q11   1   0.6622  0.6083  0.0282  11.00000  0.05    0.16
Q12   1   0.8648  0.5680  0.3122  11.00000  0.05    0.16
Q13   1   0.2768  0.4063 -0.1088  11.00000  0.05    0.15
Q14   1   1.3050  0.8192 -0.2080  11.00000  0.05    0.15
Q15   1   0.9974  0.5236 -0.2401  11.00000  0.05    0.15
Q16   1   0.4033  0.4517  0.0454  11.00000  0.05    0.15
Q17   1   1.1983  0.9616  0.0632  11.00000  0.05    0.15
Q18   1   1.1007  0.4609 -0.1630  11.00000  0.05    0.15
Q19   1   0.9475  0.7738 -0.3792  11.00000  0.05    0.15
Q20   1   0.8105  0.5652 -0.1195  11.00000  0.05    0.15
;
_shelx_res_checksum              80059
_shelx_hkl_file
;
   0 -11   0 43.1815 315.420   1
   0 -11  -1-54.8381 309.166   1
   0 -11   1-331.662 293.847   1
   0 -11   2 1642.73 440.549   1
   0 -11   3 206.027 267.245   1
   0 -10   0 1982.03 460.709   1
   0 -10   1 535.545 287.116   1
   0 -10   2 1117.51 339.504   1
   0 -10   3 481.471 270.800   1
   0 -10   4 1447.74 369.564   1
   0 -10   4 2461.95 536.566   3
   0 -10   5 654.451 354.270   3
   0 -10   6 669.157 393.653   3
   0 -10   7 370.677 390.815   3
   0  -9   0-219.137 211.264   1
   0  -9   1 655.765 234.864   3
   0  -9   1 12.5643 217.396   1
   0  -9   2 489.016 240.768   1
   0  -9   2 632.971 268.546   3
   0  -9   3 610.482 306.424   3
   0  -9   3 516.085 245.729   1
   0  -9   4 4382.68 569.693   1
   0  -9   4 3616.27 590.751   3
   0  -9   5 649.526 371.460   3
   0  -9   6 1965.79 495.310   3
   0  -9   7 189.213 273.715   3
   0  -9   8 1417.77 497.540   3
   0  -9   9 733.809 401.470   3
   0  -8   0 9403.20 694.486   3
   0  -8   0 8916.53 579.653   2
   0  -8  -1 4785.90 445.037   3
   0  -8   1 4422.97 504.226   3
   0  -8   1 4668.09 396.524   2
   0  -8   1 4337.89 521.256   1
   0  -8  -1 4173.68 408.324   2
   0  -8   2 19394.1 1064.10   1
   0  -8   2 17264.8 1073.35   3
   0  -8   3 242.733 168.352   3
   0  -8   3 326.297 227.984   1
   0  -8   4 3421.92 454.998   1
   0  -8   4 3226.45 526.344   3
   0  -8   5 3433.84 574.470   3
   0  -8   6-129.417 242.215   3
   0  -8   7 1019.75 441.900   3
   0  -8   8 760.373 345.132   3
   0  -8   9 757.463 417.781   3
   0  -8  10 374.654 398.185   3
   0  -7   0 129.272 133.339   2
   0  -7   0 136.401 156.644   3
   0  -7  -1 9892.06 590.599   3
   0  -7   1 9605.79 698.377   1
   0  -7   1 8699.15 674.527   3
   0  -7   1 9601.62 529.572   2
   0  -7   2 1144.77 310.103   3
   0  -7  -2 1273.36 190.085   3
   0  -7   2 1309.51 199.513   2
   0  -7   2 1500.74 299.103   1
   0  -7   3 2885.59 449.141   3
   0  -7   3 2968.78 265.424   2
   0  -7   3 3037.50 399.339   1
   0  -7   4 3551.18 429.011   1
   0  -7   4 2971.89 470.620   3
   0  -7   4 2894.18 254.991   2
   0  -7   5 2412.84 469.387   3
   0  -7   6 5579.30 724.132   3
   0  -7   7 5906.64 770.557   3
   0  -7   8 5496.84 783.282   3
   0  -7   9 5391.17 811.473   3
   0  -7  10 2430.64 567.449   3
   0  -7  11 185.484 360.721   3
   0  -6   0 70133.4 1489.25   2
   0  -6   0 70456.2 1774.25   3
   0  -6   1 19011.4 905.536   1
   0  -6   1 18622.3 936.834   3
   0  -6  -1 18889.4 779.266   3
   0  -6   1 20543.3 734.931   2
   0  -6  -2 11805.8 504.366   3
   0  -6   2 10507.1 754.276   3
   0  -6   2 11585.7 696.723   1
   0  -6   2 11384.0 498.005   2
   0  -6   3 9197.66 436.918   2
   0  -6  -3 8739.63 295.433   3
   0  -6   3 9152.39 606.940   1
   0  -6   3 9388.07 755.819   3
   0  -6   4 12396.4 918.535   3
   0  -6   4 12034.2 516.801   2
   0  -6   4 11456.6 720.706   1
   0  -6   5 4121.21 268.842   4
   0  -6   5 4267.42 565.878   3
   0  -6   6 10695.1 489.493   4
   0  -6   6 11904.2 966.833   3
   0  -6   7 3900.52 601.835   3
   0  -6   8 464.928 272.108   3
   0  -6   9 435.830 307.581   3
   0  -6  10 2221.03 544.402   3
   0  -6  11 258.769 325.520   3
   0  -6  12 3081.31 665.257   3
   0  -5   0-178.551 121.201   3
   0  -5   1 7521.80 382.580   2
   0  -5   1 7492.58 553.612   3
   0  -5  -1 7322.43 436.846   3
   0  -5   2 15333.6 535.160   2
   0  -5  -2 15023.7 513.516   3
   0  -5   2 13900.2 814.956   3
   0  -5   2 15377.1 728.778   1
   0  -5   3 18659.7 787.014   1
   0  -5   3 18328.1 589.837   2
   0  -5   3 17899.6 989.617   3
   0  -5   4 22660.4 706.076   2
   0  -5   4 23444.7 1198.48   3
   0  -5   5 9845.92 434.253   4
   0  -5   5 10588.7 844.534   3
   0  -5   6 22931.5 1305.12   3
   0  -5   6 21778.1 761.867   4
   0  -5   7 26002.4 1439.25   3
   0  -5   8 1026.31 315.690   3
   0  -5   9 9351.06 939.166   3
   0  -5  10 5763.54 774.142   3
   0  -5  11 3483.36 641.945   3
   0  -5  12 1945.66 542.082   3
   0  -5  13 1611.51 544.111   3
   0  -4   0 58813.0 1377.91   3
   0  -4  -1 43090.6 1013.40   3
   0  -4   1 44189.8 911.158   2
   0  -4   1 42817.2 1259.10   3
   0  -4  -2 34292.3 718.082   3
   0  -4   2 34758.5 762.678   2
   0  -4   2 35522.7 1000.06   1
   0  -4   2 34213.6 1208.66   3
   0  -4   3 89894.0 1756.94   1
   0  -4   3 88207.6 2194.98   3
   0  -4   3 87302.3 1450.19   2
   0  -4   4 5966.83 574.021   3
   0  -4   4 5680.93 302.313   4
   0  -4   4 5293.50 322.154   2
   0  -4   5 22369.9 1168.07   3
   0  -4   5 22910.7 715.561   4
   0  -4   6 6992.57 449.465   4
   0  -4   6 7078.44 694.695   3
   0  -4   7 1714.05 359.041   3
   0  -4   8 6790.67 751.355   3
   0  -4   9 6392.62 756.031   3
   0  -4  10 4573.82 649.913   3
   0  -4  11 1386.06 408.464   3
   0  -4  12 2764.03 579.213   3
   0  -4  13 158.413 282.182   3
   0  -4  14 1932.25 539.476   3
   0  -3   0 131.962 75.8608   3
   0  -3   1 1753.20 184.864   1
   0  -3   1 1980.67 155.332   2
   0  -3  -1 2062.00 164.281   3
   0  -3   1 2193.91 242.303   3
   0  -3   2 8141.26 302.850   2
   0  -3   2 7939.78 512.577   3
   0  -3   2 8625.76 428.199   1
   0  -3   3 4759.82 438.059   3
   0  -3   3 4762.31 265.639   2
   0  -3   4 65605.7 1846.20   3
   0  -3   4 63560.6 1208.69   4
   0  -3   5 23924.7 793.223   4
   0  -3   5 24564.2 1159.04   3
   0  -3   6 60807.0 1966.38   3
   0  -3   7 30467.0 1417.72   3
   0  -3   8 26749.5 1388.92   3
   0  -3   9 21735.9 1302.35   3
   0  -3  10 7205.84 795.072   3
   0  -3  11 2876.14 530.921   3
   0  -3  12 3931.06 643.089   3
   0  -3  13 459.608 242.506   3
   0  -3  14 122.885 315.065   3
   0  -3  15-256.330 287.302   3
   0  -2   0 75801.5 1324.81   5
   0  -2   0 74602.1 1222.46   3
   0  -2  -1 37517.3 765.652   5
   0  -2   1 37845.1 649.143   2
   0  -2   1 37694.9 940.536   3
   0  -2   1 38758.8 798.375   1
   0  -2   2 288107. 3985.29   3
   0  -2  -2 290082. 3225.96   5
   0  -2   2 289319. 3308.88   2
   0  -2   2 290600. 3510.00   1
   0  -2   3 200031. 3223.54   3
   0  -2   3 199125. 2540.34   4
   0  -2   4 19688.6 897.831   3
   0  -2  -4 19091.9 523.054   3
   0  -2   4 20042.5 666.391   4
   0  -2   5 16700.9 887.323   3
   0  -2   6 34534.3 1369.84   3
   0  -2   7 18432.7 1035.54   3
   0  -2   8 9731.38 795.389   3
   0  -2   9 4127.13 571.293   3
   0  -2  10 9342.02 874.441   3
   0  -2  11 5114.00 676.953   3
   0  -2  12 3262.02 595.109   3
   0  -2  13 7452.81 867.075   3
   0  -2  14 639.422 361.459   3
   0  -2  15 408.887 227.918   3
   0  -1   2 91905.9 1617.34   3
   0  -1   2 92500.9 1319.16   4
   0  -1   3 115710. 2082.78   3
   0  -1  -3 118077. 1708.25   3
   0  -1   3 115541. 1831.43   4
   0  -1   4 48749.1 1353.51   3
   0  -1  -4 49677.9 1088.85   3
   0  -1  -4 48749.4 856.972   5
   0  -1  -5 58762.3 1072.94   5
   0  -1   5 61463.8 1636.15   3
   0  -1  -5 58830.0 1341.52   3
   0  -1  -6 67155.0 1285.97   5
   0  -1   6 66361.7 1827.71   3
   0  -1  -7 31059.4 870.212   5
   0  -1   7 28974.8 1243.30   3
   0  -1  -8 28032.0 862.758   5
   0  -1   8 31634.3 1358.28   3
   0  -1  -9 27800.6 889.805   5
   0  -1   9 31408.7 1421.10   3
   0  -1  10 16266.5 1076.60   3
   0  -1  11 5844.98 695.366   3
   0  -1  12 4107.88 593.818   3
   0  -1  13 493.818 219.339   3
   0  -1  14-66.8658 221.575   3
   0  -1  15 441.371 273.788   3
   0  -1  16 155.782 271.611   3
   0   0  -2 2268.99 179.835   3
   0   0   2 2012.62 162.572   3
   0   0  -2 2040.92 173.269   4
   0   0   3 150360. 2265.63   3
   0   0  -3 152442. 2357.12   4
   0   0  -3 154183. 2296.02   3
   0   0  -3 150632. 2065.88   5
   0   0   4 74202.4 1570.06   3
   0   0  -4 76023.8 1640.90   4
   0   0  -4 77786.4 1414.97   5
   0   0  -4 75961.3 1581.84   3
   0   0  -5 6898.25 473.061   3
   0   0  -5 7965.53 434.623   5
   0   0  -5 7291.20 507.940   4
   0   0   5 6946.57 478.814   3
   0   0   6 19263.8 877.079   3
   0   0  -6 19053.7 719.093   5
   0   0   7 25929.2 1086.60   3
   0   0  -7 24326.9 897.357   5
   0   0   8 2049.41 333.687   3
   0   0  -8 2154.99 286.955   5
   0   0   9 655.261 237.394   3
   0   0  -9 597.840 167.341   5
   0   0 -10 4634.42 426.523   5
   0   0  10 5173.81 585.318   3
   0   0  11 4663.95 580.620   3
   0   0  12 635.148 295.148   3
   0   0  13 3060.81 523.281   3
   0   0  14 4257.84 613.984   3
   0   0  15 2412.13 516.750   3
   0   1  -1 36795.2 764.817   3
   0   1  -2 97852.6 1398.98   2
   0   1  -2 103198. 1671.96   5
   0   1  -2 99046.2 1681.63   3
   0   1  -3 112541. 1740.86   4
   0   1  -3 109599. 1988.67   3
   0   1   3 112141. 1603.54   3
   0   1  -3 113400. 1939.81   5
   0   1  -4 58484.2 1364.50   5
   0   1  -4 58763.2 1462.38   3
   0   1   4 56313.0 1156.47   3
   0   1  -4 54828.4 1241.51   4
   0   1   5 50214.1 1206.21   3
   0   1  -5 45626.5 1246.12   4
   0   1  -5 51086.8 1336.79   5
   0   1  -6 67149.1 1632.40   5
   0   1   6 66568.2 1571.45   3
   0   1   7 28787.0 1076.02   3
   0   1  -7 30922.1 1127.69   5
   0   1  -8 25697.3 1078.62   5
   0   1   8 25611.1 1066.21   3
   0   1  -9 30907.3 1210.55   5
   0   1   9 30575.5 1236.27   3
   0   1  10 15894.2 930.875   3
   0   1 -10 15037.9 848.771   5
   0   1 -11 4677.33 489.536   5
   0   1  11 4913.12 537.472   3
   0   1  12 5027.12 590.178   3
   0   1  13 911.279 290.757   3
   0   2   0 62863.6 1170.36   5
   0   2  -1 48862.0 743.891   2
   0   2   1 48808.3 823.820   5
   0   2  -1 52284.2 1122.16   5
   0   2  -2 295069. 3985.09   5
   0   2  -2 292321. 3352.53   2
   0   2  -2 297252. 3576.31   1
   0   2  -3 185523. 2562.38   1
   0   2  -3 191799. 2481.24   2
   0   2  -3 180355. 2949.77   5
   0   2  -4 22163.0 704.308   2
   0   2   4 21866.1 523.256   3
   0   2  -4 20927.7 869.267   5
   0   2  -5 13986.3 735.795   5
   0   2  -5 14237.9 631.371   2
   0   2   5 14309.3 496.463   3
   0   2   6 31677.9 877.008   3
   0   2  -6 34650.6 1247.88   5
   0   2  -7 17460.6 925.250   5
   0   2   7 13955.8 629.260   3
   0   2  -8 9841.82 717.766   5
   0   2   8 9351.87 568.123   3
   0   2   9 4428.49 436.134   3
   0   2  -9 4063.72 468.218   5
   0   2 -10 7747.61 679.290   5
   0   2  10 8923.21 649.248   3
   0   2  11 6584.46 618.427   3
   0   2 -11 4731.58 527.556   5
   0   2  12 3399.30 473.431   3
   0   3   0 125.508 81.7402   5
   0   3   1 2919.56 217.218   5
   0   3  -1 3599.57 339.567   5
   0   3  -2 4811.14 238.751   2
   0   3  -2 5196.79 420.807   5
   0   3  -3 5284.13 453.992   5
   0   3  -3 5851.03 290.416   2
   0   3  -3 5848.08 372.326   1
   0   3  -4 69087.1 1467.12   1
   0   3  -4 67015.3 1271.51   2
   0   3  -4 65630.6 1808.43   5
   0   3   5 20380.7 470.035   3
   0   3  -5 20750.8 728.939   2
   0   3  -5 21181.7 1022.52   5
   0   3  -6 65908.0 1944.33   5
   0   3  -6 61313.9 1496.58   2
   0   3   6 60839.8 1098.57   3
   0   3   7 31419.3 838.416   3
   0   3  -7 33196.5 1408.52   5
   0   3  -8 23351.7 1181.93   5
   0   3   8 22322.4 781.474   3
   0   3  -9 21503.8 1163.21   5
   0   3   9 20706.3 830.051   3
   0   3  10 7162.85 522.299   3
   0   3 -10 7187.64 682.268   5
   0   3 -11 2469.99 402.436   5
   0   4   0 58154.1 1415.35   5
   0   4  -1 43764.0 1313.72   5
   0   4  -2 36632.8 1278.76   5
   0   4  -3 82618.0 2153.77   5
   0   4  -3 86200.2 1423.95   2
   0   4  -4 7807.28 644.425   5
   0   4  -4 7727.96 382.754   2
   0   4  -5 23056.5 752.457   2
   0   4  -5 23722.7 1187.18   5
   0   4  -6 8786.85 742.316   5
   0   4  -6 9019.02 500.671   2
   0   4  -7 2612.12 445.950   5
   0   4  -8 5405.01 614.284   5
   0   4   8 5922.77 305.282   3
   0   4  -9 7470.10 719.722   5
   0   4 -10 3448.87 505.247   5
   0   4 -11 420.478 249.696   5
   0   5   0 205.746 136.320   5
   0   5  -1 8782.17 605.242   5
   0   5  -2 11887.0 769.530   5
   0   5  -3 15626.0 942.307   5
   0   5  -4 25052.8 725.739   2
   0   5  -4 26834.6 1277.82   5
   0   5  -5 7793.47 715.547   5
   0   5  -5 7447.06 428.030   2
   0   5  -6 19590.4 1168.88   5
   0   5  -6 21084.5 782.010   2
   0   5  -7 29939.5 1494.89   5
   0   5  -8 2091.08 399.698   5
   0   5  -9 6170.00 692.838   5
   0   5 -10 4728.33 626.278   5
   0   5 -11 2383.01 482.583   5
   0   6  -1 20401.7 993.427   5
   0   6  -2 9403.92 731.809   5
   0   6  -3 10936.0 826.388   5
   0   6  -4 12546.1 922.895   5
   0   6  -5 5200.39 616.615   5
   0   6  -6 8071.48 783.097   5
   0   6  -7 4282.32 604.045   5
   0   6  -8 968.501 326.814   5
   0   6  -9 585.239 299.600   5
   0   6 -10 1733.03 435.335   5
   0   7  -3 2722.45 450.894   5
   0   7  -4 3408.05 514.829   5
   0   7  -5 3109.57 510.200   5
   0   7  -6 6059.95 719.092   5
   0   7  -7 3716.48 578.378   5
   0   7  -8 5899.24 760.846   5
  -1 -11   2 950.126 339.228   1
   1 -11  -1 403.719 277.575   1
  -1 -11   1 882.060 342.184   1
   1 -11   0-110.611 290.867   1
  -1 -11   0-414.277 356.758   1
  -1 -11  -1 394.713 308.642   1
   1 -11   1 851.467 395.721   1
   1 -11   2 1689.20 485.359   1
   1 -11   3 725.658 349.449   1
  -1 -10   7-452.240 335.712   3
  -1 -10   6 729.611 318.578   3
  -1 -10   5 314.129 252.195   3
  -1 -10   4 1505.53 368.701   1
  -1 -10   3 2584.29 445.919   1
  -1 -10   2-55.9979 231.835   1
  -1 -10   1 3000.62 531.229   1
   1 -10  -1 2914.66 577.195   1
  -1 -10   0 282.779 239.089   1
   1 -10   0 48.8806 292.524   1
   1 -10   1 1445.12 409.982   1
   1 -10   2 572.611 335.811   1
   1 -10   3 2502.56 506.840   3
   1 -10   3 3704.29 582.520   1
   1 -10   4 1653.24 456.672   3
   1 -10   5 2062.62 528.807   3
   1 -10   6 235.861 221.065   3
   1 -10   7-263.453 222.714   3
  -1  -9   9 126.602 266.656   3
  -1  -9   8 344.471 268.173   3
  -1  -9   7 2374.92 541.007   3
  -1  -9   6 1105.98 392.729   3
  -1  -9   5 903.110 303.706   3
  -1  -9   4 1349.16 340.391   1
  -1  -9   4 1006.92 317.230   3
  -1  -9   3 1473.92 325.971   1
   1  -9  -3 1041.85 314.259   2
  -1  -9   3 1418.06 345.804   3
  -1  -9   2 1566.12 340.104   1
  -1  -9   2 474.132 193.483   3
   1  -9  -2 1031.85 278.060   2
  -1  -9   1 729.670 302.483   1
   1  -9  -1 106.424 264.412   1
   1  -9  -1 923.998 253.747   2
   1  -9   0 325.535 185.231   1
   1  -9   1 733.474 315.787   1
   1  -9   1 459.138 180.750   3
   1  -9   2 2041.46 421.051   1
   1  -9   2 1361.29 339.119   3
   1  -9   3 1155.18 331.793   3
   1  -9   3 1892.51 399.524   1
   1  -9   4 557.255 345.985   3
   1  -9   5 891.286 352.800   3
   1  -9   6 802.207 396.719   3
   1  -9   7 1997.84 575.855   3
   1  -9   8 1829.91 536.440   3
  -1  -8  10 230.525 311.794   3
  -1  -8   9-116.577 346.078   3
  -1  -8   8 40.7148 268.708   3
  -1  -8   7-162.504 231.825   3
  -1  -8   6 1087.20 389.176   3
  -1  -8   5 3954.99 563.037   3
  -1  -8   4 827.047 246.293   1
  -1  -8   4 331.506 253.464   3
  -1  -8   3 8913.91 758.932   3
  -1  -8   3 10919.5 785.994   1
  -1  -8   2 495.499 179.411   3
   1  -8  -2 1081.07 272.070   2
  -1  -8   2 727.417 253.381   1
  -1  -8   1 10794.1 784.242   1
   1  -8  -1 11301.4 769.152   2
  -1  -8   1 9163.41 656.510   3
   1  -8  -1 8294.31 660.655   3
   1  -8   0 5078.53 583.186   1
  -1  -8   0 4387.16 436.010   3
   1  -8   0 3818.50 434.489   2
   1  -8   0 3505.89 444.087   3
   1  -8   1 13125.5 931.866   1
   1  -8   1 14052.5 787.377   2
   1  -8   1 12357.4 920.414   3
   1  -8   2 4356.89 551.032   1
   1  -8   2 4455.15 418.080   2
   1  -8   2 3655.50 539.116   3
   1  -8   3 2672.52 482.456   3
   1  -8   3 3409.67 477.102   1
   1  -8   3 3523.27 355.607   2
   1  -8   4 282.531 283.128   3
   1  -8   5 3439.90 611.532   3
   1  -8   6 1435.42 467.432   3
   1  -8   7 307.063 258.003   3
   1  -8   8 344.340 318.575   3
   1  -8   9 674.140 367.608   3
  -1  -7  11 4070.88 695.037   3
  -1  -7  10 1585.72 519.969   3
  -1  -7   9 1859.70 468.641   3
  -1  -7   8 2828.38 543.136   3
  -1  -7   7 2101.21 476.535   3
  -1  -7   6 7983.73 828.780   3
  -1  -7   5 9847.88 887.583   3
  -1  -7   4 2750.40 453.911   3
  -1  -7   4 4004.41 418.992   1
   1  -7  -3 9600.68 550.769   3
  -1  -7   3 10116.9 790.250   3
  -1  -7   3 11347.7 710.654   1
  -1  -7   2 3260.33 203.256   2
  -1  -7   2 3417.46 424.363   3
   1  -7  -2 3347.28 373.051   3
  -1  -7   2 4288.56 454.076   1
  -1  -7   1 1465.92 254.612   3
   1  -7  -1 1672.99 273.681   2
   1  -7  -1 1666.86 300.598   3
  -1  -7   1 1895.67 205.337   2
   1  -7   0 4002.11 467.948   1
  -1  -7   0 3466.19 357.596   3
   1  -7   0 3740.65 385.257   2
   1  -7   0 2906.89 402.010   3
   1  -7   1 456.717 171.235   2
  -1  -7  -1 361.028 108.999   3
   1  -7   1 379.395 155.288   1
   1  -7   1 391.619 203.203   3
   1  -7   2 315.363 215.233   3
   1  -7   2 279.095 153.765   1
  -1  -7  -2 447.256 93.9973   3
   1  -7   2 221.851 120.283   2
   1  -7   3 3533.36 360.182   2
   1  -7   3 3258.28 426.622   1
   1  -7   3 3584.47 519.272   3
   1  -7   4 3939.42 564.296   3
   1  -7   4 4316.93 398.817   2
   1  -7   5 8310.04 849.837   3
   1  -7   5 8392.45 555.169   2
   1  -7   6 2079.26 292.313   2
   1  -7   6 2250.04 472.761   3
   1  -7   7 3954.55 648.009   3
   1  -7   8 4601.42 705.549   3
   1  -7   9 2403.50 545.297   3
   1  -7  10 2757.85 626.434   3
   1  -7  11 914.607 384.803   3
  -1  -6  12 223.418 304.299   3
  -1  -6  11 2952.11 600.228   3
  -1  -6  10 1318.56 405.012   3
  -1  -6   9 584.080 348.902   3
  -1  -6   8 884.605 368.513   3
  -1  -6   7 8537.99 859.725   3
  -1  -6   6 2596.05 484.459   3
   1  -6  -5 2437.42 167.932   3
  -1  -6   5 2913.88 496.576   3
   1  -6  -4 7306.33 338.451   3
  -1  -6   4 7017.67 502.252   1
  -1  -6   4 7435.94 705.285   3
  -1  -6   3 12382.3 668.819   1
  -1  -6   3 13178.2 857.790   3
  -1  -6   2 10588.7 721.280   3
  -1  -6   2 9325.06 325.410   4
  -1  -6   2 11285.7 653.845   1
  -1  -6   2 10231.9 331.851   2
   1  -6  -1 35639.2 1197.73   3
  -1  -6   1 37622.1 966.035   4
  -1  -6   1 40147.8 871.621   2
   1  -6  -1 37192.2 1193.14   2
  -1  -6   1 38382.7 1251.37   3
  -1  -6   0 22167.0 829.281   3
   1  -6   0 22608.8 1014.08   3
  -1  -6   0 21567.6 840.493   4
   1  -6   0 24416.4 925.748   2
   1  -6   1 18240.0 914.889   1
   1  -6   1 15624.3 915.510   3
   1  -6   1 16123.3 729.426   2
  -1  -6  -1 16227.5 624.514   3
   1  -6   2 20344.7 1110.67   3
  -1  -6  -2 20129.1 558.557   3
   1  -6   2 20409.9 967.235   1
   1  -6   2 19642.9 798.851   2
   1  -6   3 8984.56 775.895   3
   1  -6   3 8986.03 526.431   2
   1  -6   3 8757.74 636.497   1
   1  -6   4 16453.0 1094.87   3
   1  -6   4 15276.2 723.854   2
  -1  -6  -4 16556.9 774.450   5
   1  -6   5 1328.63 230.367   2
   1  -6   5 1230.00 339.744   3
   1  -6   6 12339.8 695.797   2
   1  -6   6 13326.0 1065.56   3
   1  -6   6 12493.1 644.375   4
   1  -6   7 490.575 166.093   4
   1  -6   7 110.548 205.520   3
   1  -6   8 1556.66 452.726   3
   1  -6   9-174.704 294.172   3
   1  -6  10 780.615 403.572   3
   1  -6  11 2386.73 626.856   3
   1  -6  12 1528.23 515.205   3
  -1  -5  13 958.656 398.158   3
  -1  -5  12 1470.42 438.221   3
  -1  -5  11 482.605 378.457   3
  -1  -5  10 2091.44 488.334   3
  -1  -5   9 3516.37 592.777   3
  -1  -5   8 16122.7 1167.33   3
  -1  -5   7 11439.2 961.038   3
  -1  -5   6 11182.0 891.239   3
   1  -5  -6 10798.7 364.860   3
  -1  -5   5 35728.2 1541.53   3
   1  -5  -5 35852.2 718.296   3
  -1  -5   4 8396.09 697.364   3
   1  -5  -4 8950.58 360.785   3
  -1  -5   3 6422.43 572.773   3
  -1  -5   3 6409.17 437.654   1
  -1  -5   2 12669.8 618.821   1
  -1  -5   2 10005.6 284.388   4
  -1  -5   2 12177.6 719.398   3
  -1  -5   2 10643.9 291.546   2
  -1  -5   1 789.465 118.462   4
  -1  -5   1 699.256 163.462   3
  -1  -5   1 729.110 95.7028   2
  -1  -5   0 11681.5 556.170   4
   1  -5   0 12238.1 609.062   2
  -1  -5   0 11987.7 544.368   3
   1  -5   1 16919.1 819.775   1
  -1  -5  -1 15501.3 740.817   4
  -1  -5  -1 17133.9 568.979   3
   1  -5   1 16967.1 694.173   2
   1  -5   2 9260.40 503.145   2
   1  -5   2 9593.84 602.132   1
   1  -5   2 9379.56 676.225   3
  -1  -5  -2 8899.88 315.013   3
   1  -5   3 4863.77 532.211   3
  -1  -5  -3 5432.16 425.141   5
   1  -5   3 5164.27 454.525   1
   1  -5   3 4693.67 361.633   2
  -1  -5  -4 1070.07 185.210   5
   1  -5   4 1229.88 261.509   3
   1  -5   4 1334.49 223.520   2
   1  -5   5 24241.1 931.623   2
   1  -5   5 25744.8 1363.56   3
  -1  -5  -5 25088.1 770.668   5
   1  -5   6 13795.1 1028.73   3
  -1  -5  -6 13611.1 477.667   5
   1  -5   6 14751.5 710.949   4
   1  -5   7 9550.63 609.065   4
   1  -5   7 9243.71 884.679   3
   1  -5   8 9509.07 659.114   4
   1  -5   8 8648.09 893.661   3
   1  -5   9 16627.7 1278.11   3
   1  -5  10 6500.03 814.055   3
   1  -5  11 2553.99 571.648   3
   1  -5  12 1769.71 519.928   3
   1  -5  13 1953.09 545.420   3
  -1  -4  14 329.345 276.725   3
  -1  -4  13 3102.31 592.267   3
  -1  -4  12 633.977 317.809   3
  -1  -4  11 4672.09 659.888   3
  -1  -4  10 1865.96 437.242   3
  -1  -4   9 10062.9 931.150   3
  -1  -4   8 1479.83 384.479   3
   1  -4  -7 159.255 85.4440   3
  -1  -4   7 331.615 220.410   3
  -1  -4   6 5382.03 604.146   3
   1  -4  -6 4828.31 288.125   3
   1  -4  -5 7972.08 326.143   3
  -1  -4   5 7922.22 678.382   3
   1  -4  -4 28668.9 653.695   3
  -1  -4   4 27988.3 1211.05   3
  -1  -4   3 13489.4 776.724   3
  -1  -4   3 13145.2 546.791   1
  -1  -4   2 52647.1 1184.48   1
  -1  -4   2 50246.0 1407.68   3
  -1  -4   1 29279.4 933.589   3
  -1  -4   1 29367.4 652.893   4
  -1  -4   0 60370.7 1256.08   4
   1  -4   0 62628.6 1351.03   2
  -1  -4   0 61388.0 1255.68   3
  -1  -4  -1 81120.2 1295.67   3
  -1  -4  -1 76422.3 1677.86   4
   1  -4   1 85024.6 1790.14   1
  -1  -4  -1 80979.4 1744.28   5
   1  -4   1 82452.0 1582.02   2
  -1  -4  -2 58307.7 1570.30   4
   1  -4   2 62677.3 1335.24   2
  -1  -4  -2 60711.1 1373.35   5
  -1  -4  -2 61024.6 921.818   3
   1  -4   2 63317.2 1503.47   1
   1  -4   3 65597.7 1427.20   2
   1  -4   4 69894.4 2029.35   3
   1  -4   4 70442.4 1538.56   2
   1  -4   5 5161.52 408.417   2
   1  -4   5 5544.67 603.725   3
   1  -4   6 8839.46 776.381   3
   1  -4   6 9038.65 551.589   4
   1  -4   7 4127.59 569.843   3
   1  -4   7 4093.89 409.470   4
   1  -4   8 9975.39 898.420   3
   1  -4   8 10576.8 713.795   4
   1  -4   9 12120.2 1044.40   3
   1  -4  10 1165.61 382.685   3
   1  -4  11 2036.24 507.080   3
   1  -4  12 533.748 340.429   3
   1  -4  13 2156.68 542.578   3
  -1  -3  15-326.069 318.381   3
  -1  -3  14 795.902 367.776   3
  -1  -3  13 399.702 270.574   3
  -1  -3  12 439.835 248.333   3
  -1  -3  11 3045.47 530.973   3
  -1  -3  10 4867.57 652.092   3
  -1  -3   9 9777.08 863.348   3
  -1  -3   8 32544.4 1512.98   3
   1  -3  -8 32209.9 1104.80   3
   1  -3  -7 20121.4 769.209   3
  -1  -3   7 19629.3 1126.04   3
  -1  -3   6 15517.9 956.769   3
   1  -3  -6 16259.0 605.830   3
   1  -3  -5 29797.3 734.129   3
  -1  -3   5 31959.0 1281.80   3
  -1  -3   4 54509.2 1623.93   3
   1  -3  -4 53781.9 968.324   3
   1  -3  -3 39742.6 810.019   3
  -1  -3   3 39349.7 1252.73   3
  -1  -3   2 50400.8 1367.42   5
  -1  -3   2 48255.5 970.034   1
  -1  -3   2 46978.0 1243.00   3
  -1  -3   1 11319.7 297.982   4
  -1  -3   1 11394.6 567.474   5
  -1  -3   1 10323.4 473.461   3
  -1  -3   0 51963.4 1010.48   4
  -1  -3   0 55031.2 1064.97   3
   1  -3   0 50954.1 1107.46   2
   1  -3   1 26663.9 829.095   1
  -1  -3  -1 26915.3 566.901   3
   1  -3   1 28071.9 782.183   2
  -1  -3  -1 25510.3 806.570   4
   1  -3   2 11148.8 524.808   1
  -1  -3  -2 10386.6 570.965   4
   1  -3   2 10771.2 480.712   2
   1  -3   3 14013.2 586.053   2
   1  -3   4 83043.4 2054.70   3
   1  -3   4 81920.1 1676.16   2
   1  -3   5 40295.0 1494.37   3
   1  -3   5 40324.1 1163.94   4
   1  -3   6 23735.1 942.377   4
   1  -3   6 22853.2 1198.64   3
   1  -3   7 45744.2 1448.01   4
   1  -3   7 45692.3 1786.37   3
   1  -3   8 46842.9 1634.75   4
   1  -3   8 49323.3 1934.83   3
   1  -3   9 2108.37 439.792   3
   1  -3  10 7162.16 805.803   3
   1  -3  11 10871.7 1015.98   3
   1  -3  12 3723.30 649.562   3
   1  -3  13 1570.95 423.168   3
   1  -3  14 1953.83 550.504   3
  -1  -2  15 700.946 363.645   3
  -1  -2  14 3559.23 619.192   3
  -1  -2  13 3912.32 635.830   3
  -1  -2  12 499.600 274.510   3
  -1  -2  11 2524.52 487.540   3
  -1  -2  10 2426.31 442.107   3
  -1  -2   9 13547.8 973.726   3
  -1  -2   8 3686.05 496.855   3
   1  -2  -7 3398.96 337.708   3
  -1  -2   7 3273.26 462.808   3
   1  -2  -6 17517.7 692.035   3
  -1  -2   6 16198.0 905.948   3
  -1  -2   5 25834.9 1073.80   3
   1  -2  -5 26108.6 750.482   3
   1  -2  -4 4144.04 257.237   3
  -1  -2   4 3737.25 391.187   3
  -1  -2   4 4230.69 375.213   5
   1  -2  -3 43076.5 832.244   3
  -1  -2   3 44097.3 1173.57   5
  -1  -2   3 42568.5 1194.25   3
  -1  -2   2 139834. 2243.64   3
  -1  -2   2 140534. 2258.65   5
  -1  -2   2 141055. 1780.09   1
  -1  -2   1 97146.5 1597.92   3
   1  -2   0 94824.7 1536.83   2
  -1  -2   0 94473.4 1396.09   3
  -1  -2   0 98644.5 1395.25   4
  -1  -2  -1 967283. 10077.4   3
   1  -2   1 986392. 10562.3   1
  -1  -2  -1 959876. 10551.6   4
   1  -2   2 327087. 4004.13   2
  -1  -2  -2 326766. 4294.58   4
   1  -2   3 12345.3 527.003   2
  -1  -2  -3 11593.8 615.700   4
   1  -2   4 153236. 2527.19   2
   1  -2   5 24093.9 1054.51   3
   1  -2   5 23862.5 886.194   4
   1  -2   6 11918.8 806.642   3
   1  -2   6 10928.0 650.584   4
   1  -2   7 19020.2 1096.14   3
   1  -2   7 19636.7 973.522   4
   1  -2   8 2529.30 428.930   3
  -1  -2  -9 9391.25 506.073   5
   1  -2   9 8441.62 793.433   3
   1  -2  10 2739.15 485.376   3
  -1  -2 -10 2012.76 249.595   5
   1  -2  11 1106.98 360.482   3
   1  -2  12 3072.08 558.282   3
   1  -2  13 2198.68 501.029   3
   1  -2  14 2064.44 503.469   3
   1  -2  15 2153.68 528.575   3
  -1  -1  16-378.193 324.336   3
  -1  -1  15 515.583 365.852   3
  -1  -1  14 436.701 335.128   3
  -1  -1  13-144.795 237.965   3
  -1  -1  12 635.038 278.785   3
  -1  -1  11 8674.71 779.353   3
  -1  -1  10 4451.15 563.311   3
  -1  -1   9 15844.7 989.739   3
  -1  -1   8 19525.3 1049.62   3
  -1  -1   7 27143.1 1179.93   3
   1  -1  -6 59076.9 1467.61   3
  -1  -1   6 54447.9 1635.50   3
  -1  -1   5 84304.5 1726.43   5
  -1  -1   5 77675.3 1850.16   3
   1  -1  -5 82079.5 1613.40   3
   1  -1  -4 37797.8 896.497   3
  -1  -1   4 40336.4 1055.99   5
  -1  -1   4 37226.8 1097.35   3
  -1  -1   3 93692.3 1710.98   3
  -1  -1   3 91068.7 1593.04   5
   1  -1  -3 95647.1 1470.79   3
  -1  -1   2 39796.3 936.537   3
   1  -1  -2 39091.3 774.979   3
  -1  -1   1 48865.5 906.055   3
   1  -1   0 2936.93 177.925   1
   1  -1   0 2765.54 184.713   2
  -1  -1   0 2707.56 157.791   3
  -1  -1   0 3007.02 147.632   2
  -1  -1  -1 19603.2 537.118   2
   1  -1   1 20090.8 544.847   2
  -1  -1  -2 52059.2 1159.46   4
   1  -1   2 50846.6 1043.92   2
  -1  -1  -3 36314.0 1056.26   4
   1  -1   3 36629.5 956.501   2
   1  -1   4 44559.0 1173.60   4
  -1  -1  -4 42141.3 1264.05   4
   1  -1   5 34316.2 1118.66   4
   1  -1   5 33393.0 1154.30   3
   1  -1   6 28577.4 1184.35   3
   1  -1   6 28611.1 1136.31   4
   1  -1   7 69869.9 2008.85   4
   1  -1   7 68070.8 2020.93   3
   1  -1   8 25598.1 1265.08   3
   1  -1   9 25500.0 1308.04   3
  -1  -1  -9 24930.7 945.756   5
   1  -1  10 39185.7 1697.26   3
  -1  -1 -10 36355.6 1218.98   5
  -1  -1 -11 6324.46 515.584   5
   1  -1  11 6292.66 709.160   3
   1  -1  12 2725.07 515.773   3
   1  -1  13 3157.09 568.539   3
   1  -1  14 642.897 318.287   3
   1  -1  15 55.3563 228.010   3
  -1   0  15 1016.10 381.076   3
  -1   0  14 781.043 299.030   3
  -1   0  13 556.493 293.673   3
  -1   0  12 13267.3 1028.35   3
  -1   0  11 6777.73 696.529   3
  -1   0  10 1174.24 320.255   3
  -1   0   9 1741.48 325.770   3
  -1   0   8 3564.90 431.262   3
  -1   0   7 10421.7 661.345   3
  -1   0   6 54528.6 1270.37   5
  -1   0   6 47587.4 1375.20   3
   1   0  -5 183652. 2942.49   3
  -1   0   5 181374. 2936.97   3
  -1   0   5 185616. 2656.45   5
  -1   0   4 10758.5 526.993   3
  -1   0   4 9371.51 390.600   5
   1   0  -4 10244.6 500.422   3
   1   0  -3 91224.4 1527.05   3
  -1   0   3 95744.1 1612.68   3
   1   0  -2 163968. 2191.82   3
  -1   0   2 167815. 2213.88   3
   1   0  -1 640885. 6826.46   3
  -1   0   1 630619. 6803.46   3
   1   0   0 1224.18 104.765   2
  -1   0  -1 90809.8 1370.15   2
   1   0   1 90321.3 1362.42   2
  -1   0  -2 96044.6 1597.04   2
   1   0   2 94533.5 1590.75   2
   1   0   3 103869. 1872.37   4
  -1   0  -3 103371. 1861.63   2
   1   0   4 140399. 2497.06   4
  -1   0  -4 135791. 2459.79   2
  -1   0  -4 140695. 2487.77   4
   1   0   5 14916.8 693.617   3
   1   0   5 14766.3 785.331   4
   1   0   6 8399.85 596.317   3
   1   0   7 24048.3 1075.88   3
   1   0   8 354.712 165.761   3
  -1   0  -9 143.847 126.029   5
   1   0   9 607.269 256.291   3
   1   0  10 185.393 154.108   3
  -1   0 -10-20.8528 153.645   5
  -1   0 -11 10392.6 720.311   5
   1   0  11 11021.9 891.861   3
   1   0  12 13444.5 1038.41   3
  -1   0 -12 10826.7 761.761   5
   1   0  13 1113.09 370.699   3
   1   0  14 6487.89 767.561   3
  -1   1  14 15.9923 181.390   3
  -1   1  13 81.3196 183.088   3
  -1   1  12 981.799 333.209   3
  -1   1  11 8647.84 770.706   3
  -1   1  10 3561.78 461.130   3
  -1   1   9 17094.2 940.780   3
  -1   1   8 18053.7 911.493   3
  -1   1   7 27594.8 1059.67   3
  -1   1   6 56543.7 1416.10   3
  -1   1   5 82064.2 1629.57   3
  -1   1   5 84791.8 1332.26   5
   1   1  -4 42494.2 1184.33   3
  -1   1   4 41973.4 974.266   3
  -1   1   3 96802.5 1518.34   3
   1   1  -3 99683.1 1797.59   3
   1   1  -2 46361.4 985.426   3
  -1   1   2 45989.8 851.268   3
   1   1  -1 44108.4 862.552   3
   1   1   0 2244.59 145.463   3
   1   1   0 2495.40 138.612   2
  -1   1   0 2039.59 157.905   2
  -1   1  -1 21273.0 568.013   2
  -1   1  -1 20560.6 541.499   1
   1   1   1 22424.9 600.539   4
   1   1   2 53179.5 1182.03   4
  -1   1  -2 52327.1 1041.42   2
  -1   1  -3 30314.4 873.268   2
   1   1   3 30472.7 994.498   4
   1   1   4 43874.8 1350.87   4
  -1   1  -4 41616.8 1154.20   2
   1   1   5 31567.7 962.459   3
   1   1   6 31509.7 1079.73   3
   1   1   7 70190.7 1804.92   3
   1   1   8 25694.9 1113.31   3
  -1   1  -9 24396.0 1138.90   5
   1   1   9 24684.7 1143.03   3
  -1   1 -10 37847.2 1465.23   5
   1   1  10 38429.6 1524.06   3
   1   1  11 7859.76 713.456   3
  -1   1 -11 7636.84 678.388   5
   1   1  12 3064.17 485.440   3
  -1   1 -12 1702.06 346.668   5
   1   1  13 3205.24 524.672   3
  -1   2  12 702.622 244.516   3
  -1   2  11 2110.89 367.287   3
  -1   2  10 3221.83 404.986   3
  -1   2   9 11453.3 694.749   3
  -1   2   8 4818.16 420.424   3
  -1   2   7 3114.25 326.628   3
   1   2  -6 16570.9 698.716   4
  -1   2   6 17495.9 666.066   3
   1   2  -5 24474.8 774.420   4
  -1   2   5 26335.4 757.798   3
  -1   2   4 3078.29 218.897   3
   1   2  -4 1826.09 171.626   4
   1   2  -3 46457.4 805.821   4
   1   2  -3 50275.2 1311.80   3
   1   2  -3 48295.3 878.767   1
   1   2  -2 135163. 2235.65   3
   1   2  -1 96868.4 1626.67   3
   1   2   0 118918. 1655.55   3
  -1   2  -1 986971. 10439.8   2
  -1   2  -1 989122. 10545.2   1
   1   2   1 956001. 10052.4   3
  -1   2  -2 298552. 3858.16   1
   1   2   2 290727. 3284.44   3
  -1   2  -2 301043. 3794.23   2
  -1   2  -3 23299.8 735.728   2
  -1   2  -3 23335.9 762.507   1
  -1   2  -4 152719. 2514.52   2
   1   2   5 29091.6 836.181   3
   1   2   6 9097.95 506.870   3
   1   2   7 23228.6 894.225   3
  -1   2  -8 2694.20 382.591   5
   1   2   8 2577.07 317.845   3
  -1   2  -9 8777.60 740.960   5
   1   2   9 9785.32 659.970   3
  -1   2 -10 2540.09 400.044   5
   1   2  10 2996.51 407.646   3
  -1   2 -11 777.054 215.125   5
   1   2  11 774.336 250.938   3
  -1   2 -12 2990.37 473.567   5
  -1   2 -13 1568.52 367.057   5
  -1   3  11 2657.37 367.864   3
  -1   3  10 5014.24 462.308   3
  -1   3   9 9708.62 591.195   3
  -1   3   8 33078.3 1043.96   3
   1   3  -7 16191.2 743.568   2
  -1   3   7 18905.8 713.841   3
   1   3  -6 14747.3 626.057   2
  -1   3   6 16750.2 593.433   3
   1   3  -5 34546.1 855.548   2
   1   3  -5 34524.9 935.591   1
   1   3  -4 45511.7 845.245   2
  -1   3   4 44771.9 718.194   5
   1   3  -4 46047.2 1045.35   1
   1   3  -2 46578.6 1313.25   3
   1   3  -1 10764.4 535.067   3
   1   3   0 49909.8 1097.79   3
  -1   3  -1 26108.0 723.474   2
   1   3   1 26910.2 647.881   3
  -1   3  -2 12082.3 510.803   2
   1   3   2 10779.1 304.773   3
  -1   3  -3 12590.2 553.738   2
  -1   3  -4 83814.0 1692.77   2
   1   3   5 40619.9 793.902   3
   1   3   6 20414.0 623.116   3
  -1   3  -6 20307.3 1056.44   5
   1   3   7 39906.7 1015.94   3
  -1   3  -7 39299.5 1572.28   5
  -1   3  -8 51795.3 1899.45   5
   1   3   8 49934.1 1265.75   3
  -1   3  -9 2504.73 427.306   5
   1   3   9 2695.71 306.093   3
  -1   3 -10 4394.80 585.449   5
   1   3  10 5220.92 438.254   3
  -1   3 -11 10889.8 925.607   5
  -1   3 -12 3347.45 528.421   5
  -1   3 -13 1885.88 439.672   5
  -1   3 -14 674.891 311.050   5
   1   4  -7 252.422 121.761   2
   1   4  -6 3740.88 269.120   2
   1   4  -5 8099.02 335.753   2
  -1   4   4 25542.0 576.107   5
   1   4  -4 25821.5 531.120   2
  -1   4   3 16128.6 566.147   5
  -1   4   2 54616.4 1285.76   5
   1   4  -1 26837.0 989.844   3
   1   4   0 55019.0 1326.20   3
   1   4   1 75257.6 1414.48   3
  -1   4  -2 73229.6 1447.62   2
  -1   4  -3 77987.2 1582.46   2
  -1   4  -4 66077.8 1504.12   2
  -1   4  -4 66954.1 2000.53   5
  -1   4  -5 4435.50 534.250   5
  -1   4  -6 11880.2 897.514   5
  -1   4  -7 3278.41 490.193   5
  -1   4  -8 10870.7 877.030   5
  -1   4  -9 11131.7 908.093   5
  -1   4 -10 1235.79 349.297   5
  -1   4 -11 2157.40 475.008   5
  -1   4 -12-129.468 191.714   5
  -1   4 -13 2319.21 498.731   5
  -1   4 -14 3112.82 543.693   5
   1   5  -6 11322.8 436.635   2
   1   5  -5 34411.0 687.286   2
  -1   5   3 8103.87 451.264   5
  -1   5   2 9531.12 553.694   5
  -1   5   1 96.0383 122.652   5
  -1   5   0 12615.3 764.534   5
  -1   5  -1 15547.6 905.624   5
  -1   5  -2 9542.89 732.046   5
  -1   5  -3 5726.51 595.845   5
  -1   5  -4 1465.77 355.448   5
  -1   5  -5 25892.3 1367.80   5
  -1   5  -6 12973.6 982.634   5
  -1   5  -7 11821.2 939.766   5
  -1   5  -8 8331.02 845.909   5
  -1   5  -9 13405.3 1089.61   5
  -1   5 -10 6727.08 833.460   5
  -1   5 -11 3959.39 642.060   5
  -1   5 -12 1060.16 397.004   5
  -1   5 -13 1868.60 439.698   5
  -1   6   3 10199.2 539.935   5
  -1   6   2 11796.8 675.225   5
  -1   6   1 36931.4 1352.86   5
  -1   6   0 29399.0 1253.99   5
  -1   6  -1 10868.7 796.099   5
  -1   6  -2 21220.6 1150.76   5
  -1   6  -3 7230.49 702.782   5
  -1   6  -4 16270.0 1090.74   5
  -1   6  -5 508.284 225.226   5
  -1   6  -6 12599.8 1026.00   5
  -1   6  -7 31.0733 248.029   5
  -1   6  -8 1447.08 471.213   5
  -1   6  -9-479.250 319.505   5
  -1   6 -10 242.964 269.843   5
  -1   6 -11 2079.95 505.448   5
  -1   6 -12 712.850 361.618   5
  -1   7   2 2630.75 340.531   5
  -1   7   1 853.190 222.392   5
  -1   7   0 4620.36 541.017   5
  -1   7  -1 534.759 249.960   5
  -1   7  -2 289.535 202.095   5
  -1   7  -3 2993.02 505.857   5
  -1   7  -4 3142.74 544.226   5
  -1   7  -5 9210.94 937.965   5
  -1   7  -6 1730.24 433.764   5
  -1   7  -7 5197.92 732.924   5
  -1   7  -8 5463.55 759.681   5
  -1   7  -9 2455.06 491.762   5
  -1   7 -10 2370.17 544.856   5
  -1   7 -11 1182.89 453.928   5
  -1   8   1 9259.33 713.325   5
  -1   8   0 5438.45 604.699   5
  -1   8  -1 11552.7 913.274   5
  -1   8  -2 4674.34 619.716   5
  -1   8  -3 3511.49 551.758   5
  -1   8  -4 1222.53 415.363   5
  -1   8  -5 3628.39 626.991   5
  -1   8  -6 871.012 364.759   5
  -1   8  -7 629.435 346.153   5
  -1   8  -8 1223.01 461.037   5
  -1   8  -9-59.4506 278.793   5
  -1   9  -1 737.133 301.755   5
  -1   9  -2 1514.43 407.680   5
  -1   9  -3 1678.97 427.470   5
  -1   9  -4 549.729 344.488   5
  -1   9  -5 1173.79 433.187   5
  -1   9  -6 695.948 378.330   5
  -1   9  -7 1362.98 442.921   5
  -1   9  -8 2255.80 556.967   5
  -2 -10   7 1100.30 423.692   3
  -2 -10   6 672.647 274.067   3
  -2 -10   5 626.784 357.205   3
   2 -10  -5-55.2706 243.516   2
   2 -10  -4 3663.08 640.098   2
   2 -10  -3 440.401 296.865   2
   2 -10  -2 1267.61 361.980   1
  -2 -10   1 397.377 251.485   1
   2 -10  -1 327.208 333.032   1
   2 -10   0 840.911 367.573   1
  -2 -10   0 1085.95 342.906   1
   2 -10   1 1021.32 352.232   1
   2 -10   2 1868.59 423.949   1
   2 -10   3 1322.88 455.849   3
   2 -10   3 2873.77 552.507   1
   2 -10   4 438.866 291.151   3
   2 -10   5 190.473 291.625   3
   2 -10   6-142.662 324.757   3
  -2  -9   9-329.121 327.281   3
  -2  -9   8 1064.21 408.192   3
  -2  -9   7 1298.84 443.262   3
  -2  -9   6 904.327 318.179   3
  -2  -9   5 240.357 250.017   3
   2  -9  -4 9977.34 900.996   2
  -2  -9   4 10364.1 930.900   3
  -2  -9   3 1094.88 296.447   1
  -2  -9   3 1288.68 347.022   3
   2  -9  -3 1451.32 357.089   2
   2  -9  -2 2136.62 421.308   2
   2  -9  -2 1380.27 355.540   1
  -2  -9   2 1630.90 348.937   1
  -2  -9   1 137.824 202.126   1
   2  -9  -1-251.615 327.715   1
   2  -9  -1 411.176 231.961   2
   2  -9   0 954.691 308.514   3
   2  -9   0 1884.23 442.903   1
   2  -9   0 2484.25 422.862   2
   2  -9   1 2444.93 472.702   1
   2  -9   1 3358.60 460.889   2
   2  -9   1 2395.91 505.477   3
   2  -9   2 73.2301 249.433   3
   2  -9   2-192.278 224.776   1
   2  -9   3 584.884 326.610   1
   2  -9   3 400.658 291.711   3
   2  -9   4 1843.55 475.476   3
   2  -9   5 1198.91 452.406   3
   2  -9   6 404.621 376.344   3
   2  -9   7 1606.54 486.069   3
  -2  -8  10 637.360 338.947   3
  -2  -8   9 550.636 370.163   3
  -2  -8   8-83.6195 312.160   3
  -2  -8   7 517.748 281.754   3
  -2  -8   6 1591.50 387.990   3
  -2  -8   5 1143.93 344.722   3
  -2  -8   4 5976.88 691.801   3
  -2  -8   4 5550.53 507.636   1
  -2  -8   3 1429.16 301.089   1
  -2  -8   3 2353.90 419.354   3
   2  -8  -3 1441.75 347.124   2
  -2  -8   2 9010.53 712.643   3
   2  -8  -2 9329.06 782.759   2
  -2  -8   2 9229.19 692.156   1
   2  -8  -2 8848.99 697.968   3
  -2  -8   1 1867.98 320.000   3
   2  -8  -1 2282.48 420.553   1
   2  -8  -1 2619.09 413.671   2
   2  -8  -1 1964.22 374.886   3
   2  -8   0 8912.53 791.313   1
   2  -8   0 8962.06 779.164   3
   2  -8   0 10005.5 738.975   2
  -2  -8   0 9117.57 594.082   3
   2  -8   1 3575.86 510.576   1
   2  -8   1 3977.02 467.676   2
   2  -8   1 3920.43 574.547   3
   2  -8   2 3595.25 436.752   2
   2  -8   2 3653.34 502.986   1
   2  -8   2 3106.04 531.798   3
   2  -8   3 3437.67 499.321   1
   2  -8   3 3018.13 389.576   2
   2  -8   3 4147.32 645.614   3
   2  -8   4 2331.43 360.113   2
   2  -8   4 1939.63 501.758   3
   2  -8   5 901.130 360.773   3
   2  -8   6 831.715 380.579   3
   2  -8   7 623.626 362.129   3
   2  -8   8-966.265 449.128   3
   2  -8   9 313.606 385.228   3
  -2  -7  11 421.360 347.498   3
  -2  -7  10 692.187 313.953   3
  -2  -7   9 1032.84 433.018   3
  -2  -7   8 1100.23 407.551   3
  -2  -7   7 2006.02 467.774   3
  -2  -7   6 7009.44 765.413   3
  -2  -7   5 3880.91 559.119   3
  -2  -7   4 5442.89 454.739   1
  -2  -7   4 5737.62 651.058   3
  -2  -7   3 3612.87 483.837   3
  -2  -7   3 4515.45 430.743   1
  -2  -7   2 4603.25 434.067   1
  -2  -7   2 4711.01 503.646   3
   2  -7  -2 4233.28 488.503   2
   2  -7  -1 3848.33 505.575   1
   2  -7  -1 4324.72 490.348   2
  -2  -7   1 3801.37 403.734   3
   2  -7   0 1050.45 266.321   2
  -2  -7   0 907.935 205.056   3
   2  -7   0 842.240 268.274   1
   2  -7   1 4886.02 548.670   1
   2  -7   1 4693.68 466.144   2
  -2  -7  -1 4587.80 361.109   3
   2  -7   2 226.022 155.931   2
   2  -7   2-0.56936 181.414   3
   2  -7   3 3451.52 412.774   2
   2  -7   3 3506.28 477.257   1
   2  -7   3 3930.75 577.898   3
   2  -7   4 4941.87 684.882   3
   2  -7   4 4248.45 467.163   2
   2  -7   5 615.144 300.399   3
   2  -7   5 435.263 226.635   2
   2  -7   6 3030.27 415.577   2
   2  -7   6 2947.00 582.617   3
   2  -7   7 6199.92 593.433   2
   2  -7   7 6481.03 846.299   3
   2  -7   8 1408.83 430.244   3
   2  -7   9 5176.35 816.925   3
   2  -7  10 989.269 444.477   3
  -2  -6  12 4574.42 781.188   3
  -2  -6  11 594.815 340.236   3
  -2  -6  10 1809.57 477.817   3
  -2  -6   9 444.786 241.052   3
  -2  -6   8 2451.41 524.086   3
  -2  -6   7 1142.15 339.635   3
  -2  -6   6 1423.73 357.423   3
  -2  -6   5 1288.01 348.454   3
  -2  -6   4 3218.16 326.843   1
  -2  -6   4 2532.11 396.836   3
  -2  -6   3 4907.23 514.132   3
  -2  -6   3 4961.20 397.443   1
   2  -6  -2 11918.9 731.500   2
  -2  -6   2 13341.8 783.176   3
  -2  -6   2 13942.9 692.315   1
   2  -6  -1 13086.0 772.006   2
  -2  -6   1 11357.2 358.686   2
  -2  -6   1 11970.6 667.012   3
   2  -6   0 21684.3 1061.98   1
   2  -6   0 23797.5 1047.33   2
  -2  -6   0 21846.4 835.694   3
   2  -6   1 18061.4 887.218   2
   2  -6   1 17356.0 930.437   1
  -2  -6  -1 19049.0 698.676   3
   2  -6   2 10913.7 671.978   2
   2  -6   2 10188.9 714.525   1
   2  -6   3 12821.7 803.590   1
   2  -6   3 13238.1 733.895   2
   2  -6   4 24030.3 1035.07   2
   2  -6   4 23726.6 1319.42   3
   2  -6   5 13884.9 1063.77   3
   2  -6   5 11925.7 749.522   2
   2  -6   6 1661.51 287.853   2
   2  -6   6 2791.63 538.118   3
   2  -6   7 3866.80 455.433   2
   2  -6   7 3621.04 426.520   4
   2  -6   7 3660.42 594.607   3
   2  -6   8 297.611 162.783   4
   2  -6   8-286.360 320.746   3
   2  -6   9 135.411 340.358   3
   2  -6  10 1423.96 448.257   3
   2  -6  11 105.452 229.296   3
  -2  -5  13 488.893 382.596   3
  -2  -5  12 513.227 332.558   3
  -2  -5  11 2122.67 510.592   3
  -2  -5  10 8221.32 915.481   3
  -2  -5   9 6935.57 792.778   3
  -2  -5   8 2545.56 491.220   3
  -2  -5   7 9013.35 814.602   3
   2  -5  -6 14714.0 599.607   3
  -2  -5   6 15402.6 1023.84   3
  -2  -5   5 7502.68 680.436   3
   2  -5  -5 7695.91 437.122   3
  -2  -5   4 4072.59 481.929   3
   2  -5  -4 3447.67 298.526   3
  -2  -5   3 33481.7 1303.42   3
  -2  -5   3 30223.4 893.420   1
  -2  -5   2 10110.3 644.157   3
  -2  -5   2 10077.1 511.217   1
   2  -5  -1 20095.7 886.481   2
  -2  -5   1 18781.8 445.228   2
  -2  -5   1 19851.1 804.293   3
   2  -5   0 182.922 141.932   2
  -2  -5   0 233.101 118.033   3
  -2  -5   0 44.1220 56.5661   2
   2  -5   0 39.6603 117.553   1
  -2  -5  -1 16834.4 732.547   4
   2  -5   1 16588.1 789.640   2
   2  -5   1 15798.4 818.977   1
  -2  -5  -1 16581.7 614.468   3
   2  -5   2 6717.32 500.027   2
   2  -5   2 7194.30 559.115   1
   2  -5   3 4529.28 410.982   2
   2  -5   4 5822.97 489.139   2
   2  -5   5 15026.9 810.064   2
   2  -5   6 18417.2 1206.58   3
   2  -5   6 18769.6 957.183   2
   2  -5   7 7109.73 595.227   4
   2  -5   7 7366.82 799.305   3
   2  -5   8 9487.93 720.050   4
   2  -5   8 9891.43 970.402   3
   2  -5   9 8196.06 705.597   4
   2  -5   9 8121.53 922.958   3
   2  -5  10 4336.20 556.576   4
   2  -5  10 4819.56 736.759   3
   2  -5  11 1913.66 524.934   3
   2  -5  12 2399.62 562.466   3
  -2  -4  14 2362.90 603.305   3
  -2  -4  13 413.844 282.064   3
  -2  -4  12 2854.06 615.879   3
  -2  -4  11 1890.89 491.799   3
  -2  -4  10 4722.80 675.599   3
  -2  -4   9 4056.94 611.959   3
  -2  -4   8 1971.39 408.829   3
  -2  -4   7 113.212 164.524   3
  -2  -4   6 3319.35 457.190   3
   2  -4  -6 4237.73 330.565   3
  -2  -4   5 22889.3 1133.50   3
   2  -4  -5 22093.1 748.447   3
  -2  -4   4 10279.7 718.721   3
   2  -4  -4 9439.28 500.214   3
  -2  -4   3 2914.75 359.930   3
  -2  -4   3 2601.45 212.170   1
  -2  -4   2 26672.7 729.535   1
  -2  -4   2 27135.9 987.857   3
   2  -4  -1 36132.1 1120.23   2
  -2  -4   1 33133.7 595.148   2
  -2  -4   1 34424.9 1030.36   3
   2  -4   0 45482.5 1290.98   2
   2  -4   0 45551.6 1324.61   1
  -2  -4   0 45732.1 947.638   2
  -2  -4   0 45023.6 1085.44   3
   2  -4   1 57811.7 1471.65   2
   2  -4   1 55048.1 1468.42   1
  -2  -4  -1 56986.7 1162.55   3
   2  -4   2 126151. 2436.11   1
   2  -4   2 128267. 2375.91   2
   2  -4   3 110657. 2180.88   2
   2  -4   4 4594.59 443.406   2
   2  -4   5 50018.8 1522.93   2
   2  -4   6 1319.76 297.779   3
   2  -4   6 1057.49 233.588   2
   2  -4   7 9636.96 866.746   3
   2  -4   7 10657.9 735.602   4
   2  -4   8 4046.29 488.933   4
   2  -4   8 4960.76 669.098   3
   2  -4   9 1938.56 371.102   4
   2  -4   9 2181.31 485.082   3
   2  -4  10 182.664 179.851   4
   2  -4  10 435.195 226.220   3
   2  -4  11 760.002 363.666   3
   2  -4  12 1049.35 416.353   3
   2  -4  13 2683.52 588.812   3
  -2  -3  14-340.811 346.565   3
  -2  -3  13 150.024 277.899   3
  -2  -3  12 1130.74 416.223   3
  -2  -3  11 4124.55 667.430   3
  -2  -3  10 1304.31 412.182   3
  -2  -3   9 6029.87 682.037   3
  -2  -3   8 8222.49 774.077   3
  -2  -3   7 31058.7 1423.92   3
  -2  -3   6 16244.3 966.967   3
   2  -3  -6 15662.6 670.416   3
  -2  -3   5 29692.6 1255.28   3
   2  -3  -5 30738.7 905.960   3
   2  -3  -4 51254.2 1200.51   3
  -2  -3   4 49262.0 1546.91   3
  -2  -3   3 38677.9 1227.58   3
  -2  -3   2 8694.81 507.904   3
  -2  -3   2 9044.42 323.434   1
   2  -3  -1 21279.9 782.882   2
  -2  -3   1 21114.8 456.452   2
  -2  -3   1 20514.5 715.777   3
  -2  -3   0 10874.7 482.058   3
   2  -3   0 12563.8 609.853   2
   2  -3   0 12205.0 592.728   1
  -2  -3   0 11061.1 404.452   2
   2  -3   1 6145.72 423.592   2
  -2  -3  -1 6290.37 367.221   2
   2  -3   1 5840.06 412.540   1
   2  -3   2 20040.2 796.543   2
  -2  -3  -2 20577.1 790.464   2
   2  -3   3 60555.0 1510.17   2
   2  -3   4 19488.6 849.578   2
   2  -3   5 10246.1 639.620   2
   2  -3   6 17649.0 901.176   4
   2  -3   6 16204.6 869.713   2
   2  -3   7 11427.5 883.418   3
   2  -3   7 12463.0 779.937   4
   2  -3   8 19932.7 1051.25   4
   2  -3   8 20442.7 1263.74   3
   2  -3   9 6501.90 763.329   3
   2  -3   9 7358.85 698.080   4
   2  -3  10 17942.0 1280.55   3
   2  -3  10 18573.6 1206.46   4
   2  -3  11 10097.9 1008.44   3
   2  -3  12 5457.41 750.755   3
   2  -3  13 1046.52 369.198   3
   2  -3  14 1859.58 526.279   3
  -2  -2  15 748.218 398.183   3
  -2  -2  14 1046.66 380.035   3
  -2  -2  13 874.637 402.964   3
  -2  -2  12 4001.99 655.382   3
  -2  -2  11 4237.29 645.294   3
  -2  -2  10 9640.84 904.789   3
  -2  -2   9 1743.58 400.965   3
  -2  -2   8 2586.65 424.974   3
  -2  -2   7 5115.22 569.265   3
  -2  -2   6 3091.89 416.605   3
  -2  -2   5 20907.5 986.145   3
   2  -2  -5 19628.8 720.575   3
  -2  -2   4 87559.3 1990.58   3
   2  -2  -4 87611.3 1652.71   3
   2  -2  -3 33205.8 893.920   3
  -2  -2   3 32136.8 1024.69   3
  -2  -2   2 50624.8 1224.16   3
  -2  -2   1 64762.9 1327.68   3
  -2  -2   1 65194.8 1026.41   2
   2  -2  -1 63338.9 1369.20   2
  -2  -2   0 106194. 1708.71   3
   2  -2   0 107385. 1886.04   2
  -2  -2   0 101320. 1535.28   2
   2  -2   0 104101. 1782.47   1
   2  -2   1 94130.5 1791.36   2
   2  -2   1 93312.3 1705.66   1
  -2  -2  -1 98965.2 1663.72   2
   2  -2   2 124629. 2208.90   2
  -2  -2  -2 132081. 2237.18   2
   2  -2   3 92491.1 1910.65   2
   2  -2   4 20491.6 860.738   2
   2  -2   5 54446.5 1566.51   2
   2  -2   6 9064.06 649.297   4
   2  -2   7 7447.94 675.071   3
   2  -2   7 8145.87 658.107   4
   2  -2   8 1368.88 356.425   3
   2  -2   8 819.668 257.039   4
   2  -2   9 6675.18 682.868   4
   2  -2   9 7964.57 789.553   3
   2  -2  10 2854.29 471.336   3
   2  -2  11 2064.68 495.346   3
   2  -2  12 2574.01 552.524   3
   2  -2  13 4529.38 712.989   3
   2  -2  14 1122.58 447.106   3
   2  -2  15 3626.85 681.990   3
  -2  -1  16-835.401 424.575   3
  -2  -1  15 398.302 364.682   3
  -2  -1  14 841.438 389.083   3
  -2  -1  13 43.9632 234.378   3
  -2  -1  12 858.453 325.196   3
  -2  -1  11 925.529 359.338   3
  -2  -1  10 8149.33 788.731   3
  -2  -1   9 4899.24 599.890   3
  -2  -1   8 15076.9 957.566   3
  -2  -1   7 18647.1 992.202   3
  -2  -1   6 27202.3 1128.16   3
  -2  -1   5 37649.7 1236.16   3
  -2  -1   4 57058.3 1438.56   3
   2  -1  -4 55887.3 1252.81   3
  -2  -1   3 61455.6 1406.20   3
   2  -1  -3 62007.2 1303.52   3
  -2  -1   2 88721.0 1670.51   3
   2  -1  -2 91662.2 1621.52   3
  -2  -1   1 18976.3 520.559   2
   2  -1  -1 17861.9 622.767   2
   2  -1  -1 18685.3 543.687   1
  -2  -1   1 18387.0 618.898   3
   2  -1   0 12095.8 439.783   1
   2  -1   0 12137.9 521.464   2
  -2  -1   0 12050.2 435.238   2
   2  -1   1 12161.4 530.050   2
  -2  -1  -1 13099.3 510.590   2
  -2  -1  -2 11950.5 549.588   2
   2  -1   2 11945.1 560.829   2
   2  -1   3 7435.63 473.862   2
   2  -1   4 25468.2 968.028   2
   2  -1   5 74555.7 1879.21   4
   2  -1   6 30129.9 1220.22   4
   2  -1   7 21946.5 1112.88   4
   2  -1   8 40985.5 1622.00   3
   2  -1   8 42866.3 1686.58   4
   2  -1   9 41646.6 1744.97   3
   2  -1   9 44214.2 1839.29   4
   2  -1  10 5283.91 646.024   3
   2  -1  11 15907.1 1168.15   3
   2  -1  12 9356.54 930.353   3
   2  -1  13 1189.88 388.781   3
   2  -1  14 1888.24 500.054   3
   2  -1  15 725.192 406.210   3
  -2   0  15 581.468 331.368   3
  -2   0  14 20.3864 253.248   3
  -2   0  13 4076.37 605.848   3
  -2   0  12 4998.90 636.681   3
  -2   0  11 1231.28 372.164   3
  -2   0  10 4959.78 572.266   3
  -2   0   9 3676.35 485.903   3
  -2   0   8 7737.41 635.339   3
  -2   0   7 1140.24 270.044   3
  -2   0   7 1575.02 229.651   5
  -2   0   6 2933.86 350.824   3
  -2   0   5 1255.86 227.274   3
   2   0  -4 64934.5 1455.94   3
  -2   0   4 63476.7 1467.82   3
   2   0  -3 5592.81 357.791   3
  -2   0   3 5287.50 363.969   3
   2   0  -2 46514.4 980.051   2
   2   0  -2 51578.3 1136.29   3
  -2   0   2 50285.1 1119.94   3
   2   0  -1 93358.2 1257.70   1
  -2   0   1 90704.4 1505.95   2
   2   0  -1 97020.8 1569.73   2
   2   0  -1 96116.1 1633.07   3
  -2   0   0 279210. 3270.62   1
  -2   0   0 285531. 3552.99   2
   2   0   0 276915. 3528.94   2
   2   0   1 4353.62 301.276   2
  -2   0  -1 4397.15 293.161   2
   2   0   2 150224. 2426.71   2
  -2   0  -2 149694. 2384.88   2
   2   0   3 51482.6 1328.81   2
   2   0   4 53885.4 1498.53   4
   2   0   5 108809. 2415.04   4
   2   0   6 29997.2 1262.23   4
   2   0   7 3106.15 434.418   4
   2   0   8 15115.1 1043.99   4
   2   0   8 15144.0 929.016   3
   2   0   9 1442.28 343.293   3
   2   0  10 9395.93 812.602   3
   2   0  11 264.957 189.704   3
  -2   0 -11 182.633 132.420   5
  -2   0 -12-117.197 179.676   5
   2   0  12-302.699 226.208   3
   2   0  13 3388.58 563.236   3
  -2   1  14 509.556 330.373   3
  -2   1  13 60.3168 185.966   3
  -2   1  12 1133.00 295.221   3
  -2   1  11 456.003 204.286   3
  -2   1  10 8309.28 712.761   3
  -2   1   9 5752.11 558.338   3
  -2   1   8 13807.6 605.441   5
  -2   1   8 14958.8 838.428   3
  -2   1   7 17315.8 632.331   5
  -2   1   7 17337.6 839.615   3
  -2   1   6 32959.3 1100.11   3
  -2   1   5 40163.2 1154.32   3
  -2   1   4 59987.2 1361.51   3
   2   1  -3 50315.3 1256.23   3
   2   1  -2 92649.1 1415.76   2
   2   1  -2 93030.3 1675.49   3
   2   1  -1 14125.2 447.916   2
   2   1  -1 14398.6 546.059   3
   2   1   0 15115.7 545.314   3
  -2   1   0 14854.9 562.794   2
  -2   1   0 15032.9 509.297   1
   2   1   0 14426.3 492.903   2
  -2   1  -1 14062.5 514.236   1
  -2   1  -1 14402.0 582.135   2
   2   1   1 14675.3 554.773   2
  -2   1  -2 11395.3 542.061   2
   2   1   2 12285.1 572.368   2
   2   1   3 11044.7 613.777   4
   2   1   4 18702.4 887.986   4
   2   1   5 72943.7 1994.59   4
   2   1   6 32653.3 1387.39   4
   2   1   7 24350.9 1012.42   3
   2   1   8 41651.2 1494.77   3
   2   1   9 46067.5 1662.32   3
   2   1  10 8855.77 762.494   3
  -2   1 -11 14510.8 957.807   5
   2   1  11 13961.0 976.827   3
  -2   1 -12 6358.43 660.275   5
   2   1  12 6415.14 695.426   3
  -2   2  13 436.839 270.350   3
  -2   2  12 4460.86 550.947   3
  -2   2  11 4643.40 536.957   3
  -2   2  10 7451.60 627.731   3
  -2   2   9 1698.49 295.717   3
  -2   2   8 2384.53 214.286   5
  -2   2   8 2287.90 321.427   3
  -2   2   7 5001.32 276.325   5
  -2   2   7 5346.65 451.910   3
  -2   2   6 2606.98 294.931   3
  -2   2   5 19584.9 749.611   3
   2   2  -4 89752.5 1265.35   1
   2   2  -3 24427.3 527.961   2
   2   2  -2 56891.1 888.645   2
   2   2  -2 56392.5 1323.72   3
   2   2  -1 68293.8 1081.15   2
   2   2  -1 67564.5 1376.06   3
  -2   2   0 102108. 1841.85   2
   2   2   0 106891. 1752.99   3
   2   2   0 106095. 1646.83   2
  -2   2  -1 79287.4 1619.93   2
  -2   2  -1 78304.8 1562.50   1
   2   2   1 78100.6 1407.23   3
   2   2   1 76860.8 1556.23   4
   2   2   2 139754. 2470.01   4
  -2   2  -2 135733. 2346.90   2
   2   2   3 91742.7 2053.48   4
   2   2   4 27070.7 1149.70   4
   2   2   5 55384.5 1841.86   4
   2   2   7 10550.8 630.846   3
   2   2   8 229.397 138.817   3
   2   2   9 6080.66 557.820   3
   2   2  10 2358.62 371.332   3
  -2   2 -11 2615.76 446.986   5
   2   2  11 2373.06 377.805   3
  -2   2 -12 2767.68 476.847   5
  -2   2 -13 4228.47 583.271   5
  -2   3  11 3794.59 473.641   3
  -2   3  10 1569.54 288.928   3
  -2   3   9 3291.20 364.875   3
  -2   3   8 10143.1 614.501   3
   2   3  -8 9495.26 570.250   4
  -2   3   7 23905.9 509.959   5
   2   3  -7 26615.7 879.012   4
   2   3  -6 18875.3 660.173   4
   2   3  -6 17100.7 609.625   1
   2   3  -5 26214.7 708.204   1
   2   3  -2 12061.0 350.746   4
   2   3  -2 12323.4 629.713   3
   2   3  -1 18671.3 544.101   4
   2   3  -1 16448.6 658.975   3
   2   3   0 8984.85 442.515   4
   2   3   0 9458.88 470.564   3
   2   3   1 5282.12 313.279   3
   2   3   1 4906.28 381.969   4
   2   3   2 20740.0 893.290   4
   2   3   2 19249.6 586.555   3
   2   3   3 68247.9 1219.20   3
   2   3   7 14170.9 669.608   3
   2   3   8 21245.9 891.222   3
   2   3   9 6069.02 497.875   3
  -2   3 -10 17602.1 1147.79   5
  -2   3 -11 12770.3 1030.60   5
  -2   3 -12 4968.20 639.938   5
  -2   3 -13 1529.76 388.714   5
  -2   3 -14 1274.15 375.395   5
   2   4  -7 106.680 70.9971   2
   2   4  -6 3720.15 320.224   1
   2   4  -6 2897.32 207.323   2
   2   4  -1 37565.2 1169.33   3
   2   4   0 36544.4 1074.81   3
   2   4   1 67926.8 1393.60   3
   2   4   2 121931. 1870.61   3
   2   4   3 99430.6 1544.23   3
   2   4   4 9704.61 339.468   3
   2   4   5 50788.2 896.800   3
   2   4   6 753.863 104.316   3
   2   4   6 866.833 122.647   3
   2   4   7 8920.39 412.188   3
  -2   4  -9 2001.69 439.277   5
  -2   4 -10-76.2178 298.981   5
  -2   4 -11 148.426 204.845   5
  -2   4 -12 1523.14 421.866   5
  -2   4 -13 1760.41 457.464   5
  -2   4 -14 509.679 218.812   5
  -2   5   6 12237.2 367.211   5
  -2   5   5 10616.3 471.440   5
   2   5   0-49.0578 104.181   3
   2   5   1 14857.3 662.654   3
   2   5   2 7579.61 416.012   3
   2   5   3 2397.51 192.961   3
  -2   5  -7 5957.57 720.656   5
  -2   5  -8 8018.89 843.754   5
  -2   5  -9 9411.47 945.577   5
  -2   5 -10 4241.00 626.232   5
  -2   5 -11 3965.63 633.871   5
  -2   5 -12 4024.78 662.645   5
  -2   5 -13 274.773 253.202   5
  -2   6   5 720.586 147.852   5
  -2   6   4 3037.85 319.373   5
  -2   6   3 5133.66 455.359   5
  -2   6   2 10721.7 706.381   5
   2   6   1 20083.4 836.793   3
  -2   6  -4 24667.7 1390.08   5
  -2   6  -5 10260.4 954.266   5
  -2   6  -6 44.2462 216.980   5
  -2   6  -7 3941.35 644.588   5
  -2   6  -8 678.101 303.430   5
  -2   6  -9 567.587 290.196   5
  -2   6 -10 2387.15 567.555   5
  -2   6 -11 676.431 424.519   5
  -2   7   4 4959.36 436.369   5
  -2   7   3 3389.61 404.759   5
  -2   7   2 4193.21 480.028   5
  -2   7   1 3570.39 471.875   5
  -2   7   0 1041.41 266.134   5
  -2   7  -1 4374.88 579.385   5
  -2   7  -2 72.1880 221.650   5
  -2   7  -3 2488.64 489.089   5
  -2   7  -4 4610.83 655.698   5
  -2   7  -5-122.675 284.816   5
  -2   7  -6 4156.58 654.310   5
  -2   7  -7 5753.93 733.032   5
  -2   7  -8 3086.23 606.061   5
  -2   7  -9 5660.80 805.817   5
  -2   7 -10 1466.93 477.053   5
  -2   8   3 1034.61 258.115   5
  -2   8   2 8222.43 714.360   5
  -2   8   1 3049.78 480.328   5
  -2   8   0 8651.86 802.398   5
  -2   8  -1 4751.52 629.989   5
  -2   8  -2 3180.69 519.812   5
  -2   8  -3 2521.17 519.993   5
  -2   8  -4 2370.02 540.644   5
  -2   8  -5 658.016 317.280   5
  -2   8  -6 1328.46 486.053   5
  -2   8  -7 1444.39 486.277   5
  -2   8  -8 395.115 346.792   5
  -2   8  -9 419.003 335.252   5
  -2   9   2 1445.03 336.206   5
  -2   9   1 479.392 246.851   5
  -2   9   0 1685.72 406.772   5
  -2   9  -1 2345.65 490.971   5
  -2   9  -2 499.357 302.423   5
  -2   9  -3-28.5667 240.587   5
  -2   9  -4 2346.45 541.569   5
  -2   9  -5 792.669 347.227   5
  -2   9  -6 398.212 301.394   5
  -2   9  -7 1767.46 544.599   5
  -2  10   0 1104.12 330.122   5
  -2  10  -1 858.449 348.960   5
  -2  10  -2 1707.31 463.389   5
  -2  10  -3 1456.74 433.549   5
  -2  10  -4 1137.20 447.391   5
  -2  10  -5 275.025 286.419   5
  -2  11  -3 408.548 324.571   5
  -3 -10   7 357.157 323.672   3
  -3 -10   6 82.4069 232.176   3
   3 -10  -6 291.531 317.729   2
   3 -10  -5 794.322 351.084   2
   3 -10  -4 255.477 361.108   2
   3 -10  -3 726.563 360.071   2
   3 -10  -3-164.134 348.199   1
   3 -10  -2 1796.51 457.871   2
   3 -10  -2 1435.59 393.147   1
   3 -10  -1 1627.93 467.935   1
   3 -10   0 1466.09 461.696   1
   3 -10   1 1682.11 424.479   1
   3 -10   2 689.710 279.543   1
   3 -10   2 1124.93 435.342   3
   3 -10   3 357.549 251.817   3
   3 -10   4 266.533 349.099   3
   3 -10   5-86.7414 272.828   3
  -3  -9   8 995.594 461.693   3
  -3  -9   7 1634.30 468.000   3
  -3  -9   6 862.515 400.332   3
   3  -9  -6 536.535 343.527   2
  -3  -9   5 8322.91 843.022   3
   3  -9  -5 5543.43 741.568   2
  -3  -9   4 2844.05 508.765   3
   3  -9  -4 3369.35 574.526   2
   3  -9  -3 117.074 208.117   2
  -3  -9   3 55.1612 193.530   3
   3  -9  -3-185.746 282.179   1
   3  -9  -2 2172.06 461.006   2
   3  -9  -2 1724.58 462.653   1
   3  -9  -1 2299.79 445.383   2
   3  -9  -1 2933.56 550.064   1
   3  -9   0 601.144 318.619   1
   3  -9   0 645.522 253.742   2
   3  -9   0 531.186 303.287   3
   3  -9   1 246.384 228.032   2
   3  -9   1 285.146 269.184   1
   3  -9   1 162.079 286.002   3
   3  -9   2 1184.77 335.430   2
   3  -9   2 2180.34 537.710   3
   3  -9   2 1740.02 433.935   1
   3  -9   3 511.977 296.858   3
   3  -9   4 760.171 332.358   3
   3  -9   5 274.658 280.453   3
   3  -9   6 498.312 291.061   3
  -3  -8   9 798.798 437.370   3
  -3  -8   8 737.224 387.834   3
  -3  -8   7 884.742 361.872   3
  -3  -8   6 622.774 360.430   3
  -3  -8   5 5312.29 676.089   3
   3  -8  -5 6093.73 717.895   2
  -3  -8   4 328.708 238.911   3
   3  -8  -4-42.1453 214.900   2
  -3  -8   3 3628.79 540.016   3
   3  -8  -3 4151.90 602.746   2
   3  -8  -2 5578.56 638.352   2
   3  -8  -2 5529.87 689.675   1
  -3  -8   2 5656.05 514.055   1
  -3  -8   2 5601.82 578.292   3
   3  -8  -1 1455.46 339.428   2
  -3  -8   1 981.965 241.513   3
   3  -8  -1 1385.63 346.320   1
   3  -8   0 368.956 192.783   2
   3  -8   0 341.276 249.496   1
   3  -8   1 5787.47 614.020   2
   3  -8   1 5285.23 631.637   1
   3  -8   2 4380.85 520.504   2
   3  -8   2 3937.03 585.617   1
   3  -8   3 2003.95 469.230   3
   3  -8   3 2177.93 369.120   2
   3  -8   4 662.649 268.505   2
   3  -8   4 1519.79 455.007   3
   3  -8   5 9072.70 1047.16   3
   3  -8   5 8825.05 766.500   2
   3  -8   6 2141.81 570.339   3
   3  -8   7 48.1775 331.001   3
   3  -8   8 21.1557 342.665   3
  -3  -7  11 908.301 432.304   3
  -3  -7  10 306.167 366.618   3
  -3  -7   9 679.124 393.459   3
  -3  -7   8 1158.71 373.043   3
  -3  -7   7 1884.64 464.450   3
  -3  -7   6 3741.11 574.481   3
  -3  -7   5 5445.96 663.282   3
  -3  -7   4 271.563 135.662   1
   3  -7  -4 263.998 200.471   2
  -3  -7   4 302.237 236.958   3
   3  -7  -3 12509.2 914.988   2
  -3  -7   3 12749.2 873.892   3
  -3  -7   3 12010.3 633.323   1
   3  -7  -2 9726.27 823.502   1
   3  -7  -2 8890.40 756.511   2
  -3  -7   2 8379.68 562.747   1
  -3  -7   2 9303.19 696.706   3
   3  -7  -1 2437.45 404.450   2
  -3  -7   1 1840.69 292.468   3
   3  -7  -1 2075.00 395.095   1
  -3  -7   0 2016.50 294.973   3
   3  -7   0 2027.69 350.827   2
   3  -7   0 1606.32 348.246   1
   3  -7   1 2925.68 455.305   1
   3  -7   1 2522.95 410.908   2
   3  -7   2 11058.4 854.212   1
   3  -7   2 11413.9 793.949   2
   3  -7   3 2461.80 396.605   2
   3  -7   4 3375.16 463.090   2
   3  -7   5 1059.71 436.443   3
   3  -7   5 581.593 265.032   2
   3  -7   6 7046.51 889.582   3
   3  -7   6 7347.34 697.975   2
   3  -7   7 1947.70 382.574   2
   3  -7   7 1348.04 458.717   3
   3  -7   8 4347.92 764.306   3
   3  -7   9 196.974 252.765   3
  -3  -6  12-215.692 231.674   3
  -3  -6  11 528.406 348.462   3
  -3  -6  10 192.511 248.628   3
  -3  -6   9 491.327 298.725   3
  -3  -6   8 2621.78 555.058   3
  -3  -6   7 659.255 279.788   3
  -3  -6   6 1125.03 324.881   3
  -3  -6   5 1228.03 332.060   3
  -3  -6   4 2110.64 367.114   3
   3  -6  -3 15024.7 904.366   2
  -3  -6   3 16480.9 942.581   3
  -3  -6   3 17412.4 676.338   1
  -3  -6   2 562.782 202.786   3
   3  -6  -2 372.798 183.837   2
   3  -6  -1 15417.2 925.313   2
   3  -6  -1 17430.7 989.365   1
  -3  -6   1 15429.0 793.776   3
   3  -6   0 12243.0 824.682   1
   3  -6   0 12403.1 797.440   2
  -3  -6   0 11974.7 648.920   3
   3  -6   1 12634.3 813.224   2
   3  -6   1 12691.9 835.820   1
   3  -6   2 9856.98 739.105   1
   3  -6   2 8779.57 673.453   2
   3  -6   3 23059.2 1095.65   2
   3  -6   4 27898.1 1255.83   2
   3  -6   5 1535.83 327.257   2
   3  -6   6 9210.19 750.525   2
   3  -6   7 1665.59 333.912   2
   3  -6   7 1439.60 428.456   3
   3  -6   8 2217.40 405.338   4
   3  -6   8 1269.77 473.786   3
   3  -6   9 499.160 240.313   4
   3  -6   9 142.284 296.131   3
   3  -6  10 562.698 403.692   3
  -3  -5  13 698.765 357.846   3
  -3  -5  12 555.485 384.726   3
  -3  -5  11 2354.06 562.759   3
  -3  -5  10 1931.27 514.301   3
  -3  -5   9 1731.73 441.638   3
  -3  -5   8 3517.79 610.807   3
  -3  -5   7 1880.81 434.101   3
  -3  -5   6 11057.4 891.177   3
  -3  -5   5 5490.79 599.091   3
  -3  -5   4 17864.4 1002.54   3
  -3  -5   3 1319.26 290.588   3
   3  -5  -3 1307.87 259.476   2
  -3  -5   3 1288.55 161.799   1
   3  -5  -2 21019.0 1017.58   2
  -3  -5   2 20969.7 944.133   3
   3  -5  -1 6932.93 579.596   2
   3  -5  -1 6942.80 580.729   1
  -3  -5   1 6846.09 296.326   2
  -3  -5   1 6848.61 509.159   3
   3  -5   0 13425.2 789.438   2
  -3  -5   0 12404.6 497.517   2
   3  -5   0 12496.6 760.748   1
  -3  -5   0 13399.8 662.968   3
   3  -5   1 1168.87 264.307   1
  -3  -5  -1 1029.93 181.446   2
   3  -5   1 1482.46 289.668   2
   3  -5   2 4626.64 479.820   1
   3  -5   2 5189.20 495.838   2
   3  -5   3 797.338 210.784   2
   3  -5   4 4708.52 505.054   2
   3  -5   5 15981.7 953.932   2
   3  -5   6 1547.42 312.126   2
   3  -5   7 4807.49 562.158   2
   3  -5   7 5072.69 676.614   3
   3  -5   8 5049.28 589.063   4
   3  -5   8 5365.37 727.969   3
   3  -5   9 8024.77 764.698   4
   3  -5   9 9074.18 1029.24   3
   3  -5  10 4203.92 577.167   4
   3  -5  10 5530.34 848.926   3
   3  -5  11 2246.22 450.571   4
   3  -5  11 2265.31 568.409   3
  -3  -4  13-269.294 260.688   3
  -3  -4  12 2067.93 513.156   3
  -3  -4  11 4988.82 749.103   3
  -3  -4  10 3648.85 612.220   3
  -3  -4   9 3607.24 563.978   3
  -3  -4   8 572.161 281.487   3
  -3  -4   7 2579.52 475.579   3
  -3  -4   6 1150.46 319.826   3
  -3  -4   5 2403.16 394.545   3
  -3  -4   4 3700.28 456.288   3
  -3  -4   3 13637.4 400.306   1
  -3  -4   3 13883.3 775.762   3
   3  -4  -2 13409.2 763.932   2
  -3  -4   2 13547.3 718.136   3
   3  -4  -1 10894.0 679.780   2
  -3  -4   1 11323.9 409.535   2
   3  -4  -1 11376.0 669.730   1
  -3  -4   1 10661.8 610.523   3
   3  -4   0 32519.1 1173.13   2
  -3  -4   0 29854.6 802.738   2
   3  -4   0 31100.8 1128.65   1
  -3  -4   0 32046.2 1004.36   3
   3  -4   1 32649.8 1200.43   2
  -3  -4  -1 30443.4 943.402   2
   3  -4   1 29232.6 1098.55   1
   3  -4   2 31827.6 1201.91   2
   3  -4   3 5692.95 493.786   2
   3  -4   4 39942.3 1439.05   2
   3  -4   5 6536.17 609.146   2
   3  -4   6 13883.7 890.441   2
   3  -4   7 2091.37 379.899   4
   3  -4   7 1476.82 336.824   2
   3  -4   8 5750.77 625.127   4
   3  -4   8 4978.33 666.868   3
   3  -4   9 831.980 397.070   3
   3  -4   9 976.418 310.584   4
   3  -4  10 186.775 182.402   4
   3  -4  10-40.0496 237.373   3
   3  -4  11 16.6644 252.249   4
   3  -4  11 796.323 436.448   3
   3  -4  12 948.965 398.305   3
  -3  -3  14 713.500 379.266   3
  -3  -3  13 126.129 231.494   3
  -3  -3  12 404.922 324.482   3
  -3  -3  11 674.000 321.699   3
  -3  -3  10 3113.18 560.071   3
  -3  -3   9 15048.1 1108.33   3
  -3  -3   8 12730.6 976.417   3
  -3  -3   7 4076.22 532.340   3
  -3  -3   6 9888.05 759.151   3
  -3  -3   5 15849.0 921.711   3
  -3  -3   4 27587.5 1138.35   3
  -3  -3   3 5296.39 458.383   3
   3  -3  -2 47124.8 1390.48   2
  -3  -3   2 49635.0 1391.55   3
   3  -3  -1 26998.0 1018.92   2
  -3  -3   1 28210.7 728.627   2
   3  -3  -1 28049.6 979.221   1
  -3  -3   1 26968.3 937.236   3
   3  -3   0 7043.04 525.909   2
  -3  -3   0 7675.33 397.653   2
   3  -3   0 7193.77 487.993   1
   3  -3   1 1648.09 268.075   2
  -3  -3  -1 1508.17 206.282   2
   3  -3   1 1559.53 256.539   1
   3  -3   2 7063.70 528.768   2
   3  -3   3 5432.31 471.846   2
   3  -3   4 39.6503 126.570   2
   3  -3   5 12557.8 816.319   2
   3  -3   6 7534.98 662.072   2
   3  -3   7 22111.5 1169.13   4
   3  -3   8 7942.09 717.158   4
   3  -3   9 11988.4 930.385   4
   3  -3   9 12541.1 1049.78   3
   3  -3  10 8886.71 865.124   4
   3  -3  10 7892.24 891.718   3
   3  -3  11 5528.44 708.742   4
   3  -3  11 6026.94 810.789   3
   3  -3  12 7805.07 948.767   3
   3  -3  13 2996.98 621.303   3
  -3  -2  15 835.484 401.103   3
  -3  -2  14 238.045 264.850   3
  -3  -2  13 909.555 344.598   3
  -3  -2  12 779.484 386.883   3
  -3  -2  11 5002.61 702.614   3
  -3  -2  10 1613.58 395.666   3
  -3  -2   9 5395.75 650.124   3
  -3  -2   8 3784.24 527.428   3
  -3  -2   7 1158.21 329.506   3
  -3  -2   6 798.415 277.346   3
  -3  -2   5 11896.3 743.658   3
  -3  -2   4 5280.29 467.696   3
  -3  -2   3 23262.9 939.235   3
   3  -2  -2 5613.56 437.126   2
  -3  -2   2 5690.11 427.837   3
   3  -2  -1 35469.1 1135.20   2
  -3  -2   1 34744.4 872.377   2
   3  -2  -1 34067.8 970.892   1
  -3  -2   1 32637.6 1007.90   3
   3  -2   0 34672.0 983.434   1
   3  -2   0 32658.8 1103.24   2
  -3  -2   0 34982.1 924.101   2
   3  -2   1 65246.3 1600.07   2
  -3  -2  -1 64571.2 1408.41   2
   3  -2   2 33852.0 1138.24   2
   3  -2   3 21930.8 958.466   2
   3  -2   4 50957.0 1584.02   2
   3  -2   5 12294.9 793.132   2
   3  -2   6 38160.6 1463.30   4
   3  -2   6 32202.7 1384.41   2
   3  -2   7 5196.83 582.346   4
   3  -2   8 4713.61 586.387   4
   3  -2   9 3747.00 547.658   4
   3  -2   9 3758.95 578.228   3
   3  -2  10 1386.10 339.533   4
   3  -2  10 1661.96 413.979   3
   3  -2  11 1076.49 368.834   4
   3  -2  11 1465.09 433.783   3
   3  -2  12 1181.90 390.037   3
   3  -2  13-48.6007 343.505   3
   3  -2  14 2598.00 552.154   3
  -3  -1  15 727.450 412.612   3
  -3  -1  14 250.144 244.144   3
  -3  -1  13 236.744 217.138   3
  -3  -1  12-176.060 227.612   3
  -3  -1  11 232.198 192.858   3
  -3  -1  10 2648.05 482.388   3
  -3  -1   9 6144.18 666.734   3
  -3  -1   8 4736.12 556.908   3
  -3  -1   7 13810.2 872.081   3
  -3  -1   6 32948.2 1281.25   3
  -3  -1   5 22975.6 1005.74   3
  -3  -1   4 9574.37 613.577   3
   3  -1  -3 56346.8 1387.90   2
  -3  -1   3 63960.6 1550.05   3
   3  -1  -2 34677.1 1047.86   2
   3  -1  -2 34994.9 876.138   1
  -3  -1   2 33881.9 1045.72   3
   3  -1  -1 20412.5 778.696   2
  -3  -1   1 21121.3 700.705   2
  -3  -1   1 20993.1 470.684   1
   3  -1  -1 20421.9 638.397   1
  -3  -1   0 18698.6 690.434   2
   3  -1   0 18402.0 756.584   2
   3  -1   1 19121.1 782.656   2
   3  -1   2 1199.04 216.684   2
   3  -1   3 21922.1 944.927   2
   3  -1   4 22278.9 1009.43   2
   3  -1   5 8644.04 647.601   2
   3  -1   6 40280.4 1538.56   4
   3  -1   7 15568.5 996.566   4
   3  -1   8 15686.8 1046.97   4
   3  -1   9 14091.0 1065.05   4
   3  -1   9 14145.7 1012.11   3
   3  -1  10 17502.5 1274.35   4
   3  -1  10 18969.7 1259.27   3
   3  -1  11 9793.66 952.839   3
   3  -1  12 6010.89 787.907   3
   3  -1  13 5555.73 777.899   3
   3  -1  14 384.910 296.581   3
  -3   0  16 84.6632 263.600   3
  -3   0  15 996.585 365.565   3
  -3   0  14 532.000 325.974   3
  -3   0  13 1840.06 449.508   3
  -3   0  12 460.014 266.837   3
  -3   0  11 8857.30 836.146   3
  -3   0  10 740.642 244.189   3
  -3   0   9-355.897 221.194   3
  -3   0   8 10427.4 771.661   3
  -3   0   7 638.093 207.196   3
  -3   0   6 5633.11 509.792   3
  -3   0   5 6636.48 531.914   3
  -3   0   4 12763.8 674.532   3
   3   0  -3 61309.6 1378.19   2
  -3   0   3 64502.9 1542.20   3
   3   0  -2 7294.01 438.804   2
   3   0  -2 7874.28 302.761   1
  -3   0   1 52828.3 1257.35   2
  -3   0   1 53819.3 1004.61   1
   3   0  -1 53425.5 1269.30   2
  -3   0   0 36205.1 1030.66   2
   3   0   0 35613.3 1026.37   2
  -3   0   0 36091.6 834.372   1
   3   0   1 36124.2 1080.96   2
   3   0   2 26124.3 960.797   2
   3   0   3 164640. 2971.20   2
   3   0   4 51822.7 1571.06   2
   3   0   5 8935.12 695.705   4
   3   0   6 25636.7 1228.04   4
   3   0   7 9423.68 783.191   4
   3   0   8 422.649 208.779   4
   3   0   9 1042.72 280.117   3
   3   0   9 843.153 281.309   4
   3   0  10 4576.71 597.907   3
   3   0  11-274.083 280.429   3
   3   0  12 1057.58 300.762   3
   3   0  13 445.175 285.780   3
  -3   1  14 420.487 287.022   3
  -3   1  13 50.4507 225.208   3
  -3   1  12 53.8317 192.405   3
  -3   1  11 356.161 230.837   3
  -3   1  10 2187.68 391.109   3
  -3   1   9 9548.87 753.701   3
  -3   1   8 3537.82 442.579   3
  -3   1   7 13285.6 813.065   3
  -3   1   6 28267.4 1094.21   3
  -3   1   5 25569.3 1002.68   3
   3   1  -3 63405.2 1314.36   2
   3   1  -2 45353.3 1084.21   2
   3   1  -1 20803.0 696.841   2
  -3   1   0 13659.7 559.362   1
   3   1   0 13477.9 587.785   2
   3   1   0 13104.0 617.635   3
   3   1   1 18624.8 745.837   2
  -3   1  -1 19568.5 698.454   1
   3   1   2 1033.81 206.961   2
   3   1   3 20581.9 914.288   2
   3   1   4 22539.0 1062.10   4
   3   1   5 12809.6 847.481   4
   3   1   6 43528.7 1656.59   4
   3   1   7 14935.1 1033.75   4
   3   1   8 14972.4 1097.86   4
   3   1   9 16062.6 983.410   3
   3   1  10 15070.0 1033.93   3
   3   1  11 7256.14 748.836   3
   3   1  12 7663.27 791.659   3
  -3   2  13 434.774 221.098   3
  -3   2  12 1712.71 415.357   3
  -3   2  11 2822.85 447.069   3
  -3   2  10 2190.02 414.590   3
  -3   2   9 6007.40 592.813   3
  -3   2   8 4755.96 486.973   3
  -3   2   7 1098.84 248.040   3
   3   2  -5 9585.88 271.035   1
   3   2  -4 5473.60 326.392   2
   3   2  -3 24952.2 694.507   2
   3   2  -2 2801.44 228.259   2
   3   2  -1 36135.4 909.376   2
   3   2   0 39858.3 1138.38   3
   3   2   0 39586.8 1033.24   2
   3   2   1 64229.7 1456.90   3
   3   2   1 60967.6 1438.31   2
   3   2   2 37372.9 1238.01   4
   3   2   3 25707.8 1073.91   4
   3   2   4 51296.5 1681.92   4
   3   2   5 16536.6 984.674   4
   3   2   6 34009.7 1551.10   4
   3   2   7 4653.54 595.167   4
   3   2   9 4049.06 489.347   3
   3   2  10 1659.53 336.609   3
  -3   2 -12 1561.73 413.511   5
  -3   2 -13-218.828 213.051   5
  -3   3  12 538.671 228.852   3
  -3   3  11 741.543 235.905   3
  -3   3  10 2404.34 398.007   3
   3   3  -7 6195.32 336.702   1
   3   3  -6 7939.48 335.645   1
   3   3  -5 17916.8 554.986   2
   3   3  -4 31711.4 709.644   2
   3   3  -3 3301.01 198.156   2
   3   3  -2 42011.6 875.057   2
   3   3  -1 32402.6 841.405   2
   3   3   0 6824.94 447.263   4
   3   3   1 2452.61 308.715   4
   3   3   1 2486.00 263.734   3
   3   3   2 7517.33 463.905   3
   3   3   2 7137.69 548.135   4
   3   3   3 5882.74 532.230   4
   3   3   3 6733.74 432.060   3
   3   3   4 9.05417 158.534   4
   3   3   5 13149.9 936.851   4
   3   3   8 10219.5 657.907   3
  -3   3 -12 6668.66 796.951   5
  -3   3 -13 1148.06 376.401   5
  -3   3 -14 822.415 356.331   5
   3   4  -6 1375.79 151.057   4
   3   4  -6 1275.44 123.965   2
   3   4  -3 15719.2 479.863   4
   3   4  -2 11716.3 476.587   4
   3   4  -1 9998.46 500.545   4
   3   4   0 30982.0 1035.54   4
   3   4   1 29465.0 1117.01   4
   3   4   1 30547.2 995.517   3
   3   4   2 28941.6 1211.00   4
   3   4   2 27247.3 880.445   3
   3   4   3 7919.13 445.325   3
   3   4   4 39005.9 1034.69   3
   3   4   5 9715.44 490.096   3
  -3   4 -11 309.413 246.939   5
  -3   4 -12 528.518 307.553   5
  -3   4 -13 1649.00 481.491   5
   3   5   1 1378.00 238.740   3
   3   5   2 4334.25 356.046   3
   3   5   3 1098.08 167.753   3
  -3   5 -10 4807.44 740.386   5
  -3   5 -11 3415.06 627.604   5
  -3   5 -12 1148.84 418.071   5
  -3   6  -8 1585.69 409.418   5
  -3   6  -9 1371.54 424.637   5
  -3   6 -10 988.302 397.297   5
  -3   6 -11-278.325 366.086   5
  -3   7   4 233.194 117.213   5
  -3   7  -5 826.698 354.884   5
  -3   7  -6 7429.91 878.638   5
  -3   7  -7 1810.36 496.410   5
  -3   7  -8 5709.17 861.880   5
  -3   7  -9 765.512 392.001   5
  -3   8   3 1806.22 319.050   5
  -3   8   2 5740.13 645.995   5
  -3   8   1 1461.67 328.761   5
  -3   8   0 285.536 210.160   5
  -3   8  -1 3352.51 532.002   5
  -3   8  -2 2932.03 547.586   5
  -3   8  -3 1790.06 491.990   5
  -3   8  -4 1343.69 446.521   5
  -3   8  -5 7437.52 924.334   5
  -3   8  -6 1361.36 437.178   5
  -3   8  -7 971.627 398.222   5
  -3   8  -8 28.4197 320.160   5
  -3   9   2 1146.68 328.121   5
  -3   9   1 2398.08 492.607   5
  -3   9   0 52.4715 222.754   5
  -3   9  -1 210.140 217.310   5
  -3   9  -2 275.656 283.692   5
  -3   9  -3 362.061 330.436   5
  -3   9  -4 838.031 389.553   5
  -3   9  -5 788.189 400.214   5
  -3   9  -6 183.109 340.246   5
  -3  10   0 1090.43 423.626   5
  -3  10  -1 1398.86 452.021   5
  -3  10  -2 530.906 353.900   5
  -3  10  -3-2.01825 300.368   5
  -3  10  -4 1157.91 441.036   5
  -3  11  -2 301.989 313.765   5
   4 -10  -5 674.530 362.860   2
   4 -10  -4 1539.68 558.585   2
   4 -10  -3 244.286 264.283   2
   4 -10  -2 302.915 246.832   2
   4 -10  -1 268.435 307.102   2
   4 -10   0 833.759 352.401   2
   4 -10   2 825.727 456.919   3
   4 -10   3 1099.72 446.551   3
  -4  -9   8 187.907 336.190   3
  -4  -9   7 275.474 234.315   3
   4  -9  -7 262.218 266.214   2
  -4  -9   6 817.479 350.119   3
   4  -9  -6 925.569 353.680   2
  -4  -9   5-227.740 246.869   3
   4  -9  -5 487.476 310.258   2
   4  -9  -4 920.309 373.149   2
  -4  -9   4 773.389 284.087   3
   4  -9  -4 1475.35 455.819   1
   4  -9  -3 200.453 255.500   2
   4  -9  -3-45.8591 307.937   1
   4  -9  -2 1115.11 358.313   2
   4  -9  -2 1080.89 454.079   1
   4  -9  -1 781.112 337.260   1
   4  -9  -1 752.506 318.612   2
   4  -9   0 1016.46 363.359   2
   4  -9   0 1093.85 343.924   1
   4  -9   1 1573.71 422.484   2
   4  -9   1 1350.93 402.240   1
   4  -9   2 226.876 214.962   2
   4  -9   2 717.478 344.025   1
   4  -9   3 1114.51 323.204   2
   4  -9   4-230.536 303.957   3
   4  -9   5 1313.84 528.423   3
  -4  -8   9 668.382 380.578   3
  -4  -8   8 1293.28 472.396   3
  -4  -8   7 960.956 416.888   3
   4  -8  -7 973.318 399.028   2
  -4  -8   6 201.046 217.413   3
   4  -8  -6 382.408 273.052   2
  -4  -8   5 153.221 242.537   3
   4  -8  -5-156.431 261.115   2
  -4  -8   4 549.791 243.882   3
   4  -8  -4 670.197 312.888   1
   4  -8  -4 1010.36 359.354   2
   4  -8  -3 750.180 279.723   2
  -4  -8   3 307.367 234.690   3
   4  -8  -3-157.935 257.983   1
   4  -8  -2 1305.49 391.955   2
  -4  -8   2 1333.55 289.998   3
   4  -8  -2 1684.40 403.690   1
   4  -8  -1 936.032 312.420   2
   4  -8  -1 1608.64 405.823   1
   4  -8   0 3088.01 501.859   2
   4  -8   0 2554.39 480.338   1
   4  -8   1 3129.49 502.562   2
   4  -8   1 2240.14 451.566   1
   4  -8   2 3439.35 520.952   2
   4  -8   2 3647.57 595.100   1
   4  -8   3 1715.90 387.222   2
   4  -8   4 4554.57 606.818   2
   4  -8   5 5121.59 655.782   2
   4  -8   6 946.306 332.702   2
   4  -8   6 644.812 411.386   3
   4  -8   7 1310.90 450.562   3
  -4  -7  10 1280.23 483.369   3
  -4  -7   9 761.782 404.994   3
  -4  -7   8 3363.64 610.726   3
  -4  -7   7 1690.86 468.293   3
  -4  -7   6 1815.61 402.302   3
   4  -7  -6 2933.64 528.553   2
  -4  -7   5 217.927 185.401   3
   4  -7  -5 496.041 259.832   2
   4  -7  -4 10280.8 915.910   2
  -4  -7   4 9426.19 816.745   3
   4  -7  -3 10843.3 907.578   2
   4  -7  -3 12082.1 944.699   1
  -4  -7   3 12488.6 902.913   3
   4  -7  -2 2879.46 483.474   2
  -4  -7   2 2550.32 403.146   3
   4  -7  -2 2524.14 463.320   1
   4  -7  -1 4718.00 605.206   2
  -4  -7   1 4574.36 498.078   3
   4  -7  -1 4488.06 555.350   1
   4  -7   0 3591.74 525.751   2
   4  -7   0 3478.85 522.105   1
   4  -7   1 2572.28 437.313   2
   4  -7   1 2439.38 422.685   1
   4  -7   2 1182.41 337.368   1
   4  -7   2 312.130 228.029   2
   4  -7   3 2243.67 390.082   2
   4  -7   4 847.284 316.384   2
   4  -7   5 3343.74 534.563   2
   4  -7   6 2197.45 439.461   2
   4  -7   7 1579.81 394.575   2
   4  -7   7 2702.58 647.933   3
   4  -7   8 1296.90 366.646   2
   4  -7   8 2350.28 634.270   3
  -4  -6  11-103.622 261.231   3
  -4  -6  10 289.195 297.799   3
  -4  -6   9 4240.98 734.286   3
  -4  -6   8 791.022 367.723   3
  -4  -6   7 784.630 336.198   3
  -4  -6   6 2619.89 477.904   3
  -4  -6   5 1168.58 315.432   3
   4  -6  -5 1358.84 364.955   2
   4  -6  -4 8835.84 807.888   2
  -4  -6   4 8355.32 744.117   3
  -4  -6   3 369.600 200.990   3
   4  -6  -3 93.0963 179.667   1
   4  -6  -3 277.116 230.860   2
   4  -6  -2 4017.73 520.965   2
   4  -6  -2 2927.84 440.186   1
  -4  -6   2 3928.54 484.382   3
   4  -6  -1 16312.9 1004.20   2
   4  -6  -1 14758.2 939.634   1
  -4  -6   1 15064.7 841.799   3
   4  -6   0 709.687 277.471   2
   4  -6   0 517.801 255.887   1
   4  -6   1 2532.17 411.714   2
   4  -6   1 1919.91 354.169   1
   4  -6   2 6886.79 659.454   2
   4  -6   3 9478.46 771.548   2
   4  -6   4 1984.37 405.345   2
   4  -6   5 6507.34 664.655   2
   4  -6   6 2357.52 457.212   2
   4  -6   7 2588.56 488.545   2
   4  -6   8 72.4683 241.241   2
   4  -6   8 166.734 233.455   4
   4  -6   8 296.551 331.531   3
   4  -6   9 1221.52 372.981   4
   4  -6   9 693.910 399.934   3
  -4  -5  12 373.455 331.372   3
  -4  -5  11 825.049 322.778   3
  -4  -5  10 457.393 303.675   3
  -4  -5   9 948.709 357.926   3
  -4  -5   8 214.244 295.013   3
  -4  -5   7 5405.82 686.527   3
  -4  -5   6 1137.88 315.979   3
  -4  -5   5 6514.25 676.707   3
  -4  -5   4 3219.49 439.736   3
   4  -5  -4 3621.35 489.097   2
  -4  -5   3 6193.89 264.089   1
   4  -5  -3 6512.48 600.149   1
   4  -5  -3 6935.22 658.311   2
  -4  -5   3 6751.52 608.194   3
   4  -5  -2 14064.5 894.589   2
   4  -5  -2 14682.5 884.862   1
  -4  -5   2 13911.7 812.120   3
  -4  -5   1 15494.6 561.206   2
   4  -5  -1 16759.8 968.336   2
   4  -5  -1 15998.1 910.778   1
  -4  -5   1 15748.9 824.040   3
   4  -5   0 5725.35 566.829   2
   4  -5   0 5341.89 535.914   1
   4  -5   1 1809.70 337.813   2
   4  -5   1 1622.45 315.380   1
   4  -5   2 681.056 266.815   2
   4  -5   3 12717.8 857.993   2
   4  -5   4 4177.00 533.871   2
   4  -5   5 1296.76 324.476   2
   4  -5   6 6779.30 715.432   2
   4  -5   7 2922.95 501.041   2
   4  -5   8 3726.47 570.699   4
   4  -5   9 4424.93 610.168   4
   4  -5   9 4051.40 721.032   3
   4  -5  10 3151.86 642.983   3
   4  -5  10 2198.31 471.035   4
   4  -5  11 879.407 344.512   4
  -4  -4  13 286.705 293.735   3
  -4  -4  12 866.224 425.581   3
  -4  -4  11 420.458 248.005   3
  -4  -4  10 3083.43 609.969   3
  -4  -4   9 194.369 207.374   3
  -4  -4   8 1380.30 355.497   3
  -4  -4   7 2998.65 479.918   3
  -4  -4   6 1428.25 318.275   3
  -4  -4   5 620.757 206.861   3
  -4  -4   4 5376.62 559.619   3
   4  -4  -4 4907.05 503.437   2
  -4  -4   3 3131.75 421.417   3
   4  -4  -3 3263.20 393.601   1
   4  -4  -3 3387.93 436.653   2
  -4  -4   2 15170.0 531.372   2
   4  -4  -2 15998.3 922.228   2
   4  -4  -2 18859.1 924.080   1
  -4  -4   2 15875.3 860.158   3
   4  -4  -1 771.048 215.676   1
  -4  -4   1 748.326 133.340   2
   4  -4  -1 584.523 225.777   2
   4  -4   0 15406.8 904.134   2
   4  -4   0 14209.9 788.526   1
   4  -4   1 19129.0 991.649   2
   4  -4   2 12452.7 817.711   2
   4  -4   3 12640.1 840.917   2
   4  -4   4 2959.16 448.667   2
   4  -4   5 14967.8 994.140   2
   4  -4   6 4121.15 548.175   2
   4  -4   7 5623.79 649.664   2
   4  -4   8 4132.45 602.392   4
   4  -4   9 991.702 416.076   3
   4  -4   9 1210.00 372.191   4
   4  -4  10 647.228 288.155   4
   4  -4  10 71.0994 261.023   3
   4  -4  11-190.425 293.218   4
   4  -4  11 669.356 382.889   3
   4  -4  12 186.870 278.801   4
  -4  -3  13 174.920 353.702   3
  -4  -3  12 595.804 355.429   3
  -4  -3  11 2562.74 567.630   3
  -4  -3  10 2783.76 556.548   3
  -4  -3   9 357.620 234.455   3
  -4  -3   8 460.831 231.795   3
  -4  -3   7 12489.8 933.809   3
  -4  -3   6 1225.72 290.601   3
  -4  -3   5 12067.2 848.147   3
   4  -3  -4 4993.44 501.076   2
  -4  -3   4 6440.50 585.969   3
   4  -3  -3 15733.7 884.646   2
   4  -3  -3 13476.7 717.731   1
  -4  -3   3 14475.6 826.797   3
   4  -3  -2 1581.11 296.067   2
  -4  -3   2 913.267 224.362   3
   4  -3  -2 1249.94 251.714   1
  -4  -3   2 898.821 143.664   2
  -4  -3   1 16982.5 678.800   2
   4  -3  -1 16766.5 885.045   2
   4  -3  -1 17668.3 820.661   1
   4  -3   0 21166.2 884.825   1
   4  -3   0 22056.9 1025.15   2
   4  -3   1 6189.01 543.197   2
   4  -3   2 6267.33 553.572   2
   4  -3   3 1441.05 298.958   2
   4  -3   4 4401.58 512.899   2
   4  -3   5 3399.88 474.969   2
   4  -3   6 3585.26 506.283   2
   4  -3   7 10788.0 884.687   4
   4  -3   7 11198.1 912.944   2
   4  -3   8 9088.42 850.180   4
   4  -3   9 4359.18 621.794   4
   4  -3  10 7298.46 820.725   4
   4  -3  10 8346.49 972.401   3
   4  -3  11 7933.85 917.589   4
   4  -3  11 7464.32 947.926   3
   4  -3  12 912.581 369.010   4
   4  -3  12 519.018 294.702   3
  -4  -2  14 910.091 386.127   3
  -4  -2  13 632.775 333.415   3
  -4  -2  12 536.894 232.422   3
  -4  -2  11 519.693 312.930   3
  -4  -2  10 9681.52 935.775   3
  -4  -2   9-134.785 213.807   3
  -4  -2   8 898.668 290.030   3
  -4  -2   7 8003.00 735.760   3
  -4  -2   6 1600.43 338.169   3
  -4  -2   5 682.219 250.775   3
  -4  -2   4 1000.25 251.451   3
   4  -2  -4 959.905 235.166   2
   4  -2  -3 3954.67 347.361   1
  -4  -2   3 4476.58 445.896   3
   4  -2  -3 4061.07 418.118   2
  -4  -2   2 11254.2 534.007   2
   4  -2  -2 11964.7 727.874   2
   4  -2  -2 11863.0 597.260   1
   4  -2  -1 5277.57 397.635   1
   4  -2  -1 6006.48 529.006   2
   4  -2   0 15564.8 822.071   2
   4  -2   1 28299.8 1133.08   2
   4  -2   2 12836.7 766.076   2
   4  -2   3 21172.4 1050.22   2
   4  -2   4 20718.3 1081.53   2
   4  -2   5 29356.2 1350.63   2
   4  -2   6 4949.52 579.043   2
   4  -2   7 8087.31 789.084   4
   4  -2   8 2562.61 467.779   4
   4  -2   9 1032.37 367.501   4
   4  -2  10 839.860 342.093   4
   4  -2  10 687.729 254.680   3
   4  -2  11 629.058 286.986   4
   4  -2  11 476.114 311.796   3
   4  -2  12 163.406 262.605   3
   4  -2  13 2134.35 513.681   3
  -4  -1  15 823.655 437.526   3
  -4  -1  14 591.153 352.191   3
  -4  -1  13-112.386 286.952   3
  -4  -1  12 112.365 239.401   3
  -4  -1  11 770.155 377.971   3
  -4  -1  10 1771.19 422.655   3
  -4  -1   9 2244.18 419.258   3
  -4  -1   8 24785.5 1306.19   3
  -4  -1   7 5135.13 594.001   3
  -4  -1   6 16288.5 977.408   3
  -4  -1   5 7501.08 624.852   3
   4  -1  -4 28469.2 1100.08   2
  -4  -1   4 29454.6 1176.55   3
   4  -1  -3 4035.43 401.337   2
   4  -1  -3 4060.10 309.477   1
   4  -1  -2 14398.8 740.867   2
   4  -1  -2 14545.7 577.753   1
   4  -1  -1 46162.0 1395.40   2
  -4  -1   1 47194.0 931.779   1
   4  -1   0 10962.4 649.045   2
   4  -1   1 1253.68 249.522   2
   4  -1   2 10346.5 692.523   2
   4  -1   3 480.989 230.846   2
   4  -1   4 537.714 220.113   2
   4  -1   5 9900.93 770.087   2
   4  -1   6 12235.3 913.517   4
   4  -1   7 7930.67 780.706   4
   4  -1   8 9623.44 897.727   4
   4  -1   9 8231.17 861.591   4
   4  -1  10 5479.09 755.589   4
   4  -1  10 5784.15 727.289   3
   4  -1  11 3568.25 662.142   4
   4  -1  11 3775.70 610.080   3
   4  -1  12 3504.86 638.328   3
   4  -1  13 3490.40 624.153   3
  -4   0  15-147.487 242.420   3
  -4   0  14 135.565 309.668   3
  -4   0  13 208.568 223.602   3
  -4   0  12 362.913 291.457   3
  -4   0  11 368.350 282.957   3
  -4   0  10 753.334 320.083   3
  -4   0   9 5196.98 635.130   3
  -4   0   8 2413.97 439.178   3
  -4   0   7 6780.46 636.915   3
  -4   0   6 182.063 157.937   3
  -4   0   5 886.162 246.408   3
   4   0  -5 454.142 153.363   2
   4   0  -4 1574.79 165.778   1
   4   0  -4 1637.07 258.895   2
   4   0  -3 18586.4 541.416   1
   4   0  -3 19360.3 855.197   2
   4   0  -2 14626.1 724.824   2
   4   0  -1 42.3424 94.4485   2
  -4   0   1 83.9047 55.4945   1
   4   0   0 24573.7 966.225   2
  -4   0   0 27077.8 816.956   1
   4   0   1 17746.8 850.899   2
   4   0   2 10785.4 697.947   2
   4   0   3 51491.7 1627.80   2
   4   0   4 7106.04 617.956   2
   4   0   5 36092.1 1513.31   4
   4   0   5 33378.9 1434.36   2
   4   0   6 4410.48 567.921   4
   4   0   7 10637.4 899.618   4
   4   0   8 1401.75 369.856   4
   4   0   9 1164.65 348.227   4
   4   0  10 1541.98 420.320   4
   4   0  10 1508.16 409.241   3
   4   0  11 638.003 303.012   3
   4   0  12 221.349 203.491   3
  -4   1  15 569.120 347.430   3
  -4   1  14 39.5759 245.556   3
  -4   1  13-322.885 312.783   3
  -4   1  12 101.865 223.479   3
  -4   1  11 266.771 247.791   3
  -4   1  10 1389.51 368.949   3
  -4   1   9 1588.44 358.589   3
  -4   1   8 23090.9 1198.30   3
  -4   1   7 6807.43 628.701   3
   4   1  -5 6336.88 467.045   2
   4   1  -5 5716.04 235.205   1
   4   1  -4 29162.2 990.553   2
   4   1  -3 6787.82 458.532   2
   4   1  -2 14849.1 680.479   2
   4   1  -1 36724.0 1116.15   2
   4   1   0 14048.4 699.994   2
   4   1   1 3003.92 357.702   2
   4   1   2 10055.8 667.922   2
   4   1   3 292.983 165.540   2
   4   1   4 1075.06 322.480   4
   4   1   5 13289.3 930.500   4
   4   1   6 8207.37 773.341   4
   4   1   7 8878.76 819.193   4
   4   1   8 9013.55 900.947   4
   4   1   9 11176.7 1060.87   4
   4   1  10 4742.43 592.115   3
   4   1  11 5518.80 708.919   3
  -4   2  13 246.779 239.861   3
  -4   2  12 572.151 296.503   3
  -4   2  11 1294.91 393.444   3
  -4   2  10 8526.08 779.181   3
  -4   2   9 469.546 237.893   3
   4   2  -6 2068.29 264.336   2
   4   2  -5 459.498 144.743   2
   4   2  -4 1073.95 195.419   2
   4   2  -3 3342.29 301.750   2
   4   2  -2 13723.2 611.831   2
   4   2  -1 3827.15 336.140   2
   4   2   0 13327.0 664.902   2
   4   2   1 26499.7 1017.56   2
   4   2   2 12957.4 744.701   2
   4   2   3 25527.3 1175.29   4
   4   2   4 23225.5 1177.60   4
   4   2   5 27487.9 1367.04   4
   4   2   6 5399.55 642.454   4
   4   2   7 7117.66 798.732   4
   4   2   8 1992.16 469.751   4
   4   3  -7 11511.7 579.198   2
   4   3  -6 3071.98 283.672   2
   4   3  -5 10503.4 498.098   2
   4   3  -4 4945.71 328.958   2
   4   3  -3 14756.9 574.081   2
   4   3  -2 1758.99 215.756   2
   4   3  -1 15309.2 666.594   2
   4   3   0 23098.2 884.214   2
   4   3   1 5205.08 499.071   4
   4   3   2 8182.80 640.797   4
   4   3   3 1979.45 355.531   4
   4   3   4 4100.01 517.497   4
   4   3   5 1622.89 373.957   4
   4   3   6 3727.73 572.285   4
   4   3   7 11844.0 1050.58   4
  -4   3 -13 411.148 300.577   5
   4   4  -6 2070.72 180.524   2
   4   4  -5 388.220 79.6227   2
   4   4  -4 5201.36 274.146   2
   4   4  -3 1722.01 176.371   2
   4   4  -1 746.658 185.227   4
   4   4   0 12724.8 719.670   4
   4   4   1 22947.9 1048.84   4
   4   4   2 12455.9 813.214   4
   4   4   3 13152.7 908.565   4
   4   4   4 4356.10 563.737   4
   4   4   5 15167.4 1104.73   4
  -4   4 -12 1230.51 469.533   5
   4   5  -3 6181.09 367.074   4
   4   5  -2 10393.2 552.081   4
   4   5  -1 17372.4 800.689   4
   4   5   0 7553.27 590.155   4
   4   5   1 699.455 212.051   4
  -4   5 -11 739.156 406.225   5
  -4   7  -8 1494.08 484.202   5
  -4   8  -5 4406.91 729.543   5
  -4   8  -6 1315.84 473.064   5
  -4   9   1 703.272 309.508   5
  -4   9   0 827.526 378.227   5
  -4   9  -1 927.393 422.130   5
  -4   9  -2-55.3902 233.753   5
  -4   9  -3 786.922 404.343   5
  -4   9  -4 19.9860 287.708   5
  -4   9  -5 1287.87 462.627   5
  -4  10   0 804.747 327.563   5
  -4  10  -1 158.391 295.881   5
  -4  10  -2 375.347 269.942   5
   5 -10  -1 2082.32 549.830   2
   5 -10   0 697.300 328.125   2
  -5  -9   7 149.886 261.432   3
  -5  -9   6 1534.45 468.176   3
   5  -9  -5 801.102 388.388   2
   5  -9  -4 551.395 396.798   2
   5  -9  -3 482.362 296.782   2
   5  -9  -3 574.216 329.691   1
   5  -9  -2 462.296 325.111   2
   5  -9  -2 801.610 345.366   1
   5  -9  -1 649.311 316.616   2
   5  -9  -1 652.751 369.972   1
   5  -9   0 644.484 321.943   2
   5  -9   0 875.505 423.401   1
   5  -9   1 993.373 377.703   2
   5  -9   2 746.726 367.273   2
   5  -9   3 269.661 253.645   2
   5  -9   4 955.005 395.695   2
  -5  -8   8 627.397 405.395   3
  -5  -8   7 77.3346 285.258   3
   5  -8  -7 177.969 280.701   2
  -5  -8   6-278.325 306.325   3
   5  -8  -6-48.6155 230.920   2
   5  -8  -5 400.743 239.835   2
  -5  -8   5 412.499 246.920   3
   5  -8  -5 313.189 213.360   1
   5  -8  -4 993.933 454.961   2
  -5  -8   4 839.243 343.048   3
   5  -8  -4 137.226 249.186   1
   5  -8  -3 2398.58 477.200   2
  -5  -8   3 1756.99 403.796   3
   5  -8  -3 2712.20 527.003   1
   5  -8  -2 211.341 281.916   1
   5  -8  -2 1009.06 434.563   2
   5  -8  -1 550.955 346.376   2
   5  -8  -1 719.564 309.407   1
   5  -8   0 2318.87 493.262   2
   5  -8   0 2378.56 468.450   1
   5  -8   1 1353.16 442.745   1
   5  -8   1 923.359 379.110   2
   5  -8   2 3237.79 544.322   2
   5  -8   3 2205.85 476.482   2
   5  -8   4 1284.05 390.884   2
   5  -8   5 346.110 304.882   2
   5  -8   6 1855.99 459.408   2
   5  -8   7 283.594 253.557   2
  -5  -7   9 625.031 345.156   3
  -5  -7   8 501.974 298.897   3
   5  -7  -8-315.148 371.653   2
  -5  -7   7 627.211 379.650   3
   5  -7  -7 184.042 260.298   2
  -5  -7   6 1294.30 417.924   3
   5  -7  -6 839.190 324.808   2
  -5  -7   5 613.346 249.110   3
   5  -7  -5 337.053 268.405   1
   5  -7  -5 616.631 284.827   2
   5  -7  -4 1380.25 402.024   2
  -5  -7   4 822.359 300.035   3
   5  -7  -4 953.712 311.045   1
   5  -7  -3 809.469 315.998   2
  -5  -7   3 770.741 311.446   3
   5  -7  -3 1103.26 340.596   1
   5  -7  -2 3045.02 521.634   1
   5  -7  -2 2423.55 499.830   2
  -5  -7   2 2333.08 399.691   3
   5  -7  -1 1437.57 398.633   2
   5  -7  -1 1179.13 338.242   1
   5  -7   0 1881.78 433.156   2
   5  -7   0 2395.90 452.531   1
   5  -7   1 1102.06 355.595   2
   5  -7   2 1569.98 378.532   2
   5  -7   3 477.918 298.416   2
   5  -7   4 3720.57 583.989   2
   5  -7   5 570.650 320.027   2
   5  -7   6 1473.78 413.008   2
   5  -7   7 860.946 359.572   2
   5  -7   8 1157.87 404.872   2
  -5  -6  10-84.9821 357.652   3
  -5  -6   9 332.956 242.121   3
  -5  -6   8 824.484 348.903   3
  -5  -6   7 1890.48 462.623   3
   5  -6  -7 1411.43 373.626   2
  -5  -6   6-144.463 234.079   3
   5  -6  -6 143.846 206.997   2
  -5  -6   5 515.966 257.934   3
   5  -6  -5 645.112 271.646   1
   5  -6  -5 641.425 345.643   2
  -5  -6   4 375.757 202.345   3
   5  -6  -4 305.614 283.904   2
   5  -6  -4 220.681 188.916   1
   5  -6  -3 2452.60 490.985   2
  -5  -6   3 1961.69 379.705   3
   5  -6  -3 1779.94 396.362   1
   5  -6  -2 244.747 191.875   1
   5  -6  -2 537.460 232.550   2
   5  -6  -1 553.259 278.408   2
   5  -6  -1 697.274 251.205   1
   5  -6   0 2872.08 434.570   1
   5  -6   0 2660.61 446.071   2
   5  -6   1 3267.82 486.682   2
   5  -6   2 3171.39 503.412   2
   5  -6   3 4344.74 602.389   2
   5  -6   4 3841.65 567.372   2
   5  -6   5 587.470 290.989   2
   5  -6   6 2860.78 519.368   2
   5  -6   7 1770.41 432.597   2
   5  -6   8 1431.59 450.576   4
   5  -6   8 122.125 223.985   2
   5  -6   9 1022.03 401.034   4
  -5  -5  11 139.374 297.911   3
  -5  -5  10 427.222 281.590   3
  -5  -5   9 51.1386 238.722   3
  -5  -5   8-133.490 205.541   3
  -5  -5   7 1152.13 360.714   3
   5  -5  -7 926.256 348.580   2
   5  -5  -6 7707.93 789.307   2
  -5  -5   6 7351.59 768.019   3
  -5  -5   5 695.983 290.875   3
   5  -5  -5 747.702 295.886   2
   5  -5  -4 355.180 264.830   2
   5  -5  -4 300.150 194.767   1
  -5  -5   4 978.865 312.930   3
   5  -5  -3 8667.45 802.620   2
   5  -5  -3 9247.51 749.122   1
  -5  -5   3 8845.20 735.319   3
   5  -5  -2 20703.2 1189.55   2
   5  -5  -2 19153.2 1056.76   1
   5  -5  -1 3998.60 474.902   1
   5  -5  -1 3975.47 549.558   2
   5  -5   0 6509.77 630.387   1
   5  -5   0 6815.11 696.093   2
   5  -5   1 5093.40 584.249   2
   5  -5   2 1221.23 326.427   2
   5  -5   3 336.474 241.519   2
   5  -5   4 2971.36 509.940   2
   5  -5   5 2298.98 465.667   2
   5  -5   6 2134.62 469.260   2
   5  -5   7 345.957 223.214   2
   5  -5   8 3384.40 604.296   4
   5  -5   8 2996.99 573.012   2
   5  -5   9 3954.29 653.885   4
   5  -5  10 916.517 367.118   4
  -5  -4  12-334.517 310.200   3
  -5  -4  11 325.701 253.607   3
  -5  -4  10-262.965 265.733   3
  -5  -4   9 274.123 273.863   3
  -5  -4   8 1627.01 419.883   3
  -5  -4   7 2767.82 520.715   3
   5  -4  -6 6461.78 672.309   2
  -5  -4   6 6818.62 753.632   3
  -5  -4   5 2413.68 408.759   3
   5  -4  -5 2375.76 448.868   2
   5  -4  -4 2517.32 431.683   2
   5  -4  -4 2732.13 405.451   1
  -5  -4   4 2304.11 419.713   3
   5  -4  -3 2939.54 447.256   2
  -5  -4   3 3822.86 486.398   3
   5  -4  -3 3591.44 452.782   1
   5  -4  -2 272.234 176.914   2
   5  -4  -2 465.283 215.332   1
   5  -4  -1 1930.45 369.046   2
   5  -4  -1 1982.10 347.916   1
   5  -4   0 15119.1 958.839   2
   5  -4   1 2475.65 411.928   2
   5  -4   2 2591.53 436.903   2
   5  -4   3 4042.44 526.123   2
   5  -4   4 7739.20 754.667   2
   5  -4   5 5790.99 685.067   2
   5  -4   6 5437.12 676.690   2
   5  -4   7 2519.64 498.857   2
   5  -4   8 2490.58 492.359   4
   5  -4   9 595.713 335.996   4
   5  -4  10-71.7727 288.492   4
   5  -4  10 782.714 454.212   3
   5  -4  11 550.638 333.722   4
  -5  -3  13 571.497 354.364   3
  -5  -3  12 762.891 439.973   3
  -5  -3  11 295.419 305.335   3
  -5  -3  10 155.447 249.588   3
  -5  -3   9 98.6318 301.291   3
  -5  -3   8 3929.89 619.118   3
  -5  -3   7 1766.28 417.176   3
  -5  -3   6 920.062 315.241   3
   5  -3  -6 874.771 249.188   2
   5  -3  -5 7493.27 695.078   2
  -5  -3   5 7409.82 708.999   3
   5  -3  -4 10166.8 773.680   2
   5  -3  -4 10995.3 702.332   1
  -5  -3   4 10115.1 780.759   3
   5  -3  -3 7973.50 702.230   2
   5  -3  -3 7583.89 564.316   1
   5  -3  -2 334.911 145.468   2
   5  -3  -2 450.193 194.837   1
   5  -3  -1 15822.5 819.177   1
   5  -3  -1 15972.4 950.987   2
   5  -3   0 11056.8 795.880   2
   5  -3   1 9973.05 771.103   2
   5  -3   2-44.9325 155.699   2
   5  -3   3 4583.51 551.917   2
   5  -3   4 3221.52 532.900   2
   5  -3   5 1998.20 422.734   2
   5  -3   6 1233.65 368.959   2
   5  -3   7 9912.42 921.505   2
   5  -3   8 2762.95 541.337   4
   5  -3   9 4510.81 713.798   4
   5  -3  10 3292.92 621.851   4
   5  -3  11 2421.13 546.624   4
   5  -3  11 3181.78 690.521   3
  -5  -2  13-33.7103 351.127   3
  -5  -2  12 273.309 324.521   3
  -5  -2  11-268.778 260.969   3
  -5  -2  10 406.111 329.294   3
  -5  -2   9 539.322 260.213   3
  -5  -2   8 1109.99 357.132   3
  -5  -2   7 1848.85 404.947   3
   5  -2  -6 8321.79 704.910   2
  -5  -2   6 9449.72 798.967   3
  -5  -2   5 1006.21 296.140   3
   5  -2  -5 1026.90 242.506   1
   5  -2  -5 1185.02 309.258   2
   5  -2  -4 178.865 182.114   2
   5  -2  -4 59.8640 130.299   1
   5  -2  -3 735.600 245.267   2
   5  -2  -3 740.939 179.522   1
   5  -2  -2 1937.15 357.188   2
   5  -2  -2 1673.07 253.839   1
   5  -2  -1 15602.2 917.898   2
  -5  -2   1 15449.9 505.311   1
   5  -2   0-17.2807 156.606   2
   5  -2   1 10039.6 756.848   2
   5  -2   2 21797.7 1139.67   2
   5  -2   3 1832.69 361.585   2
   5  -2   4 16262.2 1054.75   2
   5  -2   5 1505.12 361.869   2
   5  -2   6 9180.22 849.672   2
   5  -2   7 3271.70 563.123   4
   5  -2   8 1932.80 463.785   4
   5  -2   9 2045.48 507.485   4
   5  -2  10 982.964 361.888   4
   5  -2  11-32.8962 311.493   4
   5  -2  11 248.515 335.568   3
   5  -2  12 470.249 399.522   3
  -5  -1  14-160.024 339.976   3
  -5  -1  13 760.291 386.953   3
  -5  -1  12 492.448 367.182   3
  -5  -1  11 138.654 222.108   3
  -5  -1  10 619.080 313.852   3
  -5  -1   9 1890.47 394.242   3
  -5  -1   8 3562.94 540.873   3
   5  -1  -7 4684.26 540.679   2
  -5  -1   7 5638.53 631.674   3
   5  -1  -6 18805.6 1023.05   2
  -5  -1   6 19667.1 1118.63   3
   5  -1  -5 281.654 97.9535   1
   5  -1  -5 286.647 204.835   2
   5  -1  -4 879.989 231.996   2
   5  -1  -4 806.010 152.293   1
   5  -1  -3 14458.3 623.405   1
   5  -1  -3 15000.2 852.710   2
   5  -1  -2 5982.28 551.586   2
   5  -1  -1 157.868 135.038   2
  -5  -1   1 404.396 98.8704   1
   5  -1   0 8324.21 645.458   2
   5  -1   1 14505.9 847.174   2
   5  -1   2 235.226 239.367   2
   5  -1   3 7131.21 679.730   2
   5  -1   4 2367.71 413.349   2
   5  -1   5-318.915 238.811   2
   5  -1   6 1110.26 356.630   2
   5  -1   7 2614.93 516.883   4
   5  -1   8 4599.25 652.359   4
   5  -1   9 2537.98 531.691   4
   5  -1  10 4935.80 748.387   4
   5  -1  11 1666.72 446.028   4
   5  -1  11 2268.36 527.038   3
   5  -1  12 3969.85 728.609   3
  -5   0  14 282.201 269.672   3
  -5   0  13-83.6239 213.886   3
  -5   0  12 519.344 352.252   3
  -5   0  11 340.450 291.198   3
  -5   0  10 69.9501 228.907   3
  -5   0   9 13537.7 1040.87   3
  -5   0   8 348.012 279.150   3
  -5   0   7 35.6385 193.401   3
   5   0  -7 441.002 217.361   2
   5   0  -6 3808.43 281.299   1
   5   0  -6 4316.69 477.236   2
   5   0  -5 1787.65 318.645   2
   5   0  -5 2289.25 208.773   1
   5   0  -4 454.325 138.287   2
   5   0  -3 274.089 177.896   2
   5   0  -2 567.710 188.938   2
   5   0  -1 3833.16 417.602   2
   5   0   0 257.273 176.192   2
   5   0   1 5484.96 538.440   2
   5   0   2 15356.5 916.862   2
   5   0   3 3594.64 469.531   2
   5   0   4 18776.4 1112.23   2
   5   0   5 3560.30 522.574   2
   5   0   6 10668.3 935.160   4
   5   0   7 4865.46 663.947   4
   5   0   8 2359.37 502.235   4
   5   0   9 1324.33 383.959   4
   5   0  10-160.869 309.317   4
   5   0  11-73.0881 314.082   4
   5   0  11 827.123 365.170   3
  -5   1  15 192.708 306.584   3
  -5   1  14-127.254 309.987   3
  -5   1  13 1186.98 414.075   3
  -5   1  12 145.901 250.901   3
  -5   1  11-626.014 311.794   3
  -5   1  10 398.366 286.632   3
   5   1  -8 3215.29 434.810   2
   5   1  -7 5306.00 519.554   2
   5   1  -6 19222.0 937.730   2
   5   1  -5 405.509 203.935   2
   5   1  -4-18.8684 109.602   2
   5   1  -3 15312.6 804.281   2
   5   1  -2 4348.26 425.354   2
   5   1  -1 1533.77 277.895   2
   5   1   0 7260.17 576.523   2
   5   1   1 15578.4 868.235   2
   5   1   2-189.863 183.923   2
   5   1   3 7035.80 657.819   2
   5   1   4 2307.35 405.364   2
   5   1   5 661.122 298.174   4
   5   1   6 467.837 298.930   4
   5   1   7 2231.58 472.879   4
   5   1   8 5597.79 757.521   4
   5   1   9 1873.54 459.114   4
   5   1  10 5176.97 807.066   4
   5   2  -9 426.285 175.232   2
   5   2  -8 1180.22 267.384   2
   5   2  -7 1560.79 280.017   2
   5   2  -6 8913.01 616.199   2
   5   2  -5 1714.21 262.950   2
   5   2  -4 18.4295 116.843   2
   5   2  -3 448.759 163.400   2
   5   2  -2 1842.27 263.900   2
   5   2  -1 15780.1 796.508   2
   5   2   0 1402.33 268.427   2
   5   2   1 8964.37 662.383   2
   5   2   2 21436.2 1058.83   2
   5   2   3 3245.23 491.810   4
   5   2   4 18395.7 1139.64   4
   5   2   5 1490.43 402.309   4
   5   2   6 10894.5 962.069   4
   5   2   7 1799.54 422.514   4
   5   2   8 1326.74 430.164   4
   5   2   9 1973.09 471.145   4
   5   3  -7 1719.10 253.325   2
   5   3  -6 808.031 182.511   2
   5   3  -5 9891.09 556.243   2
   5   3  -4 9380.76 535.416   2
   5   3  -3 8004.83 509.328   2
   5   3  -2 454.731 149.086   2
   5   3  -1 14654.4 756.630   2
   5   3   0 11123.5 681.423   2
   5   3   1 12920.8 788.644   2
   5   3   2 190.952 189.652   4
   5   3   3 3114.78 488.438   4
   5   3   4 3876.54 560.339   4
   5   3   5 2053.86 416.034   4
   5   3   6 2478.96 502.400   4
   5   3   7 8874.06 945.096   4
   5   3   8 1990.39 520.189   4
   5   4  -4 2488.45 251.508   2
   5   4  -3 4267.09 344.424   2
   5   4  -2 661.004 150.660   2
   5   4   0 15471.8 891.817   4
   5   4   1 4064.94 490.848   4
   5   4   2 2510.06 391.000   4
   5   4   3 3626.51 517.952   4
   5   4   4 7615.51 774.464   4
   5   4   5 7619.31 820.201   4
   5   4   6 3955.35 668.845   4
   5   5  -2 20238.3 903.734   4
   5   5  -1 3496.06 414.094   4
   5   5   0 5801.12 549.885   4
   5   5   1 5166.35 563.443   4
   5   5   2 1127.71 293.739   4
   5   5   3 179.230 190.412   4
   5   5   4 1631.47 381.773   4
  -6  -8   6 491.556 316.883   3
  -6  -8   5 119.369 228.559   3
   6  -8  -5-219.175 251.023   1
   6  -8  -4 38.0332 239.808   1
   6  -8  -4 188.960 277.500   2
  -6  -8   4 398.833 240.884   3
   6  -8  -3 454.749 356.358   2
   6  -8  -3 618.101 405.856   1
   6  -8  -2 951.268 382.483   1
   6  -8  -2 957.020 396.704   2
   6  -8  -1 182.539 228.753   2
   6  -8  -1 397.656 316.001   1
   6  -8   0 225.369 249.033   2
   6  -8   1 5223.31 755.098   2
   6  -8   2 745.933 346.900   2
   6  -8   3-133.350 309.243   2
  -6  -7   8-100.803 272.845   3
   6  -7  -7-187.405 282.993   1
  -6  -7   7 302.385 289.769   3
   6  -7  -7 761.172 459.460   2
   6  -7  -6 744.013 409.006   2
  -6  -7   6 691.246 309.559   3
   6  -7  -6-305.422 317.695   1
   6  -7  -5 1202.11 453.300   2
  -6  -7   5 1130.67 366.534   3
   6  -7  -5 1251.68 385.930   1
   6  -7  -4 1715.98 456.410   2
  -6  -7   4 1004.35 342.096   3
   6  -7  -4 975.959 360.901   1
   6  -7  -3 492.454 263.607   2
   6  -7  -3 597.130 304.607   1
   6  -7  -2 907.788 338.650   1
   6  -7  -2 584.407 312.069   2
   6  -7  -1 1324.89 372.649   2
   6  -7  -1 1845.92 428.682   1
   6  -7   0 1317.93 395.862   2
   6  -7   1 872.579 307.275   2
   6  -7   2 1752.96 459.003   2
   6  -7   3 1051.18 371.697   2
   6  -7   4 197.679 249.892   2
   6  -7   5 1186.75 402.537   2
  -6  -6   9-128.512 317.844   3
  -6  -6   8-96.0896 281.613   3
   6  -6  -8-497.668 438.823   2
  -6  -6   7 394.544 298.158   3
   6  -6  -7 701.277 306.687   1
   6  -6  -7 155.442 247.918   2
   6  -6  -6 158.093 291.706   2
  -6  -6   6 379.417 264.655   3
   6  -6  -6 972.982 297.177   1
   6  -6  -5 2232.52 507.511   2
  -6  -6   5 2139.04 438.569   3
   6  -6  -5 2563.02 505.447   1
   6  -6  -4 156.678 275.346   2
  -6  -6   4 132.144 218.711   3
   6  -6  -4 338.403 263.416   1
   6  -6  -3 2922.97 536.942   2
   6  -6  -3 2381.20 449.308   1
   6  -6  -2 783.869 291.372   1
   6  -6  -2 1311.51 385.463   2
   6  -6  -1 1595.92 387.611   1
   6  -6  -1 901.651 358.706   2
   6  -6   0 289.670 201.760   2
   6  -6   1 3438.20 564.448   2
   6  -6   2 391.306 289.337   2
   6  -6   3 2648.09 509.967   2
   6  -6   4 1251.19 402.710   2
   6  -6   5 896.424 358.778   2
   6  -6   6 454.927 312.485   2
   6  -6   7 2168.30 528.590   2
  -6  -5  10 1183.47 486.004   3
   6  -5 -10-348.742 305.107   2
  -6  -5   9 551.374 388.004   3
   6  -5  -9 237.459 265.186   2
  -6  -5   8 397.056 294.821   3
   6  -5  -8 119.887 239.474   2
  -6  -5   7 1249.30 375.922   3
   6  -5  -7 429.595 219.901   1
   6  -5  -7 1681.63 436.021   2
   6  -5  -6 2437.08 536.136   2
   6  -5  -6 1471.95 391.707   1
  -6  -5   6 2301.80 503.330   3
   6  -5  -5-165.204 196.477   2
  -6  -5   5 68.5199 215.523   3
   6  -5  -5 296.933 199.723   1
   6  -5  -4 2551.09 522.130   2
   6  -5  -4 2030.81 376.613   1
   6  -5  -3 3189.18 517.478   2
   6  -5  -3 3005.63 473.370   1
   6  -5  -2 1461.73 370.158   2
   6  -5  -2 1612.64 365.123   1
   6  -5  -1 803.737 343.957   2
   6  -5  -1 876.209 308.607   1
   6  -5   0 918.280 357.976   2
   6  -5   1 3591.13 558.300   2
   6  -5   2 684.806 273.301   2
   6  -5   3 2112.03 466.781   2
   6  -5   4 780.342 393.785   2
   6  -5   5 2127.41 450.206   2
   6  -5   6 929.140 338.451   2
   6  -5   7 255.511 278.685   2
   6  -5   8 2610.41 583.261   4
   6  -5   8 1570.25 482.856   2
  -6  -4  11 466.069 301.508   3
  -6  -4  10 355.987 319.732   3
   6  -4 -10 420.123 295.885   2
  -6  -4   9 519.407 385.929   3
   6  -4  -9 43.0112 209.213   2
  -6  -4   8 163.695 275.387   3
   6  -4  -8 351.680 247.090   2
  -6  -4   7 2249.06 512.566   3
   6  -4  -7 2005.50 505.331   2
   6  -4  -6 1604.30 467.222   2
   6  -4  -6 930.716 305.315   1
  -6  -4   6 591.578 316.515   3
   6  -4  -5 595.517 228.753   2
  -6  -4   5 990.231 331.814   3
   6  -4  -5 450.736 227.881   1
   6  -4  -4 71.5122 220.435   2
   6  -4  -4 2.69902 196.276   1
   6  -4  -3 69.5894 170.739   2
   6  -4  -3 458.711 192.064   1
   6  -4  -2 39.9013 200.704   2
   6  -4  -2 306.607 243.405   1
   6  -4  -1-28.2688 208.927   2
   6  -4   0 2004.94 409.656   2
   6  -4   1 941.353 277.368   2
   6  -4   2 2104.58 424.984   2
   6  -4   3 2530.31 457.756   2
   6  -4   4 2000.59 434.498   2
   6  -4   5 3965.96 639.452   2
   6  -4   6 1110.40 394.927   2
   6  -4   7 1527.92 467.335   2
   6  -4   8 2151.25 544.469   4
   6  -4   8 1057.28 398.404   2
   6  -4   9 422.191 288.766   4
  -6  -3  11 894.561 455.179   3
  -6  -3  10 974.553 435.344   3
  -6  -3   9 142.265 258.248   3
   6  -3  -9 613.721 353.238   2
  -6  -3   8 280.927 277.446   3
   6  -3  -8-240.510 274.949   2
  -6  -3   7 835.961 357.275   3
   6  -3  -7 1007.62 235.534   1
   6  -3  -7 689.494 298.647   2
   6  -3  -6 1206.19 366.701   2
  -6  -3   6 1417.92 397.824   3
   6  -3  -6 975.972 249.571   1
   6  -3  -5 12540.1 973.180   2
   6  -3  -5 14090.7 840.007   1
   6  -3  -4 809.202 355.223   2
   6  -3  -4 289.886 192.628   1
   6  -3  -3-2.49950 169.831   2
   6  -3  -3 288.814 175.263   1
   6  -3  -2 5080.09 607.901   2
   6  -3  -1 9260.39 803.397   2
   6  -3   0 5577.28 632.530   2
   6  -3   1 7034.87 687.491   2
   6  -3   2 3975.45 555.453   2
   6  -3   3 377.584 284.391   2
   6  -3   4 1284.21 378.141   2
   6  -3   5 280.640 256.576   2
   6  -3   6 1812.77 450.160   2
   6  -3   7 431.047 308.529   2
   6  -3   8 1806.35 484.983   4
   6  -3   9 1267.55 471.297   4
  -6  -2  12-340.234 364.727   3
  -6  -2  11 563.438 318.575   3
  -6  -2  10 558.228 344.674   3
  -6  -2   9 175.452 247.329   3
   6  -2  -9-47.0517 201.068   2
  -6  -2   8 2420.13 488.120   3
   6  -2  -8 2482.00 479.985   2
   6  -2  -7 1634.54 273.828   1
  -6  -2   7 1983.43 430.399   3
   6  -2  -7 1531.87 409.896   2
   6  -2  -6 2531.89 464.788   2
   6  -2  -6 2120.34 310.933   1
   6  -2  -5 5710.75 652.513   2
   6  -2  -5 5237.30 476.178   1
   6  -2  -4 1803.84 388.498   2
   6  -2  -4 1807.60 298.257   1
   6  -2  -3 289.835 168.882   2
   6  -2  -2 3783.08 497.707   2
   6  -2  -1 1443.65 353.751   2
   6  -2   0 1570.47 323.366   2
   6  -2   1 5363.87 587.425   2
   6  -2   2 3475.92 524.501   2
   6  -2   3 1816.61 423.462   2
   6  -2   4 1750.85 443.720   2
   6  -2   5 7534.86 820.388   2
   6  -2   6 2246.71 469.096   2
   6  -2   7 1893.04 532.037   4
   6  -2   7 1099.17 427.174   2
   6  -2   8 3055.19 618.752   4
   6  -2   9 1158.04 435.604   4
  -6  -1  13 346.415 336.435   3
  -6  -1  12 568.319 370.242   3
  -6  -1  11 98.6815 273.785   3
  -6  -1  10-215.492 242.547   3
   6  -1 -10-157.669 232.206   2
  -6  -1   9 949.585 378.414   3
   6  -1  -9 85.0711 188.507   2
   6  -1  -8 1150.08 315.484   2
   6  -1  -7 1035.34 324.806   2
   6  -1  -6 1145.51 316.234   2
   6  -1  -6 1246.56 210.491   1
   6  -1  -5 1715.00 386.503   2
   6  -1  -5 1705.33 243.840   1
   6  -1  -4 1630.90 328.396   2
   6  -1  -3 503.394 210.851   2
   6  -1  -2 8775.78 715.058   2
   6  -1  -1-127.432 158.936   2
   6  -1   0 5363.84 573.543   2
   6  -1   1 9175.09 765.642   2
   6  -1   2 700.428 289.361   2
   6  -1   3 2634.92 463.204   2
   6  -1   4 3536.47 545.764   2
   6  -1   5 1173.91 351.820   2
   6  -1   6 1713.14 449.808   2
   6  -1   7 1553.98 480.499   4
   6  -1   8 2276.84 540.162   4
   6  -1   9 1585.41 489.781   4
  -6   0  13-333.394 258.244   3
  -6   0  12 314.461 267.115   3
  -6   0  11 1278.52 482.608   3
   6   0 -10 63.2181 175.158   2
   6   0  -9 22.9971 175.423   2
   6   0  -8 766.749 312.918   2
   6   0  -7 208.071 170.314   2
   6   0  -6 83.4646 168.594   2
   6   0  -5 11428.9 817.157   2
   6   0  -4 1246.42 289.295   2
   6   0  -3 30.5310 154.742   2
   6   0  -2 1756.12 340.400   2
   6   0  -1 108.291 133.276   2
   6   0   0 3823.85 470.166   2
   6   0   1 725.652 248.256   2
   6   0   2 278.956 198.485   2
   6   0   3 35253.2 1589.80   2
   6   0   4 96.9590 204.530   2
   6   0   5 4681.76 627.009   2
   6   0   6 1575.61 461.784   4
   6   0   7 5136.95 760.468   4
   6   0   8 1803.39 525.982   4
   6   0   9 261.415 327.521   4
   6   1 -11 164.932 184.971   2
   6   1 -10-141.040 201.989   2
   6   1  -9 590.560 266.341   2
   6   1  -8 1255.72 305.823   2
   6   1  -7 972.723 292.532   2
   6   1  -6 924.436 266.230   2
   6   1  -5 1054.73 250.773   2
   6   1  -4 1801.49 334.091   2
   6   1  -3 310.780 190.679   2
   6   1  -2 9031.09 687.659   2
   6   1  -1 23.9641 138.884   2
   6   1   0 4858.95 551.990   2
   6   1   1 10323.8 782.738   2
   6   1   2 1334.59 325.261   2
   6   1   3 2550.76 444.372   2
   6   1   4 3475.02 521.337   2
   6   1   5 1751.87 446.972   4
   6   1   6 1907.48 461.704   4
   6   1   7 1411.61 403.817   4
   6   1   8 1435.87 430.291   4
   6   1   9 2214.81 576.452   4
   6   2  -8 2870.04 433.757   2
   6   2  -7 1128.81 286.923   2
   6   2  -6 2619.66 362.449   2
   6   2  -5 4719.79 484.942   2
   6   2  -4 2316.38 343.432   2
   6   2  -3 131.745 126.396   2
   6   2  -2 2881.16 388.955   2
   6   2  -1 1528.67 323.604   2
   6   2   0 1413.98 317.840   2
   6   2   1 6549.89 622.458   2
   6   2   2 4476.69 537.112   2
   6   2   3-100.722 256.882   2
   6   2   4 1420.62 410.678   4
   6   2   5 6562.53 770.236   4
   6   2   6 1881.33 430.544   4
   6   2   7 1053.33 404.122   4
   6   2   8 2240.40 527.009   4
   6   2   9 884.682 375.928   4
   6   3  -6 1026.12 227.494   2
   6   3  -5 13156.8 724.297   2
   6   3  -4 139.133 126.051   2
   6   3  -3 362.311 175.214   2
   6   3  -2 5061.74 476.445   2
   6   3  -1 11386.7 746.309   2
   6   3   0 5968.30 567.817   2
   6   3   1 5953.87 594.995   2
   6   3   2 4935.99 615.175   4
   6   3   3 504.871 266.643   4
   6   3   4 903.438 329.613   4
   6   3   5-237.020 285.926   4
   6   3   6 1201.82 409.140   4
   6   3   7 335.359 259.805   4
   6   3   8 1276.82 443.187   4
   6   3   9 375.245 278.187   4
   6   4  -2 182.038 131.002   2
   6   4   0 1537.53 350.320   4
   6   4   1 671.174 268.242   4
   6   4   2 2517.34 449.900   4
   6   4   3 2329.39 473.002   4
   6   4   4 2120.49 480.511   4
   6   4   5 5197.83 722.970   4
   6   4   6 170.717 228.002   4
   6   4   7 1980.29 513.158   4
   6   5  -1 1002.10 274.737   4
   6   5   0 1017.00 300.291   4
   6   5   1 3780.82 537.869   4
   6   5   2 1308.66 353.629   4
   6   5   3 2462.14 481.133   4
   6   5   4-221.415 315.955   4
   6   5   5 1317.68 427.028   4
   7  -7  -7 673.183 398.770   1
   7  -7  -6-125.855 259.862   1
   7  -7  -5 696.589 337.106   1
   7  -7  -4 700.290 366.549   1
   7  -7  -3 487.883 297.620   1
   7  -7  -2-60.5190 252.182   1
   7  -6  -8 235.740 282.788   1
  -7  -6   7 244.979 345.383   3
   7  -6  -7-29.6735 246.433   1
   7  -6  -6 173.996 320.257   2
   7  -6  -6 203.858 250.043   1
   7  -6  -5 190.847 239.516   2
   7  -6  -5 563.062 295.324   1
   7  -6  -4 1312.80 400.612   1
   7  -6  -4 251.203 217.137   2
   7  -6  -3-151.301 239.445   1
   7  -6  -3 241.781 335.381   2
   7  -6  -2 635.899 332.447   2
   7  -6  -1 640.780 284.308   2
   7  -6   0 688.637 321.248   2
   7  -6   1 745.804 337.703   2
   7  -6   2 2669.96 560.241   2
   7  -6   3 1011.97 406.920   2
   7  -5  -8-488.329 278.970   2
  -7  -5   8 562.621 390.145   3
   7  -5  -7 364.231 317.240   2
   7  -5  -7 449.077 257.680   1
   7  -5  -6 155.546 248.445   1
   7  -5  -6 350.109 248.998   2
   7  -5  -5 168.831 329.728   2
   7  -5  -5 116.242 210.534   1
   7  -5  -4 3485.39 622.686   2
   7  -5  -4 3397.41 524.880   1
   7  -5  -3 1091.52 353.780   2
   7  -5  -3 1449.98 383.523   1
   7  -5  -2 1122.59 361.701   2
   7  -5  -1 384.013 264.909   2
   7  -5   0 1723.48 452.478   2
   7  -5   1 112.600 239.224   2
   7  -5   2 388.795 217.493   2
   7  -5   3 651.996 351.342   2
   7  -5   4 1417.98 462.405   2
   7  -5   5-177.397 250.471   2
  -7  -4   9 425.652 342.734   3
   7  -4  -9 354.098 416.477   2
   7  -4  -8 269.956 322.818   2
  -7  -4   8 179.053 281.747   3
   7  -4  -7 600.489 339.026   2
   7  -4  -6 1510.43 452.861   2
   7  -4  -6 1660.23 383.857   1
   7  -4  -5 852.620 335.803   2
   7  -4  -5 751.093 274.035   1
   7  -4  -4 1755.18 365.472   1
   7  -4  -4 1427.99 424.947   2
   7  -4  -3 852.502 341.128   2
   7  -4  -2 318.092 272.727   2
   7  -4  -1 1187.18 347.966   2
   7  -4   0 273.189 282.036   2
   7  -4   1 482.018 314.529   2
   7  -4   2 333.414 255.989   2
   7  -4   3 1037.41 430.969   2
   7  -4   4 2065.45 539.642   2
   7  -4   5 1406.51 407.103   2
   7  -4   6 490.892 356.953   2
   7  -3 -11-576.850 417.642   2
  -7  -3  10 746.142 403.240   3
   7  -3 -10-74.9557 289.552   2
  -7  -3   9 753.640 355.196   3
   7  -3  -9 1461.64 518.212   2
   7  -3  -8-33.7531 317.950   2
   7  -3  -7 167.013 282.928   2
   7  -3  -6 522.795 301.642   2
   7  -3  -5 1185.31 376.163   2
   7  -3  -5 798.243 248.415   1
   7  -3  -4 1304.39 372.968   2
   7  -3  -3 321.354 265.156   2
   7  -3  -2-147.149 238.112   2
   7  -3  -1 623.265 264.141   2
   7  -3   0 172.528 217.043   2
   7  -3   1 722.846 314.477   2
   7  -3   2 856.143 358.241   2
   7  -3   3 2798.84 535.085   2
   7  -3   4 416.301 388.156   2
   7  -3   5 389.946 260.513   2
   7  -3   6 78.5944 252.241   2
   7  -2 -12 382.400 365.102   2
   7  -2 -11 316.039 296.596   2
   7  -2 -10 1464.54 495.218   2
   7  -2  -9 907.812 404.799   2
   7  -2  -8-54.0679 243.722   2
   7  -2  -7 419.833 242.700   2
   7  -2  -6 1094.72 351.663   2
   7  -2  -5 2251.75 480.544   2
   7  -2  -4 1827.16 405.683   2
   7  -2  -3 376.269 279.404   2
   7  -2  -2 191.370 246.120   2
   7  -2  -1 1012.42 341.835   2
   7  -2   0 102.907 163.988   2
   7  -2   1-10.9169 236.307   2
   7  -2   2 1296.79 371.331   2
   7  -2   3 243.425 280.155   2
   7  -2   4 6022.77 763.251   2
   7  -2   5 1550.98 424.724   2
   7  -2   6 569.785 340.822   2
   7  -2   7 890.039 395.574   4
   7  -1 -13 272.226 342.655   2
   7  -1 -12 396.089 251.272   2
   7  -1 -11 557.552 397.256   2
   7  -1 -10 309.671 261.984   2
   7  -1  -9-135.227 240.504   2
   7  -1  -8 590.969 302.181   2
   7  -1  -7 394.070 278.665   2
   7  -1  -6 106.153 226.756   2
   7  -1  -5 1744.80 420.322   2
   7  -1  -4 1073.04 293.706   2
   7  -1  -3 1090.34 305.542   2
   7  -1  -2 666.299 277.092   2
   7  -1  -1 5208.80 621.040   2
   7  -1   0 1072.80 308.804   2
   7  -1   1 2559.47 482.508   2
   7  -1   2 10217.5 933.366   2
   7  -1   3 584.901 313.428   2
   7  -1   4 1118.13 382.305   2
   7  -1   5 1022.45 337.788   2
   7  -1   6 222.237 245.037   2
   7  -1   7 1483.17 498.884   4
   7   0 -11 223.900 248.539   2
   7   0 -10-47.3091 209.277   2
   7   0  -9 490.854 289.472   2
   7   0  -8 77.6214 190.763   2
   7   0  -7 674.527 311.344   2
   7   0  -6 633.110 272.121   2
   7   0  -5 2327.47 413.007   2
   7   0  -4 912.780 280.447   2
   7   0  -3 2198.51 404.670   2
   7   0  -2 1373.54 337.882   2
   7   0  -1 1127.33 278.369   2
   7   0   0 4440.61 576.731   2
   7   0   1 2174.09 471.585   2
   7   0   2 9109.51 859.030   2
   7   0   3 439.945 277.056   2
   7   0   4 15.0525 256.150   2
   7   0   5-192.097 279.024   2
   7   0   6 3795.95 699.864   4
   7   0   7 1755.89 550.301   4
   7   1  -9-74.3283 196.032   2
   7   1  -8 965.348 321.296   2
   7   1  -7 193.115 222.802   2
   7   1  -6-103.703 171.490   2
   7   1  -5 696.908 296.845   2
   7   1  -4 1161.11 305.727   2
   7   1  -3 1382.61 297.552   2
   7   1  -2 944.206 305.817   2
   7   1  -1 5195.28 610.657   2
   7   1   0 2090.24 421.755   2
   7   1   1 3169.67 510.789   2
   7   1   2 7890.79 788.182   2
   7   1   3 655.263 272.137   2
   7   1   4 939.704 325.414   2
   7   1   5 2501.44 583.206   4
   7   1   6 524.521 350.383   4
   7   1   7 1138.56 426.579   4
   7   2  -6 552.982 243.610   2
   7   2  -5 2739.16 416.364   2
   7   2  -4 1551.49 342.845   2
   7   2  -3 793.738 261.627   2
   7   2  -2 580.285 246.228   2
   7   2  -1 538.829 260.423   2
   7   2   0 197.503 212.168   2
   7   2   1 285.906 239.912   2
   7   2   2 338.646 232.777   2
   7   2   3-55.8735 312.489   2
   7   2   4 7857.77 905.739   4
   7   2   5 1420.51 471.769   4
   7   2   6 1055.66 449.815   4
   7   2   7 571.915 307.160   4
   7   3  -3 472.709 216.448   2
   7   3  -2 319.924 232.320   2
   7   3  -1 1047.37 280.986   2
   7   3   0 1067.04 290.581   2
   7   3   1 18.8468 193.847   2
   7   3   2 1902.23 464.941   4
   7   3   3 2730.79 550.599   4
   7   3   4-143.913 276.089   4
   7   3   5-281.261 320.862   4
   7   3   6 172.461 323.227   4
   7   3   7 1266.70 438.015   4
   7   4   0 766.736 312.388   4
   7   4   1 383.447 274.275   4
   7   4   2 809.308 308.724   4
   7   4   3 553.972 289.706   4
   7   4   4 1206.28 402.822   4
   7   4   5 678.674 286.910   4
   7   4   6 862.223 474.848   4
   7   4   7 418.792 344.469   4
   7   5   1 64.4167 187.343   4
   7   5   2 620.847 266.867   4
   7   5   3 442.043 305.067   4
   7   5   4-16.2981 240.636   4
   7   5   5-654.077 408.061   4
   8  -4  -6 206.057 289.311   2
   8  -4  -5 187.629 348.561   2
   8  -4  -4 70.5104 274.212   2
   8  -4  -3 898.432 298.935   2
   8  -4  -2 517.057 341.732   2
   8  -4  -1-217.667 283.289   2
   8  -4   0 854.012 358.106   2
   8  -4   1 104.695 261.588   2
   8  -4   2 138.728 255.165   2
   8  -3  -8 160.210 328.043   2
   8  -3  -7-33.3706 263.019   2
   8  -3  -6 261.230 327.147   2
   8  -3  -5-398.769 338.604   2
   8  -3  -4 534.185 288.692   2
   8  -3  -3-79.0241 269.993   2
   8  -3  -2 378.901 253.281   2
   8  -3  -1 85.0932 228.634   2
   8  -3   0 243.908 286.069   2
   8  -3   1 247.822 295.951   2
   8  -3   2 1266.63 381.505   2
   8  -3   3 1370.33 456.895   2
   8  -2 -10 833.249 429.433   2
   8  -2  -9 642.342 414.600   2
   8  -2  -8-199.423 257.312   2
   8  -2  -7 109.628 330.320   2
   8  -2  -6-506.909 342.794   2
   8  -2  -5 899.859 345.301   2
   8  -2  -4 1136.19 380.959   2
   8  -2  -3 720.205 304.361   2
   8  -2  -2 1289.63 341.493   2
   8  -2  -1 688.251 313.012   2
   8  -2   0 366.486 300.966   2
   8  -2   1 1428.44 421.826   2
   8  -2   2 929.996 426.621   2
   8  -2   3 703.055 325.866   2
   8  -2   4 1598.02 485.094   2
   8  -1 -11 287.739 330.250   2
   8  -1 -10 1060.70 450.307   2
   8  -1  -9 48.0521 240.070   2
   8  -1  -8 495.961 320.561   2
   8  -1  -7 322.505 285.843   2
   8  -1  -6-106.929 237.818   2
   8  -1  -5 1146.11 414.422   2
   8  -1  -4 352.043 250.755   2
   8  -1  -3 244.917 221.501   2
   8  -1  -2 533.972 290.044   2
   8  -1  -1 154.510 234.700   2
   8  -1   0 454.366 244.748   2
   8  -1   1 748.751 340.241   2
   8  -1   2 1236.45 403.771   2
   8  -1   3 391.603 273.257   2
   8  -1   4 1279.65 431.005   2
   8  -1   5-385.374 356.860   2
   8   0  -9 1549.69 436.716   2
   8   0  -8 869.110 383.040   2
   8   0  -7 258.619 279.409   2
   8   0  -6 96.0101 193.510   2
   8   0  -5 391.339 280.774   2
   8   0  -4 550.310 304.309   2
   8   0  -3 214.052 208.793   2
   8   0  -2 204.486 215.320   2
   8   0  -1 407.744 231.354   2
   8   0   0 664.968 293.789   2
   8   0   1 616.309 278.390   2
   8   0   2 63.5097 228.198   2
   8   0   3 113.048 236.371   2
   8   0   4 276.772 267.953   2
   8   0   5 1504.02 502.512   2
   8   1  -7-152.180 215.546   2
   8   1  -6-254.501 202.637   2
   8   1  -5-12.2208 186.678   2
   8   1  -4 36.2178 198.450   2
   8   1  -3 1079.69 343.768   2
   8   1  -2 262.332 218.843   2
   8   1  -1 490.818 283.443   2
   8   1   0 1248.87 372.081   2
   8   1   1 1048.97 377.333   2
   8   1   2 1129.87 369.212   2
   8   1   3 581.950 252.443   2
   8   1   4 1051.78 349.357   2
   8   1   5 1395.90 530.854   4
   8   2  -4-15.9874 184.606   2
   8   2  -3 47.4813 171.039   2
   8   2  -2 1283.37 345.205   2
   8   2  -1 792.129 285.473   2
   8   2   0 668.996 245.128   2
   8   2   1 1388.16 356.406   2
   8   2   2-2.56332 252.828   2
   8   2   3 2359.88 554.026   4
   8   2   4 1877.26 506.072   4
   8   2   5 165.298 300.539   4
   8   3  -1 258.940 272.526   2
   8   3   0 29.8718 188.754   2
   8   3   1-295.927 260.621   2
   8   3   2 1378.98 432.551   4
   8   3   3 802.707 386.579   4
   8   3   4-197.052 271.858   4
   8   3   5 613.129 438.695   4
   8   4   0 477.676 319.281   4
   8   4   1 525.392 298.637   4
   8   4   2-305.489 263.506   4
   8   4   3 2341.10 551.047   4
   8   4   4 985.573 428.597   4
   8   5   4-235.698 375.818   4
   9  -2  -5 742.703 365.052   2
   9  -2  -4 194.075 258.776   2
   9  -2  -3 369.506 337.414   2
   9  -2  -2 36.1377 226.340   2
   9  -2  -1 83.4480 250.345   2
   9  -1  -8 308.559 364.564   2
   9  -1  -7-1.33304 283.092   2
   9  -1  -6 471.571 294.746   2
   9  -1  -5 140.514 252.162   2
   9  -1  -4 10.4950 265.536   2
   9  -1  -3 208.886 225.700   2
   9  -1  -2-307.732 297.973   2
   9  -1  -1 460.707 318.690   2
   9  -1   0 916.743 429.666   2
   9  -1   1-474.407 313.571   2
   9   0  -7-281.749 303.812   2
   9   0  -6 96.7246 254.572   2
   9   0  -5 193.895 265.022   2
   9   0  -4-313.865 256.000   2
   9   0  -3 254.414 261.602   2
   9   0  -2-61.3649 225.855   2
   9   0  -1 1071.09 392.688   2
   9   0   0 657.525 382.844   2
   9   0   1 127.934 280.190   2
   9   0   2 589.834 350.516   2
   9   1  -4 335.893 266.543   2
   9   1  -3 513.333 309.805   2
   9   1  -2 124.358 235.536   2
   9   1  -1 739.795 392.405   2
   9   1   0 365.800 313.993   2
   9   1   1-41.4147 273.700   2
   9   1   2-260.449 323.773   2
   9   2  -1 509.694 322.692   2
   9   2   0 215.820 283.886   2
   9   2   1 307.677 214.589   2
   9   2   2-291.543 361.982   2
   9   3   1 898.932 416.082   4
   9   3   2 1312.71 517.998   4
   0   0   0    0.00    0.00   0
TITL 140314_s1_kcc in P2(1)
REM P2(1) (#4 in standard setting)
CELL 0.71073   7.192558   8.665728  12.047704  90.0000  97.9742  90.0000
ZERR    2.00   0.000372   0.000311   0.000524   0.0000   0.0049   0.0000
LATT -1
SYMM -x, y+1/2,-z
SFAC C H N O Br
UNIT 30.00 24.00 4.00 6.00 2.00
TREF
HKLF 4
END
;
_shelx_hkl_checksum              25131
_olex2_computing_structure_refinement_long 'ShelXL (Sheldrick, 2008)'
#END Tags that were not found in dictionaries
loop_
_space_group_symop_operation_xyz
'x, y, z'
'-x, y+1/2, -z'
loop_
_atom_site_label
_atom_site_type_symbol
_atom_site_fract_x
_atom_site_fract_y
_atom_site_fract_z
_atom_site_U_iso_or_equiv
_atom_site_adp_type
_atom_site_occupancy
_atom_site_site_symmetry_order
_atom_site_calc_flag
_atom_site_refinement_flags_posn
Br1 Br 1.52464(13) 0.27163(9) 0.46782(5) 0.0875(3) Uani 1 1 d .
C1 C 1.1325(8) 0.5971(6) 0.2330(5) 0.0389(13) Uani 1 1 d .
C2 C 1.3006(8) 0.5452(6) 0.2020(5) 0.0434(16) Uani 1 1 d .
H2 H 1.3344 0.5764 0.1337 0.052 Uiso 1 1 calc R
C3 C 1.4191(9) 0.4483(7) 0.2704(5) 0.0518(16) Uani 1 1 d .
H3 H 1.5302 0.4126 0.2483 0.062 Uiso 1 1 calc R
C4 C 1.3681(10) 0.4064(7) 0.3714(5) 0.0539(17) Uani 1 1 d .
C5 C 1.2035(10) 0.4548(8) 0.4049(5) 0.0596(18) Uani 1 1 d .
H5 H 1.1713 0.4230 0.4735 0.072 Uiso 1 1 calc R
C6 C 1.0855(9) 0.5512(7) 0.3362(5) 0.0513(16) Uani 1 1 d .
H6 H 0.9742 0.5854 0.3589 0.062 Uiso 1 1 calc R
C7 C 0.9997(9) 0.7003(6) 0.1620(5) 0.0449(15) Uani 1 1 d .
C8 C 1.0592(7) 0.7638(8) 0.0561(4) 0.0380(12) Uani 1 1 d .
H8 H 1.1944 0.7799 0.0576 0.046 Uiso 1 1 calc R
C9 C 0.9501(7) 0.7404(6) -0.0564(4) 0.0357(13) Uani 1 1 d .
C10 C 1.0616(8) 0.7402(7) -0.1543(5) 0.0434(15) Uani 1 1 d .
N1 N 0.9730(7) 0.6386(6) -0.2308(4) 0.0452(12) Uani 1 1 d .
C11 C 0.8078(8) 0.5827(6) -0.1956(5) 0.0386(13) Uani 1 1 d .
C12 C 0.7845(7) 0.6403(5) -0.0910(4) 0.0312(12) Uani 1 1 d .
C13 C 0.6282(8) 0.6023(6) -0.0422(5) 0.0438(14) Uani 1 1 d .
H13 H 0.6111 0.6419 0.0274 0.053 Uiso 1 1 calc R
C14 C 0.4955(7) 0.5022(7) -0.1006(6) 0.0491(16) Uani 1 1 d .
H14 H 0.3889 0.4748 -0.0696 0.059 Uiso 1 1 calc R
C15 C 0.5224(8) 0.4446(7) -0.2032(6) 0.0522(17) Uani 1 1 d .
H15 H 0.4334 0.3775 -0.2399 0.063 Uiso 1 1 calc R
C16 C 0.6768(9) 0.4827(7) -0.2536(5) 0.0478(17) Uani 1 1 d .
H16 H 0.6929 0.4434 -0.3235 0.057 Uiso 1 1 calc R
C17 C 1.0414(9) 0.5972(8) -0.3345(5) 0.0655(19) Uani 1 1 d .
H17A H 1.1550 0.6529 -0.3404 0.098 Uiso 1 1 calc GR
H17B H 0.9484 0.6230 -0.3968 0.098 Uiso 1 1 calc GR
H17C H 1.0661 0.4884 -0.3349 0.098 Uiso 1 1 calc GR
O1 O 0.8499(6) 0.7353(6) 0.1896(3) 0.0665(15) Uani 1 1 d .
O2 O 0.9396(5) 0.8826(4) 0.0012(3) 0.0445(10) Uani 1 1 d .
O3 O 1.2032(6) 0.8138(5) -0.1626(4) 0.0606(13) Uani 1 1 d .
loop_
_atom_site_aniso_label
_atom_site_aniso_U_11
_atom_site_aniso_U_22
_atom_site_aniso_U_33
_atom_site_aniso_U_23
_atom_site_aniso_U_13
_atom_site_aniso_U_12
Br1 0.1219(7) 0.0745(5) 0.0549(4) -0.0086(5) -0.0275(4) 0.0404(6)
C1 0.040(3) 0.037(3) 0.039(3) -0.008(3) 0.002(3) -0.002(3)
C2 0.046(4) 0.050(4) 0.035(4) -0.001(3) 0.005(3) 0.006(3)
C3 0.043(4) 0.061(4) 0.049(4) -0.007(3) -0.002(3) 0.009(3)
C4 0.071(5) 0.045(4) 0.039(4) -0.011(3) -0.014(3) 0.015(3)
C5 0.084(5) 0.060(4) 0.036(4) 0.000(3) 0.011(4) 0.005(4)
C6 0.053(4) 0.052(4) 0.051(4) -0.006(3) 0.013(3) 0.015(3)
C7 0.043(4) 0.045(3) 0.045(3) -0.013(3) -0.001(3) 0.006(3)
C8 0.036(3) 0.031(2) 0.045(3) -0.003(4) -0.001(2) 0.004(3)
C9 0.033(3) 0.029(3) 0.044(3) 0.002(3) 0.001(2) -0.002(2)
C10 0.042(3) 0.038(4) 0.048(3) 0.008(3) -0.001(3) 0.002(3)
N1 0.046(3) 0.049(3) 0.041(3) 0.004(2) 0.009(2) 0.000(2)
C11 0.038(3) 0.036(3) 0.040(3) 0.004(3) -0.002(3) 0.002(3)
C12 0.032(3) 0.023(2) 0.037(3) 0.001(2) 0.003(2) 0.002(2)
C13 0.041(3) 0.041(3) 0.051(4) 0.002(3) 0.010(3) 0.002(3)
C14 0.029(3) 0.046(3) 0.073(5) 0.007(3) 0.009(3) -0.003(3)
C15 0.040(4) 0.046(4) 0.066(4) 0.005(3) -0.009(3) -0.011(3)
C16 0.058(4) 0.047(4) 0.034(4) 0.001(3) -0.011(3) -0.001(3)
C17 0.070(5) 0.079(5) 0.050(4) -0.006(4) 0.019(4) 0.004(4)
O1 0.049(3) 0.093(4) 0.059(3) 0.000(3) 0.016(2) 0.030(3)
O2 0.051(3) 0.0245(19) 0.055(3) -0.0002(18) -0.004(2) 0.0035(18)
O3 0.045(3) 0.068(3) 0.070(3) 0.009(2) 0.014(2) -0.019(2)
loop_
_atom_type_symbol
_atom_type_description
_atom_type_scat_dispersion_real
_atom_type_scat_dispersion_imag
_atom_type_scat_source
C C 0.0033 0.0016 'International Tables Vol C Tables 4.2.6.8 and 6.1.1.4'
H H 0.0000 0.0000 'International Tables Vol C Tables 4.2.6.8 and 6.1.1.4'
Br Br -0.2901 2.4595 'International Tables Vol C Tables 4.2.6.8 and 6.1.1.4'
N N 0.0061 0.0033 'International Tables Vol C Tables 4.2.6.8 and 6.1.1.4'
O O 0.0106 0.0060 'International Tables Vol C Tables 4.2.6.8 and 6.1.1.4'
loop_
_geom_angle_atom_site_label_1
_geom_angle_atom_site_label_2
_geom_angle_atom_site_label_3
_geom_angle
C2 C1 C6 118.4(6)
C2 C1 C7 123.6(5)
C6 C1 C7 118.0(5)
C1 C2 H2 119.2
C3 C2 C1 121.6(6)
C3 C2 H2 119.2
C2 C3 H3 120.9
C4 C3 C2 118.1(6)
C4 C3 H3 120.9
C3 C4 Br1 119.8(5)
C3 C4 C5 122.1(6)
C5 C4 Br1 118.1(5)
C4 C5 H5 120.2
C4 C5 C6 119.5(6)
C6 C5 H5 120.2
C1 C6 H6 119.9
C5 C6 C1 120.2(6)
C5 C6 H6 119.9
C1 C7 C8 118.1(5)
O1 C7 C1 121.1(6)
O1 C7 C8 120.7(5)
C7 C8 H8 115.7
C9 C8 C7 123.2(5)
C9 C8 H8 115.7
O2 C8 C7 115.4(4)
O2 C8 H8 115.7
O2 C8 C9 58.1(3)
C8 C9 C10 116.2(4)
C8 C9 C12 129.7(5)
C12 C9 C10 105.7(4)
O2 C9 C8 59.5(3)
O2 C9 C10 116.8(4)
O2 C9 C12 123.2(4)
N1 C10 C9 106.2(5)
O3 C10 C9 127.1(5)
O3 C10 N1 126.7(6)
C10 N1 C11 110.7(5)
C10 N1 C17 124.0(5)
C11 N1 C17 125.3(5)
C12 C11 N1 111.4(5)
C12 C11 C16 121.4(6)
C16 C11 N1 127.3(6)
C11 C12 C9 105.8(5)
C13 C12 C9 133.6(5)
C13 C12 C11 120.6(5)
C12 C13 H13 120.9
C12 C13 C14 118.1(6)
C14 C13 H13 120.9
C13 C14 H14 119.8
C15 C14 C13 120.4(6)
C15 C14 H14 119.8
C14 C15 H15 118.9
C14 C15 C16 122.2(6)
C16 C15 H15 118.9
C11 C16 H16 121.4
C15 C16 C11 117.3(6)
C15 C16 H16 121.4
N1 C17 H17A 109.5
N1 C17 H17B 109.5
N1 C17 H17C 109.5
H17A C17 H17B 109.5
H17A C17 H17C 109.5
H17B C17 H17C 109.5
C9 O2 C8 62.4(3)
loop_
_geom_bond_atom_site_label_1
_geom_bond_atom_site_label_2
_geom_bond_distance
Br1 C4 1.903(6)
C1 C2 1.389(7)
C1 C6 1.391(8)
C1 C7 1.489(8)
C2 H2 0.9300
C2 C3 1.384(8)
C3 H3 0.9300
C3 C4 1.367(9)
C4 C5 1.368(9)
C5 H5 0.9300
C5 C6 1.382(9)
C6 H6 0.9300
C7 C8 1.505(8)
C7 O1 1.210(6)
C8 H8 0.9800
C8 C9 1.483(7)
C8 O2 1.442(7)
C9 C10 1.515(7)
C9 C12 1.486(7)
C9 O2 1.422(6)
C10 N1 1.367(7)
C10 O3 1.218(6)
N1 C11 1.403(7)
N1 C17 1.449(7)
C11 C12 1.388(7)
C11 C16 1.394(8)
C12 C13 1.379(7)
C13 H13 0.9300
C13 C14 1.404(8)
C14 H14 0.9300
C14 C15 1.371(9)
C15 H15 0.9300
C15 C16 1.378(8)
C16 H16 0.9300
C17 H17A 0.9600
C17 H17B 0.9600
C17 H17C 0.9600
loop_
_geom_torsion_atom_site_label_1
_geom_torsion_atom_site_label_2
_geom_torsion_atom_site_label_3
_geom_torsion_atom_site_label_4
_geom_torsion
Br1 C4 C5 C6 -179.2(5)
C1 C2 C3 C4 -1.2(9)
C1 C7 C8 C9 122.9(6)
C1 C7 C8 O2 -169.9(5)
C2 C1 C6 C5 -0.7(9)
C2 C1 C7 C8 -6.0(8)
C2 C1 C7 O1 175.7(6)
C2 C3 C4 Br1 179.3(4)
C2 C3 C4 C5 1.4(9)
C3 C4 C5 C6 -1.2(10)
C4 C5 C6 C1 0.8(10)
C6 C1 C2 C3 0.9(8)
C6 C1 C7 C8 173.7(5)
C6 C1 C7 O1 -4.6(8)
C7 C1 C2 C3 -179.4(5)
C7 C1 C6 C5 179.6(5)
C7 C8 C9 C10 -151.7(5)
C7 C8 C9 C12 -8.5(9)
C7 C8 C9 O2 101.3(5)
C7 C8 O2 C9 -114.8(5)
C8 C9 C10 N1 146.7(5)
C8 C9 C10 O3 -32.4(8)
C8 C9 C12 C11 -142.9(5)
C8 C9 C12 C13 38.3(9)
C9 C10 N1 C11 4.6(6)
C9 C10 N1 C17 -176.2(5)
C9 C12 C13 C14 179.6(5)
C10 C9 C12 C11 3.1(5)
C10 C9 C12 C13 -175.6(5)
C10 C9 O2 C8 -106.1(5)
C10 N1 C11 C12 -2.7(6)
C10 N1 C11 C16 177.0(6)
N1 C11 C12 C9 -0.5(6)
N1 C11 C12 C13 178.4(5)
N1 C11 C16 C15 -179.1(5)
C11 C12 C13 C14 1.0(8)
C12 C9 C10 N1 -4.7(6)
C12 C9 C10 O3 176.3(5)
C12 C9 O2 C8 120.0(6)
C12 C11 C16 C15 0.6(8)
C12 C13 C14 C15 0.0(9)
C13 C14 C15 C16 -0.7(9)
C14 C15 C16 C11 0.4(9)
C16 C11 C12 C9 179.8(5)
C16 C11 C12 C13 -1.3(8)
C17 N1 C11 C12 178.0(5)
C17 N1 C11 C16 -2.2(9)
O1 C7 C8 C9 -58.8(8)
O1 C7 C8 O2 8.4(8)
O2 C8 C9 C10 107.0(5)
O2 C8 C9 C12 -109.8(6)
O2 C9 C10 N1 -146.0(4)
O2 C9 C10 O3 35.0(8)
O2 C9 C12 C11 141.3(5)
O2 C9 C12 C13 -37.5(9)
O3 C10 N1 C11 -176.4(5)
O3 C10 N1 C17 2.9(9)
