#------------------------------------------------------------------------------
#$Date: 2016-02-18 17:37:37 +0200 (Thu, 18 Feb 2016) $
#$Revision: 176729 $
#$URL: svn://www.crystallography.net/cod/cif/1/51/79/1517959.cif $
#------------------------------------------------------------------------------
#
# This file is available in the Crystallography Open Database (COD),
# http://www.crystallography.net/
#
# All data on this site have been placed in the public domain by the
# contributors.
#
data_1517959
loop_
_publ_author_name
'Wu, Xiu-Ping'
'Su, Yan'
'Gu, Peiming'
_publ_section_title
;
 Catalytic Enantioselective Desymmetrization of 1,3-Diazido-2-propanol via
 Intramolecular Interception of Alkyl Azides with Diazo(aryl)acetates.
;
_journal_issue                   20
_journal_name_full               'Organic letters'
_journal_page_first              5339
_journal_page_last               5341
_journal_paper_doi               10.1021/ol502608d
_journal_volume                  16
_journal_year                    2014
_chemical_absolute_configuration none
_chemical_formula_moiety         'C11 H9 Cl N4 O2'
_chemical_formula_sum            'C11 H9 Cl N4 O2'
_chemical_formula_weight         264.67
_chemical_name_systematic
;
 ?
;
_space_group_crystal_system      triclinic
_space_group_IT_number           1
_space_group_name_Hall           'P 1'
_space_group_name_H-M_alt        'P 1'
_symmetry_space_group_name_Hall  'P 1'
_symmetry_space_group_name_H-M   'P 1'
_atom_sites_solution_hydrogens   geom
_atom_sites_solution_primary     iterative
_audit_creation_date             2014-03-28
_audit_creation_method
;
Olex2 1.2
(compiled 2014.03.20 svn.r2914 for OlexSys, GUI svn.r4816)
;
_cell_angle_alpha                73.101(13)
_cell_angle_beta                 82.494(12)
_cell_angle_gamma                86.390(9)
_cell_formula_units_Z            2
_cell_length_a                   7.0512(8)
_cell_length_b                   8.2526(9)
_cell_length_c                   10.6656(19)
_cell_measurement_reflns_used    1532
_cell_measurement_temperature    294.67(10)
_cell_measurement_theta_max      25.8630
_cell_measurement_theta_min      3.8340
_cell_volume                     588.55(15)
_computing_cell_refinement
;
CrysAlisPro, Agilent Technologies,
Version 1.171.36.28 (release 01-02-2013 CrysAlis171 .NET)
(compiled Feb  1 2013,16:14:44)
;
_computing_data_collection
;
CrysAlisPro, Agilent Technologies,
Version 1.171.36.28 (release 01-02-2013 CrysAlis171 .NET)
(compiled Feb  1 2013,16:14:44)
;
_computing_data_reduction
;
CrysAlisPro, Agilent Technologies,
Version 1.171.36.28 (release 01-02-2013 CrysAlis171 .NET)
(compiled Feb  1 2013,16:14:44)
;
_computing_molecular_graphics    'Olex2 (Dolomanov et al., 2009)'
_computing_publication_material  'Olex2 (Dolomanov et al., 2009)'
_computing_structure_refinement  'ShelXL (Sheldrick, 2008)'
_computing_structure_solution
;
Superflip (Palatinus & Chapuis, 2007;Palatinus & van der Lee, 2008;
Palatinus et al., 2012)
;
_diffrn_ambient_temperature      294.67(10)
_diffrn_detector_area_resol_mean 16.0733
_diffrn_measured_fraction_theta_full 0.997
_diffrn_measured_fraction_theta_max 0.881
_diffrn_measurement_device_type  'SuperNova, Dual, Cu at zero, Eos'
_diffrn_measurement_method       '\w scans'
_diffrn_orient_matrix_UB_11      -0.0916616000
_diffrn_orient_matrix_UB_12      -0.0351964000
_diffrn_orient_matrix_UB_13      0.0230237000
_diffrn_orient_matrix_UB_21      -0.0035436000
_diffrn_orient_matrix_UB_22      -0.0160785000
_diffrn_orient_matrix_UB_23      -0.0614549000
_diffrn_orient_matrix_UB_31      0.0434447000
_diffrn_orient_matrix_UB_32      -0.0811010000
_diffrn_orient_matrix_UB_33      0.0243304000
_diffrn_radiation_monochromator  mirror
_diffrn_radiation_type           MoK\a
_diffrn_radiation_wavelength     0.710
_diffrn_reflns_av_R_equivalents  0.0350
_diffrn_reflns_av_unetI/netI     0.0630
_diffrn_reflns_Laue_measured_fraction_full 0.997
_diffrn_reflns_Laue_measured_fraction_max 0.881
_diffrn_reflns_limit_h_max       7
_diffrn_reflns_limit_h_min       -8
_diffrn_reflns_limit_k_max       10
_diffrn_reflns_limit_k_min       -11
_diffrn_reflns_limit_l_max       13
_diffrn_reflns_limit_l_min       -13
_diffrn_reflns_number            4090
_diffrn_reflns_point_group_measured_fraction_full 0.673
_diffrn_reflns_point_group_measured_fraction_max 0.575
_diffrn_reflns_theta_full        25.214
_diffrn_reflns_theta_max         28.523
_diffrn_reflns_theta_min         3.337
_diffrn_source                   'SuperNova (Mo) X-ray Source'
_exptl_absorpt_coefficient_mu    0.324
_exptl_absorpt_correction_T_max  1.00000
_exptl_absorpt_correction_T_min  0.88608
_exptl_absorpt_correction_type   multi-scan
_exptl_absorpt_process_details
;
CrysAlisPro, Agilent Technologies,
Version 1.171.36.28 (release 01-02-2013 CrysAlis171 .NET)
(compiled Feb  1 2013,16:14:44)
Empirical absorption correction using spherical harmonics,
 implemented in SCALE3 ABSPACK scaling algorithm.
;
_exptl_crystal_colour            'clear light colourless'
_exptl_crystal_density_diffrn    1.494
_exptl_crystal_description       block
_exptl_crystal_F_000             272
_exptl_crystal_size_max          0.41
_exptl_crystal_size_mid          0.36
_exptl_crystal_size_min          0.34
_refine_diff_density_max         0.244
_refine_diff_density_min         -0.384
_refine_diff_density_rms         0.057
_refine_ls_abs_structure_details
;
 Flack x determined using 610 quotients [(I+)-(I-)]/[(I+)+(I-)]
 (Parsons and Flack (2004), Acta Cryst. A60, s61).
;
_refine_ls_abs_structure_Flack   -0.01(10)
_refine_ls_extinction_method     none
_refine_ls_goodness_of_fit_ref   1.075
_refine_ls_hydrogen_treatment    constr
_refine_ls_matrix_type           full
_refine_ls_number_parameters     325
_refine_ls_number_reflns         3446
_refine_ls_number_restraints     3
_refine_ls_restrained_S_all      1.074
_refine_ls_R_factor_all          0.0634
_refine_ls_R_factor_gt           0.0509
_refine_ls_shift/su_max          0.000
_refine_ls_shift/su_mean         0.000
_refine_ls_structure_factor_coef Fsqd
_refine_ls_weighting_details
;
 w=1/[\s^2^(Fo^2^)+(0.0542P)^2^+0.0375P]
 where P=(Fo^2^+2Fc^2^)/3
;
_refine_ls_weighting_scheme      calc
_refine_ls_wR_factor_gt          0.1154
_refine_ls_wR_factor_ref         0.1356
_reflns_Friedel_coverage         0.305
_reflns_Friedel_fraction_full    0.348
_reflns_Friedel_fraction_max     0.269
_reflns_number_gt                2819
_reflns_number_total             3446
_reflns_threshold_expression     'I > 2\s(I)'
_cod_data_source_file            ol502608d_si_003.cif
_cod_data_source_block           gu_wu_2c
_cod_depositor_comments
'Adding full bibliography for 1517959--1517960.cif.'
_cod_original_cell_volume        588.54(15)
_cod_database_code               1517959
#BEGIN Tags that were not found in dictionaries:
_shelxl_version_number           2013-2
_shelx_space_group_comment
;
The symmetry employed for this shelxl refinement is uniquely defined
by the following loop, which should always be used as a source of
symmetry information in preference to the above space-group names.
They are only intended as comments.
;
_reflns_odcompleteness_completeness 99.79
_reflns_odcompleteness_iscentric 1
_reflns_odcompleteness_theta     26.32
_olex2_refinement_description
;
1. Fixed Uiso
 At 1.2 times of:
  All C(H) groups, All C(H,H) groups
2.a Ternary CH refined with riding coordinates:
 C9(H9), C20(H20)
2.b Secondary CH2 refined with riding coordinates:
 C10(H10A,H10B), C11(H11A,H11B), C21(H21A,H21B), C22(H22A,H22B)
2.c Aromatic/amide H refined with riding coordinates:
 C1(H1), C2(H2), C4(H4), C5(H5), C12(H12), C13(H13), C15(H15), C16(H16)
;
_shelx_res_file
;
TITL Gu_Wu_2c in P-1
CELL 0.71 7.051153 8.252582 10.66555 73.1005 82.4944 86.3902
ZERR 2 0.000835 0.000902 0.001918 0.0125 0.0121 0.0093
LATT -1

SFAC C H N O Cl
UNIT 22 18 8 4 2

L.S. 8
PLAN  20
MORE -1
BOND $H
HTAB
CONF
fmap 2 53
ACTA
REM <HKL>D:/olex2_Gu_Wu_2c/Gu_Wu_2c.hkl</HKL>

WGHT    0.054200    0.037500
FVAR      11.81133
CL1   5   -0.416037   -0.989377    0.342736    11.00000    0.05793    0.04740 =
         0.06584    0.00797   -0.01025   -0.00292
O1    4   -0.605023   -0.166929    0.037501    11.00000    0.05701    0.04693 =
         0.04290   -0.01382    0.01150    0.00476
O2    4   -0.428484   -0.018961   -0.137315    11.00000    0.05002    0.03863 =
         0.03503   -0.01143    0.00214    0.00139
N1    3   -0.327950   -0.328058   -0.195819    11.00000    0.04813    0.04129 =
         0.03813   -0.01790    0.00233   -0.00063
N2    3   -0.119873    0.159887   -0.448771    11.00000    0.07402    0.06206 =
         0.03857   -0.00552    0.00443   -0.01879
N3    3    0.046151    0.151550   -0.422623    11.00000    0.07879    0.03864 =
         0.04895   -0.01248    0.00452   -0.01097
N4    3    0.205273    0.146585   -0.417375    11.00000    0.06418    0.08172 =
         0.09389   -0.03480    0.00153   -0.00131
C1    1   -0.404374   -0.493839    0.160144    11.00000    0.05949    0.04343 =
         0.03415   -0.01596   -0.00772   -0.00263
AFIX  43
H1    2   -0.399673   -0.393730    0.182924    11.00000   -1.20000
AFIX   0
C2    1   -0.407881   -0.647903    0.256659    11.00000    0.06330    0.04880 =
         0.03298   -0.00965   -0.00325    0.00009
AFIX  43
H2    2   -0.404808   -0.652053    0.344448    11.00000   -1.20000
AFIX   0
C3    1   -0.415924   -0.794384    0.221800    11.00000    0.03440    0.04156 =
         0.04528   -0.00730   -0.00417    0.00062
C4    1   -0.421624   -0.792810    0.093752    11.00000    0.04521    0.03959 =
         0.05569   -0.01783   -0.00985   -0.00050
AFIX  43
H4    2   -0.428745   -0.893430    0.072124    11.00000   -1.20000
AFIX   0
C5    1   -0.416622   -0.639321   -0.002745    11.00000    0.03868    0.03959 =
         0.04157   -0.01347   -0.00496    0.00260
AFIX  43
H5    2   -0.419141   -0.636726   -0.090272    11.00000   -1.20000
AFIX   0
C6    1   -0.407881   -0.488830    0.029218    11.00000    0.03532    0.03156 =
         0.03537   -0.00831   -0.00037   -0.00079
C7    1   -0.395481   -0.326530   -0.078978    11.00000    0.03441    0.04367 =
         0.03216   -0.01443   -0.00506    0.00249
C8    1   -0.480988   -0.167200   -0.051197    11.00000    0.03295    0.03710 =
         0.03227   -0.00578   -0.00018   -0.00050
C9    1   -0.273641   -0.027267   -0.239247    11.00000    0.04031    0.04065 =
         0.03256   -0.00931    0.00330   -0.00037
AFIX  13
H9    2   -0.152977   -0.052607   -0.200220    11.00000   -1.20000
AFIX   0
C10   1   -0.311424   -0.166288   -0.297289    11.00000    0.04395    0.05047 =
         0.03680   -0.01510   -0.00040   -0.00199
AFIX  23
H10A  2   -0.428891   -0.139989   -0.338262    11.00000   -1.20000
H10B  2   -0.207727   -0.173649   -0.364933    11.00000   -1.20000
AFIX   0
C11   1   -0.267762    0.150724   -0.335868    11.00000    0.06470    0.05017 =
         0.04643    0.00406    0.01217   -0.00805
AFIX  23
H11A  2   -0.391697    0.180754   -0.367604    11.00000   -1.20000
H11B  2   -0.240946    0.231597   -0.290631    11.00000   -1.20000
AFIX   0

CL2   5    0.187009    0.712779   -0.263328    11.00000    0.06249    0.04401 =
         0.06366    0.00731   -0.01589   -0.00684
O3    4   -0.100864   -0.087255    0.041584    11.00000    0.06036    0.04643 =
         0.04884   -0.01332   -0.02102   -0.00182
O4    4    0.003533   -0.248867    0.223744    11.00000    0.05900    0.03670 =
         0.03624   -0.00852   -0.00774   -0.00206
N5    3    0.119607    0.050355    0.269561    11.00000    0.04906    0.04317 =
         0.02923   -0.00799   -0.00646   -0.00670
N6    3   -0.055155   -0.439422    0.522125    11.00000    0.07376    0.06699 =
         0.04436   -0.00796   -0.00188   -0.02237
N7    3   -0.215983   -0.428631    0.487613    11.00000    0.07716    0.04412 =
         0.05459   -0.01367   -0.00158   -0.00819
N8    3   -0.372539   -0.421329    0.475004    11.00000    0.07601    0.09065 =
         0.09828   -0.03488   -0.01121    0.00376
C12   1    0.140617    0.216845   -0.082946    11.00000    0.05737    0.03483 =
         0.04252   -0.01419   -0.00778    0.00360
AFIX  43
H12   2    0.152854    0.116622   -0.106898    11.00000   -1.20000
AFIX   0
C13   1    0.168411    0.371159   -0.178489    11.00000    0.05433    0.05151 =
         0.03621   -0.00884   -0.00922   -0.00121
AFIX  43
H13   2    0.201366    0.374529   -0.266518    11.00000   -1.20000
AFIX   0
C14   1    0.147219    0.518810   -0.142947    11.00000    0.04291    0.03546 =
         0.04896   -0.00382   -0.01390   -0.00030
C15   1    0.099289    0.518377   -0.013243    11.00000    0.05242    0.03618 =
         0.05218   -0.01933   -0.00712    0.00246
AFIX  43
H15   2    0.084437    0.619309    0.009644    11.00000   -1.20000
AFIX   0
C16   1    0.073929    0.364465    0.081698    11.00000    0.04439    0.04212 =
         0.04081   -0.01604    0.00026   -0.00471
AFIX  43
H16   2    0.042474    0.362304    0.169600    11.00000   -1.20000
AFIX   0
C17   1    0.094338    0.212448    0.048939    11.00000    0.03644    0.03520 =
         0.03720   -0.01120   -0.00388    0.00334
C18   1    0.076965    0.051308    0.156300    11.00000    0.03430    0.03632 =
         0.02939   -0.00969   -0.00121    0.00046
C19   1   -0.010417   -0.097347    0.132734    11.00000    0.03836    0.03856 =
         0.03529   -0.01344   -0.00454    0.00234
C20   1    0.135533   -0.261358    0.319006    11.00000    0.03531    0.04720 =
         0.03987   -0.00508   -0.00539    0.00553
AFIX  13
H20   2    0.266233   -0.257713    0.273969    11.00000   -1.20000
AFIX   0
C21   1    0.102497   -0.111635    0.373769    11.00000    0.05717    0.04585 =
         0.02414   -0.00398   -0.00353   -0.00765
AFIX  23
H21A  2   -0.024275   -0.117267    0.422470    11.00000   -1.20000
H21B  2    0.194917   -0.117138    0.434836    11.00000   -1.20000
AFIX   0
C22   1    0.108767   -0.432131    0.420940    11.00000    0.06678    0.04797 =
         0.04230   -0.00467   -0.00566    0.00422
AFIX  23
H22A  2    0.093518   -0.516253    0.375910    11.00000   -1.20000
H22B  2    0.224022   -0.462540    0.464166    11.00000   -1.20000
AFIX   0
HKLF 4

REM  Gu_Wu_2c in P-1
REM R1 =  0.0509 for    2819 Fo > 4sig(Fo)  and  0.0634 for all    3446 data
REM    325 parameters refined using      3 restraints

END

WGHT      0.0541      0.0392

REM Instructions for potential hydrogen bonds
HTAB C9 O3
EQIV $1 x-1, y-1, z
HTAB C10 Cl2_$1
EQIV $2 x+1, y, z
HTAB C20 O1_$2
EQIV $3 x+1, y+1, z
HTAB C21 Cl1_$3

REM Highest difference peak  0.244,  deepest hole -0.384,  1-sigma level  0.057
Q1    1  -0.3886 -0.5682  0.6140  11.00000  0.05    0.24
Q2    1   0.0992  0.1328  0.0968  11.00000  0.05    0.24
Q3    1   0.0007 -0.6502  0.3407  11.00000  0.05    0.21
Q4    1  -0.3896 -0.0395 -0.4268  11.00000  0.05    0.20
Q5    1   0.0539  0.6204  0.0837  11.00000  0.05    0.19
Q6    1   0.1080  0.8688 -0.1991  11.00000  0.05    0.19
Q7    1  -0.1981 -0.4959 -0.1411  11.00000  0.05    0.18
Q8    1   0.1199 -0.0185  0.3240  11.00000  0.05    0.18
Q9    1  -0.4627  0.1583 -0.4806  11.00000  0.05    0.18
Q10   1   0.1509 -0.0492 -0.2639  11.00000  0.05    0.18
Q11   1  -0.0900  0.0316 -0.5248  11.00000  0.05    0.18
Q12   1   0.1266  0.2738  0.2749  11.00000  0.05    0.18
Q13   1  -0.1578 -0.4376 -0.2376  11.00000  0.05    0.17
Q14   1  -0.2960 -0.5004  0.0428  11.00000  0.05    0.17
Q15   1   0.0643 -0.3871  0.6059  11.00000  0.05    0.17
Q16   1  -0.2193 -0.3240 -0.3400  11.00000  0.05    0.17
Q17   1  -0.4686 -0.0794  0.0404  11.00000  0.05    0.17
Q18   1  -0.1932  0.0658 -0.1005  11.00000  0.05    0.17
Q19   1   0.1022  0.7866 -0.1124  11.00000  0.05    0.17
Q20   1   0.1442 -0.5587  0.3868  11.00000  0.05    0.16
;
_shelx_res_checksum              15001
_shelx_hkl_file
;
   0   0  -2 1034.80 126.547   5
   0   0   2 1301.77 166.759   6
   0   0  -3 18663.3 797.884   5
   0   0   3 18771.2 889.825   6
   0   0  -4 74469.4 2428.52   5
   0   0   4 71419.1 2532.21   6
   0   0   5 2535.04 364.519   6
   0   0   5 1966.90 274.566   5
   0   0  -5 3011.03 352.177   5
   0   0  -6 35910.1 1636.50   5
   0   0   6 39346.9 1882.91   6
   0   0   7 6244.77 719.354   6
   0   0  -7 6256.51 598.942   5
   0   0   8 1056.07 317.402   6
   0   0  -8 618.022 185.563   5
   0   0   9 4955.17 742.971   6
   0   0  10 8248.14 1046.22   6
   0   0  11 27.7663 101.539   6
   0   0  12 1779.57 544.455   6
   0  -1  12 406.882 272.531   6
   0  -1  11 2057.29 576.091   6
   0  -1  10 25683.8 1988.81   6
   0  -1   9 2895.41 591.845   6
   0  -1   8 488.108 209.788   6
   0   1  -7 10704.3 620.500   5
   0  -1   7 12142.1 1059.05   6
   0   1  -6 14750.3 699.635   5
   0  -1   6 16734.3 1154.82   6
   0  -1   5 22642.4 1272.95   6
   0   1  -5 21071.7 834.632   5
   0  -1   4 140911. 4477.30   6
   0  -1   4 128511. 3957.59   4
   0   1  -4 135935. 3894.51   5
   0  -1   3 614.400 154.672   6
   0  -1   3 653.902 87.1624   4
   0  -1   2 14615.7 737.358   6
   0  -1   2 13709.1 670.093   1
   0  -1   1 24740.7 939.056   1
   0  -1   1 25705.4 978.160   6
   0  -1  -2 373464. 10664.5   5
   0  -1  -3 383078. 11081.8   5
   0  -1  -4 222546. 6823.57   5
   0  -1  -5 21334.5 1201.17   5
   0   1   6 3347.63 461.639   6
   0  -1  -6 3400.02 470.783   5
   0  -1  -7 13045.1 1027.45   5
   0   1   7 12864.7 1038.50   6
   0   1   8 3124.16 520.661   6
   0  -1  -8 2121.69 399.515   5
   0   1   9 10094.0 1050.85   6
   0  -1  -9 10074.4 954.258   5
   0   1  10 1353.71 414.783   6
   0  -1 -10 829.515 269.959   5
   0   1  11 4108.07 746.954   6
   0   1  12 7892.05 1121.66   6
   0   1  13-69.8980 135.222   6
   0  -2  11 2249.98 628.282   6
   0  -2  10 6568.39 1014.02   6
   0  -2   9 1207.78 387.201   6
   0  -2   8 9940.26 1084.34   6
   0  -2   7 8663.89 941.326   6
   0  -2   6 44804.0 2112.95   6
   0  -2   6 32271.9 1046.21   4
   0  -2   5 7874.37 759.030   6
   0   2  -4 40389.9 1661.67   1
   0  -2   4 38636.1 1839.39   6
   0  -2   3 139262. 4557.15   6
   0   2  -3 137225. 4343.58   1
   0   2  -2 138466. 4297.27   1
   0  -2   2 138440. 4424.11   6
   0  -2   1 426623. 12105.8   6
   0   2  -1 411482. 12111.7   6
   0   2  -1 438621. 11855.5   5
   0   2   0 47864.8 1677.26   5
   0  -2   0 51912.3 1713.08   5
   0   2   0 46009.1 1736.55   3
   0  -2   0 47699.0 1668.90   6
   0  -2  -1 58584.1 2074.91   5
   0   2   1 56741.3 1825.59   2
   0  -2  -2 68484.0 2489.22   5
   0  -2  -3 40160.6 1755.35   5
   0  -2  -4 41458.3 1888.67   5
   0  -2  -5 23615.0 1391.45   5
   0  -2  -6 125456. 4605.86   5
   0  -2  -7 7242.42 815.581   5
   0  -2  -8 10314.2 1029.77   5
   0   2   8 9872.58 963.672   6
   0  -2  -9 1527.68 405.769   5
   0   2   9 1339.17 361.108   6
   0   2  10 5832.88 838.452   6
   0  -2 -10 5939.85 820.331   5
   0  -2 -11 1571.49 415.677   5
   0   2  11 1475.77 440.173   6
   0   2  12 11710.1 1363.49   6
   0   2  13 223.104 197.789   6
   0  -3  11 5017.69 971.612   6
   0  -3  10 466.838 286.061   6
   0  -3   9 603.371 289.762   6
   0  -3   8 2507.43 585.043   6
   0  -3   7 630.565 240.332   6
   0  -3   6 664.968 243.685   6
   0   3  -5 29563.8 1513.87   1
   0  -3   5 29524.6 1769.75   6
   0   3  -4 1569.88 283.749   1
   0  -3   4 1126.75 267.750   6
   0  -3   3 15435.4 1052.58   6
   0   3  -3 15681.6 941.715   1
   0   3  -2 128625. 4249.11   1
   0  -3   2 129228. 4377.76   6
   0  -3   2 131342. 3883.96   5
   0   3  -1 895.048 158.866   5
   0  -3   1 759.624 157.344   5
   0  -3   1 399.674 128.141   6
   0   3  -1 998.495 197.097   1
   0  -3   0 10884.2 705.195   5
   0  -3   0 11512.9 697.964   6
   0   3   1 2251.55 252.781   2
   0  -3  -1 2534.59 343.894   5
   0  -3  -2 999999. 28250.1   5
   0  -3  -3 69659.2 2313.25   2
   0  -3  -3 75658.6 2896.49   5
   0  -3  -4 16910.1 1161.67   5
   0  -3  -5 1709.87 371.241   5
   0  -3  -6 33068.1 1935.59   5
   0  -3  -7 10371.0 1064.77   5
   0  -3  -8 27517.6 1910.15   5
   0  -3  -9 1554.58 451.363   5
   0   3  10 81.0880 68.5442   6
   0  -3 -10 191.875 111.186   5
   0  -3 -11 8251.48 1085.36   5
   0   3  11 6148.47 917.683   6
   0   3  12 8350.94 1129.99   6
   0  -3 -12 8188.46 1104.52   5
   0   3  13-26.4546 157.492   6
   0  -4  10 4510.31 917.028   6
   0  -4   9 1940.09 552.022   6
   0  -4   8 5706.79 911.068   6
   0  -4   7 11832.9 1255.77   6
   0  -4   6 1481.92 412.459   6
   0   4  -6 2399.02 415.263   1
   0  -4   5 3972.65 634.252   6
   0   4  -5 3488.81 489.791   1
   0   4  -4 2020.43 354.684   1
   0  -4   4 2291.05 447.622   6
   0  -4   3 245.556 134.721   6
   0  -4   3 175.243 48.5473   5
   0   4  -3 195.153 128.011   1
   0   4  -2 141918. 4747.19   1
   0  -4   2 137845. 4867.20   6
   0  -4   2 142755. 4384.12   5
   0  -4   1 103342. 3803.27   6
   0   4  -1 103094. 3763.29   1
   0  -4   0 11677.1 849.738   5
   0  -4   0 10165.9 760.570   6
   0  -4  -1 22850.5 1330.55   5
   0  -4  -2 31529.2 1691.04   5
   0   4   2 31763.8 1312.46   2
   0  -4  -3 3053.44 478.723   5
   0  -4  -4 22548.7 1445.17   5
   0  -4  -4 15522.7 826.173   2
   0  -4  -5 34033.6 2019.23   5
   0  -4  -6 71169.4 3366.11   5
   0  -4  -7 28950.2 2005.86   5
   0  -4  -8 3502.97 670.864   5
   0  -4  -9 17515.5 1631.56   5
   0  -4 -10 1350.23 440.291   5
   0  -4 -11 1317.69 472.930   5
   0   4  11 384.875 178.914   6
   0  -4 -12 894.427 378.317   5
   0   4  12 1064.54 422.822   6
   0   4  13-254.354 207.916   6
   0  -5   9 11357.0 1461.94   6
   0  -5   8 284.259 191.350   6
   0  -5   7 5754.12 924.776   6
   0  -5   6 106.821 151.891   6
   0   5  -6 431.554 186.110   1
   0  -5   5 4326.65 707.430   6
   0   5  -5 5353.27 662.556   1
   0  -5   4 20147.2 1508.37   6
   0   5  -4 20101.9 1354.07   1
   0  -5   4 21403.4 1646.46   3
   0  -5   3 18647.5 1444.58   3
   0   5  -3 17881.1 1237.00   1
   0  -5   3 18548.1 1364.63   6
   0   5  -2 2142.62 393.692   1
   0  -5   2 2295.34 317.754   5
   0  -5   2 2165.56 401.539   6
   0  -5   2 2289.41 461.356   3
   0  -5   1 112.344 85.7388   6
   0   5  -1 278.710 148.554   1
   0  -5   1 139.607 116.913   3
   0  -5   1-79.8688 71.9518   5
   0  -5   0 43299.2 2071.06   5
   0  -5   0 38778.6 2063.86   3
   0  -5  -1 64949.5 2851.59   5
   0   5   2 27626.0 1309.19   2
   0  -5  -2 28785.5 1756.48   5
   0  -5  -3 3610.58 581.281   5
   0  -5  -4 4819.65 704.382   5
   0  -5  -5 848.054 301.016   5
   0  -5  -6 3041.56 603.248   5
   0  -5  -7 15803.2 1510.37   5
   0  -5  -8 28666.9 2208.94   5
   0  -5  -9 13329.3 1493.48   5
   0  -5 -10 423.666 200.454   5
   0  -5 -11 316.505 243.033   5
   0   5  12 860.656 373.373   6
   0  -5 -12 42.2912 110.749   5
   0   5  13-195.255 197.213   6
   0  -5 -13 173.000 188.784   5
   0  -6   9 2567.26 701.829   6
   0  -6   8 1750.88 535.964   6
   0  -6   8 3463.53 831.757   3
   0  -6   7-459.087 294.038   3
   0  -6   7 69.5100 117.985   6
   0  -6   6 7284.25 1090.34   3
   0  -6   6 5378.93 883.083   6
   0   6  -6 4521.78 682.768   1
   0  -6   5 660.282 293.939   6
   0  -6   5 479.105 274.668   3
   0   6  -5 448.548 238.072   1
   0  -6   4 2147.73 499.090   6
   0  -6   4 2339.74 584.125   3
   0   6  -4 2002.28 431.368   1
   0  -6   3 24794.7 1730.17   6
   0   6  -3 23346.3 1583.70   1
   0  -6   3 27450.9 1936.03   3
   0   6  -2 6.49300 80.5514   1
   0  -6   2 143.092 100.507   6
   0   6  -1 31318.5 1846.10   1
   0  -6   1 29487.5 1790.00   6
   0  -6   1 32645.8 1733.43   5
   0   6   0 83710.0 3529.42   1
   0  -6   0 94324.4 3668.37   5
   0   6   1 311.427 156.230   2
   0  -6  -1 732.984 257.497   5
   0  -6  -2 5771.29 781.321   5
   0   6   2 4989.69 536.533   2
   0  -6  -3 1116.02 355.628   5
   0  -6  -4 25992.6 1925.08   5
   0  -6  -5 17364.8 1587.45   5
   0  -6  -6 1064.73 379.327   5
   0  -6  -7 1636.13 524.767   5
   0  -6  -8 2335.21 607.626   5
   0  -6  -9 755.863 377.501   5
   0  -6 -10 3210.90 749.665   5
   0  -6 -11 1842.78 598.562   5
   0  -6 -12 5081.21 1027.50   5
   0  -6 -13 2124.95 687.038   5
   0  -7   8 2175.53 650.258   6
   0  -7   7 1994.62 598.429   6
   0   7  -7 2152.05 505.700   1
   0   7  -6 288.648 195.982   1
   0  -7   6 82.0660 125.655   6
   0  -7   6 294.289 251.042   3
   0   7  -5 8923.83 1020.37   1
   0  -7   5 9657.92 1199.22   6
   0  -7   5 9400.98 1298.19   3
   0  -7   4 518.640 291.766   3
   0   7  -4 530.238 245.906   1
   0  -7   4 732.127 328.768   6
   0   7  -3 1024.99 313.571   1
   0  -7   3 711.157 284.757   3
   0  -7   3 739.702 276.192   6
   0  -7   2 370.832 218.394   3
   0   7  -2 158.292 94.5742   1
   0   7  -1 1566.50 400.565   1
   0  -7   1 1101.68 368.578   3
   0  -7   0 1666.12 397.553   5
   0   7   0 2302.26 485.625   1
   0   7   1 144279. 5262.74   2
   0  -7  -1 159163. 5812.27   5
   0  -7  -2 18783.8 1564.62   5
   0   7   2 15534.7 1100.49   2
   0   7   3 3495.51 457.465   2
   0  -7  -3 4055.40 733.054   5
   0  -7  -4 1360.30 438.624   5
   0  -7  -5 7112.04 1059.12   5
   0  -7  -6 239.583 208.151   5
   0  -7  -7 834.199 352.867   5
   0  -7  -8 1337.04 496.641   5
   0  -7  -9 83.6144 159.395   5
   0  -7 -10 934.040 430.778   5
   0  -7 -11 2317.72 712.127   5
   0  -7 -12-316.334 281.786   5
   0   8  -6 2351.86 555.950   1
   0  -8   6 2019.60 597.024   6
   0  -8   5 1670.03 518.353   6
   0  -8   5 852.294 388.364   3
   0   8  -5 1177.96 394.479   1
   0  -8   4 10859.2 1439.62   3
   0  -8   4 11051.9 1301.02   6
   0   8  -4 10182.5 1163.33   1
   0  -8   3-45.9660 86.4390   6
   0   8  -3-5.25283 69.1672   1
   0  -8   3-127.951 175.498   3
   0   8  -2 3556.04 667.325   1
   0  -8   2 5177.91 926.507   3
   0  -8   2 5315.76 813.444   6
   0   8  -1 8382.46 1033.47   1
   0   8   0 820.911 289.278   2
   0   8   0 898.022 335.352   1
   0   8   1 745.678 271.407   1
   0   8   1 1427.41 362.426   2
   0  -8  -1 916.708 339.929   5
   0  -8  -2 2083.81 535.968   5
   0   8   2 1371.64 340.170   2
   0  -8  -3 8515.17 1144.36   5
   0  -8  -4 7629.33 1119.48   5
   0  -8  -5 4102.52 842.334   5
   0  -8  -6 10524.4 1413.43   5
   0  -8  -7 1789.74 600.898   5
   0  -8  -8 4226.40 921.813   5
   0  -8  -9 53.3877 151.628   5
   0  -8 -10 123.749 194.402   5
   0  -8 -11 296.812 273.159   5
   0   9  -4 1313.87 427.372   1
   0   9  -3 889.015 359.675   1
   0   9  -2 3687.04 726.858   1
   0   9  -1 5209.92 845.248   2
   0   9  -1 6675.34 980.397   1
   0   9   0 951.392 391.431   1
   0   9   1 228.302 183.253   1
   0   9   2 1594.44 477.673   1
   0  -9  -2 2317.29 587.799   5
   0  -9  -3 2267.65 611.211   5
   0  -9  -4 3817.49 822.057   5
   0  -9  -5 27.4931 168.410   5
   0  -9  -6 2507.81 740.763   5
   0  -9  -7 3577.74 884.208   5
   0  -9  -8 325.228 278.864   5
   0  -9  -9 318.576 291.190   5
   0  10  -1 765.924 355.649   1
   0  10   0 355.372 249.296   1
   0  10   1 542.272 306.077   1
   0  10   2 343.739 265.068   1
   0 -10  -3 11882.5 1494.50   5
   0 -10  -4 831.886 410.862   5
   0 -10  -5 427.597 313.868   5
   0 -10  -6 762.659 437.732   5
   0 -10  -7 3239.13 886.915   5
   0 -11  -5 679.353 377.215   5
   1 -10  -7 1278.45 549.520   5
   1 -10  -6 193.019 215.780   5
   1 -10  -5 90.6838 157.933   5
   1 -10  -4 1625.17 552.137   5
   1 -10  -3 499.661 288.653   5
  -1  10   2 1300.19 462.760   1
  -1  10   1 1987.23 540.056   1
  -1  10   0-166.576 183.554   1
  -1  10  -1 7023.89 1057.56   1
   1  -9  -9 784.076 436.012   5
   1  -9  -8 827.551 430.193   5
   1  -9  -7 568.202 331.773   5
   1  -9  -6 161.724 188.719   5
   1  -9  -5 776.091 368.366   5
   1  -9  -4 2409.57 635.817   5
   1  -9  -3 2652.55 636.206   5
   1  -9  -2-83.3387 125.079   5
  -1   9   1 1389.51 397.784   2
  -1   9   1 2460.51 573.111   1
  -1   9   0 3167.81 648.937   2
  -1   9   0 2687.98 606.179   1
  -1   9  -1 812.804 321.457   1
  -1   9  -1 1193.68 423.332   2
  -1   9  -2 4522.02 783.943   1
  -1   9  -2 4047.44 805.783   2
  -1   9  -3 4241.81 860.719   2
  -1   9  -3 3912.58 721.538   1
   1  -8 -10 10482.5 1541.65   5
   1  -8  -9 901.876 392.874   5
   1  -8  -8 1280.71 549.251   5
   1  -8  -7 480.525 322.545   5
   1  -8  -6 3667.68 797.624   5
   1  -8  -5 3862.34 807.362   5
   1  -8  -4 283.089 149.289   5
   1  -8  -3 2025.41 523.776   5
   1  -8  -2 895.407 326.267   5
  -1   8   2 1178.77 331.748   2
  -1   8   1 2454.96 498.086   2
   1  -8  -1 1889.15 472.740   5
  -1   8   0 2459.67 529.447   2
  -1   8   0 4190.94 685.375   1
  -1   8  -1 2843.17 571.486   1
  -1   8  -1 2948.58 596.726   2
  -1   8  -2 1155.52 364.340   1
  -1   8  -3 5363.67 802.143   1
   1  -8   3 7895.35 1171.56   3
   1  -8   4 771.814 391.039   3
  -1   8  -4 431.132 199.204   1
   1  -8   5 1017.66 463.869   3
  -1   7  12 737.734 336.672   6
   1  -7 -11 1042.18 472.231   5
   1  -7 -10 3675.33 874.093   5
   1  -7  -9 696.559 350.733   5
   1  -7  -8 531.834 317.889   5
   1  -7  -7 4232.00 854.050   5
   1  -7  -6 2620.11 640.927   5
   1  -7  -5 6516.88 1007.62   5
   1  -7  -4 8961.49 1141.28   5
   1  -7  -3 2315.70 534.658   5
   1  -7  -2 4646.96 741.888   5
  -1   7   2 4427.34 583.728   2
  -1   7   1 5731.83 725.110   2
   1  -7  -1 6590.30 828.735   5
  -1   7   0 6425.76 792.303   2
  -1   7   0 6696.39 811.542   1
   1  -7   0 7757.50 845.830   5
  -1   7  -1 3963.50 624.841   1
  -1   7  -1 2898.49 551.627   2
   1  -7   1 3374.16 506.684   5
   1  -7   2 3523.81 708.419   3
  -1   7  -2 3147.26 551.462   1
   1  -7   2 2387.05 477.612   6
   1  -7   3 8614.89 1161.16   3
   1  -7   3 10362.6 1064.88   6
  -1   7  -3 8491.68 935.199   1
  -1   7  -4 3973.25 636.143   1
   1  -7   4 3938.93 684.531   6
   1  -7   4 3515.33 762.513   3
  -1   7  -5 1686.30 404.759   1
   1  -7   5 1672.43 549.234   3
   1  -7   5 1452.58 424.411   6
   1  -7   6 5885.01 1058.36   3
   1  -6 -13 177.272 202.134   5
  -1   6  12 1058.53 406.766   6
   1  -6 -12 510.867 312.276   5
   1  -6 -11 4170.48 903.146   5
  -1   6  11 5732.63 895.073   6
   1  -6 -10 7944.41 1223.58   5
   1  -6  -9 9680.65 1323.41   5
   1  -6  -8 5053.52 901.649   5
   1  -6  -7 3646.40 770.070   5
   1  -6  -6 3774.89 723.085   5
   1  -6  -5 6558.45 940.375   5
   1  -6  -4 6024.03 867.821   5
   1  -6  -3 11319.1 1154.82   5
  -1   6   2 9046.49 802.564   2
   1  -6  -2 10338.0 1049.71   5
   1  -6  -1 24825.3 1614.90   5
  -1   6   1 23215.4 1444.10   2
   1  -6   0 38080.8 1962.55   5
  -1   6   0 35240.3 1953.55   2
  -1   6  -1 41401.0 2095.07   1
   1  -6   1 39205.5 1976.37   6
   1  -6   1 39497.9 1901.40   5
   1  -6   2 23725.2 1514.56   6
   1  -6   2 24346.2 1788.35   3
  -1   6  -2 24316.2 1536.78   1
   1  -6   2 23236.4 1264.30   5
  -1   6  -2 22712.6 1179.64   4
   1  -6   3 770.852 335.560   3
  -1   6  -3 755.751 248.322   1
   1  -6   3 954.995 295.043   6
   1  -6   4 788.952 319.218   3
  -1   6  -4 472.638 200.801   1
   1  -6   4 142.034 92.2309   6
   1  -6   5 2977.58 592.437   6
   1  -6   5 2651.98 629.332   3
  -1   6  -5 2568.06 468.660   1
  -1   6  -6 3853.97 585.459   1
   1  -6   6 2484.73 569.244   6
   1  -6   6 3415.39 746.356   3
   1  -6   7 5063.65 962.003   3
   1  -6   7 3751.77 757.886   6
   1  -6   8 1459.44 557.709   3
   1  -6   8 1527.28 492.977   6
   1  -6   9 1082.35 468.765   6
   1  -5 -13 316.926 116.916   5
  -1   5  13 173.763 183.890   6
   1  -5 -12 192.029 190.528   5
  -1   5  12 356.672 236.156   6
   1  -5 -11 372.066 297.915   5
  -1   5  11 1788.38 499.699   6
   1  -5 -10 6815.55 1071.63   5
  -1   5  10 4597.18 758.238   6
   1  -5  -9 416.228 261.765   5
   1  -5  -8 111603. 5030.59   5
   1  -5  -7 13001.3 1358.63   5
   1  -5  -6 1979.11 496.427   5
   1  -5  -5 929.198 322.468   5
   1  -5  -4 36483.4 2185.28   5
   1  -5  -3 15572.5 1285.24   5
   1  -5  -2 41324.5 2199.47   5
  -1   5   2 41478.7 1863.93   2
  -1   5   1 4135.60 503.803   2
   1  -5  -1 5249.53 640.895   5
   1  -5   0 25395.3 1450.07   5
  -1   5   0 25964.5 1479.14   2
   1  -5   1 6383.50 625.917   6
   1  -5   1 6285.97 594.419   5
  -1   5  -1 6131.05 635.715   1
   1  -5   2 50459.5 2288.16   6
  -1   5  -2 51775.1 2282.39   1
  -1   5  -2 50054.0 1950.20   4
   1  -5   2 51364.2 2606.67   3
   1  -5   2 52006.5 2044.00   5
  -1   5  -3 6835.22 689.627   1
   1  -5   3 7585.57 899.088   3
   1  -5   3 7296.76 781.381   6
  -1   5  -3 6683.90 452.838   4
   1  -5   4 3597.47 635.439   3
   1  -5   4 2619.87 487.284   6
  -1   5  -4 3353.71 477.704   1
   1  -5   5 18566.8 1470.01   6
  -1   5  -5 19820.9 1280.84   1
   1  -5   5 18286.0 1598.67   3
   1  -5   6 1891.16 481.303   6
   1  -5   6 2313.00 567.943   3
  -1   5  -6 1430.22 321.999   1
   1  -5   7 4155.09 751.126   6
   1  -5   8 2857.81 660.628   6
   1  -5   9 3961.84 817.065   6
   1  -5  10 1288.40 507.451   6
  -1   4  13 107.559 147.065   6
   1  -4 -12 782.704 334.116   5
  -1   4  12 1345.45 474.706   6
   1  -4 -11 514.681 270.869   5
  -1   4  11 352.456 227.961   6
  -1   4  10 3998.33 696.755   6
   1  -4 -10 3620.38 721.122   5
  -1   4   9 5622.80 780.381   6
   1  -4  -9 6907.24 978.133   5
   1  -4  -8 13925.5 1369.91   5
   1  -4  -7 12396.1 1238.22   5
   1  -4  -6 4455.09 691.651   5
   1  -4  -5 54764.3 2732.38   5
   1  -4  -4 72797.9 3200.37   5
   1  -4  -3 137061. 4975.85   5
   1  -4  -2 12620.0 1006.86   5
  -1   4   2 12001.0 792.194   2
  -1   4   1 17454.0 1020.50   2
   1  -4  -1 17949.4 1148.54   5
   1  -4   0 16906.9 1041.15   5
  -1   4   0 16153.6 1028.81   2
   1  -4   1 74692.4 2811.62   6
  -1   4  -1 79872.4 2869.24   1
   1  -4   1 80124.6 2817.42   5
   1  -4   2 7570.53 670.022   6
  -1   4  -2 7253.82 628.772   1
   1  -4   2 7718.60 540.164   5
  -1   4  -2 7525.14 519.202   4
  -1   4  -3 3603.74 353.248   5
   1  -4   3 3736.56 504.065   6
  -1   4  -3 4993.81 515.787   1
  -1   4  -3 4984.81 342.391   4
  -1   4  -4 16707.1 671.996   4
   1  -4   4 20322.9 1458.44   3
   1  -4   4 16602.3 1218.98   6
  -1   4  -4 20307.0 1153.88   1
   1  -4   5 17550.2 1321.79   6
  -1   4  -5 17081.0 1096.51   1
   1  -4   6 11464.2 1129.40   6
   1  -4   7 2272.44 514.627   6
   1  -4   8 4499.27 790.190   6
   1  -4   9 1907.20 540.537   6
   1  -4  10 1011.44 415.448   6
   1  -4  11 942.980 397.480   6
  -1   3  13 2323.55 634.225   6
  -1   3  12 187.412 202.810   6
   1  -3 -11 1007.38 351.997   5
  -1   3  11 752.704 318.792   6
  -1   3  10 1200.43 377.023   6
   1  -3 -10 846.245 317.808   5
  -1   3   9 12348.1 1170.26   6
   1  -3  -9 13836.8 1306.21   5
  -1   3   8 3923.51 605.913   6
   1  -3  -8 4289.35 695.340   5
   1  -3  -7 5415.09 744.851   5
   1  -3  -6 12687.6 1129.70   5
   1  -3  -5 49574.8 2413.77   5
   1  -3  -4 33954.6 1819.20   5
   1  -3  -3 41156.0 1976.98   5
   1  -3  -2 55514.3 2356.08   5
   1  -3  -1 10164.9 754.705   5
  -1   3   1 10778.3 683.759   2
  -1   3   1 8929.62 551.568   6
   1  -3   0 16044.6 890.939   5
  -1   3   0 14761.6 875.177   2
   1  -3   0 14408.0 723.929   6
  -1   3   0 13698.5 732.219   6
  -1   3  -1 34260.3 1534.47   5
  -1   3  -1 30829.8 1367.56   6
   1  -3   1 34811.1 1423.03   6
   1  -3   1 36037.6 1403.29   5
  -1   3  -2 281233. 8159.39   1
  -1   3  -2 264337. 8112.44   5
  -1   3  -2 274361. 7927.18   4
   1  -3   2 281933. 7956.46   5
   1  -3   2 271997. 8235.74   6
  -1   3  -3 135431. 4127.10   1
  -1   3  -3 117991. 3868.26   5
  -1   3  -3 129948. 3763.19   4
   1  -3   3 123155. 4290.72   6
   1  -3   4 87605.1 3294.39   6
  -1   3  -4 82270.2 2593.58   4
  -1   3  -4 91034.5 3017.22   1
   1  -3   5 3329.55 504.080   6
  -1   3  -5 3556.94 417.222   1
   1  -3   6 6442.62 779.750   6
   1  -3   7 9708.88 1035.87   6
   1  -3   8 3103.55 624.707   6
   1  -3   9 15791.4 1536.52   6
   1  -3  10 1220.46 410.045   6
   1  -3  11 2246.79 651.564   6
  -1   2  12 2381.61 609.950   6
  -1   2  11 5833.25 912.206   6
  -1   2  10 7206.54 950.904   6
   1  -2 -10 7426.09 882.336   5
  -1   2   9 3208.51 571.671   6
   1  -2  -9 2776.28 517.893   5
  -1   2   8 9753.83 963.724   6
   1  -2  -8 9552.32 954.671   5
   1  -2  -7 599.014 247.745   5
  -1   2   7 572.466 197.206   6
  -1   2   6 77060.7 3054.16   6
   1  -2  -6 80226.1 3254.63   5
   1  -2  -5 34204.9 1787.62   5
   1  -2  -4 18812.5 1187.17   5
   1  -2  -3 38353.8 1752.69   5
   1  -2  -2 69149.2 2567.98   5
   1  -2  -1 132352. 4198.85   2
   1  -2  -1 141263. 4339.49   5
   1  -2   0 155218. 4555.34   5
  -1   2   0 146040. 4647.82   5
   1  -2   0 149996. 4284.87   6
  -1   2   0 144589. 4296.43   6
  -1   2  -1 3550.58 327.459   5
   1  -2   1 4090.80 314.646   6
   1  -2   1 4224.00 321.445   5
  -1   2  -1 3860.75 304.405   4
  -1   2  -1 3687.39 294.730   6
  -1   2  -2 8885.10 574.593   6
  -1   2  -2 10495.0 560.226   1
  -1   2  -2 9530.28 514.819   5
  -1   2  -2 9904.88 488.406   4
   1  -2   2 8944.23 583.790   6
  -1   2  -3 29947.1 1164.35   1
  -1   2  -3 29375.5 1014.68   4
  -1   2  -3 26102.8 991.472   5
   1  -2   3 29800.8 1325.12   6
   1  -2   3 24981.3 1015.37   4
   1  -2   4 149481. 4604.63   6
  -1   2  -4 132488. 3913.00   5
  -1   2  -4 151444. 4276.43   1
   1  -2   4 122930. 4000.29   4
  -1   2  -4 137136. 4053.43   4
  -1   2  -5 21844.2 784.343   5
  -1   2  -5 22568.0 827.838   5
   1  -2   5 21167.2 887.584   4
   1  -2   6 2819.06 469.006   6
   1  -2   7 104695. 4192.66   6
   1  -2   8 2091.96 461.092   6
   1  -2   9 8153.04 1026.62   6
   1  -2  10 2977.56 656.338   6
   1  -2  11-399.969 252.913   6
   1  -2  12-341.009 262.917   6
  -1   1  12 981.364 411.611   6
  -1   1  11 367.438 234.130   6
  -1   1  10 8553.85 1056.75   6
   1  -1  -9 30308.3 1744.94   5
  -1   1   9 33770.0 2082.29   6
  -1   1   8 4066.71 628.364   6
   1  -1  -8 5015.98 606.384   5
   1  -1  -7 281.064 155.961   5
  -1   1   7 446.761 178.729   6
  -1   1   6 34016.9 1725.78   6
   1  -1  -6 32783.8 1651.34   5
  -1   1   5 19207.6 1147.63   6
   1  -1  -5 22738.8 1222.00   5
   1  -1  -4 55056.8 2160.96   5
  -1   1   4 53897.1 2106.29   6
  -1   1   3 119408. 3762.36   6
   1  -1  -3 118681. 3881.47   5
   1  -1  -2 216638. 6433.93   5
  -1   1   2 215841. 6252.35   6
   1  -1  -1 484529. 13609.6   5
  -1   1   1 470355. 13347.0   6
   1  -1   0 8444.65 485.302   2
   1  -1   0 8697.89 467.395   5
  -1   1  -1 118283. 3742.49   5
  -1   1  -1 128333. 3718.66   4
   1  -1   1 127164. 3654.77   6
  -1   1  -1 128401. 3602.90   1
   1  -1   2 33605.0 1218.96   4
   1  -1   2 35088.1 1300.28   6
  -1   1  -2 35471.6 1211.26   4
  -1   1  -2 37547.6 1169.87   1
   1  -1   2 34116.9 1185.49   1
   1  -1   3 96788.4 3065.88   6
  -1   1  -3 93628.3 2857.97   4
   1  -1   3 87359.8 2856.73   1
   1  -1   3 91833.9 2829.02   4
   1  -1   4 32382.0 1271.88   4
  -1   1  -4 35080.1 1327.63   4
   1  -1   4 36303.3 1554.12   6
   1  -1   5 13248.4 898.821   6
  -1   1  -5 12567.3 673.876   5
   1  -1   6 14287.8 1045.74   6
  -1   1  -6 13569.0 759.603   5
   1  -1   7 2047.08 406.352   6
  -1   1  -7 1600.35 252.498   5
   1  -1   8 84319.1 3670.20   6
   1  -1   9 40558.7 2409.54   6
   1  -1  10 412.924 194.453   6
   1  -1  11 245.950 197.155   6
   1  -1  12-138.373 167.805   6
  -1   0  12 3025.08 721.270   6
  -1   0  11 683.739 345.552   6
  -1   0  10 1234.45 429.608   6
  -1   0   9 6904.03 912.804   6
   1   0  -8 1457.77 281.823   5
  -1   0   8 2203.65 470.433   6
   1   0  -7 37571.4 1703.89   5
  -1   0   7 41166.8 2117.70   6
   1   0  -6 45722.5 1896.78   5
  -1   0   6 50192.0 2275.13   6
   1   0  -5 7855.19 583.001   5
  -1   0   5 8800.70 745.542   6
   1   0  -4 19191.4 916.953   5
  -1   0   4 18525.7 1056.77   6
  -1   0   4 17373.6 1018.78   5
  -1   0   3 26233.8 1227.27   5
   1   0  -3 30201.6 1164.94   5
  -1   0   3 27361.5 1249.61   6
   1   0  -2 92495.3 2897.61   5
  -1   0   2 94616.4 2993.54   6
  -1   0   1 55193.1 1788.38   4
  -1   0   1 56485.8 1808.95   6
  -1   0  -1 52888.4 1679.46   4
  -1   0  -2 48611.8 1645.34   4
  -1   0  -3 53818.3 1867.84   4
   1   0   3 52277.2 1842.21   4
  -1   0  -4 1437.35 212.614   5
  -1   0  -5 5415.64 480.031   5
   1   0   5 5138.53 533.745   6
  -1   0  -6 34328.3 1571.73   5
   1   0   6 34641.7 1757.05   6
  -1   0  -7 7170.37 645.332   5
   1   0   7 7205.82 765.975   6
  -1   0  -8 4734.99 552.737   5
   1   0   8 4094.10 614.064   6
   1   0   9 12118.2 1176.50   6
  -1   0  -9 11469.3 961.877   5
   1   0  10 21.6340 151.909   6
   1   0  11 2012.61 535.926   6
   1   0  12 2246.04 606.104   6
  -1  -1  12 463.739 303.946   6
  -1  -1  11 872.153 380.601   6
  -1  -1  10 5404.40 889.269   6
  -1  -1   9 24834.9 1873.90   6
  -1  -1   8 65895.0 3220.99   6
  -1  -1   7 20259.5 1470.54   6
  -1  -1   6 19535.1 1077.60   5
  -1  -1   6 33686.6 1726.07   6
  -1  -1   5 4722.36 563.505   6
  -1  -1   5 3456.38 358.835   5
  -1  -1   4 40811.6 1608.25   5
  -1  -1   4 45015.8 1939.75   6
  -1  -1   3 46528.8 1498.81   4
  -1  -1   3 48488.0 1918.71   6
  -1  -1   2 10295.0 462.948   4
  -1  -1   2 10282.4 506.106   5
  -1  -1   2 11066.8 695.645   6
  -1  -1   1 55430.9 1904.94   6
  -1  -1   1 52031.3 1818.65   1
  -1  -1   1 53927.5 1642.30   4
   1   1  -1 50084.0 1641.79   4
  -1  -1   0 14865.4 675.958   1
  -1  -1   0 14948.1 711.201   6
  -1  -1   0 16309.7 645.774   4
  -1  -1  -1 86612.7 2714.59   4
  -1  -1  -2 713282. 19958.7   4
  -1  -1  -3 132473. 4276.95   4
  -1  -1  -3 141100. 4319.18   5
  -1  -1  -4 29973.0 1383.49   5
  -1  -1  -5 15313.8 967.567   5
  -1  -1  -6 870.174 228.856   5
  -1  -1  -7 11465.2 933.345   5
   1   1   8 4879.51 674.379   6
  -1  -1  -8 3886.12 550.937   5
   1   1   9 28954.8 1890.68   6
  -1  -1  -9 27740.9 1745.24   5
  -1  -1 -10 56.3733 102.910   5
   1   1  10 107.257 171.873   6
   1   1  11 5937.17 902.202   6
   1   1  12 2171.33 590.397   6
   1   1  13 203.900 206.228   6
  -1  -2  11 424.988 273.144   6
  -1  -2  10 1633.08 510.444   6
  -1  -2   9 1157.62 396.752   6
  -1  -2   8 11302.0 1213.26   6
  -1  -2   7 122796. 4913.99   6
  -1  -2   6 7351.76 844.463   6
  -1  -2   6 6583.88 338.823   4
  -1  -2   5 7417.84 406.198   5
  -1  -2   5 7167.43 367.529   4
  -1  -2   5 8141.20 350.794   4
  -1  -2   4 9236.98 499.747   5
  -1  -2   4 11878.6 943.051   6
   1   2  -4 11308.7 780.294   1
  -1  -2   4 10632.0 404.581   4
  -1  -2   3 265221. 7751.10   6
  -1  -2   3 247021. 6891.22   4
  -1  -2   3 241963. 7002.39   5
  -1  -2   2 87822.8 3104.77   6
  -1  -2   2 86225.2 2548.79   4
   1   2  -2 84218.5 2527.19   4
  -1  -2   1 4093.70 286.385   4
   1   2  -1 3775.85 252.329   4
  -1  -2   1 4147.07 420.705   6
   1   2   0 23579.5 938.197   4
  -1  -2   0 21121.2 1047.72   6
  -1  -2   0 22624.7 945.901   4
   1   2   1 16865.0 750.922   3
  -1  -2  -1 16567.3 831.785   4
  -1  -2  -2 64692.0 2364.13   5
  -1  -2  -3 46246.1 1927.75   5
  -1  -2  -4 15614.2 1013.14   5
  -1  -2  -5 50714.0 2248.09   5
  -1  -2  -6 46791.9 2212.16   5
  -1  -2  -7 9184.13 888.262   5
  -1  -2  -8 8711.44 913.908   5
  -1  -2  -9 1102.41 336.317   5
   1   2  10 11721.1 1198.10   6
  -1  -2 -10 8313.73 1018.65   5
  -1  -2 -11 6718.95 933.871   5
   1   2  11 5559.19 870.112   6
   1   2  12 882.988 338.711   6
   1   2  13 925.386 402.271   6
  -1  -3  10 126.841 177.662   6
  -1  -3   9 4441.48 847.075   6
  -1  -3   8 13905.1 1438.10   6
  -1  -3   7 8929.34 1076.86   6
  -1  -3   6 227.772 118.262   6
  -1  -3   5 34372.7 1986.47   6
   1   3  -5 31530.4 1672.52   1
  -1  -3   4 89658.4 3647.86   6
   1   3  -4 91452.3 3377.33   1
  -1  -3   3 24751.3 961.081   5
   1   3  -3 25826.1 1357.92   1
  -1  -3   3 25969.2 1514.97   6
  -1  -3   2 297628. 8605.66   5
   1   3  -2 292710. 8347.18   4
   1   3  -1 66039.6 2228.76   4
  -1  -3   1 70619.9 2409.54   5
   1   3   0 156506. 5070.16   4
  -1  -3   0 173069. 5223.79   5
  -1  -3   0 168207. 5338.78   6
  -1  -3   0 173429. 5268.71   3
  -1  -3  -1 51549.9 2069.62   5
   1   3   2 142433. 4066.16   2
  -1  -3  -2 142444. 4757.36   5
  -1  -3  -3 9736.55 806.465   5
  -1  -3  -4 16481.9 1130.54   5
  -1  -3  -5 1121.26 300.623   5
  -1  -3  -6 7176.44 791.824   5
  -1  -3  -7 5.64969 50.5283   5
  -1  -3  -8 2213.26 482.958   5
  -1  -3  -9 989.355 351.986   5
  -1  -3 -10 602.936 289.911   5
   1   3  11 1235.79 407.621   6
  -1  -3 -11 810.808 331.537   5
   1   3  12 992.707 417.218   6
  -1  -3 -12 432.408 261.031   5
   1   3  13 1176.99 433.851   6
  -1  -4  10 635.353 355.814   6
  -1  -4   9 8595.15 1239.35   6
  -1  -4   8 5694.52 954.131   6
  -1  -4   7 601.590 295.642   6
  -1  -4   6 8970.52 1074.24   6
   1   4  -6 8370.96 857.010   1
   1   4  -5 2871.54 459.842   1
  -1  -4   5 1996.75 454.910   6
  -1  -4   4 57536.7 2801.82   6
   1   4  -4 58021.1 2543.30   1
  -1  -4   3 4706.67 630.574   6
   1   4  -3 4896.74 575.459   1
  -1  -4   3 4786.37 372.079   5
  -1  -4   2 10596.3 672.173   5
   1   4  -2 9345.31 480.790   4
   1   4  -2 10942.9 864.259   1
  -1  -4   2 10621.7 919.857   6
  -1  -4   1 19784.5 1076.75   5
  -1  -4   1 20798.1 1270.18   6
   1   4  -1 17954.8 895.162   4
  -1  -4   0 7165.12 630.126   5
  -1  -4   0 5499.30 583.988   3
  -1  -4   0 5514.82 592.604   6
  -1  -4  -1 13021.6 944.132   5
  -1  -4  -2 14206.5 1034.12   5
  -1  -4  -3 72843.4 3025.66   5
  -1  -4  -4 235501. 7761.54   5
  -1  -4  -5 35872.8 1281.02   2
  -1  -4  -5 48751.1 2294.05   5
  -1  -4  -6 1626.62 389.463   5
  -1  -4  -7 6983.42 881.810   5
  -1  -4  -8 2150.88 531.093   5
  -1  -4  -9 1961.27 519.985   5
  -1  -4 -10 10393.9 1279.47   5
  -1  -4 -11 1852.92 549.326   5
   1   4  12 197.072 179.994   6
  -1  -4 -12 880.346 387.865   5
   1   4  13 127.752 178.993   6
  -1  -4 -13 731.863 364.976   5
  -1  -5   9 1599.25 553.114   6
  -1  -5   8 1859.96 572.694   6
  -1  -5   7 920.120 370.922   6
  -1  -5   6 12263.2 1338.78   6
   1   5  -6 14356.5 1216.59   1
   1   5  -5 17738.5 1342.42   1
  -1  -5   5 19603.4 1621.10   6
   1   5  -4 1270.36 333.578   1
  -1  -5   4 1594.58 428.573   6
   1   5  -3 8564.77 853.761   1
  -1  -5   3 8534.56 945.380   6
  -1  -5   3 8045.81 922.997   3
  -1  -5   2 968.630 296.038   3
   1   5  -2 895.929 255.241   1
  -1  -5   2 1151.93 324.515   6
  -1  -5   2 1084.70 232.403   5
  -1  -5   1 59600.1 2730.74   3
   1   5  -1 62992.5 2701.80   1
  -1  -5   1 60105.4 2477.42   5
  -1  -5   1 59120.8 2720.88   6
  -1  -5   0 104542. 3954.61   6
   1   5   0 100478. 3887.13   1
  -1  -5   0 107966. 3900.40   5
  -1  -5   0 103395. 3958.74   3
  -1  -5  -1 8115.49 799.571   5
   1   5   2 8926.89 582.989   2
  -1  -5  -2 8030.68 835.754   5
  -1  -5  -3 2173.24 438.026   5
  -1  -5  -4 6714.35 814.486   5
  -1  -5  -5 11961.2 1157.10   5
  -1  -5  -6 244.909 152.497   5
  -1  -5  -7 228.308 203.131   5
  -1  -5  -8 88243.5 4254.17   5
  -1  -5  -9 13196.8 1455.71   5
  -1  -5 -10 10426.0 1351.29   5
  -1  -5 -11 2176.24 614.095   5
  -1  -5 -12 198.269 310.600   5
   1   5  13-177.831 194.740   6
  -1  -5 -13 8.75454 92.8350   5
  -1  -6   8 843.067 398.288   6
  -1  -6   7 3805.58 808.342   6
   1   6  -6 591.609 248.359   1
  -1  -6   6 617.037 346.424   6
   1   6  -5 6276.24 817.465   1
  -1  -6   5 8415.92 1106.84   6
  -1  -6   5 6781.77 1020.41   3
  -1  -6   4 1132.85 394.105   6
   1   6  -4 644.190 260.213   1
  -1  -6   4 751.980 315.294   3
  -1  -6   3 549.603 274.485   6
  -1  -6   3 696.992 308.830   3
   1   6  -3 303.456 175.160   1
   1   6  -2 16715.8 1317.14   1
  -1  -6   2 18886.7 1481.15   6
  -1  -6   2 18471.4 1483.91   3
  -1  -6   1 16614.1 1367.17   3
   1   6  -1 15497.5 1256.92   1
  -1  -6   1 16569.3 1316.94   6
  -1  -6   1 16032.5 1164.30   5
   1   6   0 94717.5 3880.45   1
  -1  -6   0 95386.7 3821.49   5
  -1  -6   0 98616.0 3998.77   3
  -1  -6  -1 7144.40 817.061   5
   1   6   1 7458.60 803.423   1
   1   6   2 44756.2 1873.62   2
  -1  -6  -2 47422.2 2478.17   5
  -1  -6  -3 44181.0 2444.27   5
   1   6   3 42057.2 1641.37   2
  -1  -6  -4 3516.32 644.997   5
  -1  -6  -5 1503.52 431.060   5
  -1  -6  -6 2339.14 570.895   5
  -1  -6  -7 1216.73 419.053   5
  -1  -6  -8 1267.53 462.113   5
  -1  -6  -9 15911.9 1718.71   5
  -1  -6 -10 14866.6 1737.73   5
  -1  -6 -11 665.984 423.795   5
  -1  -6 -12 396.530 312.635   5
  -1  -6 -13 104.642 184.912   5
   1   7  -7 5805.82 889.296   1
  -1  -7   7 4158.75 878.085   6
  -1  -7   6 7482.20 1193.21   3
   1   7  -6 6965.99 959.071   1
  -1  -7   6 5315.67 961.567   6
   1   7  -5 605.739 270.181   1
  -1  -7   5 359.567 260.472   3
  -1  -7   5 603.382 315.992   6
  -1  -7   4 5278.88 912.090   3
   1   7  -4 4943.76 773.593   1
  -1  -7   4 5530.38 901.085   6
   1   7  -3 94.8557 163.456   1
  -1  -7   3 190.964 203.803   3
  -1  -7   3-270.229 192.688   6
   1   7  -2 17889.8 1464.86   1
  -1  -7   2 16806.3 1555.21   3
  -1  -7   2 15980.0 1453.79   6
   1   7  -1 7266.67 896.424   1
  -1  -7   1 7449.86 930.979   6
  -1  -7   1 7850.70 999.881   3
  -1  -7   0 7968.67 917.918   5
   1   7   0 8038.40 945.657   1
  -1  -7  -1 6203.38 827.368   5
   1   7   1 6272.58 826.413   1
   1   7   2 1840.68 323.132   2
  -1  -7  -2 2634.02 544.083   5
   1   7   3 1703.88 278.592   2
  -1  -7  -3 2099.32 503.418   5
  -1  -7  -4 3922.49 716.391   5
  -1  -7  -5 7098.09 1031.40   5
  -1  -7  -6 8200.12 1145.43   5
  -1  -7  -7 1119.08 438.870   5
  -1  -7  -8 529.831 335.552   5
  -1  -7  -9 1472.11 525.451   5
  -1  -7 -10 89.5075 165.325   5
  -1  -7 -11 167.724 214.049   5
  -1  -7 -12 3464.34 912.649   5
  -1  -8   6 2009.60 617.532   6
   1   8  -6 1544.73 475.135   1
   1   8  -5 777.219 317.983   1
  -1  -8   5 211.815 204.265   6
  -1  -8   5 578.570 350.598   3
  -1  -8   4 155.297 173.840   6
   1   8  -4 592.599 261.204   1
  -1  -8   4 321.800 258.929   3
   1   8  -3 7607.61 1018.95   1
  -1  -8   3 6485.14 986.606   6
  -1  -8   3 6311.53 1055.65   3
  -1  -8   2 609.943 333.632   3
  -1  -8   2 449.129 264.537   6
   1   8  -2 446.668 251.990   1
   1   8  -1 4524.92 767.079   1
   1   8   0 2975.57 610.985   1
   1   8   1 3355.73 633.322   1
  -1  -8  -1 3269.06 663.799   5
  -1  -8  -2 5179.06 857.382   5
   1   8   2 4384.61 728.446   1
  -1  -8  -3 4642.97 843.296   5
  -1  -8  -4 131.956 96.6119   5
  -1  -8  -5 1147.65 459.273   5
  -1  -8  -6 1736.36 566.573   5
  -1  -8  -7 487.910 352.321   5
  -1  -8  -8 279.224 201.273   5
  -1  -8  -9 494.503 338.748   5
  -1  -8 -10 7137.90 1314.95   5
  -1  -8 -11 329.965 302.915   5
  -1  -9   4 704.981 360.384   6
  -1  -9   3 447.382 307.849   3
   1   9  -3 914.457 387.185   1
  -1  -9   3 1015.81 418.711   6
   1   9  -2 14143.9 1506.43   1
   1   9  -1 285.958 147.546   1
   1   9   0 1540.22 470.677   1
   1   9   1 1691.56 506.070   1
  -1  -9  -2 2679.31 654.156   5
   1   9   2 3164.31 664.448   1
  -1  -9  -3 582.189 319.991   5
  -1  -9  -4 7546.84 1209.19   5
  -1  -9  -5 574.101 342.093   5
  -1  -9  -6 919.995 417.986   5
  -1  -9  -7 601.478 413.543   5
  -1  -9  -8 1219.09 538.990   5
  -1  -9  -9 1264.63 575.690   5
   1  10   0 2731.52 679.197   1
   1  10   1 5245.91 943.511   1
   1  10   2 1009.13 431.290   1
   1  10   3 2065.01 588.172   1
  -1 -10  -4 339.223 185.859   5
  -1 -10  -5-149.016 207.849   5
  -1 -10  -6-567.396 377.226   5
  -1 -10  -7-56.8047 162.771   5
  -1 -11  -5 2316.36 735.572   5
   2 -10  -6 4529.32 950.420   5
   2 -10  -5 603.082 323.669   5
   2 -10  -4 694.503 354.729   5
   2 -10  -3 1203.52 429.568   5
  -2  10   1 166.461 174.372   1
   2  -9  -8 214.805 220.401   5
   2  -9  -7 1514.92 560.345   5
   2  -9  -6 50.1629 128.673   5
   2  -9  -5 982.910 395.988   5
   2  -9  -4 47.4834 81.0450   5
   2  -9  -3 988.248 406.666   5
   2  -9  -2 6481.64 954.103   5
  -2   9   1 1010.49 366.851   2
  -2   9   1 658.053 296.444   1
  -2   9   0 958.805 366.185   2
  -2   9   0 619.404 279.391   1
  -2   9  -1 2197.34 580.562   2
  -2   9  -2 423.165 241.333   2
  -2   9  -3 1595.49 567.764   2
   2  -8  -9 795.200 471.760   5
   2  -8  -8 116.792 164.062   5
   2  -8  -7 130.441 124.311   5
   2  -8  -6 10348.5 1348.10   5
   2  -8  -5 6438.42 1005.46   5
   2  -8  -4 4015.94 776.764   5
   2  -8  -3 3270.06 662.478   5
  -2   8   2 6252.68 826.924   2
   2  -8  -2 6525.32 911.927   5
   2  -8  -1 259.784 167.805   5
  -2   8   1-83.6392 105.701   2
  -2   8   0 896.863 322.509   2
  -2   8   0 336.440 177.900   1
  -2   8  -1 6546.39 875.206   1
  -2   8  -1 7914.46 1045.17   2
  -2   8  -2 916.661 362.508   2
  -2   8  -2 798.209 311.780   1
  -2   8  -3 2046.25 567.816   2
  -2   8  -4 5170.74 965.286   2
   2  -8   4 6025.97 1087.97   3
   2  -7 -11 308.494 261.409   5
   2  -7 -10 814.359 399.428   5
   2  -7  -9 2085.20 613.713   5
   2  -7  -8 1679.83 522.482   5
   2  -7  -7 379.906 221.411   5
   2  -7  -6 645.218 313.957   5
   2  -7  -5 624.726 327.521   5
   2  -7  -4 7995.63 1047.45   5
   2  -7  -3 14448.8 1367.27   5
  -2   7   2 10031.8 983.772   2
   2  -7  -2 8425.73 993.716   5
   2  -7  -1 52072.5 2696.36   5
  -2   7   1 55746.3 2749.08   2
  -2   7   0 8547.41 981.295   2
   2  -7   0 8966.25 926.585   5
   2  -7   1 806.394 253.256   5
  -2   7  -1 453.812 215.985   2
  -2   7  -1 562.321 200.337   4
  -2   7  -1 546.518 213.911   1
  -2   7  -2 6566.47 927.624   2
  -2   7  -2 5535.69 726.564   1
   2  -7   3 698.183 344.543   3
  -2   7  -3 150.864 122.358   1
   2  -7   4 1578.95 523.102   3
   2  -7   5 4752.18 935.268   3
   2  -7   6 496.361 304.608   3
  -2   6  12 1330.54 449.300   6
   2  -6 -12 1314.18 509.727   5
  -2   6  11 671.244 301.792   6
   2  -6 -11 590.357 391.951   5
  -2   6  10 657.531 264.525   6
   2  -6 -10 547.062 311.309   5
  -2   6   9 826.349 287.552   6
   2  -6  -9 575.581 304.330   5
   2  -6  -8 3136.53 694.366   5
   2  -6  -7-96.0920 128.459   5
   2  -6  -6 2298.50 544.307   5
   2  -6  -5 1791.14 463.875   5
   2  -6  -4 2519.80 549.492   5
   2  -6  -3 2537.82 532.154   5
   2  -6  -2 2944.46 526.264   5
   2  -6  -1 972.313 298.772   5
  -2   6   1 675.500 239.461   2
  -2   6   0 50226.0 2510.58   2
   2  -6   0 47778.1 2344.48   5
  -2   6  -1 25222.2 1733.22   2
  -2   6  -1 27334.2 1495.80   4
  -2   6  -1 25644.9 1534.14   1
   2  -6   1 27238.2 1547.60   5
  -2   6  -2 15243.5 1149.40   1
  -2   6  -2 15912.0 1381.51   2
   2  -6   2 14306.4 1056.10   6
  -2   6  -2 17552.8 1082.64   4
   2  -6   3 7275.43 1002.16   3
   2  -6   3 6340.68 729.959   6
  -2   6  -3 8032.73 780.799   1
  -2   6  -4 587.478 212.694   1
   2  -6   4 797.305 274.162   6
   2  -6   4 234.723 189.573   3
   2  -6   5 4102.43 793.181   3
   2  -6   6 1837.73 551.552   3
   2  -6   7 3838.50 846.664   3
   2  -6   8 2569.48 725.937   3
   2  -5 -13 20.2119 80.3669   5
  -2   5  12-147.971 163.187   6
   2  -5 -12 341.328 242.467   5
   2  -5 -11-6.85954 71.8352   5
  -2   5  11 377.807 214.315   6
  -2   5  10 1139.46 374.042   6
   2  -5 -10 930.524 368.646   5
  -2   5   9 2983.41 554.951   6
   2  -5  -9 2662.84 631.454   5
   2  -5  -8 11062.6 1260.26   5
  -2   5   8 9683.22 974.848   6
   2  -5  -7 10886.4 1197.96   5
   2  -5  -6 4119.29 705.464   5
   2  -5  -5 3865.72 647.356   5
   2  -5  -4 2789.34 537.901   5
   2  -5  -3 3512.95 579.864   5
   2  -5  -2 11044.0 993.522   5
   2  -5  -1 10503.2 920.925   5
  -2   5   1 9384.47 854.125   2
   2  -5   0 1004.13 263.108   5
  -2   5   0 919.731 282.788   2
  -2   5  -1 27463.1 1413.00   4
   2  -5   1 27525.9 1452.28   5
   2  -5   1 25589.7 1281.56   6
  -2   5  -1 25314.5 1629.92   2
   2  -5   2 1598.64 411.087   3
   2  -5   2 1491.63 289.641   6
  -2   5  -2 2406.28 375.966   1
  -2   5  -2 2283.13 337.851   4
   2  -5   3 3811.04 516.770   6
  -2   5  -3 5450.69 485.435   4
  -2   5  -3 4851.63 540.707   1
   2  -5   3 4904.74 742.168   3
   2  -5   4 6729.92 895.230   3
   2  -5   4 4892.78 636.429   6
  -2   5  -4 6953.65 656.663   1
   2  -5   5 18815.0 1621.11   3
   2  -5   5 14993.9 1269.17   6
  -2   5  -5 16381.1 1086.87   1
   2  -5   6 3905.41 740.187   3
   2  -5   6 3784.18 648.111   6
   2  -5   7 2124.29 586.039   3
   2  -5   7 2220.54 528.333   6
   2  -5   8 3367.44 788.540   3
   2  -5   8 3342.66 693.535   6
   2  -5   9 4250.99 820.870   6
   2  -5   9 4383.96 937.136   3
   2  -4 -12 429.393 259.238   5
  -2   4  12 626.193 311.557   6
   2  -4 -11 144.239 136.012   5
  -2   4  11-320.024 210.588   6
  -2   4  10-11.6275 170.677   6
   2  -4 -10-254.570 189.347   5
   2  -4  -9 381.750 182.314   5
  -2   4   9 407.894 194.341   6
  -2   4   8 1258.05 337.364   6
   2  -4  -8 1759.16 452.793   5
   2  -4  -7 34315.0 2173.48   5
  -2   4   7 35016.9 1876.73   6
   2  -4  -6 58549.5 2925.36   5
   2  -4  -5 38093.5 2153.82   5
   2  -4  -4 1821.70 398.370   5
   2  -4  -3 9652.21 891.875   5
   2  -4  -2 7520.17 745.374   5
  -2   4   1 13339.1 930.647   2
   2  -4  -1 12433.2 929.930   5
  -2   4   1 10140.5 581.298   6
  -2   4   0 12913.3 961.667   2
  -2   4   0 11131.0 618.990   6
   2  -4   0 13913.3 943.821   5
  -2   4  -1 100028. 3331.03   4
   2  -4   1 105145. 3401.15   5
   2  -4   1 92818.7 3068.31   6
  -2   4  -1 98655.7 3637.47   2
  -2   4  -2 175.164 111.285   1
   2  -4   2 154.830 101.910   3
   2  -4   2 144.589 92.2859   6
  -2   4  -2 181.325 101.630   4
  -2   4  -3 2689.53 351.339   1
  -2   4  -3 2990.42 333.502   4
   2  -4   3 3048.76 422.440   6
   2  -4   3 2370.08 462.967   3
   2  -4   4 19380.5 1251.75   6
  -2   4  -4 19508.1 945.413   4
  -2   4  -4 18852.4 1060.54   1
   2  -4   4 18655.8 1451.36   3
   2  -4   5 1062.31 341.327   3
   2  -4   5 988.757 274.232   6
  -2   4  -5 1124.13 230.827   1
   2  -4   6 6850.06 822.627   6
   2  -4   6 6530.67 908.384   3
   2  -4   7 6010.50 828.713   6
   2  -4   8-111.998 133.026   6
   2  -4   9 2690.99 625.298   6
   2  -4  10 2668.72 669.810   6
   2  -4  11 5820.03 1053.54   6
  -2   3  12 1030.01 410.389   6
   2  -3 -11 5314.63 823.408   5
  -2   3  11 4903.94 841.990   6
  -2   3  10 2959.08 598.697   6
   2  -3 -10 2743.63 568.223   5
   2  -3  -9 390.310 211.692   5
  -2   3   9 544.657 243.523   6
  -2   3   8 2712.47 490.929   6
   2  -3  -8 1798.52 427.781   5
  -2   3   7 1737.03 362.001   6
   2  -3  -7 1973.68 432.422   5
  -2   3   6 11925.3 924.693   6
   2  -3  -6 12003.2 1071.10   5
   2  -3  -5 39732.7 2066.40   5
  -2   3   5 38766.1 1762.63   6
  -2   3   4 25547.8 1242.67   6
   2  -3  -4 28585.8 1603.73   5
   2  -3  -3 64123.3 2670.02   5
   2  -3  -2 74501.3 2894.76   5
   2  -3  -1 20931.4 1190.51   5
  -2   3   1 19550.5 757.896   6
   2  -3   0 58570.3 2212.44   5
  -2   3   0 52260.9 1659.47   6
   2  -3   1 4768.34 467.920   5
  -2   3  -1 5360.98 479.971   4
  -2   3  -1 4409.08 314.290   6
   2  -3   1 4697.55 347.022   6
   2  -3   2 10170.4 857.570   3
  -2   3  -2 11837.7 672.556   1
   2  -3   2 10534.2 666.483   6
  -2   3  -2 10991.6 689.500   4
   2  -3   3 185.470 68.1202   3
   2  -3   3 181.877 101.460   6
  -2   3  -3 36.3919 48.9532   4
  -2   3  -3 131.959 77.7275   1
   2  -3   4 42632.4 1952.42   6
  -2   3  -4 44707.6 1700.23   1
  -2   3  -4 42572.6 1655.43   4
   2  -3   4 46744.3 2278.81   3
  -2   3  -5 4989.32 434.466   4
   2  -3   5 5408.41 617.475   6
   2  -3   6 5935.80 709.870   6
   2  -3   7 1980.76 436.082   6
   2  -3   8 231.122 171.285   6
   2  -3   9 13.3902 112.636   6
   2  -3  10 5591.28 928.663   6
   2  -3  11 1024.46 420.067   6
  -2   2  12 2566.45 660.833   6
  -2   2  11-177.811 166.868   6
   2  -2 -10 19015.6 1489.53   5
  -2   2  10 20503.7 1689.46   6
   2  -2  -9 1733.29 407.503   5
  -2   2   9 2244.45 491.060   6
  -2   2   8 208.451 152.303   6
   2  -2  -8 360.652 184.572   5
  -2   2   7 12736.2 1052.17   6
   2  -2  -7 12918.0 1072.66   5
   2  -2  -6 22125.9 1402.01   5
  -2   2   6 21266.7 1308.52   6
  -2   2   5 7277.96 644.959   6
   2  -2  -5 6823.66 692.766   5
   2  -2  -4 27319.5 1490.96   5
  -2   2   4 28281.7 1309.85   6
   2  -2  -3 22873.6 1247.29   5
  -2   2   3 21076.2 988.759   6
   2  -2  -2 21898.0 1171.21   5
  -2   2   2 21183.8 856.526   6
   2  -2  -1 70089.0 2590.04   5
  -2   2   0 161787. 5108.37   4
   2  -2   0 167415. 5161.01   5
   2  -2   1 8109.52 629.241   3
  -2   2  -1 7565.75 545.120   4
   2  -2   1 7664.08 380.040   6
  -2   2  -2 16360.6 841.304   4
   2  -2   2 17521.8 1014.95   3
  -2   2  -2 16844.0 694.024   1
   2  -2   2 16185.6 772.064   6
  -2   2  -3 50153.9 1612.20   1
  -2   2  -3 45215.3 1760.51   4
   2  -2   3 49625.8 2119.95   3
   2  -2   3 46627.4 1835.39   6
  -2   2  -4 10454.3 625.897   4
   2  -2   4 10845.2 753.005   6
   2  -2   5 4331.00 514.596   6
  -2   2  -5 3724.99 391.707   4
   2  -2   6 28160.0 1598.15   6
  -2   2  -6 26060.6 1287.06   4
   2  -2   7 44611.7 2302.00   6
   2  -2   8 13388.2 1213.95   6
   2  -2   9 4246.41 716.352   6
   2  -2  10 567.963 271.543   6
   2  -2  11 631.217 316.790   6
   2  -2  12 239.522 175.855   6
  -2   1  12 705.668 336.201   6
  -2   1  11 1516.23 477.609   6
  -2   1  10 3983.59 735.385   6
  -2   1   9 1503.89 424.538   6
   2  -1  -9 2172.90 425.983   5
   2  -1  -8 2532.98 440.082   5
  -2   1   8 3025.72 551.953   6
  -2   1   7 20243.4 1400.72   6
   2  -1  -7 19543.3 1273.90   5
   2  -1  -6 2172.86 371.988   5
  -2   1   6 1782.58 361.090   6
  -2   1   5 72042.7 2769.92   6
   2  -1  -5 66004.1 2690.61   5
   2  -1  -4 173476. 5580.98   5
  -2   1   4 172902. 5497.37   6
  -2   1   3 118874. 3842.47   6
   2  -1  -3 119057. 3973.44   5
   2  -1  -2 47832.0 1866.81   5
   2  -1  -2 43987.9 1658.12   6
  -2   1   2 48807.7 1683.94   6
  -2   1   1 481211. 13741.5   4
  -2   1   1 488767. 13422.3   6
   2  -1  -1 471511. 13390.1   6
  -2   1   0 92691.6 3046.17   4
  -2   1  -1 10556.6 613.153   4
  -2   1  -1 9483.71 596.977   3
  -2   1  -2 79561.7 2689.84   4
   2  -1   2 84309.6 2789.59   3
  -2   1  -3 72791.9 2381.72   4
   2  -1   3 66657.7 2066.43   1
   2  -1   4 9147.77 659.662   6
   2  -1   4 7244.21 437.671   1
  -2   1  -4 8352.12 590.461   4
  -2   1  -5 20250.4 1077.20   4
   2  -1   5 18337.2 1117.98   6
   2  -1   6 10210.8 847.593   6
  -2   1  -6 8230.66 670.399   4
  -2   1  -7 10003.1 769.115   5
   2  -1   7 11520.2 997.669   6
   2  -1   8 812.875 282.882   6
   2  -1   9 16306.8 1403.46   6
   2  -1  10 1489.06 439.545   6
   2  -1  11 2609.97 621.531   6
   2  -1  12 1512.69 493.295   6
  -2   0  12 1722.00 568.798   6
  -2   0  11 5805.98 985.290   6
  -2   0  10 2217.67 550.673   6
  -2   0   9 2483.40 546.533   6
   2   0  -8 6975.01 677.099   5
  -2   0   8 7064.80 895.709   6
   2   0  -7 3257.97 440.348   5
  -2   0   7 4533.62 659.328   6
   2   0  -6 4284.89 488.076   5
  -2   0   6 5416.74 659.456   6
   2   0  -5 745.147 183.440   5
  -2   0   5 434.035 155.268   6
   2   0  -4 42732.9 1767.17   5
  -2   0   4 42473.8 1914.82   6
  -2   0   3 63035.8 2355.86   6
  -2   0   3 59310.0 2197.72   4
  -2   0   2 115507. 3676.65   4
  -2   0   2 113831. 3718.59   6
  -2   0   1 241351. 6954.52   6
  -2   0   1 230942. 6881.45   1
   2   0  -1 235086. 6960.14   6
  -2   0   1 241448. 6975.44   4
  -2   0  -1 521947. 14752.6   4
   2   0   1 523374. 14774.8   2
  -2   0  -2 378150. 10833.8   4
  -2   0  -3 6955.20 521.318   4
  -2   0  -4 9416.43 677.342   4
  -2   0  -5 20819.6 1147.91   4
  -2   0  -6 5238.99 543.391   5
  -2   0  -6 4564.47 519.033   4
   2   0   7 4733.53 613.787   6
  -2   0  -7 5183.74 582.448   5
   2   0   8 9472.33 948.185   6
  -2   0  -8 8311.49 782.360   5
  -2   0  -9-65.4035 77.3603   5
   2   0   9 513.244 236.802   6
   2   0  10 1238.56 388.069   6
   2   0  11 523.114 281.899   6
   2   0  12 5088.05 908.281   6
  -2  -1  11 1497.36 516.038   6
  -2  -1  10 4246.05 824.269   6
  -2  -1   9 193.755 161.860   6
  -2  -1   8 19939.0 1647.76   6
  -2  -1   7 7037.00 884.929   6
  -2  -1   7 6646.67 564.805   4
  -2  -1   6 7824.01 845.486   6
  -2  -1   6 5092.46 483.269   4
  -2  -1   5 46120.3 2212.79   6
  -2  -1   5 42018.7 1697.30   4
  -2  -1   4 116.279 143.723   6
  -2  -1   4-19.9855 20.3760   4
  -2  -1   3 4988.95 534.012   6
  -2  -1   3 4056.89 360.804   4
  -2  -1   2 63113.2 2421.40   6
  -2  -1   2 61983.3 2130.28   4
  -2  -1   1 66185.9 2219.47   4
  -2  -1   1 65143.4 2397.58   6
  -2  -1   0 2712.70 275.823   4
  -2  -1   0 2581.58 297.517   6
  -2  -1   0 1942.04 240.880   1
  -2  -1  -1 298946. 8589.41   4
   2   1   1 293861. 8475.42   1
  -2  -1  -2 465869. 13393.7   4
  -2  -1  -2 470133. 13162.1   2
  -2  -1  -3 46611.0 1674.79   2
  -2  -1  -3 47593.0 1899.16   4
  -2  -1  -4 70674.8 2671.20   4
  -2  -1  -5 183183. 5908.51   4
  -2  -1  -6 8446.92 753.936   5
  -2  -1  -7 622.581 213.823   5
  -2  -1  -8 8866.41 875.563   5
   2   1   9 11.7184 126.830   6
  -2  -1  -9-235.263 148.383   5
   2   1  10 2358.86 527.228   6
  -2  -1 -10 1487.39 385.214   5
   2   1  11 2650.01 595.154   6
   2   1  12 2552.06 624.104   6
   2   1  13 5.95712 77.1295   6
  -2  -2  11 723.938 376.826   6
  -2  -2  10 1888.85 573.813   6
  -2  -2   9 901.863 348.820   6
  -2  -2   8 3114.77 649.591   6
  -2  -2   7 25044.7 1838.65   6
  -2  -2   6 28716.3 1176.24   4
  -2  -2   6 31931.0 1973.02   6
  -2  -2   5 48962.2 2405.01   6
  -2  -2   5 44086.7 1610.79   4
  -2  -2   4 22105.2 1415.59   6
  -2  -2   4 20418.7 899.776   4
  -2  -2   3 4610.41 353.286   4
  -2  -2   3 4156.95 548.191   6
   2   2  -2 54902.4 2044.47   4
  -2  -2   2 57925.5 2429.06   6
  -2  -2   1 846.899 151.492   4
  -2  -2   1 505.303 159.924   6
  -2  -2   0 12530.1 831.805   6
  -2  -2   0 14134.4 755.481   4
  -2  -2  -1 198373. 5621.25   3
  -2  -2  -1 188740. 5969.47   4
  -2  -2  -2 11689.6 779.908   4
   2   2   2 10901.3 492.729   3
   2   2   2 11632.7 496.857   2
  -2  -2  -3 15963.8 986.904   4
  -2  -2  -3 16656.7 649.183   2
  -2  -2  -4 45764.3 2019.51   4
  -2  -2  -5 13773.3 1006.00   5
  -2  -2  -6 53578.5 2450.62   5
  -2  -2  -7 9438.19 928.832   5
  -2  -2  -8 2382.36 474.398   5
  -2  -2  -9 71.3289 92.4928   5
  -2  -2 -10 7589.79 947.594   5
   2   2  11 15600.3 1496.93   6
  -2  -2 -11 12364.1 1293.15   5
   2   2  12 2183.07 582.696   6
   2   2  13 351.804 254.400   6
  -2  -3  10 379.330 263.067   6
  -2  -3   9 4028.13 817.463   6
  -2  -3   8 668.035 331.380   6
  -2  -3   7 752.070 322.035   6
  -2  -3   6 1511.97 413.735   6
  -2  -3   5 17224.8 1405.31   6
   2   3  -5 16172.2 1168.95   1
  -2  -3   4 30109.3 1827.38   6
   2   3  -4 29063.2 1583.19   1
  -2  -3   4 28580.3 1099.44   4
  -2  -3   3 5684.37 411.939   4
  -2  -3   3 6029.33 706.710   6
  -2  -3   2 3883.48 357.049   4
  -2  -3   2 3715.83 524.911   6
   2   3  -2 2833.91 287.125   4
  -2  -3   1 14691.4 1029.53   6
  -2  -3   1 13299.6 787.152   4
  -2  -3   0 39845.7 1821.88   6
  -2  -3   0 39206.9 1620.91   4
  -2  -3   0 35791.5 1573.76   3
  -2  -3  -1 34252.9 1566.78   4
  -2  -3  -1 35026.6 1413.15   3
   2   3   2 146826. 4535.78   3
  -2  -3  -2 152757. 4918.27   4
  -2  -3  -3 20064.6 1205.78   4
  -2  -3  -4 121467. 4373.75   5
  -2  -3  -5 12308.2 1025.87   5
  -2  -3  -6 9701.23 953.619   5
  -2  -3  -7 16424.7 1331.98   5
  -2  -3  -8 1853.18 453.704   5
  -2  -3  -9 3853.73 675.543   5
  -2  -3 -10 6699.51 944.440   5
  -2  -3 -11 782.393 343.914   5
   2   3  12 4693.92 846.049   6
  -2  -3 -12 3716.90 763.782   5
   2   3  13 339.517 217.705   6
  -2  -4   9 407.436 246.283   6
  -2  -4   8 1698.99 525.699   6
  -2  -4   7 552.902 307.205   6
  -2  -4   6 5479.97 873.473   6
  -2  -4   5 13499.0 1318.91   6
   2   4  -5 14349.4 1161.35   1
  -2  -4   4 1587.47 416.204   6
   2   4  -4 2500.48 450.663   1
  -2  -4   3 16726.2 1337.97   6
   2   4  -3 17081.8 1201.02   1
  -2  -4   2 15285.8 1196.31   6
  -2  -4   1 20464.8 1367.02   6
  -2  -4   0 69169.2 2743.99   3
  -2  -4   0 74674.6 2994.34   6
  -2  -4  -1 351.595 134.935   3
  -2  -4  -1 219.989 137.145   5
  -2  -4  -2 14493.3 1056.91   5
  -2  -4  -3 12656.2 1027.25   5
  -2  -4  -4 20752.2 1422.59   5
  -2  -4  -5 24204.5 1629.15   5
  -2  -4  -6 23519.6 1658.30   5
  -2  -4  -7 75137.4 3526.03   5
  -2  -4  -8 5446.76 830.095   5
  -2  -4  -9 6659.93 955.223   5
  -2  -4 -10 990.929 379.194   5
  -2  -4 -11 130.684 86.6455   5
  -2  -4 -12 184.362 135.037   5
   2   4  13 1074.86 394.609   6
  -2  -4 -13 1272.54 472.856   5
  -2  -5   8 1723.94 577.114   6
  -2  -5   7 11327.8 1394.57   6
  -2  -5   6 2826.14 653.045   6
   2   5  -6 2116.55 471.296   1
   2   5  -5 3954.14 636.320   1
  -2  -5   5 3356.29 676.692   6
  -2  -5   4 11073.8 1214.98   6
   2   5  -4 12858.0 1122.30   1
   2   5  -3 6809.97 787.688   1
  -2  -5   3 6257.98 836.046   6
   2   5  -2 9891.41 941.314   1
  -2  -5   2 10308.1 822.893   5
  -2  -5   2 11934.8 1121.34   6
  -2  -5   2 11677.2 1043.45   3
  -2  -5   1 9944.92 974.094   6
   2   5  -1 10141.9 922.478   1
  -2  -5   1 8428.14 775.911   5
  -2  -5   1 8349.81 843.043   3
  -2  -5   0 12168.1 990.475   5
   2   5   0 13466.1 1073.23   1
  -2  -5   0 11315.4 1032.14   6
  -2  -5  -1 4782.70 627.613   5
  -2  -5  -2 834.682 286.118   5
   2   5   3 8752.99 393.830   2
  -2  -5  -3 9125.68 940.593   5
  -2  -5  -4 330.936 212.343   5
  -2  -5  -5 274.743 182.827   5
  -2  -5  -6 2342.95 516.996   5
  -2  -5  -7 1274.20 423.871   5
  -2  -5  -8 27410.4 2067.85   5
  -2  -5  -9 15159.1 1549.62   5
  -2  -5 -10 1678.08 517.750   5
  -2  -5 -11 1081.31 450.487   5
  -2  -5 -12 754.524 383.131   5
  -2  -5 -13 171.647 201.401   5
  -2  -6   7 4324.51 894.243   6
  -2  -6   6 8041.03 1185.36   6
   2   6  -6 7729.11 987.368   1
   2   6  -5 274.624 170.679   1
  -2  -6   5 658.104 331.012   6
   2   6  -4 3633.67 628.117   1
  -2  -6   4 4255.47 777.719   6
  -2  -6   4 4030.84 743.379   3
  -2  -6   3 8088.01 1058.52   6
  -2  -6   3 8787.29 1052.54   3
   2   6  -3 8555.89 967.216   1
  -2  -6   2 10993.1 1123.61   3
   2   6  -2 10486.2 1058.18   1
  -2  -6   2 12280.2 1223.79   6
  -2  -6   1 8439.82 931.274   3
  -2  -6   1 7236.81 781.066   5
   2   6  -1 8436.59 911.948   1
  -2  -6   1 7675.09 931.582   6
  -2  -6   0 52686.8 2592.27   3
   2   6   0 50655.2 2610.19   1
  -2  -6   0 54696.0 2584.95   5
   2   6   1 17262.6 1332.33   1
  -2  -6  -1 20203.2 1459.75   5
  -2  -6  -2 12434.9 1168.41   5
   2   6   3 804.995 136.652   2
  -2  -6  -3 934.470 330.119   5
  -2  -6  -4 8717.55 1034.49   5
  -2  -6  -5-93.0439 128.590   5
  -2  -6  -6 3264.88 661.991   5
  -2  -6  -7 895.461 356.144   5
  -2  -6  -8 40.3213 113.138   5
  -2  -6  -9 1460.07 537.212   5
  -2  -6 -10 1781.54 577.236   5
  -2  -6 -11-21.4693 107.837   5
  -2  -6 -12 2215.51 732.838   5
  -2  -6 -13 2085.60 707.777   5
  -2  -7   6 1501.33 558.295   3
  -2  -7   6 1140.61 449.727   6
   2   7  -6 527.315 284.655   1
  -2  -7   5 1794.69 561.270   6
   2   7  -5 1429.42 434.245   1
  -2  -7   5 2308.01 619.945   3
  -2  -7   4 2237.88 600.137   6
  -2  -7   4 1964.85 551.119   3
   2   7  -4 2672.79 578.731   1
  -2  -7   3 7399.17 1051.16   6
  -2  -7   3 7811.71 1072.00   3
   2   7  -3 7593.21 980.722   1
  -2  -7   2 1828.91 497.600   6
   2   7  -2 2741.08 566.639   1
  -2  -7   2 1768.33 470.724   3
  -2  -7   1 1166.55 364.273   3
   2   7  -1 1714.79 430.470   1
  -2  -7   1 1036.60 358.643   6
   2   7   0 2399.86 499.791   1
  -2  -7   0 2474.05 502.623   5
  -2  -7  -1 42953.9 2455.01   5
   2   7   1 41613.7 2406.76   1
   2   7   2 47531.4 2566.74   1
  -2  -7  -2 49290.8 2765.46   5
  -2  -7  -3 15940.6 1483.70   5
  -2  -7  -4 1334.09 433.841   5
  -2  -7  -5 6675.48 1003.81   5
  -2  -7  -6 433.574 291.203   5
  -2  -7  -7 1288.66 488.659   5
  -2  -7  -8 278.406 265.295   5
  -2  -7  -9 738.351 355.600   5
  -2  -7 -10 668.950 379.801   5
  -2  -7 -11 1217.01 512.404   5
  -2  -7 -12 179.660 227.474   5
   2   8  -5 4823.27 868.298   1
  -2  -8   5 5116.49 1002.58   6
  -2  -8   5 5513.23 1059.09   3
  -2  -8   4 5794.21 1026.10   6
   2   8  -4 8358.54 1118.60   1
  -2  -8   4 8039.25 1222.13   3
  -2  -8   3 1587.69 513.696   6
   2   8  -3 2575.45 592.116   1
  -2  -8   3 1654.09 525.128   3
  -2  -8   2 3261.04 715.229   3
   2   8  -2 4354.61 770.477   1
  -2  -8   2 2548.86 635.851   6
   2   8  -1 540.877 273.908   1
  -2  -8   1 654.512 329.581   3
   2   8   0 12198.4 1298.64   1
   2   8   1 751.138 316.263   1
  -2  -8  -1 656.452 298.648   5
  -2  -8  -2 465.239 259.015   5
   2   8   2 523.872 232.838   1
  -2  -8  -3 6267.17 974.636   5
   2   8   3 6878.88 930.846   1
  -2  -8  -4 106.793 102.950   5
  -2  -8  -5 520.748 359.438   5
  -2  -8  -6 13996.4 1607.93   5
  -2  -8  -7 4932.10 983.387   5
  -2  -8  -8 515.136 326.802   5
  -2  -8  -9 136.359 182.461   5
  -2  -8 -10 78.1206 162.683   5
  -2  -8 -11 430.162 339.302   5
  -2  -9   3 90.1064 149.969   3
  -2  -9   2 4089.86 855.471   3
   2   9  -2 3174.63 719.831   1
   2   9  -1 2630.80 647.321   1
   2   9   0 599.809 292.429   1
   2   9   1 292.108 215.533   1
   2   9   2 3568.86 736.914   1
  -2  -9  -2 4383.89 846.343   5
  -2  -9  -3 1804.35 550.644   5
   2   9   3 1292.30 446.252   1
  -2  -9  -4 3433.49 791.578   5
  -2  -9  -5 400.980 226.801   5
  -2  -9  -6 720.114 383.326   5
  -2  -9  -7 1115.80 491.547   5
  -2  -9  -8 258.383 280.073   5
  -2  -9  -9 12.2564 113.547   5
   2  10   2 1178.09 459.691   1
   2  10   3 1740.38 546.159   1
  -2 -10  -4 2870.28 782.857   5
   2  10   4 2813.50 675.969   1
  -2 -10  -5 1839.10 646.712   5
  -2 -10  -6-16.5120 145.736   5
  -2 -10  -7 2874.68 858.538   5
   3 -10  -4 332.140 258.921   5
   3 -10  -3 1603.76 509.429   5
   3  -9  -7-424.799 297.073   5
   3  -9  -6-551.542 329.553   5
   3  -9  -5 906.691 398.486   5
   3  -9  -4 2396.11 626.208   5
   3  -9  -3-110.890 149.607   5
   3  -9  -2 534.105 251.178   5
  -3   9   1 668.120 297.771   2
  -3   9   0 1285.01 444.076   2
  -3   9  -1 976.453 400.507   2
  -3   9  -2 846.498 400.137   2
   3  -8  -8 1407.15 506.487   5
   3  -8  -7 383.795 250.860   5
   3  -8  -6-150.248 213.737   5
   3  -8  -5 1197.79 420.993   5
   3  -8  -4 3858.87 771.904   5
   3  -8  -3 3011.29 642.915   5
   3  -8  -2 75.2926 147.721   5
   3  -8  -1 568.060 270.646   5
  -3   8   1 1038.74 359.385   2
  -3   8   0 4875.18 823.190   2
  -3   8   0 5125.88 734.916   4
  -3   8  -1 171.269 201.070   2
  -3   8  -2 4563.40 863.570   2
  -3   8  -3 1359.69 505.451   2
  -3   8  -4 2464.73 674.234   2
   3  -7 -10 1595.09 543.533   5
   3  -7  -9 841.007 422.243   5
   3  -7  -8 3272.33 761.670   5
   3  -7  -7 802.437 381.510   5
   3  -7  -6 133.970 79.5885   5
   3  -7  -5 816.674 310.674   5
   3  -7  -4 6368.65 934.859   5
   3  -7  -3 8104.18 1033.71   5
   3  -7  -2 5537.64 811.944   5
   3  -7  -1 425.204 224.391   5
  -3   7   1 379.892 211.365   2
   3  -7   0 775.335 268.828   5
  -3   7   0 1068.40 371.072   2
  -3   7   0 1178.45 339.585   4
  -3   7  -1 328.473 216.572   2
  -3   7  -1 352.574 167.106   4
  -3   7  -1 179.914 127.702   1
  -3   7  -2 185.833 174.133   2
  -3   7  -3 3696.64 745.551   2
  -3   7  -4 2404.23 630.966   2
   3  -7   5 5775.53 1049.84   3
  -3   7  -5 3974.70 843.024   2
   3  -7   6 1097.54 478.014   3
   3  -6 -11 1962.65 603.217   5
   3  -6 -10 756.940 362.640   5
   3  -6  -9 4979.73 913.019   5
   3  -6  -8 3702.65 774.004   5
   3  -6  -7 1418.38 449.890   5
   3  -6  -6 2127.35 539.938   5
   3  -6  -5 386.862 203.781   5
   3  -6  -4 2462.56 550.845   5
   3  -6  -3 7054.95 900.304   5
   3  -6  -2 4946.69 730.140   5
   3  -6  -1 14142.1 1220.32   5
  -3   6   1 13992.0 1218.55   2
   3  -6   0 345.200 185.868   5
  -3   6   0 100.844 117.335   2
  -3   6   0 549.785 226.364   4
  -3   6  -1 16281.7 1194.66   4
  -3   6  -1 14658.2 1336.35   2
  -3   6  -1 14632.2 1073.36   1
  -3   6  -2 3005.48 467.898   1
  -3   6  -2 3528.66 655.630   2
  -3   6  -2 3025.85 457.110   4
  -3   6  -3 2570.23 580.578   2
   3  -6   4 8804.52 1160.47   3
  -3   6  -4 8623.34 1136.04   2
   3  -6   5 1729.09 522.084   3
   3  -6   6 3202.71 739.527   3
   3  -6   7 790.472 393.119   3
   3  -5 -12 22.7699 83.7512   5
  -3   5  12 1.80566 59.8828   6
  -3   5  11 955.748 361.944   6
   3  -5 -11 1056.22 417.553   5
  -3   5  10 860.838 319.825   6
   3  -5 -10 711.782 327.259   5
  -3   5   9 2203.46 473.443   6
   3  -5  -9 2598.26 615.726   5
  -3   5   8 17931.4 1344.71   6
   3  -5  -8 18948.0 1695.97   5
  -3   5   7 20791.8 1370.54   6
   3  -5  -7 22069.1 1772.15   5
  -3   5   6 33087.7 1706.45   6
   3  -5  -6 37079.1 2299.16   5
   3  -5  -5 2651.89 549.914   5
  -3   5   5 4255.34 468.433   6
   3  -5  -4 4372.72 679.444   5
  -3   5   4 3699.80 387.155   6
   3  -5  -3 2074.82 463.647   5
   3  -5  -2 8652.53 920.905   5
  -3   5   1 9336.88 919.436   2
   3  -5  -1 9130.49 905.758   5
  -3   5   0 7543.87 763.977   4
  -3   5   0 6244.79 757.939   2
   3  -5   0 5990.99 698.706   5
  -3   5  -1 1150.67 328.712   2
  -3   5  -1 1952.63 369.065   4
  -3   5  -2 35616.8 2140.88   2
  -3   5  -2 33353.4 1634.21   1
  -3   5  -2 36422.9 1761.69   4
   3  -5   3 1573.34 433.702   3
  -3   5  -3 1357.18 372.118   2
  -3   5  -3 913.816 212.795   1
  -3   5  -3 1297.34 268.759   4
   3  -5   4 32622.2 2213.41   3
   3  -5   5 2659.58 605.226   3
   3  -5   6 131.766 152.127   3
   3  -5   7 4088.76 821.668   3
   3  -5   8 697.582 355.045   3
   3  -5   9 4659.87 976.757   3
   3  -4 -12 379.170 248.658   5
  -3   4  12 452.897 272.687   6
  -3   4  11 47.9095 90.7155   6
   3  -4 -11 3.49930 68.4388   5
  -3   4  10-41.9521 85.7892   6
   3  -4 -10-63.5760 106.670   5
  -3   4   9 91.8462 106.648   6
   3  -4  -9-23.1942 82.4893   5
  -3   4   8 627.112 242.747   6
   3  -4  -8 1123.43 359.282   5
  -3   4   7 5967.72 687.499   6
   3  -4  -7 5927.29 838.461   5
   3  -4  -6 36937.3 2208.69   5
  -3   4   6 34947.4 1757.89   6
  -3   4   5 5059.62 519.185   6
   3  -4  -5 5128.79 715.715   5
  -3   4   4 6913.24 545.421   6
   3  -4  -4 7754.49 868.340   5
  -3   4   3 30737.6 1238.76   6
   3  -4  -3 35495.6 1932.96   5
   3  -4  -2 60.0595 135.114   5
  -3   4   2 17.6947 17.1510   6
  -3   4   2 36.0266 25.5991   6
   3  -4  -1 1528.97 332.566   5
  -3   4   0 11362.8 912.525   4
   3  -4   0 12016.4 958.970   5
  -3   4   0 11564.4 982.873   2
  -3   4  -1 22333.8 1308.62   4
  -3   4  -1 22183.6 1471.12   2
  -3   4  -2 15316.8 868.864   1
   3  -4   2 14363.2 776.011   6
  -3   4  -2 15559.8 1243.80   2
  -3   4  -2 15623.7 1004.61   4
   3  -4   3 9344.14 711.120   6
  -3   4  -3 10369.5 772.138   4
  -3   4  -3 10105.5 660.706   1
  -3   4  -3 8577.11 947.943   2
  -3   4  -4 2660.19 365.624   4
   3  -4   4 2810.24 416.777   6
  -3   4  -4 2725.96 316.598   1
   3  -4   4 3688.10 616.555   3
   3  -4   5 12989.1 1254.91   3
   3  -4   5 12675.7 1016.57   6
  -3   4  -5 12113.3 823.804   4
   3  -4   6 6942.83 956.316   3
   3  -4   6 8140.53 871.040   6
   3  -4   7 4386.59 789.032   3
   3  -4   7 3350.64 595.897   6
   3  -4   8 6714.94 1032.41   3
   3  -4   8 4921.80 782.911   6
   3  -4   9 661.017 342.860   3
   3  -4  10 977.328 448.612   3
  -3   3  12 277.281 218.465   6
   3  -3 -11 396.731 232.712   5
  -3   3  11 1022.64 394.947   6
  -3   3  10-73.7459 117.604   6
   3  -3 -10-10.6844 57.3734   5
  -3   3   9 754.877 287.887   6
   3  -3  -9 802.814 303.939   5
  -3   3   8 1074.51 313.490   6
   3  -3  -8 548.154 237.248   5
  -3   3   7 8753.73 873.057   6
   3  -3  -7 9230.41 1003.68   5
  -3   3   6 10538.8 882.206   6
   3  -3  -6 10951.3 1064.01   5
  -3   3   5 13983.1 930.830   6
   3  -3  -5 12447.2 1095.52   5
  -3   3   4 1223.63 230.858   6
   3  -3  -4 1183.78 315.858   5
  -3   3   3 2995.77 309.007   6
   3  -3  -3 4354.51 587.598   5
   3  -3  -2 95066.0 3500.45   5
  -3   3   2 87329.7 2691.81   6
  -3   3   1 21259.3 1281.11   4
   3  -3  -1 23472.0 1368.47   5
  -3   3   0 11916.1 886.726   4
  -3   3  -1 14466.4 959.421   4
  -3   3  -2 15013.4 722.381   1
   3  -3   2 14861.9 718.686   6
  -3   3  -2 15226.5 948.255   4
   3  -3   3 103194. 3879.53   3
  -3   3  -3 102774. 3462.47   4
  -3   3  -3 97496.5 3041.16   1
   3  -3   3 93453.6 3277.35   6
   3  -3   4 21271.1 1431.60   3
   3  -3   4 19898.9 1117.18   6
  -3   3  -4 20492.1 1102.12   4
  -3   3  -4 18769.7 830.697   1
   3  -3   5 4200.32 522.720   6
  -3   3  -5 5200.38 512.696   4
   3  -3   5 5594.04 738.161   3
  -3   3  -6 20395.3 1195.77   4
   3  -3   6 21584.2 1408.24   6
   3  -3   6 22171.5 1641.37   3
   3  -3   7 1043.69 300.191   6
   3  -3   8 7630.45 924.989   6
   3  -3   9 4812.76 783.091   6
   3  -3  10 513.105 288.403   6
   3  -3  11 1022.21 407.675   6
  -3   2  12 1530.84 511.284   6
  -3   2  11 624.814 277.777   6
  -3   2  10 1643.80 465.111   6
   3  -2 -10 1493.71 407.395   5
  -3   2   9 2536.89 549.918   6
   3  -2  -9 3218.04 583.337   5
  -3   2   8 1006.13 334.803   6
   3  -2  -8 1620.59 398.840   5
  -3   2   7 2638.39 486.649   6
   3  -2  -7 2729.55 501.192   5
  -3   2   6 8179.96 796.688   6
   3  -2  -6 8550.28 871.146   5
   3  -2  -5 11700.2 982.272   5
  -3   2   5 9597.91 802.443   6
  -3   2   4 45339.0 1944.49   6
   3  -2  -4 51010.4 2276.74   5
  -3   2   3 11512.6 721.507   6
   3  -2  -3 13630.9 987.995   5
  -3   2   2 30893.2 1234.63   6
  -3   2   2 32545.6 1602.23   4
   3  -2  -2 33725.4 1665.25   5
  -3   2   1 879.730 99.5259   6
  -3   2   1 918.850 213.604   4
  -3   2   0 1849.03 303.400   4
  -3   2  -1 11356.5 784.890   4
   3  -2   2 28999.4 1107.61   6
  -3   2  -2 29571.5 1400.91   4
  -3   2  -2 28995.2 972.929   1
   3  -2   3 5786.79 459.180   6
  -3   2  -3 5833.66 530.862   4
   3  -2   3 7286.80 673.943   3
  -3   2  -4 56206.7 2182.50   4
   3  -2   4 54056.8 2147.86   6
   3  -2   4 53885.3 2410.88   3
   3  -2   5 11312.5 842.666   6
  -3   2  -5 10907.4 793.526   4
  -3   2  -6 59018.4 2468.63   4
   3  -2   6 61924.7 2633.69   6
  -3   2  -7 34805.4 1774.15   4
   3  -2   7 38442.9 2034.50   6
   3  -2   8 16892.2 1370.28   6
   3  -2   9 851.842 306.277   6
   3  -2  10 1398.73 428.607   6
   3  -2  11 1423.81 456.630   6
   3  -2  12 1422.18 492.108   6
  -3   1  12 838.445 404.764   6
  -3   1  11 382.657 290.453   6
  -3   1  10 135.812 153.432   6
  -3   1   9 7339.97 975.400   6
   3  -1  -9 8086.97 885.236   5
  -3   1   8 18121.0 1470.80   6
   3  -1  -8 15755.4 1240.46   5
   3  -1  -7 1792.66 378.240   5
  -3   1   7 2247.88 459.843   6
  -3   1   6 328.380 164.111   6
   3  -1  -6 343.719 152.775   5
  -3   1   5 7036.14 712.159   6
   3  -1  -5 7621.09 746.542   5
  -3   1   4 53126.6 2266.87   6
   3  -1  -4 55427.2 2379.39   5
  -3   1   3 79515.7 2881.93   6
  -3   1   3 79441.4 2996.44   4
  -3   1   2 22399.0 1085.78   6
  -3   1   2 23540.0 1262.47   4
  -3   1   1 78264.5 2415.23   6
  -3   1   1 77823.0 2741.28   4
   3  -1   0 2683.81 242.460   6
  -3   1   0 4584.37 456.806   4
  -3   1  -1 15152.1 869.397   4
  -3   1  -1 14001.0 538.291   1
  -3   1  -2 52080.9 2055.18   4
  -3   1  -3 11989.5 788.935   4
   3  -1   3 12036.7 793.597   3
  -3   1  -4 1281.17 247.342   4
   3  -1   4 1905.54 321.442   3
  -3   1  -5 24800.3 1244.72   4
   3  -1   5 16562.9 725.356   1
   3  -1   6 536.093 188.415   6
  -3   1  -6 1132.79 263.687   4
   3  -1   7 13803.2 1111.67   6
  -3   1  -7 13351.1 1017.36   4
   3  -1   8 23136.4 1594.83   6
  -3   1  -8 22522.7 1366.96   5
  -3   1  -8 23328.7 1451.39   4
   3  -1   9 24013.7 1736.91   6
   3  -1  10 3626.78 679.887   6
   3  -1  11 2747.54 620.394   6
   3  -1  12 806.987 383.669   6
  -3   0  11 395.175 253.754   6
  -3   0  10 921.784 377.768   6
  -3   0   9 9866.89 1202.61   6
  -3   0   8 5389.68 816.252   6
  -3   0   8 4351.11 566.877   4
  -3   0   7 3187.95 585.465   6
  -3   0   7 3157.95 458.986   4
  -3   0   6 989.903 302.383   6
  -3   0   6 1060.12 253.618   4
  -3   0   5 12709.0 919.887   4
  -3   0   5 13668.4 1088.05   6
  -3   0   4 4644.54 511.649   4
  -3   0   4 4650.13 568.734   6
  -3   0   3 2787.24 372.472   4
  -3   0   3 2629.20 389.849   6
  -3   0   2 31588.0 1485.16   6
  -3   0   2 32612.3 1488.08   4
  -3   0   1 22380.5 1099.93   6
  -3   0   1 22333.1 1142.96   4
  -3   0   0 49389.6 1852.07   4
  -3   0   0 45328.0 1629.56   1
  -3   0  -1 17806.2 799.414   3
  -3   0  -1 19098.6 781.579   1
  -3   0  -1 20641.9 1040.51   4
   3   0   1 16641.1 895.037   6
  -3   0  -2 34022.0 1503.74   2
   3   0   2 31786.0 1038.38   1
  -3   0  -2 34659.7 1491.11   4
   3   0   3 37598.9 1476.97   3
  -3   0  -3 39692.1 1689.63   4
  -3   0  -3 39403.0 1718.37   2
  -3   0  -4 5959.34 571.403   4
  -3   0  -4 5253.95 560.123   2
  -3   0  -5 8712.74 760.523   4
  -3   0  -6 18654.4 1229.52   4
  -3   0  -7 864.879 242.004   4
  -3   0  -8 4969.21 629.877   5
   3   0   8 5048.69 699.910   6
   3   0   9 5707.27 791.613   6
  -3   0  -9 6577.94 768.648   5
   3   0  10 10580.7 1163.77   6
   3   0  11 2960.07 640.241   6
   3   0  12 25.9372 80.6015   6
  -3  -1  11-80.1750 140.734   6
  -3  -1  10 1583.91 523.774   6
  -3  -1   9 4081.23 786.334   6
  -3  -1   8 27115.1 2036.11   6
  -3  -1   7 14567.2 1352.96   6
  -3  -1   7 12689.4 902.669   4
  -3  -1   6 3575.11 437.316   4
  -3  -1   6 3835.50 634.620   6
  -3  -1   5 551.606 198.068   6
  -3  -1   5 1097.27 228.639   4
  -3  -1   4 23712.7 1207.45   4
  -3  -1   4 23577.9 1492.72   6
  -3  -1   3 4982.47 486.149   4
  -3  -1   3 6115.84 651.138   6
  -3  -1   2 10264.7 699.088   4
  -3  -1   2 10533.2 827.310   6
  -3  -1   1 18881.0 1106.93   6
  -3  -1   1 18964.9 1019.49   4
   3   1  -1 21121.3 1040.97   1
  -3  -1   0 5903.25 516.230   4
  -3  -1   0 6265.02 546.848   6
   3   1   0 5386.91 446.368   1
   3   1   1 1506.79 206.622   1
  -3  -1  -1 1425.49 241.517   4
  -3  -1  -2 72605.8 2624.52   4
   3   1   2 70293.7 2336.92   1
  -3  -1  -3 30599.9 1452.40   4
  -3  -1  -3 29942.6 1288.30   2
   3   1   3 27101.4 983.843   3
  -3  -1  -4 55584.0 2287.53   4
  -3  -1  -4 50191.4 2023.90   2
  -3  -1  -5 44162.3 2085.92   4
  -3  -1  -6 12837.7 1019.71   4
  -3  -1  -7 1462.82 342.112   4
  -3  -1  -8 897.920 275.480   5
  -3  -1  -9 19061.1 1459.67   5
   3   1  10 3850.08 691.639   6
  -3  -1 -10 3694.30 632.679   5
   3   1  11 2424.46 573.130   6
   3   1  12 238.602 199.761   6
   3   1  13 773.515 364.050   6
  -3  -2  10 1487.68 480.527   6
  -3  -2   9 798.639 365.084   6
  -3  -2   8 181.978 173.612   6
  -3  -2   7 25818.5 1962.66   6
  -3  -2   6 43361.1 2537.63   6
  -3  -2   5 88521.3 3658.10   6
  -3  -2   5 74115.9 2727.58   4
  -3  -2   4 9915.24 969.874   6
  -3  -2   4 8476.73 624.818   4
  -3  -2   3 57596.5 2606.98   6
  -3  -2   3 56865.5 2141.12   4
  -3  -2   2 7750.24 770.326   6
  -3  -2   2 8504.57 618.008   4
  -3  -2   1 40329.0 1920.60   6
  -3  -2   1 41431.2 1697.49   4
  -3  -2   0 17308.6 1070.29   6
  -3  -2   0 16957.2 943.428   4
   3   2   0 15010.2 918.680   1
  -3  -2  -1 4810.69 285.988   3
  -3  -2  -1 5948.40 540.971   4
   3   2   1 4961.62 465.023   1
   3   2   2 3574.36 383.547   1
  -3  -2  -2 4650.96 500.797   4
   3   2   2 3959.40 353.485   2
  -3  -2  -3 6934.84 662.996   4
  -3  -2  -4 26909.7 1477.74   4
  -3  -2  -4 22577.0 1031.06   2
  -3  -2  -5 45473.2 2156.99   4
  -3  -2  -5 43280.2 1729.44   2
  -3  -2  -6 7285.25 787.113   4
  -3  -2  -7 6118.58 759.472   5
  -3  -2  -8 1147.10 344.287   5
  -3  -2  -9 4119.98 682.071   5
  -3  -2 -10 7383.80 960.954   5
  -3  -2 -11 4110.22 740.350   5
   3   2  12 604.098 305.043   6
   3   2  13 1076.74 429.466   6
  -3  -3   9 114.600 164.738   6
  -3  -3   8 1989.01 569.064   6
  -3  -3   7 7371.81 1044.16   6
  -3  -3   6 2521.79 566.993   6
  -3  -3   5 24920.2 1818.74   6
  -3  -3   4 6353.38 817.406   6
  -3  -3   4 5413.89 465.595   4
   3   3  -4 5098.01 635.037   1
  -3  -3   3 16668.7 1320.12   6
  -3  -3   3 16910.6 931.779   4
   3   3  -3 18591.6 1222.25   1
  -3  -3   2 111827. 4224.80   6
  -3  -3   2 106739. 3635.39   4
  -3  -3   1 20204.1 1102.47   4
  -3  -3   1 20212.0 1340.34   6
  -3  -3   0 37159.1 1695.30   4
  -3  -3   0 36651.5 1859.86   6
  -3  -3  -1 18270.2 1094.42   4
  -3  -3  -1 15034.0 772.184   3
  -3  -3  -2 25602.0 1441.18   4
   3   3   2 25474.4 1333.07   1
   3   3   3 67787.3 2208.52   2
   3   3   3 68950.7 2195.12   3
  -3  -3  -4 612.357 211.985   4
  -3  -3  -5-113.353 130.194   4
  -3  -3  -6 15037.2 761.452   2
  -3  -3  -6 14388.4 1227.81   5
  -3  -3  -7 9152.09 989.899   5
  -3  -3  -8 7991.14 978.817   5
  -3  -3  -9 2496.38 549.134   5
  -3  -3 -10 885.161 347.342   5
  -3  -3 -11 159.451 163.428   5
  -3  -3 -12-304.769 224.455   5
   3   3  13 913.164 409.301   6
  -3  -4   9 941.837 444.409   6
  -3  -4   8 218.421 215.070   6
  -3  -4   7 8728.92 1200.07   6
  -3  -4   6 5315.67 880.030   6
  -3  -4   5 2684.63 589.695   6
   3   4  -5 3485.65 569.989   1
   3   4  -4 12620.2 1110.96   1
  -3  -4   4 15735.1 1408.76   6
  -3  -4   3 3231.11 392.484   4
  -3  -4   3 2510.23 523.768   6
   3   4  -3 3155.12 511.885   1
  -3  -4   2 12049.9 854.970   4
  -3  -4   2 12895.3 1165.21   6
   3   4  -2 13162.6 1062.28   1
  -3  -4   1 31232.1 1851.71   6
  -3  -4   1 30780.6 1537.35   4
   3   4  -1 29935.6 1693.47   1
  -3  -4   0 27206.1 1375.64   3
  -3  -4   0 24849.4 1413.36   4
  -3  -4   0 29412.0 1699.83   6
  -3  -4  -1 3102.25 382.391   3
   3   4   1 4327.68 541.971   1
  -3  -4  -1 2973.52 450.109   4
  -3  -4  -2 2195.87 395.549   4
   3   4   2 2361.21 388.724   1
  -3  -4  -3 2781.56 460.812   4
   3   4   3 2461.12 186.485   2
  -3  -4  -4 47948.2 2374.51   4
  -3  -4  -5 15690.9 1294.03   5
  -3  -4  -6 6465.53 839.311   5
  -3  -4  -7 21279.2 1674.30   5
  -3  -4  -8 2090.25 518.961   5
  -3  -4  -9 2706.70 614.967   5
  -3  -4 -10 1149.58 417.061   5
  -3  -4 -11-333.190 237.563   5
  -3  -4 -12-102.637 141.353   5
  -3  -4 -13 474.708 300.217   5
  -3  -5   8 2757.72 727.523   6
  -3  -5   7 1692.22 547.207   6
  -3  -5   6 2251.02 621.306   6
  -3  -5   5 248.457 202.182   6
   3   5  -5 501.334 229.687   1
  -3  -5   4 7292.18 995.904   6
   3   5  -4 7399.22 875.992   1
  -3  -5   3 36663.2 2356.99   6
   3   5  -3 40546.1 2215.50   1
   3   5  -2 1992.54 428.711   1
  -3  -5   2 1626.83 424.986   6
  -3  -5   1 56012.2 2852.45   6
   3   5  -1 57059.6 2698.34   1
  -3  -5   1 55398.6 2549.91   3
   3   5   0 639.929 224.908   1
   3   5   1 5942.11 719.723   1
   3   5   2 21328.6 1429.85   1
  -3  -5  -2 22760.0 1553.39   5
  -3  -5  -3 10347.0 1043.92   5
  -3  -5  -4 1923.55 461.747   5
  -3  -5  -5 6980.28 896.583   5
  -3  -5  -6 3929.21 698.325   5
  -3  -5  -7 30354.5 2171.04   5
  -3  -5  -8 41373.6 2684.62   5
  -3  -5  -9 27639.9 2196.18   5
  -3  -5 -10 1353.01 466.541   5
  -3  -5 -11 395.533 239.693   5
  -3  -5 -12 2184.91 643.688   5
  -3  -5 -13 1249.38 510.770   5
  -3  -6   7 3968.65 875.127   6
   3   6  -6 450.099 254.081   1
  -3  -6   6 820.595 385.675   6
   3   6  -5 3817.98 683.653   1
  -3  -6   5 4078.26 826.684   6
   3   6  -4 1843.29 443.725   1
  -3  -6   4 2412.09 596.833   6
  -3  -6   3 7997.70 1085.10   6
  -3  -6   3 8847.29 1059.80   3
   3   6  -3 9330.63 1044.58   1
   3   6  -2 6519.19 845.350   1
  -3  -6   2 7581.57 911.091   3
  -3  -6   2 5786.54 886.244   6
  -3  -6   1 7560.11 974.688   6
  -3  -6   1 7070.96 836.534   3
   3   6  -1 6679.35 842.432   1
  -3  -6   1 6469.64 779.542   5
  -3  -6   0 24119.6 1579.53   3
  -3  -6   0 23462.1 1615.27   5
   3   6   0 24956.8 1699.98   1
   3   6   1 454.073 224.568   1
  -3  -6  -1 1520.25 401.447   5
   3   6   2 40941.0 2257.45   1
  -3  -6  -2 39174.2 2328.08   5
  -3  -6  -3 6028.47 843.339   5
   3   6   3 5317.70 711.144   1
  -3  -6  -4 2471.03 563.017   5
  -3  -6  -5 5211.48 854.098   5
  -3  -6  -6 231.466 129.798   5
  -3  -6  -7 460.005 189.936   5
  -3  -6  -8 377.136 264.426   5
  -3  -6  -9 3628.79 789.053   5
  -3  -6 -10 4202.52 892.742   5
  -3  -6 -11 2136.18 638.547   5
  -3  -6 -12 1464.28 598.283   5
  -3  -6 -13 1381.07 571.597   5
  -3  -7   6-39.1325 109.238   3
  -3  -7   5 3371.17 782.724   3
  -3  -7   5 3069.05 754.114   6
   3   7  -5 3804.81 741.562   1
   3   7  -4 4457.18 787.834   1
  -3  -7   4 4690.43 863.869   3
  -3  -7   4 6068.90 1031.81   6
  -3  -7   3 290.693 279.302   6
   3   7  -3 9.94962 80.3624   1
  -3  -7   2 8023.24 1100.93   6
  -3  -7   2 6442.20 927.266   3
   3   7  -2 7427.15 977.349   1
  -3  -7   1 723.177 306.002   3
   3   7  -1 1057.24 365.132   1
  -3  -7   0 507.287 252.611   3
   3   7   0 163.931 140.411   1
  -3  -7   0 546.549 239.703   5
   3   7   1 3190.05 609.717   1
  -3  -7  -1 3079.27 619.889   5
  -3  -7  -2 993.870 361.197   5
   3   7   2 936.144 343.695   1
   3   7   3 2596.54 541.522   1
  -3  -7  -3 2584.18 599.313   5
  -3  -7  -4 8237.49 1108.23   5
  -3  -7  -5 10671.4 1288.15   5
  -3  -7  -6 840.294 375.097   5
  -3  -7  -7 194.162 199.928   5
  -3  -7  -8 305.575 158.069   5
  -3  -7  -9 491.002 213.732   5
  -3  -7 -10-89.3107 147.897   5
  -3  -7 -11 1877.17 647.221   5
  -3  -8   5 594.575 354.730   3
  -3  -8   4 600.696 339.540   6
  -3  -8   4 187.865 194.898   3
  -3  -8   3 1376.52 489.100   3
   3   8  -3 2954.61 666.605   1
  -3  -8   3 2062.19 607.141   6
   3   8  -2 2374.08 563.022   1
  -3  -8   2 2856.03 655.307   3
  -3  -8   2 2800.02 688.591   6
  -3  -8   1 3015.36 655.383   3
   3   8  -1 2074.90 541.609   1
   3   8   0 465.804 259.445   1
   3   8   1 7368.97 1008.78   1
  -3  -8  -1 5879.13 906.411   5
   3   8   2 109.197 163.006   1
  -3  -8  -2 399.582 245.529   5
  -3  -8  -3 468.345 284.272   5
   3   8   3 850.610 336.395   1
   3   8   4 2488.37 576.351   1
  -3  -8  -4 1863.13 555.217   5
  -3  -8  -5 1876.59 569.979   5
  -3  -8  -6 1410.74 531.222   5
  -3  -8  -7 499.024 288.601   5
  -3  -8  -8 560.005 343.030   5
  -3  -8  -9 1214.37 514.548   5
  -3  -8 -10 4931.27 1068.00   5
  -3  -9   3 562.608 313.157   3
  -3  -9   2 3804.51 822.138   3
   3   9  -1 349.006 275.931   1
   3   9   0 3354.20 727.708   1
   3   9   1 732.844 351.238   1
   3   9   2 680.852 357.715   1
  -3  -9  -2 633.647 320.307   5
   3   9   3-66.0505 136.954   1
  -3  -9  -3 102.557 142.085   5
  -3  -9  -4 2489.80 665.444   5
   3   9   4 3917.48 763.465   1
  -3  -9  -5 2450.77 699.224   5
  -3  -9  -6 878.845 425.817   5
  -3  -9  -7 357.829 284.205   5
  -3  -9  -8-6.13743 88.5387   5
  -3  -9  -9 180.771 216.544   5
  -3 -10  -4 72.6849 143.570   5
  -3 -10  -5 433.906 323.999   5
  -3 -10  -6 683.217 343.150   5
  -3 -10  -7 679.104 425.360   5
   4  -9  -5-118.390 164.403   5
   4  -9  -4 133.230 141.368   5
   4  -9  -3 551.248 280.136   5
  -4   9   3 625.362 295.866   4
   4  -9  -2 1932.98 556.176   5
  -4   9   2 1844.84 520.453   4
   4  -8  -7 465.505 264.419   5
   4  -8  -6 612.203 321.293   5
   4  -8  -5 2407.32 645.505   5
   4  -8  -4 4499.67 861.388   5
   4  -8  -3 387.639 256.074   5
   4  -8  -2 4152.60 768.700   5
  -4   8   2 3985.59 734.967   4
   4  -8  -1 1163.99 398.899   5
  -4   8   1 1284.32 404.982   4
  -4   8   0 1007.33 353.012   4
  -4   8   0 987.816 401.433   2
  -4   8  -1 223.621 202.731   2
  -4   8  -2-176.634 180.060   2
  -4   8  -3 2002.67 595.835   2
   4  -7  -8 1419.81 506.590   5
   4  -7  -7 292.145 260.792   5
   4  -7  -6 691.246 313.208   5
   4  -7  -5 266.908 193.379   5
   4  -7  -4 4393.63 810.675   5
   4  -7  -3 1471.34 438.562   5
  -4   7   2 11713.4 1226.76   4
   4  -7  -2 9384.68 1138.31   5
   4  -7  -1 6845.15 924.164   5
  -4   7   1 6212.11 858.110   4
  -4   7   0 8562.27 990.366   4
  -4   7   0 7690.20 1043.70   2
  -4   7  -1 6819.66 831.393   4
  -4   7  -1 6678.57 979.869   2
  -4   7  -2 4238.24 814.719   2
  -4   7  -3 513.081 281.909   2
  -4   7  -4 2883.05 716.923   2
  -4   7  -5 450.923 318.558   2
   4  -6 -10-221.986 214.254   5
   4  -6  -9 950.795 442.588   5
   4  -6  -8 635.721 345.841   5
   4  -6  -7 164.698 179.720   5
   4  -6  -6 1080.62 381.267   5
   4  -6  -5-60.3150 113.043   5
   4  -6  -4 541.042 285.217   5
   4  -6  -3 3247.25 634.249   5
   4  -6  -2 121.500 156.929   5
  -4   6   2 81.7362 70.6764   4
   4  -6  -1 1432.72 413.069   5
  -4   6   1 1854.17 433.207   4
  -4   6   0 23972.8 1674.62   4
  -4   6   0 24854.5 1831.41   2
  -4   6  -1 16794.6 1300.50   4
  -4   6  -1 16403.1 1486.85   2
  -4   6  -2 8526.91 1082.18   2
  -4   6  -2 7892.85 838.393   4
  -4   6  -3 8942.75 1151.48   2
  -4   6  -4 2690.01 644.024   2
   4  -6   5 1637.12 529.452   3
  -4   6  -5 1458.45 490.037   2
   4  -6   6 1091.82 450.022   3
  -4   6  -6 233.999 135.919   2
   4  -6   7 3087.07 791.024   3
   4  -5 -11 558.314 314.299   5
   4  -5 -10 216.057 204.608   5
   4  -5  -9 870.973 380.660   5
   4  -5  -8-0.57472 135.553   5
   4  -5  -7 4964.05 842.103   5
   4  -5  -6 2487.17 558.220   5
   4  -5  -5 2591.20 562.348   5
   4  -5  -4 1956.07 484.787   5
   4  -5  -3 834.031 292.204   5
  -4   5   2 4913.24 705.196   4
   4  -5  -2 5167.37 742.700   5
  -4   5   1 1800.63 424.556   4
  -4   5   0 18518.8 1378.82   4
  -4   5   0 17395.0 1418.74   2
  -4   5  -1 1979.41 394.524   4
  -4   5  -1 2548.46 525.789   2
  -4   5  -2 10155.4 920.456   4
  -4   5  -2 10433.6 1129.16   2
  -4   5  -3 1568.72 346.592   4
  -4   5  -3 1551.42 442.514   2
  -4   5  -4 212.173 125.073   4
  -4   5  -4 274.268 173.350   2
   4  -5   5 6809.89 1005.46   3
  -4   5  -5 7060.75 1031.29   2
   4  -5   6 1412.14 445.350   3
  -4   5  -6 1587.89 501.224   2
   4  -5   7 2809.88 691.524   3
  -4   5  -7 1839.18 566.074   2
   4  -5   8 4011.50 871.018   3
   4  -4 -11 409.078 270.834   5
  -4   4  10 29.7626 71.3097   6
   4  -4 -10 52.2256 93.9774   5
  -4   4   9 421.790 201.672   6
   4  -4  -9 559.620 268.625   5
  -4   4   8 2432.57 488.022   6
   4  -4  -8 2421.67 568.043   5
  -4   4   7 4627.25 623.693   6
   4  -4  -7 5339.87 826.630   5
  -4   4   6 14304.0 1051.32   6
   4  -4  -6 16421.7 1445.49   5
   4  -4  -5 16425.0 1395.54   5
  -4   4   5 14289.2 948.667   6
   4  -4  -4 22835.7 1644.21   5
   4  -4  -3 3272.26 576.584   5
   4  -4  -2 3707.28 597.295   5
  -4   4   2 4228.73 618.169   4
  -4   4   1 5214.38 675.795   4
  -4   4   0 5425.80 669.199   4
  -4   4  -1 15229.1 1123.93   4
  -4   4  -1 14010.5 1201.32   2
  -4   4  -2 2342.23 277.447   1
  -4   4  -2 2019.77 381.094   4
  -4   4  -2 1798.40 417.968   2
  -4   4  -3 8759.89 793.075   4
  -4   4  -3 7842.40 943.572   2
   4  -4   4 9588.73 1045.66   3
  -4   4  -4 7766.26 742.539   4
  -4   4  -4 8454.26 1026.21   2
   4  -4   5-49.8948 95.7019   3
  -4   4  -5 213.424 70.4550   4
  -4   4  -5 320.424 210.660   2
   4  -4   6 10605.3 1206.85   3
  -4   4  -6 9407.41 1181.21   2
   4  -4   7 1540.56 478.287   3
   4  -4   8 728.360 336.513   3
   4  -4   9 3519.09 796.845   3
   4  -4  10 399.979 283.079   3
  -4   3  12 194.422 201.828   6
  -4   3  11 1170.65 426.923   6
   4  -3 -11 1116.65 419.319   5
  -4   3  10 542.048 311.453   6
   4  -3 -10 595.792 300.484   5
  -4   3   9 222.064 133.240   6
   4  -3  -9-59.9971 105.469   5
  -4   3   8 1586.21 412.008   6
   4  -3  -8 2146.26 516.395   5
  -4   3   7 701.639 231.279   6
   4  -3  -7 672.371 295.802   5
  -4   3   6 377.993 162.296   6
   4  -3  -6 377.253 201.622   5
   4  -3  -5 16463.2 1349.81   5
  -4   3   5 15803.0 1063.49   6
  -4   3   4 13826.8 896.365   6
   4  -3  -4 15226.0 1251.46   5
  -4   3   3 6180.99 483.523   6
  -4   3   3 6976.21 775.232   4
   4  -3  -3 7847.26 850.458   5
  -4   3   2 9577.39 456.165   6
  -4   3   2 12562.5 1031.27   4
  -4   3   1 30332.5 1718.02   4
  -4   3   0 2716.19 440.288   4
  -4   3  -1 74.0503 120.846   4
  -4   3  -1 17.6128 104.332   2
   4  -3   2 24396.7 888.323   6
  -4   3  -2 33344.8 1620.98   4
  -4   3  -2 33278.2 1837.03   2
  -4   3  -2 27550.7 1000.21   1
   4  -3   3 2796.36 302.647   6
  -4   3  -3 4324.67 528.774   4
  -4   3  -3 3616.45 585.525   2
   4  -3   4 10527.3 1005.58   3
   4  -3   4 9244.16 690.521   6
  -4   3  -4 11059.7 872.846   4
  -4   3  -4 10605.3 1076.52   2
   4  -3   5 11363.5 1104.52   3
   4  -3   5 9455.22 799.129   6
  -4   3  -5 11577.3 901.163   4
   4  -3   6 19670.5 1546.61   3
  -4   3  -6 18039.8 1209.57   4
   4  -3   6 16717.5 1198.87   6
   4  -3   7 1939.27 488.222   3
   4  -3   8 5477.00 883.461   3
   4  -3   9 988.333 400.270   3
   4  -3  10 805.214 377.801   3
   4  -3  11 273.613 235.768   3
  -4   2  11 1804.95 551.982   6
  -4   2  10 3117.63 690.634   6
  -4   2  10 3760.73 662.897   4
  -4   2   9 1374.48 422.770   6
  -4   2   9 1202.21 380.140   4
  -4   2   8 4073.85 692.498   6
  -4   2   7 757.486 287.002   6
  -4   2   6 5236.37 666.569   6
  -4   2   6 4174.54 624.262   4
  -4   2   5 32608.1 1726.37   6
  -4   2   5 30746.1 1839.17   4
  -4   2   4 5443.33 565.215   6
  -4   2   4 5096.31 658.300   4
  -4   2   3 5893.47 535.454   6
  -4   2   3 5860.67 673.900   4
  -4   2   2 25752.3 1150.77   6
  -4   2   2 27904.6 1585.21   4
   4  -2  -1 96.4310 40.5617   6
  -4   2   1 117.713 119.622   4
  -4   2   0 46304.2 2111.53   4
  -4   2  -1 3142.77 435.290   4
   4  -2   2 28148.2 1092.59   6
  -4   2  -2 34741.8 1645.16   4
   4  -2   3 5841.21 458.891   6
  -4   2  -3 6171.61 627.365   4
  -4   2  -3 5848.14 704.808   2
   4  -2   4 2043.58 381.040   3
   4  -2   4 1822.14 283.871   6
  -4   2  -4 2449.12 387.429   4
  -4   2  -4 2354.72 459.236   2
  -4   2  -5 16855.4 1121.91   4
   4  -2   5 14535.7 992.602   6
   4  -2   5 16356.8 1211.75   3
  -4   2  -5 15969.3 1317.98   2
   4  -2   6 131.852 102.498   3
   4  -2   6 268.577 155.443   6
  -4   2  -6-23.5931 92.7612   4
  -4   2  -7 16511.5 1213.74   4
   4  -2   7 13771.2 1139.40   6
   4  -2   7 15298.9 1332.25   3
   4  -2   8 2935.07 534.177   6
   4  -2   9 914.262 308.874   6
   4  -2  10 62.0725 131.416   6
   4  -2  11 601.433 302.830   6
  -4   1  11 1061.93 450.804   6
  -4   1  10 1503.79 484.443   6
  -4   1   9 408.444 245.259   6
  -4   1   9 759.307 262.104   4
  -4   1   8 4493.74 751.951   6
  -4   1   8 3478.10 581.524   4
  -4   1   7 529.866 256.295   6
  -4   1   7 882.800 287.496   4
  -4   1   6 1087.85 312.496   6
  -4   1   6 775.577 247.290   4
  -4   1   5 1307.72 316.755   6
  -4   1   5 922.498 287.380   4
  -4   1   4 14861.2 1079.99   6
  -4   1   4 16100.1 1166.58   4
  -4   1   3 86615.1 3316.04   4
  -4   1   3 78779.3 3063.34   6
  -4   1   2 73742.5 2760.91   6
  -4   1   2 80565.0 3071.76   4
  -4   1   1 31340.9 1366.09   6
  -4   1   1 34145.9 1677.48   4
   4  -1   0 51240.8 1961.16   6
  -4   1   0 66036.6 2447.71   4
   4  -1   1 14002.2 790.495   6
  -4   1  -1 16972.6 721.618   1
  -4   1  -2 1512.35 293.380   4
  -4   1  -3 7553.24 679.437   4
  -4   1  -3 5947.13 667.524   2
  -4   1  -4 15636.0 1045.29   4
  -4   1  -4 13371.3 1098.07   2
   4  -1   4 14815.4 985.726   3
   4  -1   5 8034.61 747.161   3
  -4   1  -5 7642.89 737.094   4
  -4   1  -5 7535.23 816.355   2
  -4   1  -6 7258.78 761.247   4
  -4   1  -6 7333.95 846.204   2
   4  -1   6 7890.91 787.642   3
  -4   1  -7 16330.3 1255.26   4
   4  -1   7 16980.5 1250.64   6
  -4   1  -8 10620.5 1019.64   4
   4  -1   8 11409.4 1078.65   6
   4  -1   9 1398.16 391.739   6
  -4   1  -9 1013.70 310.051   4
   4  -1  10 367.477 221.169   6
   4  -1  11 220.357 189.202   6
   4  -1  12 495.135 288.081   6
  -4   0  11 1894.62 610.611   6
  -4   0  10 834.226 358.207   6
  -4   0   9 2869.41 665.441   6
  -4   0   8 4242.07 752.347   6
  -4   0   8 2191.39 428.166   4
  -4   0   7 343.176 186.379   6
  -4   0   7 278.713 177.831   4
  -4   0   6 10242.0 1055.93   6
  -4   0   6 9394.29 864.057   4
  -4   0   5 3854.52 591.067   6
  -4   0   5 3252.63 476.720   4
  -4   0   4 165.899 106.073   6
  -4   0   4 155.040 97.5860   4
  -4   0   3 32786.7 1728.18   6
  -4   0   3 35131.1 1730.04   4
  -4   0   2 14711.6 998.495   6
  -4   0   2 14893.0 1012.18   4
  -4   0   1 70593.3 2774.16   4
  -4   0   1 71922.4 2688.17   6
  -4   0   0 108959. 3838.13   4
  -4   0  -1 142686. 4682.00   3
  -4   0  -1 149281. 4708.11   1
  -4   0  -2 76258.1 2921.67   4
  -4   0  -3 703.001 185.545   4
   4   0   4 72404.3 2610.00   3
  -4   0  -4 77254.7 2988.85   4
  -4   0  -5 1163.98 287.155   4
  -4   0  -5 1128.40 281.853   2
   4   0   5 1865.27 305.715   3
  -4   0  -6 486.952 204.690   4
  -4   0  -6 761.692 231.457   2
  -4   0  -7 11065.6 1037.11   4
  -4   0  -8 3634.27 597.934   4
   4   0   9 144.358 185.438   6
  -4   0  -9 405.905 218.116   5
  -4   0  -9-308.956 185.799   4
   4   0  10 4998.45 801.605   6
   4   0  11 165.068 228.662   6
   4   0  12 1008.24 400.876   6
  -4  -1  10 723.236 367.786   6
  -4  -1   9-237.074 207.471   6
  -4  -1   8 1876.99 513.745   6
  -4  -1   7 3032.84 630.092   6
  -4  -1   6 34320.6 2160.79   6
  -4  -1   6 30763.3 1648.76   4
  -4  -1   5 318.407 206.865   6
  -4  -1   5 604.363 192.645   4
  -4  -1   4 225.045 130.171   6
  -4  -1   4 194.743 123.442   4
  -4  -1   3 12467.6 1052.55   6
  -4  -1   3 14243.8 960.547   4
  -4  -1   2 3774.67 524.110   6
  -4  -1   2 4073.47 480.551   4
  -4  -1   1 4779.82 557.303   6
  -4  -1   1 4745.35 526.333   4
  -4  -1   0 27652.7 1428.74   4
   4   1   0 27341.8 1275.82   1
  -4  -1  -1 50869.9 2149.00   4
   4   1   1 50293.7 1885.24   1
  -4  -1  -2 115402. 3895.24   4
   4   1   2 105071. 3429.41   1
  -4  -1  -3 37574.4 1787.04   4
   4   1   3 33560.9 1314.25   1
   4   1   4 142546. 4218.89   3
  -4  -1  -4 152834. 5030.10   4
   4   1   4 134999. 4265.10   1
  -4  -1  -4 144321. 4706.30   2
  -4  -1  -5 22350.2 1452.09   4
  -4  -1  -6 498.146 239.105   4
  -4  -1  -7 4269.25 634.193   4
  -4  -1  -7 3058.86 490.099   2
  -4  -1  -8 96.7328 123.836   4
  -4  -1  -9 1429.46 385.115   5
  -4  -1 -10 940.111 340.475   5
   4   1  11 440.492 220.286   6
   4   1  12-38.1863 105.051   6
  -4  -2   9 1203.00 483.272   6
  -4  -2   8 410.397 313.075   6
  -4  -2   7 1681.68 477.727   6
  -4  -2   6 11171.1 1246.90   6
  -4  -2   5 5787.77 585.380   4
  -4  -2   5 5607.69 808.548   6
  -4  -2   4 7132.03 886.252   6
  -4  -2   4 7376.07 659.745   4
  -4  -2   3 18167.1 1098.39   4
  -4  -2   3 17340.0 1357.84   6
  -4  -2   2 7008.67 772.327   6
  -4  -2   2 6673.93 621.145   4
   4   2  -2 6470.84 652.033   1
  -4  -2   1 14493.9 1090.79   6
  -4  -2   1 12739.6 902.891   4
  -4  -2   0 19855.2 1171.75   4
  -4  -2   0 20455.5 1299.20   6
  -4  -2  -1 34917.6 1673.76   4
   4   2   1 31819.3 1520.10   1
  -4  -2  -2 12373.9 945.557   4
   4   2   2 11887.6 789.434   1
  -4  -2  -3 39390.9 1941.58   4
   4   2   3 36639.7 1618.02   1
  -4  -2  -4 1625.58 368.856   4
   4   2   4 2113.76 290.340   1
  -4  -2  -5 2980.09 537.835   4
  -4  -2  -5 3019.80 376.084   2
  -4  -2  -6 34048.4 1965.75   4
  -4  -2  -6 29346.2 1475.13   2
  -4  -2  -7 19397.3 1481.11   4
  -4  -2  -8 5929.63 809.518   4
  -4  -2  -9 4340.27 727.776   5
  -4  -2 -10 1801.65 489.031   5
  -4  -2 -11 3571.77 723.101   5
   4   2  12 193.758 184.659   6
  -4  -3   9 1739.31 587.809   6
  -4  -3   8 86.8024 142.186   6
  -4  -3   7 3484.66 740.633   6
  -4  -3   6 3974.85 755.524   6
  -4  -3   5 10652.1 1193.45   6
  -4  -3   4 8779.89 1032.15   6
  -4  -3   4 8502.53 709.337   4
  -4  -3   3 8445.63 954.618   6
  -4  -3   3 7105.64 658.029   4
   4   3  -3 8838.07 862.314   1
  -4  -3   2 3706.97 476.417   4
  -4  -3   2 4292.37 645.219   6
   4   3  -2 3976.44 537.592   1
  -4  -3   1 18333.7 1344.58   6
  -4  -3   1 16855.1 1098.95   4
   4   3  -1 17416.4 1185.73   1
  -4  -3   0 6011.30 627.851   4
   4   3   0 5551.49 613.537   1
  -4  -3   0 4914.68 650.504   6
  -4  -3  -1 7213.07 458.783   3
  -4  -3  -1 7468.34 728.115   4
  -4  -3  -2 23224.7 1441.45   4
  -4  -3  -3 40173.3 2094.02   4
  -4  -3  -4 15695.6 1254.33   4
  -4  -3  -5 3486.88 569.759   4
  -4  -3  -6 38699.3 2219.62   4
  -4  -3  -7 236.859 190.313   4
  -4  -3  -7 258.094 93.5559   2
  -4  -3  -8 3792.12 686.502   5
  -4  -3  -9 951.643 352.783   5
  -4  -3 -10 310.189 217.499   5
  -4  -3 -11-0.60563 161.846   5
  -4  -3 -12 3014.81 697.110   5
  -4  -4   8 2505.99 702.755   6
  -4  -4   7 257.001 219.127   6
  -4  -4   6-191.884 182.735   6
  -4  -4   5 5942.23 927.923   6
  -4  -4   4 6295.01 916.756   6
   4   4  -4 6701.85 824.376   1
  -4  -4   3 7999.62 997.816   6
  -4  -4   3 7138.02 687.124   4
   4   4  -3 9432.87 939.290   1
  -4  -4   2 559.852 268.436   6
  -4  -4   2 231.153 115.253   4
   4   4  -2 318.708 185.198   1
  -4  -4   1 867.507 307.177   6
   4   4  -1 943.076 269.174   1
  -4  -4   1 394.824 177.067   4
  -4  -4   0 15254.1 1126.12   4
   4   4   0 14121.5 1114.96   1
  -4  -4   0 14241.2 918.037   3
  -4  -4  -1 5632.19 680.841   4
  -4  -4  -1 4129.07 414.121   3
   4   4   1 4129.23 568.630   1
  -4  -4  -2 15979.2 1240.47   4
   4   4   2 16042.2 1161.76   1
  -4  -4  -3 2306.24 459.001   4
   4   4   3 3193.13 477.348   1
  -4  -4  -4 3971.50 618.933   4
   4   4   4 3620.87 500.478   1
  -4  -4  -5 14086.1 1242.20   4
  -4  -4  -6 37096.0 2244.64   4
  -4  -4  -7 29868.2 2078.57   5
  -4  -4  -8 9438.67 1142.30   5
  -4  -4  -9 1142.79 421.731   5
  -4  -4 -10 246.702 210.173   5
  -4  -4 -11-95.8204 149.030   5
  -4  -4 -12 426.079 284.475   5
  -4  -4 -13 11.5393 89.4800   5
  -4  -5   7 2113.64 617.945   6
  -4  -5   6 541.035 313.694   6
   4   5  -5 4069.15 703.110   1
  -4  -5   5 3327.59 733.003   6
   4   5  -4 5034.20 748.085   1
  -4  -5   4 4926.80 878.500   6
   4   5  -3 2023.84 461.913   1
  -4  -5   3 3342.17 677.499   6
  -4  -5   2-241.288 182.613   6
  -4  -5   2 126.649 110.422   4
   4   5  -2 111.189 116.157   1
   4   5  -1 1836.10 431.490   1
  -4  -5   1 1859.83 380.519   3
  -4  -5   1 1491.31 421.435   6
  -4  -5   1 1065.07 276.747   4
  -4  -5   0 8577.32 867.652   4
   4   5   0 9607.55 974.825   1
  -4  -5  -1 6057.16 734.293   4
  -4  -5  -1 5261.46 555.580   3
   4   5   1 5731.64 730.693   1
   4   5   2 7676.03 855.072   1
  -4  -5  -2 7342.84 838.799   4
  -4  -5  -3 3780.30 602.206   4
   4   5   3 4051.85 600.816   1
   4   5   4 408.388 186.454   1
  -4  -5  -4 414.564 205.874   4
  -4  -5  -5 4948.10 797.546   5
  -4  -5  -6-11.5240 113.912   5
  -4  -5  -7 590.212 338.043   5
  -4  -5  -8 7275.49 1061.16   5
  -4  -5  -9 3126.79 732.768   5
  -4  -5 -10 4943.20 939.828   5
  -4  -5 -11 135.983 179.204   5
  -4  -5 -12-227.790 226.483   5
  -4  -5 -13-103.561 155.051   5
  -4  -6   6 1396.26 536.723   6
   4   6  -5 4473.90 776.207   1
  -4  -6   5 2537.34 673.812   6
   4   6  -4 1117.13 353.433   1
  -4  -6   4 684.451 352.519   6
  -4  -6   3 673.050 318.012   6
   4   6  -3 912.621 346.616   1
  -4  -6   3 1369.65 418.009   3
  -4  -6   2 3632.73 625.981   3
  -4  -6   2 3511.99 689.210   6
   4   6  -2 3230.24 641.120   1
  -4  -6   1 13513.0 1166.01   3
   4   6  -1 12603.7 1244.77   1
  -4  -6   1 13143.3 1370.84   6
  -4  -6   0 6324.83 749.579   3
   4   6   0 7138.22 900.968   1
   4   6   1 24839.1 1764.51   1
  -4  -6  -1 27258.4 1879.99   5
   4   6   2 1391.83 381.582   1
  -4  -6  -2 1169.45 382.320   5
   4   6   3 1432.97 378.632   1
  -4  -6  -3 1377.20 411.466   5
   4   6   4 968.485 307.770   1
  -4  -6  -4 2284.55 547.764   5
  -4  -6  -5 2168.47 556.842   5
  -4  -6  -6 2759.72 645.407   5
  -4  -6  -7 1203.43 446.843   5
  -4  -6  -8 675.869 373.921   5
  -4  -6  -9 1307.68 487.334   5
  -4  -6 -10 977.703 447.864   5
  -4  -6 -11-354.579 284.476   5
  -4  -6 -12 614.205 348.716   5
  -4  -7   5 968.283 404.591   3
  -4  -7   4 1125.82 414.877   3
  -4  -7   4 2213.45 645.401   6
   4   7  -4 1961.52 531.115   1
  -4  -7   3 412.779 278.104   6
  -4  -7   3 1579.44 474.458   3
   4   7  -3 1280.67 424.532   1
  -4  -7   2-243.359 179.859   3
   4   7  -2-319.282 212.013   1
  -4  -7   2 182.473 145.571   6
   4   7  -1 6431.16 913.403   1
  -4  -7   1 4337.23 716.404   3
   4   7   0 2346.30 545.527   1
  -4  -7   0 2560.55 564.076   5
   4   7   1 6804.44 941.449   1
  -4  -7  -1 6423.08 922.556   5
   4   7   2 19553.1 1633.73   1
  -4  -7  -2 18606.5 1668.54   5
   4   7   3 11408.7 1221.92   1
  -4  -7  -3 9875.26 1221.25   5
   4   7   4 8584.53 1039.09   1
  -4  -7  -4 9425.02 1227.96   5
  -4  -7  -5 6074.81 1009.33   5
   4   7   5 7354.20 953.096   1
  -4  -7  -6 1237.99 463.137   5
  -4  -7  -7-345.182 259.976   5
  -4  -7  -8 497.328 317.567   5
  -4  -7  -9 2388.56 691.936   5
  -4  -7 -10 1059.88 457.037   5
  -4  -7 -11 469.492 274.000   5
   4   8  -2 1730.59 516.414   1
   4   8  -1 1780.39 500.025   1
   4   8   0 1602.74 474.835   1
   4   8   1 1421.67 442.598   1
  -4  -8  -1 843.027 343.006   5
   4   8   2 461.876 253.366   1
  -4  -8  -2 429.252 254.851   5
   4   8   3 4025.06 776.993   1
  -4  -8  -3 3910.52 801.113   5
  -4  -8  -4 352.727 195.392   5
   4   8   4 587.551 225.843   1
   4   8   5 5575.13 895.268   1
  -4  -8  -5 5186.55 957.603   5
  -4  -8  -6 4156.66 895.885   5
  -4  -8  -7 730.993 365.605   5
  -4  -8  -8-72.9807 154.037   5
  -4  -8  -9 627.200 379.358   5
   4   9   1 1359.66 441.892   1
   4   9   2 1170.00 418.026   1
   4   9   3 3660.56 792.211   1
  -4  -9  -3 4267.76 887.090   5
   4   9   4 983.282 444.152   1
  -4  -9  -4 1059.12 444.800   5
  -4  -9  -5 629.940 363.103   5
   4   9   5 70.0603 181.489   1
   4   9   6 505.195 291.666   1
  -4  -9  -6 450.026 217.551   5
  -4  -9  -7 659.130 388.452   5
  -4  -9  -8 3614.06 919.197   5
  -4 -10  -4 441.107 292.265   5
  -4 -10  -5 1066.46 497.177   5
  -5   9   2 264.373 203.589   4
   5  -8  -5 2853.60 738.642   5
   5  -8  -4 793.074 400.617   5
  -5   8   4 1054.77 450.937   4
  -5   8   3-9.82951 95.8369   4
  -5   8   2 544.434 307.978   4
  -5   8   1 120.520 147.883   4
  -5   8   0 1692.37 467.738   4
   5  -7  -7 674.324 377.602   5
   5  -7  -6 1431.23 482.446   5
   5  -7  -5 365.776 257.647   5
  -5   7   5 682.051 347.297   4
   5  -7  -4 1440.31 494.213   5
  -5   7   4 610.733 309.047   4
  -5   7   3 1136.87 389.382   4
  -5   7   2 2975.70 668.355   4
  -5   7   1 3114.35 643.025   4
  -5   7   0 1082.64 361.391   4
  -5   7  -1 429.667 243.295   4
  -5   7  -1 113.046 145.659   2
  -5   7  -2 514.523 348.836   2
  -5   7  -3 691.173 352.854   2
   5  -6  -8 6786.38 1107.06   5
   5  -6  -7 2582.35 654.702   5
   5  -6  -6 2505.22 630.935   5
   5  -6  -5 593.252 326.426   5
  -5   6   5 430.050 277.009   4
   5  -6  -4 3208.74 680.360   5
  -5   6   4 3446.14 699.031   4
  -5   6   3 768.626 318.490   4
  -5   6   2 3752.03 697.265   4
  -5   6   1 3958.98 690.415   4
  -5   6   0 1829.67 454.819   4
  -5   6  -1 595.056 274.826   4
  -5   6  -1 1826.31 509.788   2
  -5   6  -2 1497.18 392.909   4
  -5   6  -2 709.142 328.388   2
  -5   6  -3 2737.29 642.899   2
  -5   6  -4 1789.96 544.811   2
  -5   6  -5-299.850 255.766   2
   5  -5  -9 2522.70 667.685   5
   5  -5  -8 1454.20 485.739   5
   5  -5  -7 2748.81 675.693   5
   5  -5  -6 6263.21 985.668   5
  -5   5   6 6142.72 934.582   4
   5  -5  -5 1689.46 497.457   5
  -5   5   5 1391.37 406.267   4
  -5   5   4 1169.79 394.559   4
  -5   5   3 270.923 212.284   4
  -5   5   2 884.157 323.476   4
  -5   5   1 1044.08 353.083   4
  -5   5   0 1523.21 414.613   4
  -5   5  -1 605.211 221.957   4
  -5   5  -2 12961.6 1146.84   4
  -5   5  -2 12971.5 1347.58   2
  -5   5  -3 1462.36 362.136   4
  -5   5  -3 1273.69 430.186   2
  -5   5  -4 9860.22 954.076   4
  -5   5  -4 9730.43 1230.24   2
  -5   5  -5 761.638 365.248   2
  -5   5  -6 6479.34 1067.83   2
   5  -5   7 1166.75 455.822   3
  -5   5  -7 1621.21 559.952   2
   5  -5   8 160.615 177.182   3
  -5   4  10 230.642 199.490   4
  -5   4   9-135.906 157.299   4
  -5   4   8 1830.12 532.027   4
  -5   4   7 7072.44 992.477   4
  -5   4   6 8633.23 1075.94   4
  -5   4   5 4941.84 788.683   4
  -5   4   4 23309.1 1744.48   4
  -5   4   3 7052.48 902.093   4
  -5   4   2 2788.59 554.144   4
  -5   4   1 613.022 261.551   4
  -5   4   0 7387.60 853.539   4
  -5   4  -1 1290.47 353.613   4
  -5   4  -2 16968.8 1281.62   4
  -5   4  -2 15688.7 1419.55   2
  -5   4  -3 2185.45 439.357   4
  -5   4  -3 2302.50 529.796   2
  -5   4  -4 7206.63 787.782   4
  -5   4  -4 5713.54 877.345   2
  -5   4  -5 1784.48 372.734   4
  -5   4  -5 1684.08 486.992   2
   5  -4   6 1221.89 411.808   3
  -5   4  -6 1504.50 492.953   2
   5  -4   7 6294.37 990.722   3
  -5   4  -7 7193.64 1121.82   2
   5  -4   8 1009.14 410.436   3
  -5   4  -8 1436.48 494.721   2
   5  -4   9 1003.35 427.152   3
  -5   3  10 38.4793 95.8554   4
  -5   3   9 156.215 156.510   4
  -5   3   8 1139.93 386.552   4
  -5   3   7 1648.71 457.236   4
  -5   3   6 4613.76 735.901   4
  -5   3   5 117.733 130.100   4
  -5   3   4 5150.88 736.792   4
  -5   3   3 2134.19 461.756   4
  -5   3   2 19836.9 1461.11   4
  -5   3   1 9867.83 969.357   4
  -5   3   0 9830.99 958.339   4
  -5   3  -1 1930.12 394.432   4
  -5   3  -2 2688.09 465.009   4
  -5   3  -2 3222.61 586.963   2
  -5   3  -3 24636.9 1531.13   4
  -5   3  -3 22164.2 1672.26   2
  -5   3  -4 11186.8 990.165   4
  -5   3  -4 11266.7 1180.14   2
  -5   3  -5 17390.5 1254.99   4
  -5   3  -5 15447.0 1464.41   2
   5  -3   6 10260.8 1127.02   3
  -5   3  -6 11428.7 1027.05   4
  -5   3  -6 10037.4 1197.48   2
   5  -3   7 1213.79 394.716   3
  -5   3  -7 2715.41 641.188   2
   5  -3   8 2525.17 600.044   3
  -5   3  -8 3406.84 751.858   2
   5  -3   9-63.7723 111.233   3
  -5   3  -9-177.267 202.665   2
  -5   2  10 320.529 274.303   6
  -5   2   9 776.780 338.934   6
  -5   2   9 620.022 315.106   4
  -5   2   8 140.912 144.089   6
  -5   2   8 185.658 170.890   4
  -5   2   7 105.031 116.966   6
  -5   2   7 297.031 233.946   4
  -5   2   6 3958.38 614.274   6
  -5   2   6 3836.58 653.312   4
  -5   2   5 4268.82 593.566   6
  -5   2   5 4453.43 681.254   4
  -5   2   4 9812.53 844.979   6
  -5   2   4 13825.7 1187.31   4
  -5   2   3 335.509 134.469   6
  -5   2   3 170.973 114.362   4
  -5   2   2 16883.5 921.846   6
  -5   2   2 19404.3 1360.57   4
  -5   2   1 2891.10 489.162   4
  -5   2   0 2655.65 462.010   4
  -5   2  -1 7169.00 762.484   4
  -5   2  -2 6674.94 739.381   4
  -5   2  -3 954.312 271.812   4
  -5   2  -3 731.744 254.800   2
  -5   2  -4 15984.4 1196.87   4
  -5   2  -4 16674.9 1368.94   2
   5  -2   5-5.74094 60.0582   3
  -5   2  -5 93.2857 111.559   4
  -5   2  -5 44.1847 118.160   2
   5  -2   6 34857.4 2051.55   3
  -5   2  -6 37345.8 2047.61   4
  -5   2  -6 35692.5 2286.23   2
   5  -2   7 2692.02 536.576   3
  -5   2  -7 3008.28 538.460   4
  -5   2  -7 3226.61 662.365   2
   5  -2   8 7481.94 964.991   3
  -5   2  -8 9142.36 1171.77   2
  -5   2  -9 5097.18 902.198   2
  -5   2 -10 845.560 374.157   2
  -5   2 -11-17.2076 92.6659   2
  -5   1  10 864.515 383.892   6
  -5   1   9 1047.24 399.176   6
  -5   1   8 2955.34 638.070   6
  -5   1   8 4055.94 665.338   4
  -5   1   7 4027.17 697.371   6
  -5   1   7 3164.09 580.198   4
  -5   1   6 3647.22 617.552   6
  -5   1   6 1975.65 439.908   4
  -5   1   5 1434.65 357.007   6
  -5   1   5 930.422 283.197   4
  -5   1   4 9207.40 880.127   6
  -5   1   4 10245.8 974.485   4
  -5   1   3 5543.51 618.867   6
  -5   1   3 6350.05 731.737   4
  -5   1   2 14539.5 968.268   6
  -5   1   2 14736.9 1152.44   4
  -5   1   1 11758.1 990.977   4
  -5   1   0 586.662 217.837   4
  -5   1  -1 2347.74 408.923   4
  -5   1  -2 5395.15 641.613   4
  -5   1  -3 4309.00 595.216   4
  -5   1  -3 3223.60 529.144   2
  -5   1  -4 19319.3 1313.03   4
  -5   1  -4 18561.4 1380.29   2
  -5   1  -5 10193.7 940.099   4
   5  -1   5 8428.41 775.598   3
  -5   1  -5 9022.41 954.641   2
   5  -1   6 1300.21 312.436   3
  -5   1  -6 1889.86 421.383   4
  -5   1  -6 2005.03 454.424   2
   5  -1   7 4502.45 625.993   6
   5  -1   7 3225.13 529.673   3
  -5   1  -7 4111.51 649.530   4
  -5   1  -7 4639.38 738.684   2
   5  -1   8 3993.05 626.614   6
  -5   1  -8 3972.85 669.322   4
  -5   1  -8 4238.92 749.198   2
  -5   1  -9 12692.7 1241.39   4
   5  -1   9 12075.4 1203.54   6
  -5   1  -9 12392.4 1351.06   2
  -5   1 -10 1326.86 475.246   2
  -5   0  10 645.380 346.012   6
  -5   0   9 3568.12 768.612   6
  -5   0   8 2061.42 545.626   6
  -5   0   7 2642.63 590.714   6
  -5   0   7 1932.82 422.662   4
  -5   0   6 3020.96 592.748   6
  -5   0   6 2318.30 454.800   4
  -5   0   5 2524.79 508.536   6
  -5   0   5 2331.45 443.081   4
  -5   0   4 77.4742 105.585   6
  -5   0   4 101.618 61.6666   4
  -5   0   3 660.509 221.408   6
  -5   0   3 513.683 197.887   4
  -5   0   2 3946.31 524.885   6
  -5   0   2 3848.10 534.129   4
  -5   0   1 4263.56 561.935   4
  -5   0   1 4279.70 508.362   6
  -5   0   0 41764.4 2063.93   4
  -5   0  -1 190.526 159.967   4
  -5   0  -2 37023.8 1904.54   4
  -5   0  -3 6131.45 688.969   4
  -5   0  -4 721.487 194.364   4
  -5   0  -4 999.475 286.200   2
   5   0   5 919.363 209.381   3
  -5   0  -5 948.754 295.260   4
  -5   0  -5 1178.37 318.437   2
   5   0   6 443.022 164.807   3
  -5   0  -6 867.570 289.592   4
  -5   0  -6 787.419 267.288   2
  -5   0  -7 4995.01 730.400   4
  -5   0  -7 4233.95 658.117   2
  -5   0  -8 13853.3 1308.39   4
  -5   0  -8 15471.8 1354.70   2
  -5   0  -9 158.329 134.672   4
  -5   0  -9 409.094 217.455   2
   5   0  10 6283.79 909.103   6
  -5   0 -10 5578.66 887.494   2
  -5   0 -10 5807.80 869.797   4
  -5   0 -11 1240.81 411.668   2
   5   0  11 1454.47 455.695   6
   5   0  12 2105.07 589.111   6
  -5  -1   9 2177.36 641.683   6
  -5  -1   8 1646.52 522.667   6
  -5  -1   7 10768.0 1274.63   6
  -5  -1   6 3352.35 669.257   6
  -5  -1   6 3191.58 514.521   4
  -5  -1   5 415.509 213.659   6
  -5  -1   5 332.705 154.684   4
  -5  -1   4 6375.57 823.131   6
  -5  -1   4 5634.71 664.591   4
  -5  -1   3 2270.74 458.295   6
  -5  -1   3 1606.68 337.900   4
  -5  -1   2 14324.8 1139.54   6
  -5  -1   2 13535.3 1045.11   4
  -5  -1   1 3941.22 538.145   6
  -5  -1   1 3177.88 480.930   4
  -5  -1   0 7854.77 768.666   4
  -5  -1  -1 33.3405 25.3601   3
  -5  -1  -1 44.4392 86.2187   4
   5   1   2 1430.98 228.223   1
  -5  -1  -2 1930.53 385.720   4
  -5  -1  -3 6627.10 724.548   4
   5   1   3 6534.62 461.764   1
  -5  -1  -4 20297.4 1388.73   4
   5   1   4 17148.1 790.152   1
  -5  -1  -5 13581.9 1158.00   4
  -5  -1  -5 12229.5 976.738   2
  -5  -1  -6 4238.39 673.894   4
  -5  -1  -6 3759.16 551.959   2
  -5  -1  -7 1170.77 372.971   4
  -5  -1  -7 1239.07 329.734   2
  -5  -1  -8 6116.19 873.590   4
  -5  -1  -8 5772.13 739.917   2
  -5  -1  -9 4891.04 782.277   4
  -5  -1  -9 4713.30 713.135   2
  -5  -1 -10 5333.31 846.604   5
   5   1  11 2767.87 640.377   6
   5   1  12-302.850 225.403   6
  -5  -2   9 203.125 204.020   6
  -5  -2   8 3722.29 807.652   6
  -5  -2   7 2258.15 620.180   6
  -5  -2   6 10969.0 1286.85   6
  -5  -2   5 18712.1 1627.69   6
  -5  -2   5 15999.8 1159.80   4
  -5  -2   4 28296.6 1944.18   6
  -5  -2   4 24859.2 1495.88   4
  -5  -2   3 7476.13 894.041   6
  -5  -2   3 5552.41 646.652   4
  -5  -2   2 5606.83 746.705   6
  -5  -2   2 6159.31 678.983   4
  -5  -2   1 7182.31 802.263   6
  -5  -2   1 6031.31 673.507   4
   5   2  -1 6910.58 690.680   1
  -5  -2   0 1564.35 321.940   4
   5   2   0 2033.64 343.925   1
  -5  -2  -1 3225.84 487.344   4
  -5  -2  -2 2216.23 418.778   4
  -5  -2  -3 6901.89 784.456   4
   5   2   3 5908.03 544.866   1
  -5  -2  -4 4944.35 679.582   4
   5   2   4 4213.06 435.388   1
   5   2   5 2858.82 358.775   1
  -5  -2  -5 4137.64 656.730   4
  -5  -2  -6 12138.4 1199.76   4
  -5  -2  -7 10525.4 1148.04   4
  -5  -2  -7 9656.16 845.620   2
  -5  -2  -8 900.332 346.551   4
  -5  -2  -9 591.091 271.505   4
  -5  -2 -10 1204.19 423.924   5
  -5  -2 -11 2374.43 618.302   5
  -5  -3   8 1010.49 449.475   6
  -5  -3   7 87.6507 150.750   6
  -5  -3   6 3292.57 719.525   6
  -5  -3   5 8184.70 1112.54   6
  -5  -3   4 1560.22 460.889   6
  -5  -3   4 1743.27 346.131   4
  -5  -3   3 25486.2 1879.96   6
  -5  -3   3 24706.7 1474.09   4
  -5  -3   2 22801.2 1681.67   6
  -5  -3   2 21123.8 1358.78   4
   5   3  -2 20924.0 1443.98   1
  -5  -3   1 21209.8 1560.15   6
  -5  -3   1 19441.2 1302.84   4
   5   3  -1 17793.9 1271.67   1
  -5  -3   0 3709.89 535.691   4
   5   3   0 4888.10 597.498   1
   5   3   1 486.350 196.045   1
  -5  -3  -1 201.354 114.891   4
  -5  -3  -2 18839.8 1372.70   4
   5   3   2 19345.5 1214.87   1
  -5  -3  -3 14045.3 1203.92   4
  -5  -3  -4 5079.12 727.070   4
  -5  -3  -5 5110.21 757.086   4
  -5  -3  -6 1811.06 469.939   4
  -5  -3  -7 2204.88 555.445   4
  -5  -3  -8 7330.77 994.418   4
  -5  -3  -9 803.048 380.771   5
  -5  -3 -10 3612.97 757.598   5
  -5  -3 -11 737.919 358.654   5
  -5  -3 -12 150.321 174.603   5
  -5  -4   7 1940.21 613.981   6
  -5  -4   6 465.671 286.700   6
  -5  -4   5 7117.37 1084.47   6
  -5  -4   4 1217.22 467.612   6
  -5  -4   3 1877.21 487.976   6
   5   4  -3 1259.85 365.569   1
  -5  -4   2 12776.7 1295.34   6
  -5  -4   2 11202.2 982.637   4
   5   4  -2 11284.5 1079.19   1
  -5  -4   1 1223.00 378.278   6
  -5  -4   1 1222.05 323.068   4
   5   4  -1 816.555 280.996   1
  -5  -4   0 18478.6 1364.07   4
   5   4   0 17696.5 1327.59   1
  -5  -4  -1 7171.46 831.949   4
   5   4   1 6279.63 735.995   1
  -5  -4  -2 3047.01 562.030   4
   5   4   2 4116.81 577.100   1
   5   4   3 326.820 159.943   1
  -5  -4  -3 418.024 239.497   4
  -5  -4  -4 10539.3 1111.78   4
   5   4   4 10027.9 919.111   1
  -5  -4  -5 9492.96 1068.86   4
   5   4   5 7585.08 781.841   1
   5   4   6 23958.3 1479.94   1
  -5  -4  -6 25203.4 1874.48   4
  -5  -4  -7 5957.05 895.133   4
  -5  -4  -8 7754.74 1084.94   5
  -5  -4  -9 3624.20 770.217   5
  -5  -4 -10 573.468 316.639   5
  -5  -4 -11 135.850 178.643   5
  -5  -4 -12-490.948 318.166   5
  -5  -5   6 138.570 258.904   6
  -5  -5   5 533.476 350.565   6
  -5  -5   4 4255.84 832.646   6
   5   5  -4 4964.58 790.385   1
  -5  -5   3 10235.4 1272.97   6
   5   5  -3 9551.69 1088.12   1
  -5  -5   2 8962.39 1154.29   6
   5   5  -2 11110.5 1137.29   1
  -5  -5   1 13561.9 1185.59   4
   5   5  -1 13005.6 1230.73   1
  -5  -5   1 14042.2 1417.36   6
  -5  -5   0 5899.28 770.910   4
   5   5   0 5620.66 774.950   1
  -5  -5  -1 9978.89 1039.27   4
   5   5   1 8686.72 959.140   1
  -5  -5  -2 498.038 228.006   4
   5   5   2 680.101 244.688   1
   5   5   3 653.304 264.379   1
  -5  -5  -3 599.941 268.730   4
   5   5   4 3948.98 615.742   1
  -5  -5  -4 3691.29 680.933   4
  -5  -5  -5 1481.80 429.512   4
   5   5   5 783.377 282.693   1
  -5  -5  -6 7.58815 183.286   4
   5   5   6 132.464 122.396   1
  -5  -5  -7 7826.93 1111.05   5
  -5  -5  -8 6174.98 1005.87   5
  -5  -5  -9 8233.75 1209.03   5
  -5  -5 -10 2140.10 656.724   5
  -5  -5 -11-490.084 325.687   5
  -5  -5 -12 33.0537 93.7663   5
  -5  -6   4 916.429 408.645   6
   5   6  -4 632.269 316.883   1
  -5  -6   3 3880.36 805.488   6
   5   6  -3 3525.65 678.377   1
  -5  -6   2 1107.32 432.927   6
   5   6  -2 2714.14 576.095   1
   5   6  -1 5795.67 851.526   1
  -5  -6   0 5815.00 796.679   4
   5   6   0 7159.45 922.835   1
  -5  -6  -1 2751.10 561.739   4
   5   6   1 2466.68 540.620   1
   5   6   2 6532.18 882.181   1
  -5  -6  -2 6932.55 917.212   4
   5   6   3 1477.28 394.242   1
  -5  -6  -3 1557.29 460.285   4
   5   6   4 13541.7 1285.00   1
  -5  -6  -4 13825.5 1397.11   4
   5   6   5 3015.54 582.121   1
  -5  -6  -5 3883.41 777.406   5
   5   6   6 1063.49 353.823   1
  -5  -6  -6 878.647 351.588   5
  -5  -6  -7 2279.23 626.019   5
  -5  -6  -8 885.900 402.867   5
  -5  -6  -9 2267.59 666.534   5
  -5  -6 -10 4997.37 1040.30   5
  -5  -6 -11 403.687 311.444   5
  -5  -7   3 2475.43 692.841   6
   5   7  -3 2807.78 644.515   1
   5   7  -2 778.147 340.120   1
   5   7  -1 153.181 201.535   1
   5   7   0 1377.11 429.649   1
  -5  -7   0 681.890 338.401   5
   5   7   1 1013.84 379.986   1
  -5  -7  -1 474.523 262.441   5
   5   7   2 2063.11 526.241   1
  -5  -7  -2 2275.63 586.938   5
   5   7   3 7076.42 985.800   1
  -5  -7  -3 6704.20 1032.29   5
   5   7   4 2684.64 602.197   1
  -5  -7  -4 2245.29 620.581   5
  -5  -7  -5 1422.01 512.316   5
   5   7   5 1211.37 400.412   1
   5   7   6 293.094 160.259   1
  -5  -7  -6 674.362 406.774   5
  -5  -7  -7 1644.94 564.268   5
  -5  -7  -8 1575.94 585.377   5
  -5  -7  -9 3638.49 872.667   5
  -5  -7 -10-244.603 247.319   5
   5   8  -1 2750.70 677.034   1
   5   8   0 906.066 377.513   1
   5   8   1 2310.00 600.811   1
   5   8   2 1184.70 436.670   1
  -5  -8  -2 1500.07 507.986   5
   5   8   3 456.663 267.847   1
  -5  -8  -3 615.676 332.413   5
   5   8   4 126.399 152.141   1
  -5  -8  -4-427.388 296.072   5
   5   8   5 622.773 305.870   1
  -5  -8  -5 542.805 308.048   5
  -5  -8  -6 3161.13 806.410   5
   5   8   6 2669.45 624.049   1
   5   8   7 1308.76 461.487   1
  -5  -8  -7 1883.42 601.158   5
  -5  -8  -8-147.486 210.140   5
   5   9   3-129.023 194.266   1
  -5  -9  -3-451.766 310.638   5
   5   9   4-157.763 173.965   1
  -5  -9  -4-127.382 182.000   5
   5   9   5-63.4907 132.480   1
  -5  -9  -5-55.1483 122.078   5
  -5  -9  -6 3405.69 893.241   5
   5   9   6 1878.30 586.029   1
   5   9   7 173.920 182.337   1
   5   9   8 505.321 304.585   1
  -6   8   1 2158.20 576.001   4
  -6   7   4 1133.47 440.266   4
  -6   7   3 100.198 158.488   4
  -6   7   2 4354.48 823.972   4
  -6   7   1-8.36072 77.8493   4
  -6   7   0 1534.70 474.988   4
  -6   7  -1 3184.63 647.866   4
  -6   6   6-43.1177 121.308   4
  -6   6   5 565.264 311.196   4
  -6   6   4 1345.90 462.845   4
  -6   6   3 424.910 258.166   4
  -6   6   2 1551.10 472.385   4
  -6   6   1 3382.11 670.915   4
  -6   6   0 9407.62 1129.77   4
  -6   6  -1 6044.16 878.954   4
  -6   6  -2 3666.40 662.417   4
  -6   6  -3 2071.40 607.778   2
  -6   5   7 556.370 358.772   4
  -6   5   6 2354.86 611.780   4
  -6   5   5 450.633 263.205   4
  -6   5   4 1227.45 430.647   4
  -6   5   3 228.936 223.130   4
  -6   5   2 2292.90 546.563   4
  -6   5   1 1378.82 395.221   4
  -6   5   0 3730.41 678.808   4
  -6   5  -1 1033.04 343.495   4
  -6   5  -2 5663.93 799.135   4
  -6   5  -3 1116.79 365.105   4
  -6   5  -3 814.024 355.321   2
  -6   5  -4 4075.41 660.824   4
  -6   5  -4 4739.85 888.620   2
  -6   5  -5 919.481 415.891   2
  -6   4   8 808.795 410.039   4
  -6   4   7 1059.06 416.371   4
  -6   4   6 3911.58 761.737   4
  -6   4   5 2175.21 548.579   4
  -6   4   4 2465.83 578.641   4
  -6   4   3 6761.86 930.323   4
  -6   4   2 3986.53 705.307   4
  -6   4   1 1270.78 372.016   4
  -6   4   0 3714.95 656.560   4
  -6   4  -1 2029.39 480.486   4
  -6   4  -2 1547.78 403.237   4
  -6   4  -3 3689.00 619.599   4
  -6   4  -3 3228.20 670.562   2
  -6   4  -4 1267.16 358.755   4
  -6   4  -4 757.958 324.928   2
  -6   4  -5 2987.58 550.326   4
  -6   4  -5 1906.40 556.546   2
  -6   4  -6-177.619 194.920   2
  -6   4  -7 675.034 402.763   2
  -6   3   9 151.649 176.246   4
  -6   3   8 222.808 193.965   4
  -6   3   7 270.338 203.658   4
  -6   3   6 1394.84 449.485   4
  -6   3   5 1631.82 464.151   4
  -6   3   4 1409.07 399.377   4
  -6   3   3 10909.9 1151.96   4
  -6   3   2 5348.48 776.841   4
  -6   3   1 3132.67 576.845   4
  -6   3   0 2524.89 516.399   4
  -6   3  -1 553.503 237.598   4
  -6   3  -2 6782.85 842.685   4
  -6   3  -3 5566.73 756.674   4
  -6   3  -4 9933.74 1027.32   4
  -6   3  -4 9816.82 1165.19   2
  -6   3  -5 3716.02 615.123   4
  -6   3  -5 2686.66 614.236   2
  -6   3  -6 3140.12 573.642   4
  -6   3  -6 2148.38 573.115   2
  -6   3  -7 92.0660 157.293   2
  -6   3  -8 2597.49 669.444   2
  -6   2   9 367.087 205.550   4
  -6   2   8 335.107 213.253   4
  -6   2   7 866.773 344.521   4
  -6   2   6 2651.95 573.242   4
  -6   2   5 2423.86 540.180   4
  -6   2   4 9388.43 1052.42   4
  -6   2   3 4707.32 716.102   4
  -6   2   2 7242.34 875.152   4
  -6   2   1 540.651 208.981   4
  -6   2   0 21023.0 1519.31   4
  -6   2  -1 2687.80 502.846   4
  -6   2  -2 6423.99 794.587   4
  -6   2  -3 1712.50 404.110   4
  -6   2  -4 4255.39 636.776   4
  -6   2  -4 4043.48 697.514   2
  -6   2  -5 1839.15 419.981   4
  -6   2  -5 1086.09 353.409   2
  -6   2  -6 87.7556 88.1749   4
  -6   2  -6-62.5107 90.6929   2
  -6   2  -7 6655.52 881.633   4
  -6   2  -7 7753.79 1075.17   2
  -6   2  -8 1867.50 484.582   4
  -6   2  -8 1468.48 470.302   2
  -6   2  -9-103.325 141.043   2
  -6   2 -10 358.070 264.099   2
  -6   1   8 673.375 306.060   6
  -6   1   8 1228.47 377.641   4
  -6   1   7 1089.01 375.018   6
  -6   1   7 1502.25 400.014   4
  -6   1   6 1140.51 336.528   6
  -6   1   6 1067.25 355.133   4
  -6   1   5 257.650 163.774   6
  -6   1   5-3.69409 73.0335   4
  -6   1   4 5469.96 703.712   6
  -6   1   4 5695.94 787.615   4
  -6   1   3 1264.07 312.128   6
  -6   1   3 1260.02 362.403   4
  -6   1   2 26177.4 1729.71   4
  -6   1   1 1792.82 399.760   4
  -6   1   0 39456.8 2183.52   4
  -6   1  -1 4512.46 642.590   4
  -6   1  -2 5774.16 741.473   4
  -6   1  -3 8633.58 921.290   4
  -6   1  -4 305.197 206.306   4
  -6   1  -5 112.430 105.015   4
  -6   1  -5 242.981 157.367   2
  -6   1  -6 3914.94 658.200   4
  -6   1  -6 3996.42 689.746   2
  -6   1  -7 2605.96 555.902   4
  -6   1  -7 1359.24 429.425   2
  -6   1  -8 1766.83 496.740   4
  -6   1  -8 1816.60 507.576   2
  -6   1  -9 2128.69 532.359   4
  -6   1  -9 2661.86 631.525   2
  -6   1 -10 960.636 400.732   2
  -6   0   9 477.577 288.364   6
  -6   0   8 1329.67 454.440   6
  -6   0   7 2168.45 558.906   6
  -6   0   7 1972.78 449.936   4
  -6   0   6-112.812 139.288   6
  -6   0   6 359.721 176.791   4
  -6   0   5 2411.09 522.817   6
  -6   0   5 2551.22 510.899   4
  -6   0   4 3467.73 592.273   6
  -6   0   4 4614.52 668.364   4
  -6   0   3 1697.08 387.790   6
  -6   0   3 2440.80 487.442   4
  -6   0   2 96.8856 118.715   6
  -6   0   2 96.1523 79.9558   4
  -6   0   1 30001.9 1829.89   4
  -6   0   0 15025.3 1231.27   4
  -6   0  -1 14798.5 1210.55   4
  -6   0  -2 31123.3 1870.43   4
  -6   0  -3 20825.6 1473.59   4
  -6   0  -4 889.445 281.001   4
  -6   0  -5 619.479 233.118   4
  -6   0  -6 13479.8 1272.20   4
  -6   0  -6 12353.1 1181.50   2
  -6   0  -7 855.628 339.158   4
  -6   0  -7 612.838 270.574   2
  -6   0  -8 1579.72 465.822   4
  -6   0  -8 1414.43 391.858   2
  -6   0  -9 482.285 336.251   4
  -6   0  -9 110.419 131.034   2
  -6   0 -10-367.212 243.090   4
  -6  -1   8 1741.46 572.428   6
  -6  -1   7 1918.69 554.897   6
  -6  -1   6 1617.90 487.191   6
  -6  -1   6 1742.86 414.325   4
  -6  -1   5 109.624 182.146   6
  -6  -1   5 73.2966 95.4471   4
  -6  -1   4 10323.1 1124.99   6
  -6  -1   4 9460.20 970.556   4
  -6  -1   3 1786.51 427.764   6
  -6  -1   3 1093.96 330.545   4
  -6  -1   2 3237.47 561.187   6
  -6  -1   2 3531.83 563.587   4
  -6  -1   1 818.217 273.272   4
  -6  -1   0 3642.82 570.390   4
  -6  -1  -1 23947.1 1584.43   4
  -6  -1  -2 45355.7 2358.16   4
  -6  -1  -3 4017.42 606.503   4
  -6  -1  -4 29636.2 1879.55   4
  -6  -1  -5 734.739 252.687   4
  -6  -1  -6 7554.42 970.657   4
  -6  -1  -7 74.4601 161.568   4
  -6  -1  -7 159.540 192.521   2
  -6  -1  -8 1167.80 415.138   4
  -6  -1  -8 700.235 276.468   2
  -6  -1  -9 1396.24 451.653   4
  -6  -1 -10 991.628 368.885   4
  -6  -2   8-368.334 272.553   6
  -6  -2   7-94.5045 105.004   6
  -6  -2   6 371.318 274.343   6
  -6  -2   5 4619.05 812.828   6
  -6  -2   5 4409.60 637.506   4
  -6  -2   4 2357.18 549.371   6
  -6  -2   4 3010.24 515.759   4
  -6  -2   3 119.725 75.2861   6
  -6  -2   3 1396.89 356.332   4
  -6  -2   2 1794.21 445.398   6
  -6  -2   2 1501.54 378.054   4
  -6  -2   1 3892.31 590.151   4
  -6  -2   0 12723.3 1111.23   4
  -6  -2  -1 6251.96 769.863   4
   6   2   1 5862.69 612.453   1
  -6  -2  -2 17924.2 1404.18   4
  -6  -2  -3 2237.89 482.107   4
  -6  -2  -4 3161.36 577.381   4
  -6  -2  -5 26349.6 1875.65   4
  -6  -2  -6 3477.49 657.285   4
  -6  -2  -7 10556.8 1240.25   4
  -6  -2  -8 2489.83 584.799   4
  -6  -2  -9 604.858 291.851   4
  -6  -2 -10 1624.62 493.881   4
  -6  -2 -11 780.741 363.869   5
  -6  -3   7 348.278 268.679   6
  -6  -3   6 761.834 364.933   6
  -6  -3   5 3385.45 750.011   6
  -6  -3   4 1024.47 384.639   6
  -6  -3   3 7394.79 1008.34   6
  -6  -3   3 5574.49 718.236   4
  -6  -3   2 9885.94 1140.82   6
  -6  -3   2 9433.10 952.169   4
   6   3  -1 445.368 195.031   1
  -6  -3   1 407.414 205.903   4
  -6  -3   0 6389.97 792.949   4
   6   3   0 5964.89 711.976   1
  -6  -3  -1 4257.89 652.000   4
   6   3   1 4447.69 584.911   1
  -6  -3  -2 115.355 154.304   4
   6   3   2 220.312 111.759   1
   6   3   3 5610.64 622.574   1
  -6  -3  -3 5470.27 793.204   4
  -6  -3  -4 11462.2 1189.28   4
   6   3   4 10974.8 875.915   1
  -6  -3  -5 10001.9 1150.33   4
  -6  -3  -6 4044.98 745.448   4
  -6  -3  -7 2330.21 582.117   4
  -6  -3  -8 5217.25 892.716   4
  -6  -3  -9 997.450 372.600   4
  -6  -3 -10 117.270 125.865   5
  -6  -3 -11-14.1529 91.3290   5
  -6  -3 -12 555.005 333.488   5
  -6  -4   6 2346.80 675.080   6
  -6  -4   5 924.796 408.331   6
  -6  -4   4 460.787 287.274   6
  -6  -4   3 617.101 300.856   6
   6   4  -2 2176.80 504.195   1
  -6  -4   2 2586.01 595.065   6
  -6  -4   2 2838.42 530.337   4
  -6  -4   1 7484.36 889.187   4
   6   4  -1 6990.21 858.128   1
   6   4   0 2860.50 513.377   1
  -6  -4   0 3198.69 594.908   4
  -6  -4  -1 3491.16 614.000   4
   6   4   1 2125.52 443.212   1
   6   4   2 410.878 177.632   1
  -6  -4  -2 419.247 273.137   4
  -6  -4  -3 1509.59 438.773   4
   6   4   3 1523.42 362.616   1
  -6  -4  -4 16020.8 1507.36   4
   6   4   4 14479.8 1142.81   1
  -6  -4  -5 3308.78 664.336   4
   6   4   5 1464.49 342.110   1
  -6  -4  -6 6669.16 981.083   4
  -6  -4  -7 3290.77 674.880   4
  -6  -4  -8 2589.14 628.738   4
  -6  -4  -9 1230.88 471.532   5
  -6  -4  -9 1374.73 479.297   4
  -6  -4 -10 391.920 275.083   5
  -6  -4 -11-59.5286 119.541   5
  -6  -5   4 161.277 180.447   6
  -6  -5   3 1690.51 535.363   6
   6   5  -3 1353.32 419.336   1
   6   5  -2 677.052 295.030   1
  -6  -5   2 937.227 390.341   6
   6   5  -1 2762.88 600.630   1
  -6  -5   1 2835.50 563.546   4
  -6  -5   0 3517.28 653.180   4
   6   5   0 2477.38 525.499   1
   6   5   1 504.521 269.860   1
  -6  -5  -1 431.134 213.070   4
   6   5   2 5624.68 772.504   1
  -6  -5  -2 5810.43 871.350   4
  -6  -5  -3 1791.57 487.962   4
   6   5   3 1876.95 446.349   1
  -6  -5  -4 1868.46 504.571   4
   6   5   4 594.710 241.454   1
   6   5   5 826.123 264.619   1
  -6  -5  -5 707.002 363.871   4
   6   5   6 920.844 287.796   1
  -6  -5  -6 574.642 295.503   4
  -6  -5  -7 1673.35 495.621   4
  -6  -5  -8 5095.74 968.574   5
  -6  -5  -9 3261.46 788.863   5
  -6  -5 -10 1097.72 494.991   5
   6   6  -3 696.034 318.966   1
  -6  -6   3 1080.90 448.865   6
   6   6  -2 103.348 98.7972   1
   6   6  -1 7024.88 988.564   1
  -6  -6   0 529.634 281.511   4
   6   6   0 605.071 304.769   1
  -6  -6  -1 9994.24 1164.67   4
   6   6   1 10160.1 1163.04   1
  -6  -6  -2 2831.48 622.206   4
   6   6   2 3969.90 703.218   1
  -6  -6  -3 3200.40 661.073   4
   6   6   3 4111.09 701.494   1
  -6  -6  -4 412.192 263.915   4
   6   6   4-110.567 129.894   1
   6   6   5 1138.82 370.734   1
  -6  -6  -5 863.046 356.744   4
   6   6   6 634.529 258.552   1
  -6  -6  -6 555.166 304.176   4
  -6  -6  -7-60.0340 143.499   5
  -6  -6  -8 690.637 369.812   5
  -6  -6  -9 574.447 340.064   5
   6   7  -1 234.660 201.093   1
   6   7   0 1010.76 387.593   1
   6   7   1 6079.78 956.402   1
   6   7   2 2494.76 619.125   1
   6   7   3 3558.78 694.717   1
  -6  -7  -3 3388.13 777.218   5
   6   7   4 3532.03 701.748   1
  -6  -7  -4 5720.57 1021.63   5
   6   7   5-52.3502 121.927   1
  -6  -7  -5-296.276 243.723   5
   6   7   6 1791.94 505.578   1
  -6  -7  -6 2415.87 685.618   5
  -6  -7  -7 1997.84 659.167   5
   6   7   7 1495.00 443.661   1
  -6  -7  -8 531.048 372.446   5
   6   8   2 1350.12 501.335   1
  -6  -8  -2 1502.43 533.590   5
   6   8   3 2085.32 590.441   1
  -6  -8  -3 2414.93 679.263   5
   6   8   4 844.837 336.287   1
  -6  -8  -4 437.070 294.398   5
   6   8   5 2040.30 565.965   1
  -6  -8  -5 2829.23 769.184   5
   6   8   6 480.324 287.594   1
  -6  -8  -6 721.624 433.119   5
   6   8   7 1114.83 426.636   1
  -7   6   1-488.777 284.012   4
  -7   6   0 1292.80 433.712   4
  -7   6  -1 521.508 285.751   4
  -7   6  -2 286.137 204.294   4
  -7   5   4 611.521 310.566   4
  -7   5   3 535.124 293.449   4
  -7   5   2 1334.06 434.405   4
  -7   5   1 534.277 281.075   4
  -7   5   0 543.090 287.157   4
  -7   5  -1 1658.66 474.160   4
  -7   5  -2 4033.01 742.576   4
  -7   5  -3 1389.32 426.137   4
  -7   5  -4 1279.99 398.068   4
  -7   4   6 146.591 214.560   4
  -7   4   5 1263.41 432.692   4
  -7   4   4 6933.80 1019.31   4
  -7   4   3 762.709 344.175   4
  -7   4   2 457.364 298.875   4
  -7   4   1 573.860 276.618   4
  -7   4   0 1355.97 412.072   4
  -7   4  -1 2597.73 568.406   4
  -7   4  -2 2495.99 564.047   4
  -7   4  -3 1986.28 499.034   4
  -7   4  -4 1811.60 469.607   4
  -7   4  -5 1611.36 447.165   4
  -7   4  -5 2187.62 630.911   2
  -7   3   7 161.652 180.198   4
  -7   3   6 1029.43 408.256   4
  -7   3   5-31.6727 124.691   4
  -7   3   4 655.616 303.409   4
  -7   3   3 3946.51 722.947   4
  -7   3   2 3160.02 630.634   4
  -7   3   1 5639.19 840.663   4
  -7   3   0 3993.12 707.451   4
  -7   3  -1 1038.10 315.656   4
  -7   3  -2 4377.42 736.011   4
  -7   3  -3 131.774 90.9296   4
  -7   3  -4 602.566 262.352   4
  -7   3  -5 7157.74 951.338   4
  -7   3  -6 660.978 312.808   4
  -7   3  -6 1026.13 424.576   2
  -7   3  -7 353.162 282.132   2
  -7   2   8-21.5807 94.5386   4
  -7   2   7 1214.69 417.979   4
  -7   2   6 233.302 213.512   4
  -7   2   5 2108.98 534.377   4
  -7   2   4-157.052 150.868   4
  -7   2   3 3522.32 657.664   4
  -7   2   2 1414.40 398.153   4
  -7   2   1 1855.88 446.522   4
  -7   2   0 2061.67 485.504   4
  -7   2  -1 1434.26 407.106   4
  -7   2  -2 559.572 259.189   4
  -7   2  -3 288.495 180.630   4
  -7   2  -4 3619.92 641.577   4
  -7   2  -5 1737.33 466.902   4
  -7   2  -6 5401.15 840.973   4
  -7   2  -6 6567.33 1004.14   2
  -7   2  -7 917.587 352.774   4
  -7   2  -7 1638.62 534.087   2
  -7   2  -8 805.091 350.804   4
  -7   2  -8 254.765 228.169   2
  -7   1   7 811.140 302.213   4
  -7   1   6 631.390 300.809   4
  -7   1   5 265.098 195.221   4
  -7   1   4 3581.77 664.527   4
  -7   1   3 77.4806 78.2067   4
  -7   1   2 475.265 237.162   4
  -7   1   1 4202.18 693.222   4
  -7   1   0 3730.49 642.074   4
  -7   1  -1 3890.93 662.291   4
  -7   1  -2 583.399 226.259   4
  -7   1  -3-76.9329 131.125   4
  -7   1  -4 5143.06 782.692   4
  -7   1  -5 374.405 268.032   4
  -7   1  -6 346.918 193.451   4
  -7   1  -7 4143.38 764.908   4
  -7   1  -7 4494.54 809.694   2
  -7   1  -8 2065.89 566.322   4
  -7   1  -8 2307.98 587.120   2
  -7   1  -9 4530.18 858.880   4
  -7   1  -9 2263.60 611.405   2
  -7   0   6 1514.05 430.555   4
  -7   0   5 725.746 322.341   4
  -7   0   4 212.726 166.713   4
  -7   0   3 274.412 189.101   4
  -7   0   2 2769.52 552.912   4
  -7   0   1 2301.63 516.206   4
  -7   0   0 8361.15 974.909   4
  -7   0  -1 3283.68 606.717   4
  -7   0  -2 12739.1 1225.52   4
  -7   0  -3 1161.71 370.094   4
  -7   0  -4 2338.69 539.646   4
  -7   0  -5 540.538 288.065   4
  -7   0  -6 352.493 222.953   4
  -7   0  -7 2266.04 578.509   4
  -7   0  -8 990.139 391.242   4
  -7   0  -8 743.922 303.593   2
  -7   0  -9 1648.21 513.267   4
  -7   0 -10 858.493 389.433   4
  -7  -1   7 2377.05 635.184   6
  -7  -1   6 626.385 297.377   6
  -7  -1   5 4636.71 813.564   6
  -7  -1   5 3629.62 653.502   4
  -7  -1   4 244.367 181.012   6
  -7  -1   4 307.421 225.439   4
  -7  -1   3 504.536 243.170   6
  -7  -1   3 1152.34 370.178   4
  -7  -1   2 4573.71 715.671   4
  -7  -1   1 3026.86 572.080   4
  -7  -1   0 73.8557 76.2133   4
  -7  -1  -1 1722.61 425.894   4
  -7  -1  -2-83.3881 224.541   4
  -7  -1  -3 4459.87 729.047   4
  -7  -1  -4 468.733 285.382   4
  -7  -1  -5 2850.17 608.494   4
  -7  -1  -6 2043.07 534.830   4
  -7  -1  -7 957.490 401.647   4
  -7  -1  -8 2642.79 663.559   4
  -7  -1  -9 451.755 305.537   4
  -7  -1 -10 49.0786 211.935   4
  -7  -2   7 1882.35 598.023   6
  -7  -2   6-29.1890 99.2392   6
  -7  -2   5 1098.22 424.537   6
  -7  -2   4 6699.31 864.588   4
  -7  -2   4 5232.13 884.792   6
  -7  -2   3 132.038 147.142   6
  -7  -2   3 202.433 119.309   4
  -7  -2   2 5740.13 808.120   4
  -7  -2   1 3346.46 595.200   4
  -7  -2   0 335.128 95.9934   4
  -7  -2  -1 551.050 225.550   4
  -7  -2  -2 815.873 298.433   4
  -7  -2  -3 5355.49 810.246   4
  -7  -2  -4 2663.73 589.551   4
  -7  -2  -5 1265.36 459.792   4
  -7  -2  -6 466.500 224.748   4
  -7  -2  -7 1313.50 436.950   4
  -7  -2  -8 1179.18 421.828   4
  -7  -2  -9 485.463 290.261   4
  -7  -2 -10 810.283 376.144   4
  -7  -3   5-150.645 175.032   6
  -7  -3   4 55.0057 116.470   6
  -7  -3   3 8103.89 1121.57   6
  -7  -3   3 7960.64 946.157   4
  -7  -3   2 3731.38 649.850   4
  -7  -3   1 1417.24 398.123   4
  -7  -3   0 1692.90 442.236   4
   7   3   1 1031.60 301.230   1
  -7  -3  -1 749.524 282.823   4
  -7  -3  -2 5803.66 863.007   4
  -7  -3  -3 1760.41 503.586   4
  -7  -3  -4 8063.30 1073.96   4
  -7  -3  -5 419.839 282.725   4
  -7  -3  -6 248.658 219.839   4
  -7  -3  -7 799.309 349.038   4
  -7  -3  -8 948.210 405.318   4
  -7  -3  -9 63.1770 120.552   4
  -7  -4   4 489.685 297.812   6
  -7  -4   3 6035.19 1021.82   6
  -7  -4   2 1349.53 404.557   4
   7   4  -1 243.286 172.804   1
  -7  -4   1 109.712 214.168   4
  -7  -4   0 9706.56 1133.51   4
   7   4   0 11224.8 1117.72   1
  -7  -4  -1 89.7900 130.720   4
   7   4   1 145.088 119.882   1
   7   4   2 4345.69 639.677   1
  -7  -4  -2 4450.54 791.872   4
  -7  -4  -3 1434.24 464.086   4
  -7  -4  -4 163.227 252.712   4
  -7  -4  -5 152.633 188.208   4
  -7  -4  -6 7083.01 1099.42   4
  -7  -4  -7 3382.13 749.616   4
  -7  -4  -8-123.831 166.221   4
  -7  -4  -9 797.545 377.247   4
  -7  -5   3 409.371 290.306   6
   7   5  -2 3065.16 644.177   1
   7   5  -1 1213.03 400.345   1
  -7  -5   0 5202.30 848.297   4
   7   5   0 4536.36 759.907   1
   7   5   1 4756.89 747.351   1
  -7  -5  -1 4591.12 825.826   4
  -7  -5  -2 895.889 382.467   4
   7   5   2 986.350 356.323   1
   7   5   3 1148.99 362.439   1
  -7  -5  -3 1268.84 446.787   4
  -7  -5  -4 232.774 204.957   4
  -7  -5  -5 154.412 183.151   4
  -7  -5  -6 675.516 321.598   4
  -7  -5  -7 1866.34 547.174   4
  -7  -5  -8 818.409 404.647   4
   7   6  -1 1446.81 460.342   1
   7   6   0 467.135 199.596   1
  -7  -6  -1 2756.39 641.827   4
   7   6   1 2781.57 620.383   1
  -7  -6  -2 1746.41 525.342   4
   7   6   2 1141.43 386.068   1
   7   6   3 2200.58 542.400   1
  -7  -6  -3 2239.92 601.914   4
  -7  -6  -4 596.419 347.409   4
   7   6   4 776.450 305.825   1
  -7  -6  -5 191.653 211.426   4
  -7  -6  -6 621.121 402.462   4
  -7  -6  -7 503.309 307.372   4
   7   7   1 74.6953 126.831   1
   7   7   2 1236.69 422.631   1
  -7  -7  -2 1310.40 469.047   4
   7   7   3 578.298 310.527   1
  -7  -7  -3 846.343 377.585   4
   7   7   4 1966.18 533.472   1
  -7  -7  -4 1743.39 537.965   4
  -7  -7  -5 998.095 509.265   5
  -8   4   0 1022.40 391.390   4
  -8   4  -1-56.9648 115.144   4
  -8   4  -2 201.105 232.132   4
  -8   4  -3 1258.29 433.187   4
  -8   4  -4 810.458 353.675   4
  -8   3   3 2533.89 630.855   4
  -8   3   2 348.038 220.696   4
  -8   3   1 838.843 369.823   4
  -8   3   0 762.881 335.601   4
  -8   3  -1 172.384 174.467   4
  -8   3  -2 1647.83 489.068   4
  -8   3  -3 1995.23 531.501   4
  -8   3  -4 341.416 173.867   4
  -8   3  -5 636.854 312.496   4
  -8   3  -6-161.657 156.658   4
  -8   2   4 436.637 243.427   4
  -8   2   3 3395.52 698.997   4
  -8   2   2-89.6833 129.637   4
  -8   2   1 2478.94 581.175   4
  -8   2   0 668.028 292.814   4
  -8   2  -1 423.793 245.798   4
  -8   2  -2 3594.42 710.980   4
  -8   2  -3-111.008 208.552   4
  -8   2  -4 1081.14 374.612   4
  -8   2  -5 361.617 233.861   4
  -8   2  -6 1984.32 544.072   4
  -8   2  -7 715.877 334.716   4
  -8   1   5 777.889 341.167   4
  -8   1   4 287.118 189.913   4
  -8   1   3 937.163 370.352   4
  -8   1   2 5721.02 898.471   4
  -8   1   1 6241.32 929.638   4
  -8   1   0 1684.21 463.436   4
  -8   1  -1 3012.40 636.508   4
  -8   1  -2 5258.49 841.940   4
  -8   1  -3 1044.67 382.872   4
  -8   1  -4 31.7620 146.660   4
  -8   1  -5 1135.94 400.024   4
  -8   1  -6 651.965 316.408   4
  -8   1  -7-14.5798 158.570   4
  -8   0   5-232.397 186.072   4
  -8   0   4 541.536 289.731   4
  -8   0   3 95.7686 106.562   4
  -8   0   2 448.495 252.907   4
  -8   0   1 3131.50 636.329   4
  -8   0   0 3361.50 676.535   4
  -8   0  -1 2676.47 599.993   4
  -8   0  -2 1127.26 401.750   4
  -8   0  -3 5050.27 828.941   4
  -8   0  -4-132.547 161.979   4
  -8   0  -5 754.815 353.510   4
  -8   0  -6 332.545 266.770   4
  -8   0  -7 343.191 261.458   4
  -8  -1   5 128.441 141.956   4
  -8  -1   4 1114.31 391.112   4
  -8  -1   3 416.253 229.569   4
  -8  -1   2 547.686 250.943   4
  -8  -1   1 198.963 177.000   4
  -8  -1   0 2281.87 537.608   4
  -8  -1  -1 6971.11 963.177   4
  -8  -1  -2 3578.88 693.721   4
  -8  -1  -3 1197.62 414.664   4
  -8  -1  -4 13506.6 1432.18   4
  -8  -1  -5 743.430 353.879   4
  -8  -1  -6 1938.98 540.079   4
  -8  -1  -7 660.443 346.398   4
  -8  -2   3 628.223 297.123   4
  -8  -2   2 281.120 206.361   4
  -8  -2   1 276.714 166.375   4
  -8  -2   0 1550.19 457.240   4
  -8  -2  -1 2129.53 542.358   4
  -8  -2  -2 1784.49 493.190   4
  -8  -2  -3 884.965 353.678   4
  -8  -2  -4 1221.08 440.619   4
  -8  -2  -5 5274.32 912.584   4
  -8  -2  -6 2089.77 597.487   4
  -8  -2  -7 1243.93 476.872   4
  -8  -3   4 564.454 320.483   6
  -8  -3   2 823.681 350.534   4
  -8  -3   1-95.6009 147.982   4
  -8  -3   0 3556.93 715.459   4
  -8  -3  -1 1309.78 425.410   4
  -8  -3  -2 662.026 337.654   4
  -8  -3  -3 2141.36 565.227   4
  -8  -3  -4-28.4369 126.578   4
  -8  -3  -5 5518.92 971.958   4
  -8  -3  -6-440.704 297.378   4
  -8  -3  -7 244.824 237.812   4
  -8  -4   1 629.687 339.558   4
  -8  -4   0 562.979 307.002   4
  -8  -4  -1 6.52273 187.147   4
  -8  -4  -2 191.265 102.331   4
  -8  -4  -3 742.121 326.616   4
  -8  -4  -4 2587.03 660.898   4
  -8  -4  -5 455.791 314.055   4
  -8  -4  -6 2673.83 728.428   4
  -8  -5   0 296.748 231.871   4
  -8  -5  -1 174.495 187.519   4
  -8  -5  -2 828.821 368.279   4
  -8  -5  -3 470.086 319.047   4
  -8  -5  -4 833.234 395.200   4
  -8  -5  -5-318.566 266.296   4
  -8  -6  -2 1149.10 457.799   4
  -8  -6  -3 1753.48 569.448   4
   0   0   0    0.00    0.00   0
TITL Gu_Wu_2c in P-1
REM P-1 (#2 in standard setting)
CELL 0.71073   7.051153   8.252582  10.665550  73.1005  82.4944  86.3902
ZERR    3.00   0.000835   0.000902   0.001918   0.0125   0.0121   0.0093
LATT  1
SFAC C H N O
UNIT 33.00 30.00 3.00 3.00
TREF
HKLF 4
END
;
_shelx_hkl_checksum              67903
#END Tags that were not found in dictionaries
loop_
_space_group_symop_operation_xyz
'x, y, z'
loop_
_atom_site_label
_atom_site_type_symbol
_atom_site_fract_x
_atom_site_fract_y
_atom_site_fract_z
_atom_site_U_iso_or_equiv
_atom_site_adp_type
_atom_site_occupancy
_atom_site_site_symmetry_order
_atom_site_calc_flag
_atom_site_refinement_flags_posn
Cl1 Cl -0.4160(2) -0.98938(17) 0.34274(16) 0.0619(5) Uani 1 1 d .
O1 O -0.6050(6) -0.1669(5) 0.0375(4) 0.0506(10) Uani 1 1 d .
O2 O -0.4285(5) -0.0190(4) -0.1373(3) 0.0418(8) Uani 1 1 d .
N1 N -0.3280(6) -0.3281(5) -0.1958(4) 0.0418(10) Uani 1 1 d .
N2 N -0.1199(9) 0.1599(7) -0.4488(5) 0.0604(14) Uani 1 1 d .
N3 N 0.0462(9) 0.1515(6) -0.4226(5) 0.0562(14) Uani 1 1 d .
N4 N 0.2053(10) 0.1466(9) -0.4174(7) 0.0789(19) Uani 1 1 d .
C1 C -0.4044(8) -0.4938(7) 0.1601(5) 0.0444(13) Uani 1 1 d .
H1 H -0.3997 -0.3937 0.1829 0.053 Uiso 1 1 calc R
C2 C -0.4079(8) -0.6479(7) 0.2567(6) 0.0491(14) Uani 1 1 d .
H2 H -0.4048 -0.6521 0.3444 0.059 Uiso 1 1 calc R
C3 C -0.4159(7) -0.7944(7) 0.2218(5) 0.0416(12) Uani 1 1 d .
C4 C -0.4216(7) -0.7928(7) 0.0938(5) 0.0456(13) Uani 1 1 d .
H4 H -0.4287 -0.8934 0.0721 0.055 Uiso 1 1 calc R
C5 C -0.4166(7) -0.6393(6) -0.0027(5) 0.0397(11) Uani 1 1 d .
H5 H -0.4191 -0.6367 -0.0903 0.048 Uiso 1 1 calc R
C6 C -0.4079(7) -0.4888(6) 0.0292(5) 0.0347(10) Uani 1 1 d .
C7 C -0.3955(7) -0.3265(6) -0.0790(5) 0.0360(11) Uani 1 1 d .
C8 C -0.4810(7) -0.1672(6) -0.0512(5) 0.0353(10) Uani 1 1 d .
C9 C -0.2736(7) -0.0273(6) -0.2392(5) 0.0388(11) Uani 1 1 d .
H9 H -0.1530 -0.0526 -0.2002 0.047 Uiso 1 1 calc R
C10 C -0.3114(8) -0.1663(7) -0.2973(5) 0.0435(12) Uani 1 1 d .
H10A H -0.4289 -0.1400 -0.3383 0.052 Uiso 1 1 calc R
H10B H -0.2077 -0.1736 -0.3649 0.052 Uiso 1 1 calc R
C11 C -0.2678(9) 0.1507(8) -0.3359(6) 0.0590(18) Uani 1 1 d .
H11A H -0.3917 0.1808 -0.3676 0.071 Uiso 1 1 calc R
H11B H -0.2409 0.2316 -0.2906 0.071 Uiso 1 1 calc R
Cl2 Cl 0.1870(2) 0.71278(17) -0.26333(16) 0.0605(4) Uani 1 1 d .
O3 O -0.1009(6) -0.0873(4) 0.0416(4) 0.0506(9) Uani 1 1 d .
O4 O 0.0035(5) -0.2489(4) 0.2237(3) 0.0441(8) Uani 1 1 d .
N5 N 0.1196(6) 0.0504(5) 0.2696(4) 0.0406(10) Uani 1 1 d .
N6 N -0.0552(9) -0.4394(7) 0.5221(6) 0.0630(15) Uani 1 1 d .
N7 N -0.2160(10) -0.4286(6) 0.4876(6) 0.0590(14) Uani 1 1 d .
N8 N -0.3725(11) -0.4213(9) 0.4750(8) 0.087(2) Uani 1 1 d .
C12 C 0.1406(8) 0.2168(7) -0.0829(6) 0.0443(13) Uani 1 1 d .
H12 H 0.1529 0.1166 -0.1069 0.053 Uiso 1 1 calc R
C13 C 0.1684(8) 0.3712(7) -0.1785(6) 0.0478(14) Uani 1 1 d .
H13 H 0.2014 0.3745 -0.2665 0.057 Uiso 1 1 calc R
C14 C 0.1472(7) 0.5188(7) -0.1429(6) 0.0434(13) Uani 1 1 d .
C15 C 0.0993(8) 0.5184(6) -0.0132(6) 0.0456(13) Uani 1 1 d .
H15 H 0.0844 0.6193 0.0096 0.055 Uiso 1 1 calc R
C16 C 0.0739(7) 0.3645(6) 0.0817(5) 0.0419(12) Uani 1 1 d .
H16 H 0.0425 0.3623 0.1696 0.050 Uiso 1 1 calc R
C17 C 0.0943(7) 0.2124(6) 0.0489(5) 0.0363(11) Uani 1 1 d .
C18 C 0.0770(6) 0.0513(6) 0.1563(5) 0.0336(10) Uani 1 1 d .
C19 C -0.0104(7) -0.0973(6) 0.1327(5) 0.0369(10) Uani 1 1 d .
C20 C 0.1355(7) -0.2614(7) 0.3190(5) 0.0426(13) Uani 1 1 d .
H20 H 0.2662 -0.2577 0.2740 0.051 Uiso 1 1 calc R
C21 C 0.1025(8) -0.1116(7) 0.3738(5) 0.0435(13) Uani 1 1 d .
H21A H -0.0243 -0.1173 0.4225 0.052 Uiso 1 1 calc R
H21B H 0.1949 -0.1171 0.4348 0.052 Uiso 1 1 calc R
C22 C 0.1088(9) -0.4321(8) 0.4209(6) 0.0544(16) Uani 1 1 d .
H22A H 0.0935 -0.5163 0.3759 0.065 Uiso 1 1 calc R
H22B H 0.2240 -0.4625 0.4642 0.065 Uiso 1 1 calc R
loop_
_atom_site_aniso_label
_atom_site_aniso_U_11
_atom_site_aniso_U_22
_atom_site_aniso_U_33
_atom_site_aniso_U_23
_atom_site_aniso_U_13
_atom_site_aniso_U_12
Cl1 0.0579(9) 0.0474(8) 0.0658(10) 0.0080(7) -0.0103(7) -0.0029(6)
O1 0.057(2) 0.047(2) 0.0429(18) -0.0138(18) 0.0115(16) 0.0048(17)
O2 0.050(2) 0.0386(18) 0.0350(19) -0.0114(16) 0.0021(15) 0.0014(15)
N1 0.048(3) 0.041(2) 0.038(3) -0.018(2) 0.0023(18) -0.0006(19)
N2 0.074(4) 0.062(3) 0.039(3) -0.006(2) 0.004(3) -0.019(3)
N3 0.079(4) 0.039(3) 0.049(3) -0.012(2) 0.005(3) -0.011(3)
N4 0.064(4) 0.082(4) 0.094(5) -0.035(4) 0.002(3) -0.001(3)
C1 0.059(3) 0.043(3) 0.034(3) -0.016(3) -0.008(2) -0.003(2)
C2 0.063(4) 0.049(3) 0.033(3) -0.010(3) -0.003(2) 0.000(3)
C3 0.034(3) 0.042(3) 0.045(3) -0.007(3) -0.004(2) 0.001(2)
C4 0.045(3) 0.040(3) 0.056(4) -0.018(3) -0.010(2) -0.001(2)
C5 0.039(3) 0.040(2) 0.042(3) -0.013(2) -0.005(2) 0.003(2)
C6 0.035(3) 0.032(2) 0.035(3) -0.008(2) -0.0004(19) -0.0008(19)
C7 0.034(3) 0.044(3) 0.032(2) -0.014(2) -0.0051(19) 0.002(2)
C8 0.033(2) 0.037(2) 0.032(2) -0.006(2) -0.0002(19) -0.0005(18)
C9 0.040(3) 0.041(3) 0.033(3) -0.009(2) 0.003(2) 0.000(2)
C10 0.044(3) 0.050(3) 0.037(3) -0.015(3) 0.000(2) -0.002(2)
C11 0.065(4) 0.050(3) 0.046(4) 0.004(3) 0.012(3) -0.008(3)
Cl2 0.0625(9) 0.0440(7) 0.0637(10) 0.0073(7) -0.0159(7) -0.0068(6)
O3 0.060(2) 0.046(2) 0.049(2) -0.0133(19) -0.0210(18) -0.0018(18)
O4 0.059(2) 0.0367(17) 0.0362(19) -0.0085(15) -0.0077(15) -0.0021(15)
N5 0.049(3) 0.043(2) 0.029(2) -0.008(2) -0.0065(18) -0.007(2)
N6 0.074(4) 0.067(3) 0.044(3) -0.008(3) -0.002(3) -0.022(3)
N7 0.077(4) 0.044(3) 0.055(3) -0.014(3) -0.002(3) -0.008(3)
N8 0.076(5) 0.091(5) 0.098(6) -0.035(4) -0.011(4) 0.004(4)
C12 0.057(3) 0.035(3) 0.043(3) -0.014(2) -0.008(2) 0.004(2)
C13 0.054(3) 0.052(4) 0.036(3) -0.009(3) -0.009(2) -0.001(3)
C14 0.043(3) 0.035(3) 0.049(3) -0.004(2) -0.014(2) 0.000(2)
C15 0.052(3) 0.036(3) 0.052(3) -0.019(3) -0.007(3) 0.002(2)
C16 0.044(3) 0.042(3) 0.041(3) -0.016(2) 0.000(2) -0.005(2)
C17 0.036(3) 0.035(2) 0.037(3) -0.011(2) -0.004(2) 0.003(2)
C18 0.034(2) 0.036(2) 0.029(2) -0.010(2) -0.0012(18) 0.0005(19)
C19 0.038(3) 0.039(2) 0.035(3) -0.013(2) -0.005(2) 0.0023(19)
C20 0.035(3) 0.047(3) 0.040(3) -0.005(2) -0.005(2) 0.006(2)
C21 0.057(3) 0.046(3) 0.024(3) -0.004(2) -0.004(2) -0.008(2)
C22 0.067(4) 0.048(3) 0.042(3) -0.005(3) -0.006(3) 0.004(3)
loop_
_atom_type_symbol
_atom_type_description
_atom_type_scat_dispersion_real
_atom_type_scat_dispersion_imag
_atom_type_scat_source
C C 0.0033 0.0016 'International Tables Vol C Tables 4.2.6.8 and 6.1.1.4'
H H 0.0000 0.0000 'International Tables Vol C Tables 4.2.6.8 and 6.1.1.4'
N N 0.0061 0.0033 'International Tables Vol C Tables 4.2.6.8 and 6.1.1.4'
O O 0.0106 0.0060 'International Tables Vol C Tables 4.2.6.8 and 6.1.1.4'
Cl Cl 0.1484 0.1585 'International Tables Vol C Tables 4.2.6.8 and 6.1.1.4'
loop_
_geom_angle_atom_site_label_1
_geom_angle_atom_site_label_2
_geom_angle_atom_site_label_3
_geom_angle
C8 O2 C9 116.0(4)
C7 N1 C10 117.6(5)
N3 N2 C11 114.9(6)
N4 N3 N2 170.1(7)
C2 C1 H1 120.0
C2 C1 C6 119.9(5)
C6 C1 H1 120.0
C1 C2 H2 120.3
C3 C2 C1 119.4(5)
C3 C2 H2 120.3
C2 C3 Cl1 119.6(4)
C4 C3 Cl1 118.6(4)
C4 C3 C2 121.8(5)
C3 C4 H4 120.6
C3 C4 C5 118.8(5)
C5 C4 H4 120.6
C4 C5 H5 119.6
C4 C5 C6 120.8(5)
C6 C5 H5 119.6
C1 C6 C7 121.9(5)
C5 C6 C1 119.2(4)
C5 C6 C7 118.9(4)
N1 C7 C6 119.4(5)
N1 C7 C8 121.1(4)
C6 C7 C8 119.1(4)
O1 C8 O2 118.6(4)
O1 C8 C7 123.3(4)
O2 C8 C7 117.8(4)
O2 C9 H9 109.3
O2 C9 C10 108.9(4)
O2 C9 C11 104.9(4)
C10 C9 H9 109.3
C10 C9 C11 115.0(5)
C11 C9 H9 109.3
N1 C10 C9 110.7(4)
N1 C10 H10A 109.5
N1 C10 H10B 109.5
C9 C10 H10A 109.5
C9 C10 H10B 109.5
H10A C10 H10B 108.1
N2 C11 C9 111.0(5)
N2 C11 H11A 109.4
N2 C11 H11B 109.4
C9 C11 H11A 109.4
C9 C11 H11B 109.4
H11A C11 H11B 108.0
C19 O4 C20 116.4(4)
C18 N5 C21 116.7(4)
N7 N6 C22 117.7(6)
N8 N7 N6 169.8(8)
C13 C12 H12 120.1
C13 C12 C17 119.8(5)
C17 C12 H12 120.1
C12 C13 H13 120.1
C14 C13 C12 119.9(5)
C14 C13 H13 120.1
C13 C14 Cl2 119.7(5)
C13 C14 C15 121.6(5)
C15 C14 Cl2 118.7(4)
C14 C15 H15 120.8
C14 C15 C16 118.4(5)
C16 C15 H15 120.8
C15 C16 H16 119.2
C15 C16 C17 121.5(5)
C17 C16 H16 119.2
C12 C17 C18 122.2(5)
C16 C17 C12 118.9(4)
C16 C17 C18 118.8(4)
N5 C18 C17 117.9(4)
N5 C18 C19 122.7(4)
C17 C18 C19 119.0(4)
O3 C19 O4 118.4(4)
O3 C19 C18 124.1(4)
O4 C19 C18 117.4(4)
O4 C20 H20 108.5
O4 C20 C21 109.1(4)
O4 C20 C22 107.3(5)
C21 C20 H20 108.5
C21 C20 C22 114.7(4)
C22 C20 H20 108.5
N5 C21 C20 112.2(4)
N5 C21 H21A 109.2
N5 C21 H21B 109.2
C20 C21 H21A 109.2
C20 C21 H21B 109.2
H21A C21 H21B 107.9
N6 C22 C20 114.7(5)
N6 C22 H22A 108.6
N6 C22 H22B 108.6
C20 C22 H22A 108.6
C20 C22 H22B 108.6
H22A C22 H22B 107.6
loop_
_geom_bond_atom_site_label_1
_geom_bond_atom_site_label_2
_geom_bond_distance
Cl1 C3 1.745(5)
O1 C8 1.202(6)
O2 C8 1.339(5)
O2 C9 1.450(6)
N1 C7 1.278(6)
N1 C10 1.454(7)
N2 N3 1.232(8)
N2 C11 1.474(8)
N3 N4 1.128(8)
C1 H1 0.9300
C1 C2 1.383(8)
C1 C6 1.388(7)
C2 H2 0.9300
C2 C3 1.370(8)
C3 C4 1.368(8)
C4 H4 0.9300
C4 C5 1.380(7)
C5 H5 0.9300
C5 C6 1.387(7)
C6 C7 1.491(7)
C7 C8 1.503(7)
C9 H9 0.9800
C9 C10 1.505(8)
C9 C11 1.529(7)
C10 H10A 0.9700
C10 H10B 0.9700
C11 H11A 0.9700
C11 H11B 0.9700
Cl2 C14 1.748(5)
O3 C19 1.211(6)
O4 C19 1.349(5)
O4 C20 1.443(6)
N5 C18 1.280(6)
N5 C21 1.469(7)
N6 N7 1.227(8)
N6 C22 1.466(9)
N7 N8 1.125(9)
C12 H12 0.9300
C12 C13 1.387(8)
C12 C17 1.392(7)
C13 H13 0.9300
C13 C14 1.372(8)
C14 C15 1.380(8)
C15 H15 0.9300
C15 C16 1.380(7)
C16 H16 0.9300
C16 C17 1.391(7)
C17 C18 1.481(6)
C18 C19 1.504(7)
C20 H20 0.9800
C20 C21 1.507(8)
C20 C22 1.514(8)
C21 H21A 0.9700
C21 H21B 0.9700
C22 H22A 0.9700
C22 H22B 0.9700
loop_
_geom_torsion_atom_site_label_1
_geom_torsion_atom_site_label_2
_geom_torsion_atom_site_label_3
_geom_torsion_atom_site_label_4
_geom_torsion
Cl1 C3 C4 C5 -178.4(4)
O2 C9 C10 N1 -58.5(5)
O2 C9 C11 N2 -177.9(5)
N1 C7 C8 O1 151.1(6)
N1 C7 C8 O2 -22.4(7)
N3 N2 C11 C9 -70.5(7)
C1 C2 C3 Cl1 178.9(4)
C1 C2 C3 C4 -0.3(8)
C1 C6 C7 N1 153.7(5)
C1 C6 C7 C8 -32.5(7)
C2 C1 C6 C5 0.6(7)
C2 C1 C6 C7 -177.2(5)
C2 C3 C4 C5 0.8(8)
C3 C4 C5 C6 -0.6(7)
C4 C5 C6 C1 -0.1(7)
C4 C5 C6 C7 177.8(4)
C5 C6 C7 N1 -24.1(7)
C5 C6 C7 C8 149.7(4)
C6 C1 C2 C3 -0.4(8)
C6 C7 C8 O1 -22.7(8)
C6 C7 C8 O2 163.8(4)
C7 N1 C10 C9 31.2(6)
C8 O2 C9 C10 46.6(6)
C8 O2 C9 C11 170.2(5)
C9 O2 C8 O1 177.9(5)
C9 O2 C8 C7 -8.3(6)
C10 N1 C7 C6 -177.6(4)
C10 N1 C7 C8 8.6(7)
C10 C9 C11 N2 -58.3(7)
C11 C9 C10 N1 -175.9(4)
Cl2 C14 C15 C16 -178.0(4)
O4 C20 C21 N5 -56.3(6)
O4 C20 C22 N6 -80.4(6)
N5 C18 C19 O3 158.1(5)
N5 C18 C19 O4 -17.6(7)
N7 N6 C22 C20 68.6(8)
C12 C13 C14 Cl2 178.7(4)
C12 C13 C14 C15 0.3(8)
C12 C17 C18 N5 149.1(5)
C12 C17 C18 C19 -37.8(7)
C13 C12 C17 C16 1.0(7)
C13 C12 C17 C18 -175.4(5)
C13 C14 C15 C16 0.4(8)
C14 C15 C16 C17 -0.4(8)
C15 C16 C17 C12 -0.3(7)
C15 C16 C17 C18 176.3(5)
C16 C17 C18 N5 -27.3(7)
C16 C17 C18 C19 145.8(5)
C17 C12 C13 C14 -1.0(8)
C17 C18 C19 O3 -14.6(7)
C17 C18 C19 O4 169.6(4)
C18 N5 C21 C20 29.1(7)
C19 O4 C20 C21 47.8(5)
C19 O4 C20 C22 172.6(4)
C20 O4 C19 O3 171.0(5)
C20 O4 C19 C18 -13.1(6)
C21 N5 C18 C17 -179.5(4)
C21 N5 C18 C19 7.7(7)
C21 C20 C22 N6 40.9(8)
C22 N6 N7 N8 179(4)
C22 C20 C21 N5 -176.7(4)
