#------------------------------------------------------------------------------
#$Date: 2016-02-18 17:37:37 +0200 (Thu, 18 Feb 2016) $
#$Revision: 176729 $
#$URL: svn://www.crystallography.net/cod/cif/1/51/73/1517330.cif $
#------------------------------------------------------------------------------
#
# This file is available in the Crystallography Open Database (COD),
# http://www.crystallography.net/
#
# All data on this site have been placed in the public domain by the
# contributors.
#
data_1517330
loop_
_publ_author_name
'Hern\'andez, Jos\'e G.'
'Butler, Ian S.'
'Fri\<s\<ci\'c, Tomislav'
_publ_section_title
;
 Multi-step and multi-component organometallic synthesis in one pot using
 orthogonal mechanochemical reactions
;
_journal_issue                   9
_journal_name_full               'Chemical Science'
_journal_page_first              3576
_journal_paper_doi               10.1039/C4SC01252F
_journal_volume                  5
_journal_year                    2014
_chemical_formula_moiety         'C5 Br1 Mn1 O5'
_chemical_formula_sum            'C5 Br Mn O5'
_chemical_formula_weight         274.89
_chemical_name_common            4b
_chemical_name_systematic
;
bromo(pentacarbonyl)manganese(I)
;
_space_group_crystal_system      orthorhombic
_space_group_IT_number           62
_space_group_name_Hall           '-P 2ac 2n'
_space_group_name_H-M_alt        'P n m a'
_symmetry_space_group_name_Hall  '-P 2ac 2n'
_symmetry_space_group_name_H-M   'P n m a'
_audit_creation_method           SHELXL-2014
_cell_angle_alpha                90
_cell_angle_beta                 90
_cell_angle_gamma                90
_cell_formula_units_Z            4
_cell_length_a                   11.7723(15)
_cell_length_b                   11.5071(15)
_cell_length_c                   6.1089(8)
_cell_measurement_temperature    293(2)
_cell_volume                     827.54(19)
_computing_structure_refinement  'SHELXL-2014 (Sheldrick, 2014)'
_diffrn_ambient_temperature      293(2)
_diffrn_measured_fraction_theta_full 1.000
_diffrn_measured_fraction_theta_max 0.992
_diffrn_radiation_type           MoK\a
_diffrn_radiation_wavelength     0.71073
_diffrn_reflns_av_R_equivalents  0.0419
_diffrn_reflns_av_unetI/netI     0.0294
_diffrn_reflns_Laue_measured_fraction_full 1.000
_diffrn_reflns_Laue_measured_fraction_max 0.992
_diffrn_reflns_limit_h_max       15
_diffrn_reflns_limit_h_min       -15
_diffrn_reflns_limit_k_max       15
_diffrn_reflns_limit_k_min       -15
_diffrn_reflns_limit_l_max       7
_diffrn_reflns_limit_l_min       -7
_diffrn_reflns_number            8552
_diffrn_reflns_point_group_measured_fraction_full 1.000
_diffrn_reflns_point_group_measured_fraction_max 0.992
_diffrn_reflns_theta_full        25.242
_diffrn_reflns_theta_max         27.682
_diffrn_reflns_theta_min         3.461
_exptl_absorpt_coefficient_mu    6.400
_exptl_absorpt_correction_type   multi-scan
_exptl_absorpt_process_details
;
 multi-scan from symmetry-related measurements
 Sortav (Blessing 1995)
;
_exptl_crystal_density_diffrn    2.206
_exptl_crystal_F_000             520
_exptl_transmission_factor_max   0.7456
_exptl_transmission_factor_min   0.4520
_refine_diff_density_max         1.118
_refine_diff_density_min         -0.362
_refine_diff_density_rms         0.083
_refine_ls_extinction_method     none
_refine_ls_goodness_of_fit_ref   1.051
_refine_ls_hydrogen_treatment    undef
_refine_ls_matrix_type           full
_refine_ls_number_parameters     61
_refine_ls_number_reflns         1001
_refine_ls_number_restraints     0
_refine_ls_restrained_S_all      1.051
_refine_ls_R_factor_all          0.0339
_refine_ls_R_factor_gt           0.0278
_refine_ls_shift/su_max          0.000
_refine_ls_shift/su_mean         0.000
_refine_ls_structure_factor_coef Fsqd
_refine_ls_weighting_details
'w=1/[\s^2^(Fo^2^)+(0.0433P)^2^+0.3796P] where P=(Fo^2^+2Fc^2^)/3'
_refine_ls_weighting_scheme      calc
_refine_ls_wR_factor_gt          0.0749
_refine_ls_wR_factor_ref         0.0776
_reflns_Friedel_coverage         0.000
_reflns_number_gt                860
_reflns_number_total             1001
_reflns_threshold_expression     'I > 2\s(I)'
_cod_duplicate_entry             1516667
_cod_data_source_file            c4sc01252f3.cif
_cod_data_source_block           4b
_cod_database_code               1517330
#BEGIN Tags that were not found in dictionaries:
_shelx_space_group_comment
;
The symmetry employed for this shelxl refinement is uniquely defined
by the following loop, which should always be used as a source of
symmetry information in preference to the above space-group names.
They are only intended as comments.
;
_shelxl_version_number           2014-3
_shelx_res_file
;
TITL AK14_0ma in Pnma
CELL  0.71073  11.7723  11.5071   6.1089   90.000   90.000   90.000
ZERR     4.00   0.0015   0.0015   0.0008    0.000    0.000    0.000
LATT   1
SYMM  1/2 + X, 1/2 - Y, 1/2 - Z
SYMM  - X, 1/2 + Y, - Z
SYMM  1/2 - X, - Y, 1/2 + Z
SFAC  C        2.31000 20.84392  1.02000 10.20751   1.58860   0.56870 =
         0.86500  51.65125   0.21560   0.003   0.002    11.500   0.770  12.011
SFAC  O        3.04850 13.27711  2.28680  5.70111   1.54630   0.32390 =
         0.86700  32.90894   0.25080   0.011   0.006    32.500   0.660  15.999
SFAC  MN      11.28191  5.34091  7.35731  0.34320   3.01930  17.86742 =
         2.24410  83.75438   1.08960   0.337   0.728  3020.000   1.370  54.938
SFAC  BR      17.17892  2.17230  5.23581 16.57962   5.63771   0.26090 =
         3.98510  41.43285   2.95570  -0.290   2.460 10000.000   1.140  79.904
UNIT  20   20   4    4
MERG   2
ACTA
FMAP   2
PLAN   20
L.S.   6
WGHT    0.043300    0.379600
FVAR       0.15815
MN1   3    0.121916    0.250000    0.053058    10.50000    0.02950    0.03130 =
         0.03108    0.00000    0.00010    0.00000
BR1   4    0.248745    0.250000    0.382133    10.50000    0.04030    0.05476 =
         0.03748    0.00000   -0.00730    0.00000
C1    1    0.216739    0.365147   -0.065511    11.00000    0.03682    0.03772 =
         0.04215   -0.00168    0.00039    0.00229
C2    1    0.036308    0.367179    0.190167    11.00000    0.03392    0.04036 =
         0.04156   -0.00378   -0.00052   -0.00174
O3    2   -0.028829    0.250000   -0.332313    10.50000    0.04576    0.08612 =
         0.04335    0.00000   -0.01061    0.00000
O1    2    0.273518    0.435143   -0.134120    11.00000    0.06099    0.04633 =
         0.07405    0.00496    0.01357   -0.01411
O2    2   -0.012528    0.439833    0.267051    11.00000    0.05414    0.05458 =
         0.07822   -0.01635    0.00940    0.00871
C3    1    0.029782    0.250000   -0.184408    10.50000    0.03772    0.04240 =
         0.03692    0.00000    0.00363    0.00000
HKLF    4

REM  AK14_0ma in Pnma
REM R1 =  0.0278 for     860 Fo > 4sig(Fo)  and  0.0339 for all    1001 data
REM     61 parameters refined using      0 restraints

END

WGHT      0.0428      0.3911

REM Highest difference peak  1.118,  deepest hole -0.362,  1-sigma level  0.083
Q1    1  -0.1219  0.2500 -0.5663  10.50000  0.05    1.12
Q2    1   0.2618  0.2500  0.2981  10.50000  0.05    0.60
Q3    1   0.0010  0.4645  0.2480  11.00000  0.05    0.35
Q4    1   0.0691  0.3396  0.0624  11.00000  0.05    0.29
Q5    1   0.1300  0.3289  0.0864  11.00000  0.05    0.28
Q6    1   0.0500  0.2500 -0.0742  10.50000  0.05    0.27
Q7    1   0.2341  0.3078  0.2261  11.00000  0.05    0.22
Q8    1   0.2067  0.2850 -0.0751  11.00000  0.05    0.21
Q9    1  -0.0178  0.3722  0.3137  11.00000  0.05    0.21
Q10   1   0.0313  0.2897  0.1715  11.00000  0.05    0.21
Q11   1   0.2620  0.3727 -0.0386  11.00000  0.05    0.20
Q12   1   0.1186  0.2500 -0.0926  10.50000  0.05    0.20
Q13   1   0.2186  0.4343 -0.1179  11.00000  0.05    0.20
Q14   1   0.2919  0.1417  0.3850  11.00000  0.05    0.20
Q15   1   0.2063  0.4100 -0.1018  11.00000  0.05    0.19
Q16   1   0.1202  0.2961 -0.1125  11.00000  0.05    0.17
Q17   1   0.1615  0.2500  0.5422  10.50000  0.05    0.17
Q18   1   0.1972  0.1156  0.3979  11.00000  0.05    0.17
Q19   1   0.1164  0.2219  0.3915  11.00000  0.05    0.15
Q20   1  -0.1201  0.5529  0.3903  11.00000  0.05    0.15
;
_shelx_res_checksum              28687
_shelx_hkl_file
;
   0   0   1    0.07    0.07
   0   0   1   -0.07    0.05
   0   0   1    0.01    0.05
   0   0   1   -0.01    0.05
   0   0   2    0.36    0.13
   0   0   2    0.33    0.13
   0   0   2    0.04    0.14
   0   0   2    0.21    0.13
   0   0   3    0.06    0.16
   0   0  -3    0.08    0.19
   0   0   3   -0.06    0.15
   0   0   3    0.02    0.15
   0   0   4   97.66    6.59
   0   0   4  102.81    6.57
   0   0   4   99.48    6.48
   0   0  -4   99.36    6.23
   0   0   5    0.15    0.30
   0   0  -5   -0.54    0.31
   0   0   5    0.01    0.30
   0   0  -6    8.47    0.81
   0   0   6    7.15    0.86
   0   0   6    8.73    0.88
   0   0   7   -0.40    0.43
   0   0  -7    0.04    0.44
   0  -1   0   -0.44    0.10
   0  -1   0   -0.39    0.11
   0   1   0   -0.46    0.09
   0   1   0   -0.05    0.09
   0  -1   1  223.54   14.31
   0  -1   1  227.24   14.55
   0   1  -1  241.17   14.46
   0   1   1  214.39   14.54
   0  -1  -1  217.66   13.75
   0  -1   1  219.21   13.73
   0   1  -2    0.08    0.12
   0   1   2   -0.03    0.13
   0  -1   2    0.01    0.12
   0  -1   2   -0.18    0.11
   0   1   2    0.04    0.11
   0  -1  -2    0.18    0.16
   0   1   2    0.00    0.11
   0  -1   2    0.02    0.12
   0   1   3  192.80   12.53
   0  -1  -3  189.28   11.92
   0  -1   3  188.76   11.91
   0  -1   3  185.60   12.39
   0  -1   3  202.82   12.54
   0   1   3  193.38   12.60
   0  -1   3  190.29   12.61
   0   1   3  202.91   12.40
   0   1   4   -0.11    0.19
   0   1   4    0.00    0.20
   0  -1   4    0.40    0.23
   0  -1   4    0.05    0.22
   0  -1  -4   -0.09    0.26
   0  -1   4    0.05    0.22
   0   1  -4   -0.25    0.22
   0   1  -4    0.21    0.21
   0   1   4    0.13    0.26
   0  -1  -5    5.63    0.64
   0   1  -5    6.43    0.62
   0   1   5    4.51    0.59
   0  -1   5    5.32    0.63
   0  -1   5    5.89    0.62
   0   1  -5    5.55    0.59
   0   1   5    4.46    0.61
   0   1   6   -0.15    0.35
   0  -1   6   -0.25    0.36
   0   1  -6    0.61    0.40
   0   1   6   -0.42    0.37
   0  -1  -6   -0.34    0.45
   0   1  -7    3.88    0.64
   0  -1  -7    3.73    0.62
   0  -1   7    3.60    0.67
   0   1   7    4.14    0.68
   0   2   0  961.88   63.99
   0   2   0  989.13   63.64
   0  -2   0 1000.00   60.43
   0  -2   0  992.60   62.95
   0  -2  -1   -0.02    0.09
   0   2  -1   -0.25    0.13
   0  -2  -1    0.04    0.15
   0  -2   1    0.02    0.10
   0   2   1   -0.02    0.09
   0   2   1   -0.18    0.08
   0  -2   1   -0.20    0.13
   0  -2   1   -0.07    0.08
   0  -2   2  157.63   10.14
   0  -2  -2  151.46    9.74
   0   2   2  157.35   10.23
   0   2   2  154.21   10.28
   0  -2   2  156.11    9.71
   0   2  -2  166.34   10.24
   0  -2  -2  161.85   10.12
   0  -2   2  158.08   10.30
   0  -2  -3   -0.20    0.21
   0   2   3    0.08    0.15
   0   2   3   -0.06    0.14
   0  -2   3   -0.05    0.15
   0   2  -3    0.25    0.19
   0  -2   3   -0.11    0.18
   0  -2  -3    0.00    0.22
   0  -2   3   -0.14    0.18
   0  -2  -4   80.67    5.09
   0  -2  -4   67.59    5.26
   0   2   4   84.48    5.35
   0  -2   4   78.09    5.27
   0   2  -4   83.21    5.03
   0  -2   4   82.10    5.37
   0   2  -4   87.65    5.32
   0   2   4   80.53    5.33
   0  -2   5    0.16    0.33
   0   2  -5   -0.12    0.31
   0  -2  -5    0.45    0.40
   0   2   5    0.24    0.29
   0   2   5   -0.21    0.27
   0  -2   5   -0.27    0.32
   0   2  -6    4.23    0.59
   0   2   6    3.03    0.58
   0  -2   6    4.30    0.63
   0  -2  -6    4.23    0.68
   0   2   6    4.55    0.61
   0   2  -7   -0.05    0.45
   0   2   7   -0.16    0.47
   0  -2   7   -0.22    0.47
   0  -3   0   -0.50    0.16
   0   3   0   -0.57    0.10
   0  -3   0   -0.67    0.16
   0  -3  -1   56.33    3.55
   0   3   1   56.65    3.70
   0   3  -1   56.41    3.72
   0  -3   1   56.21    3.74
   0  -3   1   65.31    3.51
   0  -3  -1   55.48    3.66
   0   3   1   50.11    3.73
   0  -3   1   57.63    3.70
   0   3   2   -0.06    0.11
   0  -3   2   -0.12    0.16
   0  -3   2    0.02    0.13
   0  -3   2   -0.09    0.08
   0   3   2    0.04    0.11
   0  -3  -2    0.00    0.10
   0  -3  -2    0.01    0.19
   0   3  -2   -0.33    0.16
   0  -3  -3  653.02   39.27
   0   3   3  613.80   39.95
   0   3   3  603.44   39.73
   0  -3  -3  612.51   37.78
   0  -3   3  607.18   39.98
   0   3  -3  611.85   39.74
   0  -3   3  611.68   37.73
   0  -3   3  610.75   39.31
   0  -3  -4    0.15    0.32
   0   3   4    0.03    0.23
   0  -3   4    0.28    0.28
   0  -3  -4    0.00    0.23
   0   3  -4   -0.08    0.26
   0  -3   4    0.20    0.26
   0   3   4    0.13    0.21
   0  -3  -5    1.83    0.51
   0   3   5    1.58    0.41
   0  -3   5    2.03    0.44
   0  -3   5    1.36    0.42
   0   3   5    1.93    0.39
   0   3  -5    2.47    0.45
   0   3   6    0.11    0.40
   0  -3  -6    0.09    0.49
   0   3  -6   -0.41    0.39
   0  -3   6    0.53    0.43
   0   3   7    3.93    0.69
   0  -3   7    5.20    0.75
   0   3  -7    4.10    0.71
   0  -3  -7    4.61    0.83
   0   4   0  622.84   40.25
   0   4   0  617.02   40.48
   0  -4   0  624.98   38.27
   0  -4   0  632.18   39.84
   0  -4   1   -0.02    0.15
   0  -4   1   -0.08    0.10
   0   4   1   -0.09    0.13
   0   4  -1    0.06    0.10
   0   4  -1   -0.15    0.09
   0   4   1    0.07    0.10
   0  -4   2   46.34    2.87
   0  -4  -2   44.53    2.77
   0   4   2   41.90    2.85
   0  -4   2   44.70    2.89
   0  -4  -2   40.19    2.80
   0  -4   2   43.24    2.67
   0   4  -2   40.58    2.86
   0   4   2   43.54    2.85
   0   4  -3   -0.08    0.24
   0  -4  -3    0.11    0.27
   0  -4   3    0.04    0.21
   0  -4  -3    0.02    0.15
   0   4   3    0.12    0.19
   0  -4   3   -0.29    0.22
   0   4   3   -0.03    0.14
   0   4   4   55.32    3.52
   0   4  -4   47.74    3.53
   0  -4   4   52.73    3.56
   0  -4  -4   56.52    3.44
   0  -4   4   49.88    3.51
   0   4   4   52.07    3.52
   0  -4  -5   -0.20    0.43
   0  -4   5   -0.47    0.34
   0  -4   5   -0.17    0.34
   0   4   5    0.20    0.30
   0   4  -5    0.38    0.38
   0   4   6    3.75    0.64
   0  -4   6    4.63    0.68
   0  -4   6    4.72    0.68
   0  -4  -6    4.61    0.74
   0   4  -6    5.02    0.69
   0  -4   7    0.35    0.50
   0   4   7    0.52    0.51
   0  -4  -7   -0.78    0.62
   0  -5   0   -0.22    0.17
   0  -5   0   -0.04    0.16
   0   5   0   -0.13    0.10
   0   5   0   -0.32    0.09
   0  -5  -1   75.18    4.83
   0   5   1   68.17    4.90
   0   5  -1   78.27    4.85
   0   5   1   74.05    4.86
   0   5  -1   74.19    4.89
   0  -5   1   76.79    4.86
   0  -5  -1   76.68    4.67
   0  -5   1   73.05    4.61
   0  -5  -2    0.03    0.15
   0  -5   2    0.24    0.23
   0   5  -2   -0.11    0.15
   0  -5   2    0.09    0.11
   0   5   2    0.15    0.14
   0   5   2   -0.13    0.13
   0  -5  -2   -0.12    0.23
   0   5  -2    0.05    0.15
   0  -5   3  164.97   10.44
   0   5   3  157.26   10.36
   0  -5  -3  162.91   10.21
   0   5  -3  138.43   10.36
   0   5   3  158.44   10.39
   0  -5  -3  165.05    9.91
   0  -5   3  167.84   10.30
   0   5   4    0.05    0.21
   0  -5   4    0.22    0.29
   0   5  -4    0.12    0.32
   0  -5   4   -0.06    0.33
   0  -5  -4   -0.04    0.39
   0   5   4   -0.11    0.24
   0  -5   5   23.35    1.73
   0  -5  -5   26.53    1.79
   0  -5   5   24.00    1.73
   0   5  -5   18.11    1.70
   0   5   5   23.06    1.70
   0   5   6    0.01    0.39
   0  -5   6   -0.17    0.46
   0  -5  -6    0.42    0.57
   0   5  -6    0.69    0.48
   0  -5   6   -0.11    0.43
   0  -5  -7    5.68    0.92
   0  -5   7    3.78    0.73
   0   5   7    3.31    0.67
   0   6   0  859.45   55.25
   0  -6   0  865.11   54.38
   0  -6   0  851.55   52.23
   0   6   0  833.05   54.93
   0  -6  -1    0.12    0.18
   0  -6  -1   -0.42    0.23
   0  -6   1    0.16    0.22
   0   6   1    0.21    0.17
   0   6  -1   -0.04    0.12
   0   6  -1    0.06    0.13
   0   6   1   -0.03    0.14
   0  -6   1   -0.03    0.14
   0   6  -2    8.66    0.75
   0   6   2    9.45    0.76
   0  -6   2    8.80    0.86
   0   6   2   11.16    0.78
   0  -6  -2    9.39    0.88
   0  -6  -2   10.02    0.80
   0   6  -2   10.30    0.73
   0   6   3    0.12    0.18
   0  -6  -3    0.39    0.21
   0   6  -3   -0.12    0.23
   0  -6  -3    1.13    0.38
   0  -6   3    0.22    0.33
   0   6  -3    0.70    0.26
   0   6   3   -0.07    0.23
   0   6  -4   38.64    2.77
   0  -6  -4   39.96    2.74
   0   6   4   40.96    2.77
   0  -6   4   41.05    2.80
   0  -6   4   40.01    2.80
   0  -6  -5    0.00    0.49
   0  -6   5   -0.22    0.41
   0   6   5    0.24    0.34
   0  -6   5    0.06    0.38
   0   6  -5    0.64    0.41
   0   6   6    2.00    0.53
   0  -6   6    2.52    0.59
   0  -6  -6    2.01    0.70
   0  -6   6    2.99    0.63
   0  -6  -7    0.03    0.72
   0   6  -7    0.44    0.49
   0   6   7   -0.15    0.45
   0  -6   7    0.83    0.58
   0   7   0    0.03    0.14
   0  -7   0   -0.09    0.21
   0   7   0    0.21    0.15
   0  -7   0    0.09    0.24
   0  -7   1   40.75    2.80
   0   7  -1   40.70    2.73
   0  -7   1   38.81    2.62
   0   7   1   42.62    2.80
   0   7  -1   41.59    2.76
   0  -7  -1   41.92    2.71
   0  -7  -1   44.43    2.78
   0   7   1   40.61    2.75
   0  -7   2   -0.32    0.29
   0   7   2    0.12    0.21
   0   7   2   -0.01    0.20
   0  -7  -2   -0.03    0.32
   0  -7  -2   -0.30    0.21
   0   7  -2   -0.06    0.17
   0   7  -2    0.04    0.17
   0   7  -3  167.00    9.89
   0   7  -3  157.30    9.95
   0   7   3  132.88    9.90
   0  -7   3  158.35    9.88
   0  -7  -3  142.99    9.48
   0  -7  -4   -0.82    0.42
   0   7  -4   -0.37    0.27
   0   7   4    0.18    0.28
   0   7  -4    0.74    0.33
   0  -7   4    0.23    0.40
   0   7  -5    1.06    0.40
   0   7   5    0.55    0.36
   0  -7   5    0.46    0.48
   0   7  -5    0.78    0.41
   0  -7  -5    0.21    0.53
   0   7   6    0.01    0.38
   0  -7  -6    0.03    0.61
   0  -7   6    0.22    0.52
   0   7  -6   -0.30    0.39
   0  -8   0  226.28   14.44
   0  -8   0  241.41   15.06
   0   8   0  229.61   15.15
   0   8   0  239.40   15.25
   0  -8  -1   -0.27    0.26
   0   8  -1    0.21    0.17
   0  -8   1    1.07    0.34
   0   8   1    0.21    0.18
   0  -8  -1    0.25    0.31
   0   8  -1    0.27    0.18
   0   8   1    0.05    0.23
   0  -8  -2   42.56    2.93
   0   8   2   41.67    2.96
   0   8  -2   43.58    2.97
   0   8  -2   44.08    2.92
   0  -8  -2   46.81    2.96
   0  -8   2   45.44    3.03
   0   8  -3    0.11    0.24
   0  -8   3    0.79    0.43
   0   8   3   -0.07    0.28
   0  -8  -3    0.05    0.45
   0   8  -3    0.13    0.26
   0   8   4   17.34    1.36
   0   8  -4   19.14    1.33
   0  -8  -4   17.10    1.48
   0   8  -4   17.12    1.33
   0  -8   4   16.85    1.46
   0   8   5    0.35    0.34
   0  -8  -5   -0.02    0.57
   0  -8   5    0.45    0.51
   0   8  -5   -0.02    0.36
   0  -8   6    2.09    0.68
   0  -8  -6    1.96    0.76
   0   8  -6    1.81    0.51
   0   8   6    1.29    0.51
   0  -9   0    0.39    0.31
   0   9   0    0.20    0.20
   0  -9   0   -0.29    0.33
   0   9   0    0.20    0.20
   0  -9  -1   39.11    2.66
   0   9   1   36.98    2.61
   0  -9   1   37.93    2.69
   0  -9  -1   38.62    2.60
   0   9  -1   39.67    2.59
   0   9  -1   39.03    2.61
   0   9  -2    0.01    0.23
   0   9  -2   -0.10    0.20
   0  -9   2    0.10    0.40
   0   9   2    0.03    0.26
   0  -9  -2   -0.01    0.30
   0  -9  -2    0.20    0.43
   0   9  -3   51.94    3.30
   0   9  -3   47.71    3.34
   0  -9  -3   49.55    3.33
   0   9   3   47.60    3.35
   0  -9   3   50.03    3.43
   0   9  -4    0.21    0.31
   0   9  -4    0.40    0.29
   0   9   4   -0.04    0.33
   0  -9  -4    0.14    0.55
   0  -9   4    0.04    0.46
   0  -9  -5   -0.54    0.59
   0   9  -5    0.28    0.38
   0  -9   5    0.17    0.53
   0   9   5    0.35    0.38
   0   9  -6    0.46    0.45
   0  -9  -6   -0.08    0.72
   0   9   6   -0.29    0.45
   0  -9   6   -0.01    0.60
   0  10   0  233.59   15.67
   0  10   0  258.66   15.78
   0 -10   0  235.56   14.94
   0 -10   0  238.87   15.59
   0 -10   1    0.18    0.40
   0 -10  -1   -0.12    0.36
   0  10  -1    0.01    0.23
   0  10  -1    0.30    0.23
   0  10   1    0.13    0.25
   0 -10  -1   -0.06    0.38
   0  10   2    5.03    0.59
   0 -10   2    6.10    0.76
   0  10  -2    6.46    0.61
   0 -10  -2    6.39    0.77
   0  10  -2    6.09    0.56
   0 -10  -3    0.05    0.51
   0  10  -3    0.14    0.29
   0  10   3   -0.79    0.25
   0  10  -3   -0.14    0.25
   0 -10   3   -0.38    0.46
   0 -10  -4    8.39    0.97
   0  10   4    6.21    0.76
   0 -10   4    8.09    0.95
   0  10  -4    7.68    0.77
   0 -10  -5    0.42    0.66
   0  10  -5    0.24    0.39
   0 -10   5   -0.01    0.55
   0  10   5    0.10    0.41
   0  11   0    0.00    0.23
   0 -11   0   -0.03    0.40
   0  11   1   11.27    0.91
   0 -11  -1   12.21    1.04
   0 -11  -1   11.03    1.08
   0 -11   1   11.35    1.09
   0  11  -1   11.23    0.93
   0  11  -1   10.03    0.87
   0 -11  -2   -0.96    0.46
   0  11   2    0.18    0.29
   0 -11   2    0.60    0.49
   0  11  -2    0.18    0.27
   0  11  -2   -0.28    0.27
   0  11  -3   22.40    1.64
   0 -11   3   23.47    1.83
   0 -11  -3   22.81    1.81
   0  11   3   20.53    1.64
   0 -11   4    0.22    0.55
   0 -11  -4   -0.30    0.63
   0  11  -4    0.28    0.37
   0  11   4    0.17    0.37
   0  11   5    3.50    0.63
   0  11  -5    4.18    0.62
   0 -11  -5    2.82    0.84
   0 -11   5    3.60    0.79
   0  12   0   35.18    2.47
   0 -12   0   36.97    2.60
   0  12  -1   -0.31    0.25
   0 -12   1   -0.41    0.46
   0 -12  -1   -0.15    0.44
   0  12   1    0.25    0.31
   0  12  -2    6.94    0.73
   0  12   2    7.34    0.77
   0 -12   2    7.64    0.96
   0 -12  -2    8.60    0.95
   0 -12  -3   -0.38    0.58
   0 -12   3    0.03    0.55
   0  12  -3    0.12    0.36
   0  12   3   -0.26    0.37
   0 -12  -4    3.66    0.84
   0 -12   4    3.25    0.78
   0  12   4    2.99    0.58
   0  12  -4    3.78    0.57
   0  13   0    0.13    0.31
   0 -13   0    0.48    0.52
   0 -13   1    3.48    0.71
   0  13   1    3.29    0.50
   0  13  -1    2.44    0.42
   0  13   2    0.08    0.37
   0 -13   2   -0.07    0.57
   0 -13  -2   -0.37    0.56
   0  13  -3   28.21    2.09
   0 -13   3   27.87    2.28
   0  13   3   28.70    2.13
   0 -13  -3   30.46    2.29
   0  14   0   10.01    0.91
   0 -14   0   10.12    1.13
   0 -14   1    0.36    0.60
   0  14   1    0.08    0.37
   0  14   2    4.33    0.63
   0 -14   2    2.74    0.78
  -1   0   0    0.02    0.06
   1   0   0    0.08    0.06
  -1   0   0    0.15    0.05
   1   0   0    0.21    0.05
  -1   0   1  108.22    6.75
   1   0   1  108.15    6.77
   1   0   1  101.89    6.82
   1   0   1  100.01    6.50
   1   0  -1  107.99    6.49
  -1   0   1  103.40    6.88
   1   0   1  107.36    6.87
  -1   0   2  479.23   31.47
   1   0  -2  473.80   29.72
   1   0   2  489.14   29.75
   1   0   2  493.12   31.27
  -1   0   2  481.47   31.29
   1   0   2  494.44   30.95
  -1   0   2  468.68   30.92
   1   0   2  497.42   31.46
   1   0   3   15.85    1.06
  -1   0   3   14.34    1.08
   1   0   3   15.22    1.06
  -1   0   3   14.65    1.07
   1   0   3   15.07    1.08
  -1   0   3   14.45    1.04
   1   0  -3   13.48    1.02
   1   0   3   14.61    1.06
   1   0   4    3.58    0.43
   1   0   4    2.71    0.43
  -1   0   4    2.88    0.42
   1   0   4    3.95    0.45
  -1   0   4    3.38    0.42
   1   0  -4    3.42    0.40
   1   0   4    3.04    0.41
  -1   0   4    3.75    0.41
   1   0   5    0.36    0.30
   1   0   5    0.38    0.31
   1   0  -5    0.46    0.33
   1   0   5    0.36    0.34
  -1   0   5    0.58    0.36
  -1   0  -5   -0.22    0.35
  -1   0   5    0.39    0.33
   1   0  -6   75.14    4.95
   1   0   6   72.68    5.00
   1   0   6   70.02    5.00
  -1   0   6   76.84    5.03
  -1   0  -6   75.38    4.78
  -1   0  -7    3.25    0.61
   1   0   7    2.99    0.61
  -1   0   7    2.99    0.65
   1   0  -7    4.50    0.64
   1   1   0    0.00    0.05
  -1   1   0   -0.06    0.03
  -1  -1   0   -0.09    0.05
   1  -1   0   -0.04    0.05
  -1  -1   0   -0.01    0.04
   1   1   0   -0.03    0.04
   1  -1   0   -0.13    0.05
  -1   1   0   -0.08    0.04
  -1   1  -1    7.06    0.52
   1  -1  -1    8.61    0.55
  -1  -1   1    6.73    0.54
  -1  -1   1    6.16    0.54
   1   1   1    8.13    0.55
  -1   1  -1    7.37    0.51
   1   1   1    7.63    0.52
   1   1   1    7.87    0.51
   1  -1   1    8.49    0.54
   1  -1   1    7.82    0.52
  -1   1   1    6.10    0.52
   1  -1   1    7.45    0.55
   1   1  -1    8.28    0.49
   1   1  -1    8.52    0.54
  -1   1   1    6.38    0.54
   1   1   2   65.77    4.02
   1  -1  -2   59.90    3.84
   1   1   2   62.57    3.87
  -1  -1   2   61.52    3.98
   1   1   2   62.21    4.04
  -1  -1   2   58.70    4.06
   1   1   2   60.69    4.02
  -1   1   2   60.83    4.05
   1   1  -2   59.45    3.81
   1  -1   2   60.90    3.84
   1  -1   2   59.70    4.00
   1  -1   2   59.83    4.05
   1   1  -2   65.34    4.03
  -1   1   2   60.40    4.03
   1  -1   2   65.48    4.03
  -1  -1   3   98.40    6.67
  -1  -1   3  113.04    6.55
   1   1   3   97.07    6.34
   1   1   3  105.11    6.58
   1   1   3  102.94    6.65
   1  -1  -3   94.27    6.30
   1   1   3   98.72    6.61
   1  -1   3  103.71    6.67
  -1   1   3   99.15    6.66
   1   1  -3   96.30    6.27
   1  -1   3   98.34    6.31
   1  -1   3  104.64    6.62
   1  -1   3   96.03    6.56
  -1   1   3  104.96    6.53
   1   1  -3  107.78    6.62
   1   1   4    8.87    0.87
   1   1   4   10.39    0.91
  -1  -1   4    9.11    0.82
  -1  -1   4   10.51    0.86
   1  -1  -4    9.65    0.86
   1   1   4   10.11    0.82
   1   1   4   10.06    0.82
  -1   1   4   10.03    0.83
  -1   1   4    9.09    0.80
   1  -1   4   10.31    0.83
   1  -1   4   10.10    0.82
   1  -1   4   11.64    0.86
   1   1  -4   10.81    0.81
   1  -1   4    9.23    0.85
   1   1  -4    8.27    0.79
  -1   1   4   10.60    0.84
  -1  -1   5   35.20    2.57
   1   1   5   34.05    2.53
   1   1   5   34.78    2.54
   1  -1  -5   40.34    2.47
  -1   1  -5   35.66    2.50
   1  -1   5   35.22    2.53
  -1  -1  -5   36.67    2.48
   1  -1   5   35.41    2.55
   1   1  -5   35.56    2.51
  -1   1   5   40.38    2.56
  -1   1   5   38.44    2.57
  -1  -1   6    6.75    0.78
   1   1   6    6.19    0.76
   1  -1  -6    6.52    0.76
   1   1   6    6.12    0.71
  -1   1  -6    7.25    0.74
   1   1  -6    6.21    0.71
  -1   1   6    5.61    0.73
  -1  -1  -6    6.85    0.80
   1  -1   6    7.03    0.76
  -1   1   6    5.71    0.75
  -1  -1   7   12.75    1.27
   1   1   7   13.80    1.26
   1  -1  -7   12.58    1.15
  -1   1  -7   12.52    1.16
  -1   1   7   14.99    1.28
   1  -1   7   11.83    1.22
   1   1  -7   13.15    1.17
   1   2   0   -0.03    0.06
  -1  -2   0   -0.04    0.05
   1  -2   0   -0.10    0.09
  -1  -2   0   -0.07    0.09
   1  -2   0   -0.10    0.08
  -1   2   0    0.00    0.06
  -1   2   0   -0.08    0.04
   1   2   0   -0.10    0.08
  -1  -2   1   88.71    5.84
   1   2   1   84.96    5.81
   1  -2  -1   91.61    5.71
  -1  -2   1   89.98    5.75
   1   2   1   88.13    5.79
   1  -2  -1   91.39    5.54
   1   2   1   90.89    5.55
   1  -2   1   89.34    5.76
  -1   2   1   87.48    5.80
   1  -2   1   83.33    5.52
  -1  -2  -1   92.87    5.74
  -1   2   1   94.92    5.85
  -1  -2   2   60.26    4.21
   1   2   2   64.56    4.02
   1   2   2   65.62    4.18
  -1   2  -2   67.35    4.17
  -1  -2   2   61.21    4.14
   1  -2  -2   67.51    4.00
   1   2   2   63.08    4.17
   1  -2   2   64.10    4.21
   1  -2   2   58.86    3.96
   1   2  -2   60.31    3.93
   1  -2   2   62.15    4.15
   1   2  -2   70.88    4.20
  -1   2  -3   10.69    0.72
   1  -2  -3    6.55    0.74
   1   2   3    9.94    0.73
  -1  -2   3    8.72    0.75
  -1  -2   3    9.64    0.76
   1   2   3    9.60    0.79
   1  -2  -3    8.13    0.76
   1   2   3    9.50    0.72
   1   2  -3   10.48    0.75
  -1  -2  -3    8.48    0.80
   1  -2   3    9.21    0.71
   1  -2   3    8.87    0.76
  -1   2   3    9.18    0.74
   1  -2   3   10.10    0.75
   1   2  -3    9.52    0.68
  -1   2   3    9.01    0.72
   1  -2  -4    7.72    0.75
   1   2   4    8.48    0.74
   1  -2  -4    9.41    0.86
  -1   2  -4   10.12    0.76
   1   2   4    9.53    0.76
  -1  -2   4    9.23    0.81
   1  -2   4    9.68    0.80
   1   2  -4    9.81    0.74
  -1   2   4    8.31    0.77
  -1  -2  -4    8.21    0.79
  -1  -2  -4    8.69    0.84
  -1   2   4    8.85    0.77
   1  -2   4    8.41    0.81
   1  -2   4    9.96    0.79
  -1  -2   5    0.19    0.34
  -1   2  -5    0.04    0.31
  -1  -2   5   -0.07    0.29
   1   2   5    0.55    0.30
   1   2   5    0.08    0.27
   1  -2  -5    0.08    0.38
  -1  -2  -5   -0.02    0.43
  -1   2   5    0.06    0.30
   1  -2   5   -0.24    0.30
  -1   2   5    0.25    0.31
   1   2  -5    0.23    0.33
   1  -2   5    0.31    0.36
  -1  -2   6   51.38    3.56
   1  -2  -6   50.40    3.41
  -1   2  -6   48.39    3.48
   1   2   6   47.85    3.52
   1  -2   6   52.47    3.55
  -1   2   6   53.21    3.54
  -1   2   6   51.96    3.54
  -1  -2  -6   56.03    3.46
   1   2  -6   48.87    3.49
  -1   2  -7    4.06    0.64
   1   2   7    4.09    0.73
  -1  -2   7    3.65    0.69
   1   2  -7    3.09    0.62
  -1   2   7    3.08    0.64
   1  -2   7    3.22    0.63
  -1  -3   0    0.02    0.15
  -1   3   0    0.00    0.09
  -1   3   0   -0.04    0.07
  -1  -3   0   -0.28    0.13
   1   3   0   -0.17    0.07
   1  -3   0   -0.17    0.12
   1   3   0   -0.08    0.06
   1  -3   0    0.07    0.14
   1  -3  -1  129.09    8.27
   1   3   1  129.20    8.00
   1  -3  -1  124.87    7.98
  -1  -3   1  128.26    8.43
   1   3   1  135.37    8.40
  -1  -3   1  130.11    8.31
   1   3   1  124.37    8.37
  -1   3  -1  137.38    8.35
  -1   3  -1  127.91    8.41
  -1  -3  -1  121.62    8.28
   1  -3   1  129.59    8.31
  -1   3   1  126.42    8.37
   1   3  -1  124.24    8.38
   1  -3   1  141.00    7.97
  -1  -3   2   21.30    1.49
   1  -3  -2   21.04    1.40
   1   3   2   21.30    1.46
   1  -3  -2   21.50    1.44
   1   3   2   22.11    1.44
  -1  -3   2   21.77    1.48
   1   3   2   21.26    1.45
   1   3  -2   18.18    1.49
   1  -3   2   21.21    1.48
   1  -3   2   20.26    1.37
  -1   3   2   21.51    1.46
  -1  -3  -2   21.98    1.44
  -1  -3  -2   23.27    1.46
   1  -3   2   21.60    1.48
  -1   3   2   21.86    1.47
  -1  -3   3  161.52   10.48
   1   3   3  159.89   10.40
  -1  -3   3  160.29   10.31
   1   3   3  165.90   10.44
   1  -3  -3  163.93   10.23
  -1   3  -3  151.16   10.39
   1  -3  -3  153.10    9.91
  -1  -3  -3  163.80    9.93
  -1   3   3  156.02   10.40
   1  -3   3  161.59   10.32
   1   3  -3  153.59    9.82
   1   3  -3  171.26   10.43
  -1  -3  -3  163.40   10.29
   1  -3   3  153.40    9.87
   1  -3   3  162.47   10.47
  -1   3   3  159.38   10.45
   1   3   4   21.65    1.53
  -1  -3   4   19.88    1.56
   1  -3  -4   20.64    1.53
   1   3   4   21.72    1.51
  -1  -3   4   19.19    1.52
  -1   3  -4   20.77    1.51
  -1   3   4   22.64    1.53
   1  -3   4   22.16    1.56
  -1  -3  -4   18.46    1.55
  -1   3   4   21.78    1.53
   1  -3   4   21.62    1.56
  -1  -3  -4   21.71    1.57
   1   3  -4   22.09    1.54
  -1  -3   5   41.82    2.97
   1  -3  -5   40.74    2.85
   1   3   5   43.49    2.93
  -1  -3   5   42.70    2.92
  -1   3  -5   39.93    2.91
  -1   3   5   43.48    2.94
  -1  -3  -5   42.30    2.88
  -1   3   5   40.68    2.92
   1  -3   5   44.05    2.96
   1   3  -5   45.09    2.94
   1  -3   5   42.70    2.93
  -1   3  -6    4.27    0.65
   1   3   6    4.80    0.65
  -1  -3   6    5.46    0.71
   1  -3  -6    5.14    0.74
  -1   3   6    5.17    0.66
   1  -3   6    6.25    0.72
   1  -3   6    5.95    0.74
  -1  -3  -6    6.00    0.80
   1   3  -6    5.60    0.71
  -1   3   6    3.95    0.64
   1   3   7    7.02    0.94
  -1  -3   7    9.51    1.01
  -1   3   7    7.15    0.92
   1   3  -7   10.42    1.00
   1  -3   7    8.65    0.97
  -1  -3  -7    8.38    1.04
   1   4   0   -0.12    0.08
   1  -4   0    0.07    0.14
   1  -4   0   -0.28    0.12
  -1  -4   0   -0.16    0.14
  -1  -4   0    0.11    0.14
  -1   4   0   -0.02    0.09
   1   4   0    0.06    0.07
  -1   4   0    0.03    0.08
   1   4   1   23.74    1.60
   1  -4  -1   25.53    1.59
  -1  -4   1   24.90    1.64
  -1  -4   1   23.39    1.62
   1  -4  -1   24.27    1.59
  -1   4  -1   23.04    1.61
  -1  -4   1   22.42    1.50
  -1   4  -1   22.82    1.58
  -1   4   1   24.36    1.60
   1  -4   1   26.12    1.54
  -1  -4  -1   23.32    1.57
   1   4  -1   25.89    1.61
   1  -4   1   23.59    1.64
  -1  -4  -1   22.79    1.61
   1  -4  -2   58.41    3.71
  -1  -4   2   57.53    3.78
   1   4   2   54.50    3.76
  -1   4  -2   58.10    3.80
  -1  -4   2   55.83    3.82
   1   4   2   57.98    3.78
  -1   4  -2   59.69    3.77
   1  -4  -2   58.02    3.65
   1  -4   2   60.03    3.58
   1  -4   2   57.92    3.78
  -1  -4  -2   53.92    3.73
  -1  -4  -2   57.14    3.64
  -1   4   2   60.11    3.81
  -1   4   2   55.45    3.78
   1   4   3   26.91    1.72
  -1  -4   3   25.83    1.78
   1  -4  -3   24.78    1.74
  -1  -4   3   25.34    1.78
   1  -4  -3   24.05    1.66
   1   4   3   25.04    1.74
   1  -4   3   24.81    1.63
   1  -4   3   25.75    1.78
   1  -4   3   25.26    1.77
  -1   4   3   25.24    1.75
  -1   4   3   26.12    1.75
  -1  -4  -3   25.54    1.74
   1   4  -3   19.53    1.76
  -1  -4  -3   27.88    1.74
   1  -4  -4   26.91    1.85
  -1  -4   4   26.58    1.88
   1   4   4   27.77    1.81
  -1  -4   4   25.71    1.86
   1   4   4   23.99    1.82
  -1   4  -4   20.23    1.82
   1   4  -4   25.72    1.88
  -1   4   4   28.09    1.84
  -1  -4  -4   26.27    1.86
   1  -4   4   24.06    1.86
  -1   4   4   26.73    1.84
  -1  -4  -4   29.03    1.83
   1  -4   4   25.99    1.87
  -1  -4   5    1.61    0.44
  -1  -4   5    0.68    0.40
   1   4   5    0.74    0.33
  -1   4  -5    0.48    0.40
   1  -4  -5    0.79    0.45
  -1   4   5    0.46    0.32
   1  -4   5    0.61    0.40
  -1  -4  -5    1.20    0.49
   1   4  -5    0.65    0.43
   1  -4   5    0.58    0.37
  -1   4   5    0.84    0.33
  -1   4  -6   40.48    3.30
   1   4   6   48.44    3.33
   1  -4  -6   50.98    3.29
  -1  -4   6   48.19    3.38
   1  -4   6   51.40    3.38
  -1  -4  -6   52.60    3.31
   1   4  -6   48.21    3.35
   1  -4   6   46.17    3.33
  -1   4   6   46.73    3.33
  -1  -4   7    0.55    0.53
   1  -4  -7    0.62    0.66
   1   4   7    0.92    0.55
  -1   4   7    1.18    0.55
  -1  -4  -7    1.84    0.72
   1  -4   7    0.97    0.54
   1   4  -7    0.89    0.56
  -1  -5   0   -0.14    0.16
  -1   5   0    0.09    0.11
  -1  -5   0    0.17    0.18
   1  -5   0    0.15    0.16
   1   5   0    0.06    0.11
   1  -5   0    0.02    0.16
  -1   5   0   -0.11    0.08
   1   5   0    0.04    0.09
  -1  -5   1    7.71    0.67
  -1  -5   1    6.97    0.54
   1  -5  -1    7.53    0.65
   1  -5  -1    7.03    0.60
  -1   5  -1    7.27    0.53
   1   5   1    7.31    0.57
  -1   5  -1    7.93    0.57
   1   5   1    6.41    0.58
   1  -5   1    7.36    0.57
   1   5  -1    8.17    0.57
  -1  -5  -1    7.00    0.64
   1   5  -1    7.29    0.56
  -1   5   1    7.98    0.67
   1  -5   1    8.13    0.66
  -1  -5  -1    7.43    0.65
  -1  -5   2    7.83    0.72
   1  -5  -2    9.12    0.79
  -1   5  -2    8.61    0.69
   1   5   2    8.60    0.65
   1  -5  -2    9.31    0.69
   1   5   2    8.56    0.69
  -1  -5   2    8.70    0.79
  -1   5  -2    9.78    0.67
  -1   5   2    8.95    0.69
  -1  -5  -2    9.29    0.79
  -1  -5  -2    8.19    0.73
  -1   5   2   10.00    0.74
   1  -5   2    9.21    0.79
   1  -5   2    9.47    0.69
   1   5  -2    8.59    0.71
   1  -5  -3   37.34    2.47
  -1  -5   3   35.98    2.53
  -1   5  -3   38.39    2.51
  -1   5  -3   36.20    2.50
   1   5   3   35.21    2.47
  -1  -5   3   38.53    2.54
   1   5   3   35.12    2.49
   1  -5  -3   38.52    2.42
  -1  -5  -3   37.49    2.46
  -1   5   3   36.28    2.50
  -1   5   3   37.42    2.50
  -1  -5  -3   37.96    2.47
   1  -5   3   35.49    2.53
  -1   5  -4   33.30    2.30
  -1  -5   4   33.92    2.33
   1   5   4   33.00    2.30
   1  -5  -4   31.44    2.29
  -1  -5   4   32.96    2.35
   1  -5   4   35.17    2.35
  -1   5   4   32.51    2.29
   1  -5   4   34.44    2.34
  -1  -5  -4   32.71    2.31
  -1   5   4   31.58    2.30
   1   5   5   21.42    1.61
  -1  -5   5   23.67    1.67
   1  -5  -5   21.26    1.68
  -1  -5   5   23.85    1.67
   1  -5   5   21.47    1.67
  -1  -5  -5   24.60    1.72
   1  -5   5   20.40    1.63
   1   5  -5   18.81    1.66
  -1   5   5   19.17    1.60
  -1  -5   6    1.26    0.51
  -1  -5   6    1.47    0.51
   1  -5  -6    1.81    0.62
   1   5   6    0.89    0.41
   1   5  -6    1.14    0.53
   1  -5   6    0.80    0.50
   1  -5   6    0.71    0.47
  -1   5   6    1.39    0.44
  -1  -5  -6    1.58    0.62
   1   5   7    2.97    0.62
  -1   5  -7    3.51    0.62
   1  -5  -7    4.12    0.82
  -1  -5   7    2.88    0.69
  -1   5   7    2.08    0.62
  -1  -5  -7    4.05    0.83
   1   5  -7    2.03    0.67
  -1   6   0    0.30    0.13
  -1  -6   0    0.59    0.24
   1   6   0    0.19    0.11
  -1  -6   0    1.07    0.24
   1   6   0    0.36    0.14
  -1   6   0    0.29    0.14
   1   6   1   16.79    1.16
   1  -6  -1   17.76    1.22
  -1  -6   1   15.31    1.10
   1  -6  -1   16.82    1.19
  -1   6  -1   17.08    1.14
  -1   6  -1   16.14    1.17
   1   6   1   14.44    1.17
  -1  -6   1   17.65    1.25
  -1   6   1   17.22    1.24
   1  -6   1   15.42    1.12
  -1   6   1   17.11    1.16
   1  -6   1   18.55    1.25
  -1  -6  -1   16.42    1.22
  -1  -6  -1   16.44    1.20
   1   6  -1   17.77    1.16
   1   6  -1   17.66    1.17
   1  -6  -2   86.27    5.40
   1   6   2   87.16    5.61
  -1  -6   2   82.29    5.60
  -1   6  -2   89.29    5.58
   1   6   2   82.89    5.61
   1  -6  -2   86.25    5.53
  -1   6  -2   83.89    5.63
  -1  -6  -2   80.28    5.55
  -1   6   2   89.09    5.67
   1  -6   2   84.44    5.61
  -1   6   2   86.33    5.62
   1   6  -2   83.41    5.63
  -1  -6  -2   85.51    5.40
   1   6  -2   90.67    5.61
  -1  -6   3   16.26    1.29
  -1  -6   3   17.53    1.35
   1   6   3   16.39    1.25
  -1   6  -3   18.19    1.23
  -1   6  -3   16.77    1.25
   1  -6  -3   18.74    1.35
   1   6  -3   15.80    1.26
  -1  -6  -3   15.21    1.24
  -1   6   3   18.52    1.27
  -1  -6  -3   17.68    1.36
  -1   6   3   18.03    1.26
   1  -6   3   16.08    1.33
  -1  -6   4   13.78    1.14
   1   6   4   13.05    1.03
   1  -6  -4   11.54    1.09
  -1   6  -4   12.53    1.00
  -1  -6   4   12.46    1.07
  -1   6  -4   12.89    1.02
   1  -6   4   13.07    1.13
  -1  -6  -4   13.95    1.19
  -1   6   4   11.66    1.01
   1   6  -4   10.05    1.04
   1  -6  -5   -0.40    0.47
  -1  -6   5    0.86    0.45
  -1   6  -5    0.15    0.34
   1   6   5    0.18    0.31
  -1  -6   5    0.16    0.39
  -1   6   5    0.30    0.32
  -1  -6  -5   -0.30    0.48
   1  -6   5   -0.20    0.41
   1   6  -5    0.36    0.43
  -1   6  -6   36.06    2.54
  -1  -6   6   33.80    2.60
  -1  -6   6   35.08    2.61
   1  -6  -6   39.01    2.62
   1   6   6   36.29    2.58
  -1   6   6   31.74    2.55
   1  -6   6   37.71    2.63
  -1  -6  -6   36.82    2.61
   1   6   7    0.47    0.49
  -1   6  -7    0.66    0.49
  -1  -6   7    0.38    0.56
   1  -6  -7    0.94    0.74
  -1   6   7    1.20    0.58
  -1  -6  -7    1.04    0.75
  -1  -7   0    0.18    0.24
   1  -7   0   -0.27    0.20
  -1  -7   0   -0.11    0.22
  -1   7   0   -0.18    0.14
   1   7   0   -0.01    0.13
   1  -7   0    0.04    0.22
   1   7   0   -0.21    0.11
  -1   7   0    0.01    0.13
   1   7   1    3.26    0.35
   1   7   1    4.29    0.39
  -1   7  -1    2.94    0.34
  -1  -7   1    2.98    0.33
  -1   7  -1    3.60    0.33
   1  -7  -1    3.38    0.40
  -1  -7   1    2.80    0.45
   1  -7  -1    3.30    0.44
  -1   7   1    3.10    0.35
  -1   7   1    3.83    0.43
   1   7  -1    4.25    0.39
   1   7  -1    4.20    0.37
   1  -7   1    4.03    0.37
  -1  -7  -1    3.30    0.44
  -1  -7  -1    2.34    0.40
   1  -7   1    4.25    0.48
   1  -7  -2   11.43    0.96
  -1  -7   2   12.83    1.07
  -1   7  -2   12.26    0.94
   1   7   2   11.57    0.93
  -1   7  -2   12.34    0.88
   1  -7  -2   12.13    1.09
   1   7  -2   13.27    0.93
   1   7  -2   11.62    0.93
  -1  -7  -2   13.07    1.07
   1  -7   2   12.92    1.07
  -1   7   2   12.01    0.94
  -1   7   2   13.43    1.02
  -1  -7  -2   13.18    1.02
   1   7   3   44.32    3.15
  -1   7  -3   48.21    3.11
  -1   7  -3   46.47    3.16
  -1  -7   3   47.46    3.21
   1  -7  -3   47.34    3.12
   1   7  -3   44.25    3.16
   1  -7   3   47.39    3.22
  -1   7   3   50.10    3.17
  -1   7   3   44.29    3.16
   1   7  -3   47.19    3.15
  -1  -7  -3   49.33    3.13
  -1  -7  -3   45.63    3.12
  -1   7  -4    8.05    0.65
   1  -7  -4    6.15    0.78
  -1  -7   4    6.97    0.79
  -1  -7   4    5.18    0.69
  -1   7  -4    6.70    0.66
   1   7   4    6.02    0.67
  -1   7   4    5.65    0.66
   1   7  -4    6.74    0.69
  -1  -7  -4    6.25    0.79
   1  -7   4    8.04    0.81
  -1   7  -5   13.69    1.12
  -1  -7   5   13.64    1.21
   1  -7  -5   13.82    1.31
   1   7   5   13.67    1.14
  -1  -7   5   15.50    1.28
   1  -7   5   15.18    1.29
   1   7  -5   10.88    1.17
  -1   7   5   13.89    1.16
  -1  -7  -5   13.96    1.28
   1   7   6    2.78    0.58
  -1  -7   6    3.02    0.67
   1  -7  -6    3.15    0.75
  -1  -7   6    3.45    0.64
  -1   7  -6    2.55    0.53
   1  -7   6    3.27    0.68
  -1   7   6    2.44    0.56
  -1  -7  -6    2.65    0.75
   1   7  -6    2.42    0.60
   1  -7   7    4.09    0.84
  -1   8   0   -0.06    0.16
   1  -8   0   -0.22    0.27
  -1  -8   0   -0.29    0.28
   1  -8   0   -0.42    0.25
  -1  -8   0   -0.11    0.26
   1   8   0    0.13    0.16
   1   8   0   -0.06    0.16
  -1   8   0   -0.10    0.17
  -1  -8   1   32.17    2.23
  -1   8  -1   31.19    2.11
   1   8   1   29.57    2.14
  -1   8  -1   29.78    2.14
   1  -8  -1   31.64    2.14
   1  -8  -1   31.02    2.17
   1  -8   1   31.62    2.05
  -1   8   1   34.85    2.24
   1   8  -1   31.90    2.14
   1   8  -1   32.36    2.13
  -1  -8  -1   31.84    2.14
  -1   8   1   30.95    2.14
  -1  -8  -1   31.70    2.19
   1  -8   1   31.78    2.21
   1  -8  -2   14.94    1.07
  -1  -8   2   12.83    1.14
   1  -8  -2   15.96    1.22
   1   8   2   13.14    1.03
  -1   8  -2   13.24    0.96
  -1   8  -2   12.38    1.02
   1   8  -2   13.87    0.99
  -1  -8  -2   15.71    1.20
   1   8  -2   13.22    1.02
  -1   8   2   13.70    1.13
  -1   8   2   13.41    1.02
  -1  -8  -2   13.36    1.10
   1  -8   2   12.01    1.16
   1   8   3   -0.28    0.26
  -1   8  -3    0.16    0.21
  -1   8  -3    0.53    0.28
   1  -8  -3    1.05    0.48
  -1  -8   3    0.12    0.39
   1   8  -3    0.16    0.27
  -1   8   3    0.00    0.29
  -1  -8  -3    0.48    0.46
   1   8  -3   -0.25    0.25
   1  -8   3    0.56    0.41
  -1   8  -4    0.27    0.31
   1   8   4    0.55    0.33
   1  -8  -4    0.73    0.51
  -1  -8   4    0.99    0.48
   1   8  -4    0.72    0.34
  -1   8   4    1.04    0.37
   1  -8   4    0.47    0.44
   1   8  -4    0.53    0.33
  -1  -8  -4    1.14    0.53
  -1   8  -5    0.81    0.38
   1   8   5    0.54    0.39
  -1  -8   5   -0.18    0.49
   1  -8  -5    1.20    0.61
  -1   8   5    0.65    0.40
   1   8  -5    0.14    0.41
   1   8  -5    0.85    0.40
  -1  -8  -5    1.22    0.61
   1  -8   5    1.15    0.53
  -1   8  -6   13.82    1.17
  -1  -8   6   13.95    1.36
   1   8   6   13.50    1.21
   1  -8  -6   11.69    1.33
   1  -8   6   14.22    1.37
   1   8  -6   11.46    1.16
  -1   8   6   14.24    1.24
  -1  -8  -6   15.70    1.43
   1   9   0    0.07    0.20
  -1  -9   0    0.34    0.31
   1  -9   0    0.26    0.34
  -1   9   0    0.14    0.20
   1   9   0   -0.23    0.18
  -1  -9   0   -0.12    0.35
  -1   9   0    0.27    0.22
   1  -9   0    0.41    0.30
   1   9   1    0.44    0.23
  -1  -9   1   -0.12    0.36
   1  -9  -1    0.34    0.30
   1  -9  -1    0.53    0.40
  -1   9  -1    0.72    0.20
  -1   9   1    0.34    0.32
  -1   9   1    0.58    0.25
  -1  -9  -1   -0.02    0.35
   1   9  -1    0.70    0.23
  -1  -9  -1    0.27    0.39
   1  -9   1    0.12    0.37
   1   9  -1    0.79    0.23
   1   9   2    8.34    0.76
  -1   9  -2    8.03    0.76
  -1   9  -2    8.50    0.68
   1  -9  -2    8.62    0.88
  -1  -9   2    9.78    0.93
   1  -9   2    9.62    0.91
  -1   9   2    9.73    0.76
   1   9  -2    9.02    0.71
   1   9  -2    8.70    0.76
  -1  -9  -2    9.32    0.90
  -1  -9  -2    8.76    0.81
  -1   9  -3   29.54    2.01
   1  -9  -3   29.24    2.15
  -1   9  -3   29.27    2.08
   1   9   3   25.44    2.08
  -1  -9   3   32.15    2.20
  -1  -9  -3   30.75    2.16
  -1   9   3   28.34    2.09
   1  -9   3   28.77    2.18
   1   9  -3   29.37    2.07
   1   9  -3   33.12    2.06
  -1   9  -4    1.82    0.41
   1  -9  -4    1.39    0.60
  -1  -9   4    1.52    0.55
   1   9   4    2.33    0.46
   1   9  -4    3.06    0.44
   1   9  -4    1.68    0.41
   1  -9   4    2.10    0.57
  -1  -9  -4    2.43    0.64
  -1   9   4    1.40    0.42
   1  -9  -5    6.83    0.92
  -1  -9   5    4.65    0.80
   1   9   5    4.58    0.68
  -1   9  -5    6.84    0.70
   1  -9   5    5.21    0.82
  -1   9   5    4.91    0.68
  -1  -9  -5    4.82    0.86
   1   9  -5    6.39    0.69
   1   9   6    3.46    0.65
  -1  -9   6    2.86    0.75
   1  -9  -6    3.19    0.87
   1   9  -6    2.85    0.60
   1  -9   6    3.80    0.79
  -1   9   6    2.77    0.64
  -1  -9  -6    3.59    0.88
   1  10   0   -0.15    0.23
  -1  10   0    0.22    0.27
  -1  10   0    0.06    0.22
  -1 -10   0    0.22    0.41
   1 -10   0   -0.08    0.37
   1 -10   0   -0.44    0.33
  -1  10  -1   11.61    0.89
  -1 -10   1   11.65    1.12
   1 -10  -1   14.77    1.14
   1 -10  -1   12.59    1.08
   1  10   1   11.03    0.94
  -1  10  -1   11.43    0.96
  -1 -10  -1   12.44    1.11
   1  10  -1   12.42    0.95
   1  10  -1   11.25    0.92
   1 -10   1   11.53    1.11
  -1 -10  -1   12.54    1.16
  -1  10   1   12.55    0.95
   1 -10  -2   17.53    1.50
  -1  10  -2   18.59    1.34
   1  10   2   17.95    1.35
  -1 -10   2   16.53    1.49
  -1  10  -2   18.94    1.29
   1 -10   2   17.82    1.50
  -1 -10  -2   19.11    1.46
  -1 -10  -2   17.03    1.49
  -1  10   2   16.62    1.35
   1  10  -2   18.23    1.31
   1  10  -2   19.06    1.34
  -1  10  -3    0.84    0.34
  -1 -10   3    0.84    0.51
   1  10   3    1.21    0.37
   1 -10  -3    1.60    0.57
   1 -10   3    1.87    0.56
  -1 -10  -3    1.27    0.59
   1  10  -3    1.41    0.33
   1  10  -3    0.93    0.33
  -1  10   3    1.46    0.37
   1  10   4    1.16    0.43
  -1  10  -4    1.69    0.43
   1 -10  -4    2.29    0.68
  -1 -10   4    2.04    0.63
   1 -10   4    1.88    0.59
   1  10  -4    1.19    0.40
   1  10  -4    2.03    0.40
  -1 -10  -4    2.11    0.69
   1  10   5    0.11    0.42
   1 -10  -5    0.97    0.68
  -1 -10   5    0.18    0.58
  -1  10  -5   -0.03    0.39
   1 -10   5   -0.25    0.55
  -1 -10  -5    0.45    0.69
  -1  10   5    0.11    0.42
   1  10  -5   -0.18    0.38
   1  11   0   -0.35    0.25
  -1  11   0    0.02    0.30
  -1  11   0   -0.13    0.24
   1 -11   0    0.07    0.40
  -1 -11   0   -0.25    0.41
   1 -11  -1    0.34    0.42
  -1  11  -1    0.43    0.29
   1 -11  -1    0.24    0.39
   1  11   1    0.17    0.29
  -1 -11   1    0.61    0.47
  -1  11  -1    0.59    0.25
   1 -11   1    0.38    0.46
  -1 -11  -1    0.19    0.43
   1  11  -1    0.03    0.26
  -1  11   1    0.09    0.28
  -1 -11  -1    0.41    0.44
   1 -11  -2    1.90    0.58
  -1  11  -2    1.80    0.38
   1  11   2    1.84    0.40
  -1 -11   2    1.96    0.56
   1  11  -2    1.86    0.36
   1 -11   2    1.22    0.53
  -1 -11  -2    1.52    0.58
  -1  11   2    1.46    0.38
   1  11  -2    1.06    0.34
   1  11   3    4.82    0.69
  -1  11  -3    6.97    0.71
  -1 -11   3    6.09    0.86
   1 -11  -3    6.16    0.89
  -1  11   3    6.72    0.74
  -1 -11  -3    7.53    0.92
   1  11  -3    7.40    0.66
   1 -11   3    7.96    0.93
   1  11  -3    6.90    0.69
   1  11   4    5.44    0.73
  -1 -11   4    7.10    0.91
   1 -11  -4    8.82    1.00
  -1  11  -4    6.01    0.68
  -1 -11  -4    6.02    0.92
  -1  11   4    4.56    0.68
   1  11  -4    6.10    0.69
   1 -11   4    4.99    0.84
  -1 -11   5    2.77    0.75
  -1  11  -5    2.36    0.52
   1  11  -5    1.76    0.52
  -1  11   5    2.75    0.59
  -1 -11  -5    1.88    0.79
   1  12   0    0.00    0.28
   1 -12   0    0.23    0.46
  -1 -12   0   -0.16    0.45
  -1  12   0    0.40    0.29
  -1 -12   1    4.00    0.69
   1  12   1    2.62    0.47
  -1  12  -1    3.30    0.50
   1 -12  -1    3.66    0.62
  -1 -12  -1    4.07    0.66
   1  12  -1    3.00    0.44
  -1  12   1    3.38    0.49
   1 -12   1    4.14    0.69
  -1  12  -2    2.27    0.44
   1 -12  -2    2.37    0.63
   1  12   2    2.43    0.47
  -1 -12   2    3.26    0.67
  -1  12   2    2.23    0.46
   1  12  -2    1.98    0.40
   1 -12   2    2.87    0.65
  -1 -12  -2    1.64    0.62
   1  12   3    1.69    0.46
   1 -12  -3    3.35    0.73
  -1  12  -3    2.55    0.48
  -1 -12   3    2.27    0.67
  -1  12   3    3.02    0.51
   1  12  -3    3.09    0.50
   1 -12   3    2.29    0.66
  -1 -12  -3    3.03    0.74
   1 -12  -4    5.92    0.91
  -1  12  -4    3.86    0.60
  -1 -12   4    4.00    0.80
   1  12   4    3.54    0.64
  -1  12   4    4.25    0.66
  -1 -12  -4    4.86    0.88
   1  12  -4    3.29    0.57
   1 -12   4    3.09    0.78
   1  13   0    0.05    0.29
  -1  13   0    0.13    0.33
   1 -13   0    0.89    0.53
  -1 -13   0    0.38    0.53
  -1 -13   1    1.71    0.62
   1  13   1    0.76    0.36
  -1 -13  -1    1.17    0.56
   1 -13   1    1.20    0.61
  -1  13   1    1.90    0.41
   1  13  -1    1.18    0.36
   1  13   2    0.10    0.37
  -1  13  -2    0.87    0.43
   1 -13  -2   -0.04    0.57
  -1 -13   2    0.65    0.60
  -1  13   2    0.86    0.38
   1 -13   2    0.89    0.61
   1  13  -2    0.16    0.32
   1  13   3    5.26    0.72
  -1 -13   3    4.97    0.88
   1 -13  -3    5.35    0.90
  -1  13   3    5.66    0.73
  -1 -13  -3    5.95    0.92
   1 -13   3    5.41    0.91
  -1 -14   0    0.59    0.59
   1  14   0   -0.05    0.36
  -1 -14   1    2.19    0.71
   1  14   1    2.15    0.50
  -1  14   1    2.50    0.50
   1 -14   1    2.20    0.71
   1  14  -1    2.13    0.45
   1  14   2    0.34    0.42
  -1 -14   2   -0.20    0.62
   1 -14   2   -0.11    0.61
  -1  14   2   -0.28    0.40
   1  15   0   -0.33    0.38
  -1 -15   0    0.66    0.66
  -2   0   0  130.69    8.56
   2   0   0  136.15    8.62
   2   0   0  135.56    8.23
  -2   0   0  127.21    8.69
  -2   0   1   43.79    2.90
   2   0   1   42.82    2.82
  -2   0   1   44.46    2.98
   2   0   1   47.02    2.95
  -2   0  -1   45.53    2.95
   2   0   1   44.63    2.93
   2   0  -1   46.81    2.95
   2   0  -1   43.98    2.81
   2   0   2  223.86   14.35
   2   0   2  241.56   15.15
  -2   0   2  235.62   15.09
  -2   0   2  225.24   15.17
   2   0   2  234.10   14.94
   2   0  -2  234.56   14.32
   2   0   2  231.06   15.06
   2   0  -2  239.10   15.07
  -2   0   2  231.57   14.89
  -2   0   3   61.76    4.03
   2   0   3   61.31    4.03
   2   0  -3   58.78    3.82
   2   0   3   61.34    3.86
  -2   0   3   58.37    3.94
   2   0   3   62.00    4.01
   2   0   3   63.03    4.01
  -2   0   3   60.97    4.06
   2   0   4  202.39   12.93
   2   0   4  194.61   12.34
   2   0   4  198.63   13.00
   2   0  -4  190.67   12.28
  -2   0   4  197.14   12.76
   2   0   4  205.56   12.83
   2   0  -4  199.26   12.92
  -2   0   4  202.42   12.96
  -2   0   4  200.16   13.03
   2   0   5   17.56    1.31
   2   0   5   18.46    1.37
   2   0  -5   14.48    1.28
  -2   0   5   16.63    1.33
   2   0   5   16.20    1.39
   2   0   5   17.17    1.30
   2   0  -5   16.42    1.25
  -2   0  -6    8.77    0.92
   2   0  -6   10.15    0.88
  -2   0   6    7.85    0.90
   2   0   6    8.81    0.88
   2   0   6   10.18    0.96
  -2   0   7    4.72    0.72
  -2   0  -7    3.24    0.64
   2   0  -7    4.49    0.64
  -2   1   0  297.36   17.97
  -2   1   0  272.09   17.84
   2   1   0  254.10   17.85
  -2  -1   0  285.22   17.67
   2  -1   0  270.23   17.66
  -2  -1   0  280.50   17.95
   2   1   0  278.52   16.97
  -2  -1   1   65.78    4.57
  -2   1  -1   70.73    4.55
   2   1   1   65.05    4.33
  -2  -1   1   68.59    4.49
   2   1   1   69.00    4.52
   2  -1  -1   68.31    4.32
  -2   1   1   69.77    4.53
  -2  -1  -1   70.91    4.53
   2   1  -1   71.42    4.30
  -2   1   1   74.99    4.58
   2  -1   1   67.43    4.50
   2  -1   1   73.72    4.34
   2  -1   1   71.57    4.51
   2   1  -1   77.23    4.55
  -2  -1  -1   60.16    4.53
  -2   1  -2   93.13    6.13
   2   1   2   93.50    6.10
  -2  -1   2   92.87    6.04
  -2  -1   2   88.14    6.16
   2  -1  -2   93.05    5.83
   2   1   2   96.54    6.13
   2   1   2   92.98    5.85
   2  -1   2   96.81    6.10
  -2  -1  -2  100.30    6.10
   2   1  -2   95.62    5.80
   2  -1   2   86.40    5.82
   2  -1   2   91.88    6.07
  -2   1   2   93.59    6.01
   2   1  -2   97.53    6.12
  -2   1   2   92.63    6.16
   2  -1   2   96.89    6.15
  -2   1   2   92.77    6.12
   2   1   3   78.01    5.23
   2  -1  -3   76.49    5.00
  -2  -1   3   79.16    5.30
   2   1   3   81.91    5.26
  -2  -1   3   77.55    5.17
   2   1   3   80.99    5.04
   2   1   3   83.46    5.24
  -2   1   3   79.50    5.26
   2  -1   3   78.98    5.22
   2  -1   3   79.11    5.27
   2   1  -3   78.45    4.96
  -2   1   3   77.86    5.29
   2  -1   3   83.82    5.24
   2  -1   3   77.96    5.01
  -2   1   3   82.10    5.15
   2   1  -3   84.66    5.25
   2   1   4    2.88    0.39
   2  -1  -4    2.80    0.41
  -2  -1   4    3.49    0.45
   2   1   4    2.76    0.36
  -2  -1   4    2.95    0.38
   2   1   4    3.35    0.50
   2   1   4    3.45    0.47
   2  -1   4    3.04    0.42
   2  -1   4    3.65    0.42
   2  -1   4    3.17    0.40
   2   1  -4    3.56    0.42
   2  -1   4    3.53    0.45
  -2   1   4    2.90    0.43
   2   1  -4    3.23    0.38
  -2   1   4    2.73    0.41
  -2  -1   5   33.42    2.42
   2   1   5   38.93    2.48
   2   1   5   33.98    2.37
   2   1   5   33.87    2.38
   2  -1  -5   32.55    2.31
   2   1   5   34.31    2.40
   2  -1   5   33.47    2.40
  -2   1   5   33.28    2.42
   2   1  -5   32.99    2.37
  -2   1   5   32.67    2.40
   2  -1   5   35.13    2.34
   2  -1   5   34.47    2.43
   2  -1   5   35.68    2.40
  -2   1  -6    3.94    0.57
   2  -1  -6    4.48    0.58
   2   1   6    4.60    0.64
  -2  -1   6    3.64    0.62
   2   1  -6    4.15    0.58
  -2  -1  -6    4.30    0.68
  -2   1   6    4.12    0.62
  -2   1   6    3.42    0.61
   2  -1   6    3.61    0.58
   2  -1  -7   10.03    0.96
   2   1   7   10.32    1.11
  -2  -1   7    9.20    1.07
   2   1  -7    9.33    1.00
   2  -1   7   11.40    1.09
  -2   1   7   11.54    1.11
   2  -2   0  158.15   10.35
  -2   2   0  173.30   10.53
  -2  -2   0  157.67   10.36
   2   2   0  152.64    9.95
   2  -2   0  161.48    9.95
  -2   2   0  163.52   10.44
   2   2   0  169.78   10.46
  -2  -2   0  158.49   10.51
  -2  -2   1   20.03    1.33
   2   2   1   19.84    1.30
   2  -2  -1   19.18    1.29
   2  -2  -1   18.63    1.27
   2   2   1   20.23    1.31
  -2   2  -1   20.84    1.28
  -2   2  -1   19.52    1.31
  -2  -2   1   19.61    1.33
  -2   2   1   19.62    1.31
  -2  -2  -1   19.89    1.34
   2   2  -1   20.93    1.23
   2   2  -1   17.91    1.34
   2  -2   1   19.06    1.33
  -2   2   1   16.70    1.36
   2   2   2    0.58    0.21
   2   2   2    1.11    0.17
   2  -2  -2    1.05    0.22
  -2  -2   2    0.77    0.19
   2   2   2    1.06    0.14
  -2   2  -2    0.91    0.16
  -2   2  -2    1.00    0.17
  -2  -2   2    1.04    0.20
   2  -2   2    0.79    0.18
  -2  -2  -2    0.82    0.25
   2   2  -2    1.51    0.24
  -2   2   2    1.05    0.20
  -2   2   2    0.48    0.17
   2   2  -2    1.00    0.12
   2  -2   2    0.63    0.20
  -2  -2   3   41.91    2.77
   2  -2  -3   41.43    2.69
   2   2   3   42.20    2.78
   2   2   3   43.43    2.74
  -2   2  -3   43.87    2.77
   2  -2  -3   37.78    2.71
  -2  -2   3   43.72    2.84
   2   2   3   42.41    2.79
  -2   2   3   41.13    2.80
  -2  -2  -3   34.26    2.84
   2   2  -3   42.85    2.62
   2  -2   3   41.20    2.80
   2  -2   3   39.88    2.67
   2   2  -3   45.81    2.81
   2  -2   3   43.57    2.82
  -2   2   3   42.67    2.82
   2  -2  -4   33.47    2.33
   2   2   4   35.95    2.39
   2   2   4   34.34    2.39
  -2   2  -4   35.87    2.39
   2   2   4   36.14    2.40
  -2  -2   4   34.05    2.45
  -2  -2   4   33.86    2.38
  -2   2   4   34.37    2.43
   2  -2   4   35.30    2.42
  -2  -2  -4   30.71    2.49
   2  -2   4   37.17    2.33
  -2   2   4   34.13    2.41
   2  -2   4   37.04    2.43
   2   2  -4   35.42    2.26
   2   2  -4   38.41    2.42
  -2  -2   5   27.80    2.10
   2   2   5   29.94    2.03
   2  -2  -5   28.84    2.02
  -2   2  -5   28.17    2.02
   2   2   5   27.94    2.05
   2  -2   5   28.52    2.09
  -2   2   5   29.24    2.08
  -2  -2  -5   28.90    2.07
   2   2  -5   31.80    2.06
  -2  -2  -5   25.52    2.18
  -2   2   5   27.91    2.07
   2  -2   5   29.16    2.07
  -2   2  -6    8.74    0.88
   2  -2  -6    9.75    0.94
   2   2   6    9.39    0.94
  -2  -2   6    9.59    0.98
   2  -2   6    9.14    0.92
   2  -2   6    9.31    0.98
   2   2  -6    8.74    0.89
  -2  -2  -6    9.87    0.99
  -2   2   6    8.82    0.90
  -2   2   6    9.98    0.97
   2  -2  -7    3.64    0.60
   2   2   7    2.40    0.63
  -2  -2   7    3.27    0.67
  -2   2   7    2.84    0.65
  -2   2   7    3.02    0.62
   2   2  -7    2.70    0.61
  -2  -2  -7    2.89    0.73
   2  -2   7    3.69    0.64
  -2   3   0  173.58   11.16
   2   3   0  178.44   11.18
  -2   3   0  175.51   11.25
  -2  -3   0  166.12   11.08
   2  -3   0  176.71   11.07
   2   3   0  174.94   10.64
  -2  -3   0  171.54   11.23
   2  -3   0  166.13   10.64
  -2   3  -1  872.77   55.91
  -2  -3   1  855.88   55.92
  -2   3  -1  832.42   55.58
   2  -3  -1  878.98   52.85
   2  -3  -1  868.68   54.95
   2   3   1  872.13   55.66
  -2  -3   1  840.87   55.00
   2   3   1  872.17   52.87
   2  -3   1  876.54   52.87
   2   3  -1  863.71   52.80
  -2  -3  -1  858.93   54.99
  -2   3   1  852.68   55.58
   2  -3   1  867.54   55.00
  -2   3  -2   57.95    3.76
  -2   3  -2   49.73    3.73
  -2  -3   2   57.16    3.73
   2  -3  -2   57.48    3.60
  -2  -3   2   56.81    3.79
   2   3   2   57.93    3.74
   2   3   2   57.25    3.73
   2   3   2   57.20    3.63
  -2  -3  -2   64.76    3.75
   2  -3   2   61.05    3.58
   2   3  -2   49.04    3.78
   2  -3   2   55.71    3.74
  -2   3   2   54.34    3.75
  -2   3   2   61.88    3.80
  -2  -3   3   65.94    4.38
  -2   3  -3   54.41    4.30
   2   3   3   65.39    4.31
   2   3   3   67.41    4.20
   2  -3  -3   63.41    4.15
  -2   3  -3   68.45    4.34
  -2  -3   3   68.56    4.31
   2   3   3   68.66    4.33
   2   3  -3   74.13    4.37
  -2   3   3   68.83    4.37
  -2  -3  -3   59.74    4.31
  -2   3   3   65.55    4.34
   2  -3   3   62.03    4.11
   2  -3   3   64.40    4.32
   2   3  -3   68.20    4.05
  -2   3  -4    1.65    0.32
   2   3   4    1.65    0.27
   2   3   4    1.36    0.33
   2   3   4    1.66    0.42
   2  -3  -4    2.28    0.41
  -2  -3   4    1.70    0.35
  -2  -3   4    1.68    0.38
   2  -3   4    1.94    0.40
  -2  -3  -4    1.22    0.41
   2   3  -4    2.32    0.41
  -2   3   4    2.16    0.35
   2  -3   4    2.07    0.36
   2  -3   4    1.54    0.32
  -2   3   4    1.56    0.35
   2  -3  -5   21.43    1.63
  -2  -3   5   20.63    1.61
  -2  -3   5   22.81    1.65
  -2   3  -5   18.58    1.55
   2   3   5   22.98    1.60
  -2   3   5   21.45    1.61
  -2  -3  -5   22.21    1.67
   2  -3   5   21.58    1.62
   2   3  -5   21.64    1.61
   2  -3   5   20.92    1.64
  -2   3   5   21.59    1.61
  -2  -3   6    3.25    0.62
   2   3   6    3.06    0.57
   2  -3  -6    4.29    0.67
   2  -3   6    3.40    0.63
  -2   3   6    2.96    0.57
   2   3  -6    3.77    0.60
  -2  -3  -6    3.75    0.70
   2  -3   6    3.72    0.59
  -2   3   6    3.24    0.56
  -2  -3   7    5.55    0.85
  -2   3  -7    7.09    0.78
   2   3   7    6.73    0.87
  -2   3   7    6.57    0.85
   2  -3   7    5.49    0.80
  -2  -3  -7    6.65    0.95
   2   3  -7    6.14    0.81
   2   4   0   86.22    5.61
   2   4   0   91.44    5.61
   2  -4   0   83.85    5.35
  -2   4   0   87.78    5.64
  -2   4   0   86.26    5.58
   2  -4   0   82.62    5.56
  -2  -4   0   83.43    5.57
   2   4   0   87.58    5.35
  -2  -4   1    6.70    0.54
   2   4   1    6.03    0.48
   2  -4  -1    5.65    0.54
   2   4   1    6.98    0.59
  -2   4  -1    7.00    0.52
   2  -4  -1    6.59    0.51
  -2  -4   1    6.88    0.47
  -2   4  -1    6.33    0.46
   2   4   1    6.78    0.51
  -2  -4   1    6.97    0.60
   2  -4   1    7.24    0.56
  -2  -4  -1    6.77    0.59
  -2   4   1    5.24    0.59
  -2   4   1    7.23    0.51
   2  -4   1    6.90    0.58
   2   4  -1    6.80    0.53
   2   4   2    0.66    0.25
   2   4   2    0.66    0.12
  -2  -4   2    0.78    0.24
   2   4   2    0.75    0.17
   2  -4  -2    0.78    0.12
  -2  -4   2    0.67    0.22
  -2   4  -2    0.94    0.16
  -2   4  -2    0.89    0.19
   2  -4  -2    0.95    0.26
   2  -4   2    0.98    0.22
  -2   4   2    0.84    0.19
   2  -4   2    1.57    0.28
  -2  -4  -2    0.89    0.22
  -2   4   2    1.64    0.26
   2   4  -2    1.13    0.26
   2  -4  -3   60.19    3.82
  -2   4  -3   52.13    3.95
  -2  -4   3   62.11    3.95
   2   4   3   63.04    3.93
  -2   4  -3   61.78    3.97
   2   4   3   58.72    3.86
   2   4   3   59.61    3.96
  -2  -4   3   59.89    4.01
  -2   4   3   60.76    3.99
  -2   4   3   60.80    3.97
   2  -4   3   56.18    3.75
  -2  -4  -3   65.99    3.95
   2  -4   3   63.82    3.97
   2   4  -3   51.32    4.00
   2  -4  -4   60.85    3.81
   2   4   4   59.55    3.94
  -2   4  -4   60.25    3.94
  -2   4  -4   47.85    3.91
  -2  -4   4   57.27    3.92
  -2  -4   4   57.52    3.99
   2  -4   4   58.60    3.95
  -2   4   4   58.55    3.95
  -2  -4  -4   66.77    3.93
   2   4  -4   59.93    3.99
  -2   4   4   59.72    3.96
  -2  -4  -4   60.34    3.83
  -2  -4   5   25.69    1.99
  -2  -4   5   26.50    1.95
   2   4   5   26.17    1.94
  -2   4  -5   27.43    1.92
   2  -4  -5   26.40    1.95
  -2   4   5   26.34    1.95
   2  -4   5   27.45    1.99
  -2   4   5   27.05    1.94
   2   4  -5   26.80    1.97
  -2  -4  -5   28.64    1.98
  -2   4  -6    0.85    0.42
   2   4   6    1.14    0.45
  -2  -4   6    1.18    0.50
   2  -4  -6    0.98    0.54
  -2   4   6    0.66    0.43
  -2  -4  -6   -0.11    0.54
   2   4  -6    1.82    0.55
   2  -4   6    0.63    0.49
  -2   4   6    1.30    0.44
  -2  -4   7    2.43    0.64
  -2   4  -7    2.04    0.54
   2   4   7    1.84    0.59
   2  -4  -7    2.09    0.70
   2   4  -7    2.36    0.65
  -2   4   7    1.12    0.56
  -2  -4  -7    2.39    0.74
   2  -5   0   27.79    1.92
  -2  -5   0   28.64    1.94
  -2   5   0   28.85    1.93
   2   5   0   28.62    1.89
   2  -5   0   28.15    1.86
  -2   5   0   27.85    1.89
   2   5   0   29.56    1.91
  -2  -5   0   29.32    1.84
   2  -5  -1   50.44    3.42
  -2   5  -1   53.43    3.43
  -2  -5   1   51.90    3.49
  -2  -5   1   52.02    3.48
  -2   5  -1   53.20    3.49
   2  -5  -1   51.89    3.35
  -2  -5   1   51.82    3.27
   2   5   1   54.55    3.47
  -2   5   1   53.38    3.47
   2   5  -1   54.95    3.48
  -2   5   1   47.79    3.54
   2  -5   1   55.67    3.32
   2  -5   1   54.37    3.48
  -2  -5  -1   52.19    3.47
  -2  -5  -1   52.48    3.34
   2  -5  -2   54.53    3.47
  -2  -5   2   54.61    3.59
   2   5   2   52.20    3.54
  -2   5  -2   53.69    3.53
   2   5   2   55.30    3.59
  -2   5  -2   54.64    3.60
   2  -5  -2   53.07    3.50
  -2  -5   2   52.77    3.62
  -2   5   2   53.80    3.59
  -2  -5  -2   54.20    3.47
   2  -5   2   58.02    3.61
  -2  -5  -2   54.95    3.56
  -2   5   2   53.95    3.64
  -2  -5   3   77.89    5.18
  -2   5  -3   80.00    5.21
  -2   5  -3   87.57    5.17
   2   5   3   78.31    5.20
  -2  -5   3   78.55    5.25
   2  -5  -3   78.93    5.00
  -2  -5  -3   79.37    5.01
  -2   5   3   82.30    5.24
   2  -5   3   76.84    5.19
   2  -5   3   77.60    4.92
   2   5  -3   66.56    5.22
  -2   5   3   76.63    5.20
  -2  -5  -3   82.91    5.15
  -2   5  -4    1.88    0.36
  -2   5  -4    1.94    0.40
   2   5   4    1.98    0.39
  -2  -5   4    1.73    0.44
  -2  -5   4    2.18    0.46
   2  -5  -4    2.78    0.50
  -2  -5  -4    2.82    0.53
  -2   5   4    2.04    0.39
  -2  -5  -4    3.13    0.43
   2  -5   4    2.58    0.49
  -2   5   4    2.17    0.38
   2   5  -4    2.10    0.50
  -2  -5   5   10.41    1.07
   2   5   5   11.47    1.00
  -2  -5   5   10.81    1.09
  -2   5  -5   12.63    1.02
   2  -5  -5   13.91    1.19
  -2   5   5   11.88    1.01
   2   5  -5   10.65    1.10
  -2   5   5   12.90    1.05
   2  -5   5   12.80    1.12
  -2  -5  -5   12.32    1.13
  -2  -5   6    1.67    0.54
  -2   5  -6    2.04    0.48
   2  -5  -6    1.73    0.61
   2   5   6    1.17    0.48
  -2  -5  -6    2.94    0.69
  -2   5   6    1.63    0.49
   2  -5   6    2.94    0.61
   2   5  -6    1.62    0.58
   2   5   7    2.63    0.64
  -2  -5   7    2.53    0.66
  -2   5  -7    2.26    0.56
   2  -5  -7    2.27    0.75
  -2   5   7    1.71    0.56
   2  -5   7    2.02    0.68
   2   5  -7    2.04    0.69
  -2  -5  -7    1.71    0.77
  -2   6   0   72.29    4.75
   2  -6   0   70.59    4.70
  -2  -6   0   71.52    4.72
  -2  -6   0   72.41    4.51
   2   6   0   71.70    4.72
   2   6   0   76.08    4.73
  -2   6   0   72.20    4.70
   2  -6   0   69.85    4.52
  -2   6  -1    8.47    0.58
   2  -6  -1    8.04    0.76
   2   6   1    6.29    0.61
   2  -6  -1    8.54    0.67
  -2   6  -1    7.71    0.64
   2   6   1    8.11    0.63
  -2  -6   1    7.52    0.61
  -2  -6   1    7.38    0.74
   2  -6   1    9.04    0.75
   2  -6   1    8.16    0.66
   2   6  -1    8.98    0.64
  -2  -6  -1    9.99    0.75
  -2   6   1    8.64    0.63
  -2  -6  -1    7.81    0.72
   2   6  -1    8.06    0.63
  -2   6   1    8.49    0.77
  -2   6  -2    7.47    0.51
   2   6   2    6.74    0.57
  -2  -6   2    6.53    0.62
  -2  -6   2    7.46    0.68
   2  -6  -2    6.51    0.56
  -2   6  -2    6.91    0.59
   2  -6  -2    6.44    0.65
   2   6  -2    6.77    0.60
  -2   6   2    6.37    0.58
  -2   6   2    6.51    0.65
   2  -6   2    6.24    0.61
   2  -6   2    6.41    0.65
  -2  -6  -2    6.34    0.64
  -2  -6  -2    6.31    0.60
  -2  -6   3   42.99    2.93
   2  -6  -3   40.20    2.84
  -2   6  -3   45.30    2.84
   2   6   3   42.17    2.89
  -2  -6   3   42.29    2.94
  -2   6  -3   41.18    2.89
  -2  -6  -3   42.99    2.85
  -2   6   3   40.95    2.89
  -2  -6  -3   45.45    2.88
  -2   6   3   44.80    2.93
   2  -6   3   41.35    2.93
  -2   6  -4   60.21    3.97
   2  -6  -4   58.33    3.87
   2   6   4   60.29    3.98
  -2  -6   4   62.25    3.99
  -2  -6   4   60.28    4.03
  -2   6   4   55.83    3.97
   2   6  -4   49.53    3.99
  -2  -6  -4   59.50    3.87
   2  -6   4   61.52    4.01
  -2   6   4   63.33    4.00
  -2  -6   5   12.56    1.18
   2  -6  -5   13.64    1.28
  -2  -6   5   14.74    1.25
   2   6   5   13.44    1.12
  -2   6  -5   13.95    1.11
  -2  -6  -5   13.44    1.26
   2   6  -5   11.56    1.19
  -2   6   5   14.50    1.16
   2  -6   5   14.50    1.25
   2  -6  -6    2.53    0.66
  -2  -6   6    1.29    0.52
  -2   6  -6    1.52    0.46
  -2  -6   6    1.47    0.55
   2   6   6    0.73    0.45
   2   6  -6    1.04    0.55
   2  -6   6    0.86    0.55
  -2  -6  -6    1.11    0.64
   2  -6  -7    2.66    0.79
  -2   6  -7    1.75    0.54
   2   6   7    2.75    0.66
  -2  -6  -7    1.15    0.75
   2   6  -7    2.06    0.67
   2  -6   7    2.15    0.71
  -2   7   0   73.61    4.78
  -2  -7   0   72.87    4.54
   2   7   0   72.30    4.74
   2  -7   0   71.76    4.74
  -2  -7   0   70.04    4.75
   2  -7   0   71.24    4.55
   2   7   0   74.29    4.75
  -2   7   0   72.29    4.73
   2   7   1   85.00    5.56
  -2   7  -1   83.28    5.58
   2  -7  -1   86.81    5.35
   2  -7  -1   83.37    5.50
  -2  -7   1   83.53    5.56
  -2   7  -1   84.26    5.51
  -2  -7  -1   87.46    5.34
   2  -7   1   84.19    5.55
  -2  -7  -1   83.80    5.54
   2   7  -1   83.91    5.57
  -2   7   1   86.10    5.65
   2   7  -1   89.91    5.56
   2  -7   1   82.02    5.29
  -2   7   1   84.04    5.55
   2  -7  -2   28.80    1.85
   2   7   2   24.48    1.79
  -2   7  -2   27.02    1.81
  -2   7  -2   25.43    1.73
  -2  -7   2   25.20    1.88
   2  -7  -2   25.80    1.76
  -2  -7  -2   26.49    1.84
   2  -7   2   23.04    1.80
  -2   7   2   27.18    1.81
   2  -7   2   25.97    1.88
   2   7  -2   24.74    1.79
   2   7  -2   28.33    1.81
  -2  -7  -2   25.71    1.83
  -2   7  -3   20.76    1.39
  -2   7  -3   20.84    1.47
  -2  -7   3   20.38    1.57
  -2  -7   3   19.14    1.50
   2  -7  -3   21.50    1.57
   2   7   3   19.89    1.46
   2   7  -3   19.45    1.47
  -2   7   3   22.00    1.52
   2  -7   3   19.80    1.56
  -2  -7  -3   19.69    1.50
  -2   7   3   19.50    1.46
  -2  -7  -3   19.94    1.56
   2   7   4    1.69    0.39
   2  -7  -4    0.90    0.49
  -2  -7   4    1.12    0.41
  -2   7  -4    1.50    0.35
  -2  -7   4    1.56    0.49
   2   7  -4    1.00    0.38
  -2  -7  -4    1.87    0.53
   2  -7   4    0.72    0.44
  -2   7   4    1.27    0.38
  -2  -7   5    8.19    0.91
   2  -7  -5    9.29    0.96
  -2   7  -5    8.31    0.80
   2   7   5    7.82    0.82
  -2  -7   5    7.68    0.88
   2   7  -5    5.50    0.79
   2  -7   5    8.35    0.94
  -2  -7  -5    7.88    0.94
  -2   7   5    8.66    0.84
  -2   7  -6    1.52    0.48
  -2  -7   6    2.01    0.59
  -2  -7   6    2.79    0.65
   2  -7  -6    1.77    0.68
   2   7   6    1.42    0.48
   2  -7   6    1.69    0.61
  -2   7   6    1.83    0.52
   2   7  -6    1.02    0.55
  -2  -7  -6    1.81    0.70
   2  -8   0   35.58    2.48
   2   8   0   39.70    2.53
  -2  -8   0   39.25    2.48
  -2   8   0   38.13    2.58
  -2   8   0   37.67    2.52
   2  -8   0   35.84    2.58
  -2  -8   0   37.96    2.62
   2   8   0   38.18    2.55
   2  -8  -1    6.89    0.58
  -2  -8   1    5.55    0.64
   2   8   1    5.54    0.52
  -2   8  -1    5.19    0.53
   2  -8  -1    5.76    0.63
  -2   8  -1    5.06    0.46
   2   8  -1    5.95    0.54
   2  -8   1    5.96    0.54
  -2   8   1    6.60    0.67
   2  -8   1    4.54    0.61
  -2  -8  -1    5.92    0.62
   2   8  -1    5.62    0.52
  -2   8   1    5.60    0.52
  -2  -8  -1    5.73    0.61
   2   8   2    1.41    0.33
  -2   8  -2    2.24    0.26
  -2   8  -2    2.81    0.36
  -2  -8   2    2.59    0.48
   2  -8  -2    1.86    0.47
  -2   8   2    0.54    0.38
  -2  -8  -2    1.95    0.40
  -2  -8  -2    2.29    0.49
   2   8  -2    2.47    0.33
   2  -8   2    2.25    0.47
  -2   8   2    1.87    0.35
   2   8  -2    3.21    0.38
   2  -8  -3   10.37    0.97
  -2   8  -3    9.05    0.84
  -2  -8   3    9.67    0.97
   2   8   3   10.01    0.86
   2  -8   3   10.42    1.00
   2   8  -3   10.01    0.86
  -2  -8  -3   10.35    0.98
  -2   8   3   11.59    0.95
  -2  -8  -3   10.59    0.95
   2   8  -3    9.93    0.85
  -2   8   3    9.20    0.84
   2  -8  -4    9.92    0.97
  -2  -8   4    9.08    0.90
  -2   8  -4    9.13    0.81
  -2  -8   4    7.54    0.91
   2   8   4    7.97    0.79
  -2  -8  -4    8.90    0.96
   2   8  -4    8.91    0.82
  -2   8   4    7.85    0.82
   2  -8   4    9.07    0.94
  -2  -8   5    9.75    1.03
   2   8   5    8.41    0.91
   2  -8  -5    9.06    1.02
  -2  -8   5    9.60    0.98
  -2   8  -5    8.93    0.85
  -2  -8  -5    9.15    1.03
  -2   8   5    8.62    0.87
   2  -8   5    9.60    1.04
   2   8  -5    7.77    0.89
  -2  -8   6    5.44    0.82
  -2   8  -6    4.23    0.63
  -2  -8   6    5.46    0.79
   2   8   6    4.99    0.72
   2  -8  -6    5.58    0.90
  -2   8   6    3.99    0.66
   2   8  -6    3.05    0.66
  -2  -8  -6    5.31    0.90
   2  -8   6    3.75    0.78
   2  -9   0   55.51    3.62
  -2  -9   0   57.10    3.61
  -2   9   0   56.28    3.72
   2   9   0   54.25    3.73
   2  -9   0   54.93    3.77
  -2  -9   0   58.28    3.80
  -2   9   0   57.94    3.79
   2  -9  -1   22.49    1.68
   2   9   1   22.66    1.62
  -2   9  -1   23.73    1.57
  -2  -9   1   22.01    1.73
   2  -9  -1   22.27    1.65
  -2   9  -1   21.48    1.63
   2  -9   1   21.80    1.71
  -2   9   1   25.52    1.77
  -2  -9  -1   22.16    1.68
  -2  -9  -1   22.79    1.72
   2   9  -1   23.21    1.60
   2  -9   1   23.34    1.59
  -2   9   1   23.39    1.62
   2   9  -1   23.54    1.61
  -2  -9   2   14.33    1.24
   2   9   2   14.75    1.12
   2  -9  -2   14.28    1.26
  -2   9  -2   14.33    1.10
   2  -9   2   13.88    1.25
  -2  -9  -2   14.22    1.22
  -2   9   2   13.04    1.10
   2   9  -2   15.81    1.10
  -2  -9  -2   14.01    1.26
   2   9  -2   14.60    1.08
   2   9   3    9.54    0.89
  -2  -9   3   10.09    1.03
   2  -9  -3   10.30    1.03
  -2   9  -3   11.12    0.89
   2   9  -3   10.91    0.88
   2  -9   3   10.86    1.06
  -2   9   3   10.10    0.91
  -2  -9  -3    9.78    1.03
   2   9  -3   10.56    0.89
   2  -9  -4    0.88    0.56
   2   9   4    0.18    0.34
  -2   9  -4    0.73    0.35
  -2  -9   4    0.99    0.52
  -2  -9  -4    1.25    0.60
   2   9  -4    0.65    0.35
   2  -9   4    0.34    0.48
   2   9  -4    1.25    0.38
  -2   9   4    0.61    0.36
   2   9   5    6.60    0.86
  -2  -9   5    8.27    1.01
  -2   9  -5    9.00    0.86
   2  -9  -5    9.74    1.06
  -2  -9  -5    8.88    1.04
   2  -9   5    9.00    1.05
   2   9  -5    8.35    0.86
   2   9  -5    8.94    0.87
  -2   9   5    7.92    0.88
  -2  -9   6    1.04    0.66
  -2   9   6    1.19    0.50
   2  -9   6    0.72    0.64
   2 -10   0   17.23    1.33
   2 -10   0   16.19    1.36
  -2  10   0   17.59    1.25
   2  10   0   16.74    1.25
  -2  10   0   18.46    1.33
  -2 -10   0   16.34    1.40
  -2 -10   1    2.04    0.51
  -2  10  -1    1.86    0.37
   2 -10  -1    1.74    0.42
   2  10   1    2.56    0.39
  -2  10  -1    2.01    0.31
   2 -10  -1    2.53    0.50
  -2  10   1    2.99    0.54
  -2 -10  -1    2.73    0.51
   2 -10   1    2.65    0.51
  -2 -10  -1    2.44    0.53
  -2  10   1    2.01    0.36
   2  10  -1    2.59    0.37
  -2 -10   2    6.85    0.81
  -2  10  -2    5.96    0.63
   2 -10  -2    5.04    0.75
   2  10   2    7.02    0.68
   2  10  -2    7.29    0.64
   2 -10   2    6.39    0.79
  -2  10   2    5.90    0.65
  -2 -10  -2    6.86    0.73
   2  10  -2    6.72    0.63
  -2 -10  -2    6.31    0.78
   2  10   3    9.89    0.90
   2 -10  -3    9.54    1.02
  -2 -10   3    9.62    1.04
  -2  10  -3    9.72    0.86
  -2  10   3    9.45    0.90
   2  10  -3   10.31    0.86
  -2 -10  -3    9.57    1.04
   2  10  -3   10.44    0.88
   2 -10   3    9.74    1.04
   2  10   4   17.60    1.45
  -2  10  -4   17.60    1.41
  -2 -10   4   18.12    1.60
   2 -10  -4   17.54    1.57
  -2  10   4   17.68    1.46
   2  10  -4   18.72    1.43
  -2 -10  -4   20.35    1.63
   2  10  -4   19.66    1.42
   2 -10   4   19.03    1.61
  -2 -10   5    3.46    0.81
   2  10   5    4.57    0.69
   2 -10  -5    4.64    0.88
  -2  10  -5    5.51    0.68
   2  10  -5    6.47    0.72
   2  10  -5    5.25    0.67
  -2  10   5    5.39    0.73
  -2 -10  -5    5.56    0.93
   2 -10   5    5.70    0.88
  -2  11   0   12.45    1.06
   2 -11   0   12.71    1.11
  -2 -11   0   11.74    1.15
  -2  11   0   11.85    0.95
   2  11   0   11.40    0.94
   2 -11  -1    4.54    0.63
   2  11   1    3.58    0.50
  -2 -11   1    2.97    0.64
  -2  11  -1    4.36    0.52
   2 -11   1    4.74    0.68
   2  11  -1    3.84    0.48
  -2 -11  -1    3.94    0.63
  -2  11   1    3.55    0.49
   2 -11  -2   10.00    1.00
  -2  11  -2    9.28    0.86
  -2 -11   2    8.89    1.00
   2  11   2    8.96    0.85
   2  11  -2   10.49    0.83
   2 -11   2   10.53    1.05
  -2  11   2    9.39    0.86
   2  11  -2    8.76    0.84
  -2 -11  -2    8.62    0.94
  -2 -11  -2   10.15    1.02
  -2 -11   3    6.20    0.86
   2 -11  -3    6.93    0.90
  -2  11  -3    6.79    0.69
   2  11   3    6.22    0.72
   2  11  -3    6.30    0.68
   2 -11   3    6.22    0.87
  -2 -11  -3    7.45    0.92
   2  11  -3    6.64    0.68
  -2  11   3    6.38    0.72
  -2  11  -4    0.25    0.38
   2  11   4    0.90    0.40
  -2 -11   4    0.52    0.57
   2 -11  -4    0.57    0.64
   2 -11   4    0.07    0.56
   2  11  -4    1.20    0.41
  -2  11   4    0.99    0.45
   2  11  -4    0.51    0.37
  -2 -11  -4    0.43    0.66
  -2 -11   5    2.45    0.75
  -2  11   5    0.97    0.52
   2  11  -5    2.03    0.52
  -2  12   0   10.61    0.94
  -2 -12   0    7.52    0.94
   2 -12   0    8.35    0.90
   2  12   0    7.66    0.74
  -2  12  -1    1.13    0.39
   2  12   1    0.70    0.35
  -2 -12   1    1.56    0.57
   2 -12  -1    1.48    0.50
   2  12  -1    1.08    0.35
   2 -12   1    0.50    0.50
  -2  12   1    0.84    0.35
  -2 -12  -1    1.18    0.52
  -2  12  -2    0.52    0.37
   2  12   2    1.03    0.39
  -2 -12   2    0.54    0.54
   2 -12  -2    0.26    0.53
   2  12  -2    1.15    0.36
   2 -12   2   -0.03    0.52
  -2  12   2   -0.23    0.34
  -2 -12  -2    0.57    0.57
   2  12   3    6.78    0.79
  -2 -12   3    7.11    0.95
  -2  12  -3    6.31    0.73
   2 -12  -3    7.61    0.98
   2  12  -3    6.98    0.73
   2 -12   3    6.56    0.94
   2  12  -3    7.81    0.73
  -2 -12  -3    6.38    0.93
  -2  12   3    7.03    0.80
   2 -12  -4    4.07    0.84
  -2 -12   4    4.26    0.80
   2  12   4    3.46    0.62
  -2  12  -4    2.89    0.56
  -2 -12  -4    4.61    0.92
  -2  12   4    2.69    0.61
   2  12  -4    3.58    0.58
   2 -12   4    3.96    0.80
   2  13   0    6.59    0.73
   2 -13   0    7.46    0.89
  -2 -13   0    9.11    0.98
  -2  13  -1   16.00    1.31
  -2 -13   1   16.12    1.46
   2  13   1   14.86    1.22
   2 -13   1   15.01    1.43
   2  13  -1   15.13    1.21
  -2 -13  -1   15.49    1.44
  -2  13   1   15.89    1.24
  -2  13  -2    3.31    0.57
  -2 -13   2    4.82    0.80
   2  13   2    4.15    0.59
   2 -13  -2    3.49    0.74
   2  13  -2    4.84    0.57
  -2  13   2    3.36    0.58
   2 -13   2    4.82    0.83
   2 -13  -3    3.24    0.79
  -2 -13   3    3.35    0.77
   2  13   3    2.31    0.55
  -2  13  -3    1.93    0.51
  -2  13   3    2.70    0.57
   2 -13   3    3.09    0.75
   2  13  -3    2.84    0.50
  -2 -13  -3    1.27    0.74
  -2 -14   0    1.35    0.63
   2  14   0    0.99    0.39
  -2 -14   1    0.54    0.62
   2  14   1    0.49    0.41
   2  14  -1   -0.05    0.35
   2 -14   1    0.44    0.60
  -2 -14  -1    0.80    0.62
   2  14   2    0.24    0.43
  -2  14  -2   -0.36    0.42
  -2 -14   2   -0.16    0.60
  -2  14   2    0.06    0.46
   2  14  -2    0.23    0.38
   2 -14   2    0.90    0.66
  -3   0   0   -0.20    0.20
   3   0   0    0.16    0.19
  -3   0   0    0.01    0.16
   3   0   0    0.15    0.11
   3   0   1   62.85    3.98
   3   0  -1   62.43    3.95
  -3   0   1   60.41    4.09
  -3   0  -1   62.21    4.15
  -3   0   1   65.96    4.19
   3   0   1   63.08    4.15
   3   0  -1   64.55    4.14
  -3   0  -1   68.64    4.15
   3   0   1   62.76    4.12
   3   0   2  731.34   46.85
   3   0  -2  780.86   49.26
   3   0   2  786.53   48.77
   3   0  -2  756.47   46.81
  -3   0   2  745.46   49.57
  -3   0   2  761.03   48.70
   3   0   2  772.94   49.24
  -3   0  -2  777.44   49.53
   3   0  -3   21.62    1.44
  -3   0   3   20.97    1.53
   3   0  -3   21.85    1.49
  -3   0   3   21.36    1.44
   3   0   3   21.71    1.55
   3   0   3   23.31    1.48
   3   0   3   20.50    1.47
  -3   0  -3   20.41    1.46
   3   0  -4   60.40    3.95
  -3   0   4   59.20    4.02
   3   0   4   59.91    3.99
   3   0   4   63.30    3.97
   3   0   4   56.41    3.83
   3   0   4   58.27    3.96
   3   0  -4   58.37    3.77
   3   0   5    0.17    0.27
   3   0   5   -0.03    0.40
   3   0   5    0.42    0.38
  -3   0   5   -0.22    0.32
   3   0  -5    0.00    0.31
   3   0   5   -0.03    0.33
   3   0  -5   -0.01    0.28
  -3   0   6    5.70    0.74
   3   0  -6    6.50    0.70
   3   0   6    5.74    0.73
   3   0   6    6.34    0.82
  -3   0   7    1.40    0.56
   3   0  -7    2.06    0.50
   3  -1   0   -0.09    0.18
  -3   1   0    0.05    0.17
   3   1   0   -0.04    0.10
   3   1   0    0.03    0.15
  -3  -1   0   -0.07    0.12
   3  -1   0   -0.17    0.13
  -3  -1   0    0.04    0.17
   3  -1   0   -0.10    0.08
  -3  -1   1  383.92   25.79
   3   1   1  386.64   24.81
   3   1   1  412.37   26.06
  -3   1  -1  399.91   26.22
   3  -1  -1  393.70   24.79
  -3  -1   1  394.38   26.24
   3  -1   1  398.45   25.82
   3   1  -1  434.53   24.80
  -3   1   1  396.89   25.77
   3  -1   1  404.76   26.04
  -3  -1  -1  407.77   26.20
   3   1  -1  423.25   26.10
  -3  -1  -1  399.15   25.85
  -3   1   1  405.37   26.08
  -3   1   1  403.10   26.26
   3  -1   1  424.95   24.83
   3   1   2    2.57    0.33
   3   1   2    3.08    0.29
  -3  -1   2    2.20    0.31
  -3  -1   2    2.88    0.29
  -3   1  -2    3.03    0.30
   3  -1  -2    2.84    0.31
   3  -1   2    2.86    0.27
   3   1  -2    3.17    0.27
   3   1  -2    3.21    0.32
   3  -1   2    3.43    0.34
  -3  -1  -2    2.67    0.40
   3  -1   2    2.66    0.34
  -3   1   2    2.76    0.31
  -3  -1  -2    2.83    0.27
  -3   1   2    3.06    0.35
  -3   1   2    3.32    0.26
  -3  -1   3   40.85    2.75
   3   1   3   41.51    2.78
   3  -1  -3   42.47    2.69
   3   1   3   39.84    2.72
  -3  -1   3   40.41    2.84
  -3   1  -3   41.82    2.78
   3   1   3   40.20    2.78
   3  -1   3   41.12    2.70
  -3   1   3   43.26    2.71
   3   1  -3   41.83    2.65
   3  -1   3   39.39    2.81
  -3   1   3   41.92    2.81
  -3   1   3   40.21    2.84
   3   1  -3   43.61    2.80
  -3  -1  -3   46.16    2.85
   3  -1   3   44.79    2.78
  -3  -1   4   14.77    1.18
   3   1   4   14.94    1.09
  -3  -1   4   14.93    1.10
   3   1   4   15.24    1.17
   3   1   4   14.03    1.10
   3  -1  -4   14.29    1.14
  -3   1   4   13.68    1.14
   3  -1   4   14.94    1.12
  -3  -1  -4   15.68    1.25
   3  -1   4   15.02    1.11
   3   1  -4   15.04    1.11
  -3   1   4   13.40    1.17
   3  -1   4   14.91    1.14
   3   1  -4   15.89    1.09
   3  -1   4   15.09    1.20
  -3  -1   5   19.78    1.73
   3  -1  -5   21.74    1.67
   3  -1  -5   21.98    1.66
   3   1   5   25.67    1.72
   3   1   5   23.50    1.74
   3   1   5   23.81    1.66
  -3   1   5   23.09    1.73
   3  -1   5   24.12    1.70
   3  -1   5   22.28    1.77
   3   1  -5   24.97    1.69
   3  -1   5   21.97    1.68
   3  -1   5   22.85    1.70
  -3   1   5   21.10    1.73
  -3  -1  -5   27.47    1.85
   3   1   6    4.69    0.64
   3   1   6    5.19    0.73
   3  -1  -6    3.57    0.56
  -3   1  -6    5.16    0.60
  -3  -1   6    4.26    0.65
   3  -1   6    3.99    0.70
   3  -1   6    3.92    0.57
   3   1  -6    4.12    0.59
  -3   1   6    3.93    0.63
   3  -1  -7    0.48    0.44
  -3  -1   7    0.58    0.51
   3   1  -7    0.89    0.48
  -3   1   7    0.31    0.49
  -3   2   0   -0.04    0.07
   3   2   0   -0.09    0.09
  -3   2   0   -0.10    0.12
  -3  -2   0   -0.10    0.15
   3  -2   0   -0.10    0.11
   3   2   0    0.05    0.12
  -3  -2   0   -0.15    0.09
   3  -2   0   -0.18    0.13
  -3  -2   1   73.34    4.80
  -3   2  -1   74.84    4.86
  -3  -2   1   73.96    4.87
   3  -2  -1   73.82    4.62
   3   2   1   75.00    4.64
   3   2   1   77.08    4.82
  -3   2   1   76.81    4.83
   3   2  -1   74.34    4.87
  -3  -2  -1   70.39    4.83
   3  -2   1   74.62    4.81
   3   2  -1   77.76    4.60
   3  -2   1   68.18    4.65
  -3   2  -2  196.28   13.55
  -3  -2   2  202.88   13.68
  -3   2  -2  213.15   13.65
  -3  -2   2  207.14   13.44
   3   2   2  213.57   13.58
   3  -2  -2  212.53   12.94
   3   2   2  207.32   12.96
   3  -2   2  204.52   13.47
   3   2  -2  228.35   13.62
  -3  -2  -2  187.41   13.49
   3  -2   2  218.37   12.95
  -3   2   2  208.24   13.59
   3   2  -2  213.66   12.88
  -3   2   2  219.06   13.70
  -3  -2  -2  214.85   13.61
  -3   2  -3    6.04    0.48
   3   2   3    5.09    0.47
   3  -2  -3    5.60    0.53
   3   2   3    6.20    0.51
  -3   2  -3    5.53    0.50
  -3  -2   3    5.66    0.52
  -3  -2   3    5.00    0.54
   3   2   3    6.65    0.61
  -3   2   3    5.61    0.55
   3   2  -3    6.03    0.49
   3  -2   3    4.85    0.50
  -3   2   3    5.68    0.52
   3  -2   3    5.14    0.55
  -3  -2  -3    5.65    0.66
   3   2  -3    6.64    0.56
  -3  -2   4   63.35    4.16
   3   2   4   62.18    4.19
  -3   2  -4   64.76    4.21
  -3   2  -4   62.61    4.18
  -3  -2   4   63.35    4.28
   3   2   4   65.71    4.11
   3   2   4   64.44    4.21
   3  -2  -4   63.18    4.04
   3  -2   4   60.95    4.04
  -3   2   4   61.88    4.23
  -3  -2  -4   59.42    4.29
   3  -2   4   62.26    4.22
  -3   2   4   60.91    4.26
   3   2  -4   70.91    4.24
  -3  -2   5    0.69    0.38
   3  -2  -5    0.03    0.37
  -3   2  -5    1.03    0.33
   3   2   5    0.94    0.35
   3   2   5    0.14    0.40
  -3   2  -5    0.57    0.32
   3  -2   5   -0.25    0.34
  -3   2   5    0.42    0.34
   3  -2   5    0.98    0.42
  -3  -2  -5    0.83    0.59
  -3   2   5    0.16    0.34
   3   2  -5    0.60    0.33
  -3   2  -6    4.98    0.60
   3   2   6    5.45    0.69
  -3  -2   6    4.87    0.71
   3  -2  -6    5.10    0.68
  -3   2   6    3.68    0.65
   3   2  -6    5.05    0.67
  -3  -2  -6    5.71    0.77
   3  -2   6    4.95    0.74
  -3   2   6    4.77    0.68
  -3   2  -7   -0.08    0.43
   3   2   7    0.77    0.54
  -3  -2   7    0.22    0.54
   3  -2  -7    0.35    0.40
   3   2  -7   -0.89    0.41
  -3  -2  -7   -0.41    0.60
  -3   2   7    0.78    0.52
  -3   3   0   -0.08    0.07
   3  -3   0   -0.12    0.11
  -3   3   0   -0.21    0.11
  -3  -3   0   -0.06    0.09
   3   3   0    0.11    0.13
   3  -3   0    0.25    0.15
  -3  -3   0    0.12    0.16
   3   3   0   -0.11    0.09
  -3   3  -1  624.57   39.70
  -3   3  -1  613.68   39.42
   3   3   1  627.02   39.47
  -3  -3   1  600.62   39.06
   3  -3  -1  617.49   39.01
  -3  -3   1  603.74   39.71
   3   3   1  617.99   37.56
   3  -3  -1  627.98   37.54
   3   3  -1  592.22   37.49
   3  -3   1  610.57   39.07
  -3   3   1  610.33   39.47
   3  -3   1  578.80   37.57
  -3   3   1  588.91   39.75
  -3  -3  -1  656.27   39.08
   3   3   2    2.69    0.29
  -3  -3   2    2.40    0.33
  -3   3  -2    2.50    0.26
   3   3   2    2.87    0.37
  -3   3  -2    2.62    0.28
   3  -3  -2    2.45    0.34
  -3  -3   2    2.85    0.33
  -3   3   2    3.28    0.37
   3  -3   2    2.41    0.32
   3   3  -2    2.22    0.35
  -3   3   2    3.00    0.32
  -3  -3  -2    2.20    0.36
   3  -3   2    2.72    0.36
  -3  -3   3   33.90    2.41
   3   3   3   35.80    2.41
   3   3   3   35.25    2.37
  -3  -3   3   34.31    2.46
  -3   3  -3   36.92    2.42
   3   3   3   36.80    2.40
   3  -3  -3   34.53    2.35
   3  -3   3   35.15    2.32
   3   3  -3   37.84    2.23
  -3   3   3   34.30    2.42
   3  -3   3   35.23    2.45
  -3   3   3   37.39    2.47
   3   3  -3   37.61    2.47
  -3   3  -4   18.82    1.32
  -3  -3   4   18.85    1.40
   3   3   4   19.59    1.42
   3   3   4   17.90    1.32
  -3  -3   4   17.83    1.35
   3  -3  -4   17.60    1.37
   3  -3   4   18.20    1.30
  -3   3   4   17.62    1.37
  -3   3   4   16.88    1.33
   3   3  -4   19.73    1.39
   3  -3   4   17.68    1.41
  -3  -3  -4   14.41    1.43
  -3   3  -5   41.14    2.91
   3   3   5   42.93    2.94
   3  -3  -5   40.32    2.86
   3   3   5   43.99    2.96
  -3  -3   5   43.51    3.01
  -3   3   5   42.63    2.97
   3  -3   5   40.11    2.97
  -3  -3  -5   40.34    3.03
   3   3  -5   47.13    2.98
  -3   3   5   44.91    2.99
   3  -3  -6    8.07    0.86
  -3   3  -6    7.69    0.76
  -3  -3   6    7.52    0.88
   3   3   6    8.74    0.86
  -3   3   6    7.33    0.84
   3   3  -6    7.82    0.85
   3  -3   6    6.94    0.88
  -3   3   6    5.73    0.78
  -3  -3  -6    6.65    0.89
  -3  -3   7    0.02    0.52
   3   3   7   -0.06    0.52
  -3   3  -7   -0.24    0.41
  -3   3   7   -0.25    0.46
  -3  -3  -7   -0.10    0.63
  -3   3   7   -0.28    0.49
   3   3  -7    0.66    0.53
   3  -4   0    0.06    0.15
   3   4   0   -0.12    0.10
   3   4   0   -0.04    0.12
  -3   4   0   -0.05    0.09
  -3  -4   0    0.14    0.10
  -3  -4   0   -0.01    0.17
  -3   4   0   -0.05    0.13
   3  -4   0   -0.10    0.13
   3  -4  -1   31.15    2.00
  -3  -4   1   29.30    2.05
  -3   4  -1   30.76    2.05
  -3  -4   1   30.21    2.07
   3   4   1   28.96    2.00
   3   4   1   30.92    2.03
   3  -4  -1   31.21    2.00
  -3   4  -1   31.15    1.99
   3  -4   1   30.99    2.06
  -3   4   1   25.73    2.12
   3   4  -1   31.36    1.92
  -3  -4  -1   31.16    2.06
   3  -4   1   32.82    2.00
  -3   4   1   30.42    2.03
  -3   4  -2  142.15    9.09
  -3  -4   2  137.92    8.98
   3   4   2  140.86    9.04
  -3   4  -2  144.00    8.99
   3   4   2  139.41    8.67
   3  -4  -2  142.51    8.65
  -3  -4   2  132.75    9.11
   3   4  -2  135.92    9.08
  -3  -4  -2  147.75    8.99
  -3   4   2  138.13    9.14
   3  -4   2  132.33    8.64
  -3   4   2  136.75    9.05
   3  -4   2  138.08    8.99
  -3  -4   3   -0.09    0.25
   3   4   3   -0.06    0.17
   3  -4  -3   -0.01    0.27
  -3  -4   3   -0.03    0.23
   3   4   3    0.28    0.27
  -3   4  -3    0.19    0.20
  -3   4  -3    0.23    0.21
  -3   4   3   -0.30    0.21
   3  -4   3   -0.04    0.19
   3  -4   3    0.48    0.27
   3   4  -3    0.34    0.28
  -3  -4  -3   -0.15    0.26
  -3   4   3    0.36    0.23
   3  -4  -4   40.75    2.79
  -3   4  -4   45.11    2.85
  -3  -4   4   42.69    2.87
  -3  -4   4   40.93    2.92
  -3   4  -4   41.77    2.85
   3   4   4   43.07    2.86
   3   4   4   39.34    2.84
   3   4  -4   43.31    2.94
  -3   4   4   39.72    2.89
  -3  -4  -4   41.53    2.90
  -3   4   4   41.99    2.88
   3  -4   4   42.86    2.91
  -3   4  -5    0.70    0.34
   3   4   5    0.84    0.35
   3  -4  -5    0.94    0.44
  -3  -4   5    0.74    0.41
  -3  -4   5    0.73    0.40
   3  -4   5    0.49    0.42
  -3   4   5    0.72    0.35
  -3  -4  -5    0.87    0.50
   3   4  -5    0.31    0.40
  -3   4   5    0.64    0.35
  -3  -4   6    9.02    0.99
   3   4   6    9.28    0.94
   3  -4  -6    9.81    0.97
  -3   4  -6    8.40    0.86
  -3   4   6    8.87    0.93
  -3   4   6    7.36    0.89
  -3  -4  -6    9.05    1.01
   3  -4   6    8.83    0.98
   3   4  -6    8.65    0.96
  -3  -4   7    0.94    0.59
  -3   4  -7    0.81    0.47
   3   4   7    0.87    0.54
   3   4  -7    0.17    0.51
   3  -4   7    0.58    0.59
  -3   4   7    0.32    0.51
  -3  -4  -7    0.93    0.68
  -3  -5   0   -0.24    0.19
   3   5   0   -0.09    0.08
   3  -5   0   -0.11    0.17
  -3   5   0   -0.08    0.14
  -3   5   0   -0.09    0.10
   3   5   0    0.02    0.16
   3   5   0    0.12    0.14
   3  -5   0   -0.04    0.15
  -3   5  -1  227.62   14.53
  -3  -5   1  216.55   14.66
  -3  -5   1  221.74   14.45
  -3   5  -1  230.29   14.66
   3  -5  -1  227.28   13.89
   3  -5  -1  222.69   14.40
   3   5   1  224.13   13.91
   3   5   1  228.55   14.57
   3  -5   1  239.75   13.89
  -3  -5  -1  222.69   14.44
   3  -5   1  222.45   14.45
   3   5  -1  219.54   14.58
  -3   5   1  224.12   14.56
   3  -5  -2   38.40    2.48
  -3  -5   2   39.26    2.56
  -3   5  -2   40.14    2.53
   3   5   2   38.49    2.50
  -3   5  -2   37.38    2.45
  -3  -5   2   38.05    2.55
   3  -5  -2   40.44    2.44
   3   5   2   38.49    2.52
  -3   5   2   39.02    2.53
  -3   5   2   32.35    2.58
   3  -5   2   30.19    2.44
  -3  -5  -2   42.55    2.56
   3  -5   2   38.75    2.56
   3   5  -2   31.45    2.53
  -3   5  -3    1.01    0.27
  -3  -5   3    0.60    0.33
   3   5   3    0.92    0.27
  -3   5  -3    1.13    0.21
   3  -5  -3    1.74    0.39
   3   5   3    1.43    0.39
  -3  -5   3    0.94    0.32
   3   5  -3    1.76    0.38
  -3   5   3    0.75    0.29
  -3   5   3    1.25    0.31
   3  -5   3    1.17    0.27
  -3  -5  -3    1.27    0.34
   3  -5   3    0.87    0.33
  -3  -5   4    5.33    0.67
  -3   5  -4    5.82    0.60
   3   5   4    6.43    0.65
   3  -5  -4    6.32    0.71
  -3  -5   4    5.43    0.67
  -3  -5  -4    5.52    0.71
   3   5  -4    5.54    0.72
  -3  -5  -4    7.29    0.71
  -3   5   4    6.77    0.68
   3  -5   4    5.57    0.70
  -3   5   4    6.15    0.66
   3   5   5   27.01    1.85
  -3  -5   5   24.59    1.90
  -3   5  -5   25.72    1.80
  -3  -5   5   27.12    1.88
   3  -5  -5   23.82    1.85
   3  -5   5   25.46    1.91
  -3   5   5   25.34    1.86
   3   5  -5   22.49    1.90
  -3  -5  -5   26.32    1.90
  -3   5   5   21.61    1.81
   3  -5  -6    8.59    0.93
  -3   5  -6    7.74    0.78
   3   5   6    8.96    0.89
  -3  -5   6    6.29    0.85
  -3   5   6    5.80    0.79
   3   5  -6    6.36    0.89
  -3  -5  -6    7.84    0.95
   3  -5   6    7.34    0.92
   3  -5  -7    0.56    0.64
  -3  -5   7   -0.48    0.55
  -3   5  -7    0.56    0.47
   3   5   7    0.66    0.53
  -3  -5  -7    0.84    0.71
   3   5  -7   -0.77    0.55
  -3   5   7    0.58    0.49
   3  -5   7    0.94    0.64
   3   6   0   -0.02    0.09
  -3   6   0   -0.07    0.12
   3  -6   0   -0.27    0.17
  -3  -6   0   -0.03    0.20
  -3  -6   0    0.01    0.24
   3   6   0   -0.06    0.14
  -3   6   0    0.05    0.17
   3  -6   0   -0.04    0.19
   3  -6  -1   15.37    1.20
  -3  -6   1   15.87    1.16
  -3  -6   1   17.16    1.25
   3   6   1   16.85    1.15
  -3   6  -1   16.06    1.17
  -3  -6   1   16.20    1.09
   3   6   1   16.53    1.20
  -3   6  -1   16.68    1.10
   3  -6  -1   16.01    1.15
   3  -6   1   17.00    1.22
  -3   6   1   14.77    1.27
   3  -6   1   16.89    1.15
  -3  -6  -1   15.58    1.18
  -3   6   1   16.73    1.15
  -3  -6  -1   15.80    1.23
   3   6  -1   16.40    1.16
  -3  -6   2  168.11   11.07
  -3  -6   2  173.50   10.94
  -3   6  -2  170.85   11.06
   3   6   2  169.96   11.00
   3  -6  -2  174.34   10.52
   3   6   2  172.07   10.56
  -3   6  -2  169.34   10.93
  -3   6   2  172.00   11.00
  -3  -6  -2  172.24   10.91
   3  -6   2  174.89   10.94
   3   6  -2  142.59   11.00
  -3  -6  -2  170.23   10.51
   3  -6   2  171.48   10.51
  -3   6  -3    1.63    0.32
  -3  -6   3    2.04    0.40
   3   6   3    2.13    0.35
  -3  -6   3    1.84    0.43
   3  -6  -3    2.56    0.47
   3  -6   3    1.92    0.44
  -3  -6  -3    2.52    0.41
  -3  -6  -3    1.75    0.47
  -3   6   3    1.49    0.34
   3   6  -3    1.70    0.40
  -3   6   3    2.12    0.39
  -3  -6   4   24.76    1.81
   3  -6  -4   22.05    1.76
  -3  -6   4   23.06    1.80
  -3   6  -4   23.65    1.72
   3   6   4   24.32    1.74
  -3  -6  -4   25.53    1.79
  -3   6   4   23.07    1.74
  -3  -6  -4   24.02    1.80
   3   6  -4   22.19    1.79
  -3   6   4   26.67    1.80
   3  -6   4   24.74    1.83
   3   6   5    0.76    0.37
  -3  -6   5    0.94    0.46
   3  -6  -5   -0.05    0.47
  -3  -6   5    0.80    0.46
  -3   6  -5    0.00    0.33
  -3   6   5    0.43    0.39
  -3  -6  -5    0.64    0.53
  -3   6   5    0.48    0.38
   3  -6   5    0.35    0.45
   3   6  -5    0.48    0.47
  -3   6  -6    5.13    0.63
   3  -6  -6    4.96    0.78
   3   6   6    4.39    0.67
  -3  -6   6    3.74    0.70
  -3   6   6    3.71    0.63
  -3  -6  -6    3.80    0.80
   3  -6   6    5.09    0.78
   3   6  -6    3.90    0.75
  -3   6  -7    1.36    0.51
   3  -6  -7    0.61    0.70
   3   6   7    1.20    0.58
   3  -6   7    0.19    0.63
   3   6  -7    0.91    0.63
   3  -7   0   -0.05    0.21
  -3  -7   0    0.31    0.24
  -3   7   0    0.10    0.15
  -3   7   0    0.19    0.21
   3  -7   0   -0.11    0.23
  -3  -7   0    0.19    0.29
   3   7   0   -0.13    0.11
   3   7   0   -0.16    0.15
  -3   7  -1  152.56    9.88
  -3   7  -1  153.61    9.99
  -3  -7   1  150.70    9.88
   3  -7  -1  147.34    9.82
   3  -7  -1  153.35    9.50
   3   7   1  157.09    9.94
   3   7  -1  152.33    9.96
   3   7  -1  158.41    9.94
   3  -7   1  150.93    9.87
   3  -7   1  154.45    9.46
  -3   7   1  150.09   10.07
  -3   7   1  154.89    9.93
  -3  -7  -1  150.68    9.48
  -3  -7  -1  151.08    9.87
   3  -7  -2    2.31    0.45
  -3  -7   2    2.24    0.46
  -3   7  -2    2.14    0.33
  -3  -7   2    2.84    0.37
   3   7   2    1.91    0.33
  -3   7  -2    1.95    0.22
   3  -7   2    1.57    0.40
  -3   7   2    2.31    0.34
   3   7  -2    2.13    0.34
  -3  -7  -2    1.76    0.39
   3  -7   2    2.02    0.40
  -3   7   2    1.51    0.40
  -3  -7  -2    1.45    0.43
  -3  -7   3   12.00    1.05
  -3  -7   3   13.50    1.13
  -3   7  -3   13.74    0.99
   3  -7  -3   11.19    1.12
   3   7   3   12.05    0.99
   3  -7   3   12.62    1.11
  -3  -7  -3   13.87    1.11
  -3  -7  -3   13.54    1.14
  -3   7   3   11.50    1.00
   3   7  -3    9.64    0.99
  -3   7   3   14.93    1.13
   3  -7  -4    6.48    0.78
  -3  -7   4    5.82    0.72
  -3  -7   4    6.79    0.78
   3   7   4    7.10    0.71
  -3   7  -4    6.26    0.63
   3   7  -4    5.22    0.67
  -3   7   4    7.40    0.73
  -3  -7  -4    5.80    0.77
  -3   7   4    5.23    0.66
   3  -7   4    6.70    0.79
  -3   7  -5   11.00    0.99
   3   7   5   11.36    1.04
  -3  -7   5   11.69    1.13
   3  -7  -5   12.19    1.14
  -3  -7   5   11.55    1.10
   3   7  -5   10.99    1.08
   3  -7   5   12.46    1.18
  -3   7   5   10.63    1.04
  -3  -7  -5   12.18    1.15
   3   7   6    2.16    0.56
   3  -7  -6    3.56    0.74
  -3   7  -6    2.42    0.52
  -3  -7   6    2.10    0.63
   3  -7   6    1.53    0.64
  -3   7   6    2.27    0.57
   3   7  -6    1.86    0.61
  -3  -7  -6    2.61    0.74
  -3   8   0   -0.01    0.23
  -3  -8   0   -0.02    0.28
  -3   8   0   -0.40    0.16
   3   8   0    0.03    0.19
   3  -8   0    0.05    0.24
  -3  -8   0   -0.09    0.34
   3  -8   0   -0.28    0.26
   3  -8  -1   20.18    1.49
  -3   8  -1   21.26    1.37
  -3  -8   1   19.35    1.53
  -3   8  -1   19.35    1.43
   3  -8  -1   19.58    1.43
   3   8   1   19.22    1.41
   3   8  -1   20.62    1.40
   3  -8   1   20.48    1.40
  -3  -8  -1   18.75    1.53
   3   8  -1   20.53    1.43
  -3   8   1   19.83    1.57
  -3   8   1   20.14    1.41
  -3  -8  -1   19.49    1.47
   3  -8   1   19.17    1.50
  -3   8  -2   70.94    4.70
  -3  -8   2   68.53    4.71
   3   8   2   71.94    4.69
   3  -8  -2   75.34    4.56
   3  -8   2   67.95    4.70
  -3  -8  -2   69.77    4.53
   3   8  -2   71.62    4.69
  -3   8   2   67.88    4.68
   3   8  -2   71.51    4.68
  -3  -8  -2   70.42    4.69
  -3  -8   3    7.61    0.81
  -3  -8   3    7.25    0.74
   3   8   3    7.13    0.67
  -3   8  -3    7.11    0.67
   3  -8  -3    6.71    0.79
   3  -8   3    7.13    0.82
  -3   8   3    9.90    0.88
  -3  -8  -3    6.17    0.78
  -3   8   3    6.57    0.70
  -3  -8  -3    6.74    0.73
   3   8  -3    6.02    0.68
  -3  -8   4   21.25    1.59
   3   8   4   20.28    1.52
   3  -8  -4   19.80    1.61
  -3   8  -4   20.02    1.49
  -3  -8   4   20.44    1.63
  -3   8   4   20.89    1.54
   3  -8   4   19.63    1.64
  -3  -8  -4   22.88    1.65
   3   8  -4   16.73    1.48
  -3  -8   5    2.42    0.62
  -3  -8   5    1.56    0.53
   3   8   5    1.88    0.48
   3  -8  -5    0.72    0.59
  -3   8  -5    1.89    0.45
  -3  -8  -5    0.56    0.62
   3  -8   5    1.51    0.60
   3   8  -5    1.10    0.48
  -3   8   5    1.67    0.49
   3   8   6    0.37    0.47
  -3  -8   6    0.78    0.57
  -3  -8   6    0.86    0.60
   3  -8  -6    0.55    0.67
  -3   8  -6   -0.13    0.42
  -3  -8  -6   -0.47    0.67
   3  -8   6    0.00    0.58
   3   8  -6    0.10    0.49
  -3   8   6   -0.18    0.42
  -3   9   0   -0.37    0.25
   3  -9   0    0.38    0.33
  -3  -9   0   -0.39    0.37
   3  -9   0    0.39    0.32
   3   9   0   -0.24    0.23
  -3   9   0    0.02    0.19
  -3  -9   1   66.00    4.66
   3   9   1   67.89    4.62
  -3   9  -1   67.22    4.64
   3  -9  -1   67.90    4.58
   3  -9  -1   68.97    4.47
   3  -9   1   66.78    4.64
   3  -9   1   70.08    4.42
   3   9  -1   72.19    4.61
   3   9  -1   74.54    4.63
  -3   9   1   70.54    4.61
  -3   9   1   71.91    4.76
  -3  -9  -1   67.25    4.64
  -3  -9  -1   73.88    4.47
  -3  -9   2   -0.81    0.36
  -3   9  -2   -0.05    0.26
   3  -9  -2   -0.21    0.40
   3   9   2   -0.18    0.24
  -3   9   2   -0.01    0.28
  -3  -9  -2    0.22    0.43
   3   9  -2   -0.05    0.26
  -3  -9  -2    0.06    0.38
   3  -9   2   -0.22    0.35
  -3   9   2    0.27    0.41
   3   9  -2    0.22    0.24
  -3   9  -3    8.84    0.81
   3   9   3    9.42    0.84
   3  -9  -3   10.27    0.98
  -3  -9   3    9.02    0.95
  -3   9   3    8.81    0.84
  -3  -9  -3    7.65    0.86
   3   9  -3    8.59    0.82
   3  -9   3    9.73    0.99
  -3  -9  -3   11.12    1.02
   3   9  -3    8.33    0.83
  -3   9   3   11.44    1.01
  -3  -9   4    5.08    0.77
  -3  -9   4    5.64    0.72
   3   9   4    4.94    0.66
   3  -9  -4    4.76    0.77
  -3   9  -4    5.26    0.61
   3  -9   4    5.93    0.81
   3   9  -4    6.27    0.66
  -3   9   4    4.72    0.64
  -3  -9  -4    5.25    0.80
   3   9  -4    5.21    0.64
   3  -9  -5    2.47    0.72
  -3   9  -5    4.26    0.58
   3   9   5    5.01    0.67
  -3  -9   5    5.38    0.81
  -3  -9   5    2.67    0.64
  -3   9   5    2.89    0.61
   3   9  -5    2.85    0.59
   3  -9   5    5.54    0.81
  -3  -9  -5    4.28    0.81
  -3  -9   6    1.79    0.70
   3   9  -6    0.46    0.49
  -3 -10   0    0.62    0.44
  -3  10   0    0.02    0.24
   3 -10   0   -0.01    0.33
   3 -10   0    0.04    0.33
  -3  10   0   -0.27    0.29
   3  10   0    0.03    0.26
   3 -10  -1    8.72    0.83
  -3 -10   1    7.56    0.86
  -3  10  -1    7.61    0.75
   3  10   1    7.29    0.71
   3 -10   1    7.43    0.81
  -3 -10  -1    7.38    0.80
  -3 -10  -1    7.86    0.83
  -3  10   1    7.82    0.72
   3  10  -1    7.15    0.71
  -3  10   1    8.57    0.91
   3 -10  -2   55.74    3.61
   3  10   2   54.13    3.68
  -3 -10   2   53.29    3.74
  -3  10  -2   53.33    3.68
  -3  10   2   52.91    3.67
  -3  10   2   49.25    3.81
  -3 -10  -2   55.25    3.71
   3  10  -2   57.55    3.67
   3 -10   2   52.14    3.72
  -3 -10  -2   56.21    3.62
   3  10  -2   57.35    3.67
  -3  10  -3    3.58    0.49
  -3 -10   3    3.99    0.67
   3 -10  -3    3.51    0.66
   3  10   3    2.63    0.46
   3  10  -3    3.41    0.48
  -3 -10  -3    2.91    0.66
   3 -10   3    2.01    0.58
   3  10  -3    3.21    0.47
  -3  10   3    2.24    0.47
   3 -10  -4   12.61    1.15
  -3 -10   4    9.60    1.09
  -3  10  -4    8.91    0.91
   3  10   4    9.23    0.93
   3 -10   4   10.84    1.11
  -3  10   4    9.96    0.96
   3  10  -4   10.22    0.93
   3  10  -4   11.26    0.96
  -3 -10  -4    8.84    1.08
   3 -10  -5   -0.85    0.61
   3  10   5    0.27    0.41
  -3  10  -5   -0.08    0.39
  -3 -10   5    0.57    0.61
   3 -10   5    0.61    0.63
   3  10  -5    0.37    0.43
   3  10  -5   -0.02    0.42
  -3  10   5    0.25    0.41
  -3 -10  -5    0.53    0.68
  -3 -11   0    0.31    0.47
  -3  11   0   -0.32    0.33
   3 -11   0   -0.19    0.37
   3  11   0    0.06    0.28
   3 -11   0    0.22    0.36
  -3  11  -1   27.31    1.99
  -3 -11   1   28.74    2.11
   3  11   1   27.62    1.98
   3 -11  -1   30.81    2.03
  -3 -11  -1   28.60    2.09
   3 -11   1   22.39    2.04
  -3  11   1   28.50    1.97
  -3  11   1   26.68    2.17
   3  11  -1   29.30    1.97
   3  11   2    5.26    0.64
   3 -11  -2    6.07    0.78
  -3  11  -2    5.46    0.62
  -3 -11   2    5.26    0.77
   3  11  -2    4.85    0.58
  -3 -11  -2    6.22    0.79
  -3 -11  -2    4.93    0.71
  -3  11   2    5.12    0.62
   3 -11   2    5.86    0.78
   3 -11  -3   -0.03    0.54
  -3 -11   3    0.76    0.55
  -3  11  -3   -0.19    0.34
   3  11   3    0.11    0.35
   3  11  -3    0.07    0.33
  -3  11   3   -0.04    0.33
   3  11  -3   -0.09    0.30
   3 -11   3   -0.12    0.49
  -3 -11  -3   -0.93    0.55
   3  11   4    0.69    0.45
   3 -11  -4    1.99    0.68
  -3 -11   4    1.21    0.62
  -3  11  -4    0.46    0.41
  -3 -11  -4    1.53    0.70
   3  11  -4    1.26    0.45
   3 -11   4    1.44    0.64
  -3  11   4    1.27    0.48
   3  11  -4    1.31    0.43
   3  11  -5    2.15    0.56
   3  11  -5    2.68    0.57
  -3  11   5    2.65    0.62
  -3 -12   0    0.71    0.52
  -3  12   0   -0.10    0.41
   3 -12   0   -0.07    0.41
   3  12   0    0.58    0.33
  -3  12  -1    2.41    0.49
  -3 -12   1    3.67    0.69
   3 -12  -1    2.22    0.58
   3  12   1    3.35    0.50
   3 -12   1    3.55    0.63
   3  12  -1    3.47    0.50
  -3 -12  -1    3.22    0.65
   3 -12  -2   11.69    1.18
   3  12   2   12.44    1.05
  -3  12  -2   12.56    1.07
  -3 -12   2   11.61    1.23
   3  12  -2   14.53    1.07
  -3 -12  -2   12.47    1.18
   3 -12   2   11.32    1.21
  -3 -12  -2   12.10    1.20
  -3  12   2   11.69    1.06
  -3 -12   3   -0.10    0.55
   3  12   3    0.31    0.37
  -3  12  -3    0.49    0.40
   3 -12  -3    0.24    0.58
   3 -12   3    0.37    0.55
  -3 -12  -3   -0.23    0.63
  -3  12   3    0.26    0.41
   3  12  -3    0.91    0.40
  -3 -12   4    3.69    0.81
  -3  12  -4    4.02    0.62
   3 -12  -4    3.86    0.84
   3  12   4    4.73    0.70
   3  12  -4    4.20    0.63
   3  12  -4    4.38    0.61
  -3 -12  -4    2.82    0.85
  -3  12   4    3.42    0.66
   3 -12   4    4.16    0.83
   3  13   0    0.56    0.34
  -3 -13   0   -0.11    0.55
  -3  13  -1   22.59    1.69
  -3 -13   1   20.62    1.79
   3  13   1   22.76    1.65
   3  13  -1   20.96    1.61
  -3 -13  -1   21.13    1.80
   3 -13   1   20.53    1.78
  -3  13  -2    1.31    0.48
  -3 -13   2    1.92    0.66
   3  13   2    1.57    0.48
   3 -13  -2    3.08    0.70
   3 -13   2    1.62    0.65
   3  13  -2    2.66    0.50
  -3 -13   3   -0.79    0.57
   3  13   3    0.04    0.43
   3 -13  -3    0.01    0.62
  -3  13  -3    0.26    0.44
   3  13  -3    0.44    0.41
  -3  13   3    0.23    0.44
   3 -13   3    0.00    0.59
  -3 -13  -3    0.43    0.69
  -3 -14   0    0.01    0.59
   3  14   0    0.19    0.37
  -3 -14   1    0.91    0.66
   3  14   1    1.21    0.46
   3  14  -1    1.56    0.42
   3 -14   1    2.48    0.67
  -3 -14  -1    1.46    0.66
   3 -14  -2    3.07    0.76
  -3  14  -2    3.07    0.62
   3  14  -2    3.62    0.57
   3 -14   2    3.70    0.80
  -4   0   0  778.45   51.26
  -4   0   0  769.19   50.42
   4   0   0  826.64   48.47
   4   0   0  785.26   50.93
   4   0  -1    0.36    0.13
   4   0  -1    0.34    0.15
  -4   0   1    0.55    0.15
   4   0   1    0.46    0.09
  -4   0  -1    0.49    0.12
   4   0   1    0.70    0.20
  -4   0   1    0.46    0.18
  -4   0  -1    0.60    0.25
   4   0  -2  190.62   12.38
   4   0   2  188.02   11.82
   4   0   2  196.89   12.36
   4   0  -2  185.43   11.77
   4   0   2  191.85   12.31
  -4   0   2  196.01   12.49
  -4   0  -2  195.14   12.42
  -4   0   2  185.04   12.22
   4   0   3    0.62    0.28
   4   0  -3    0.31    0.21
   4   0  -3    0.37    0.20
  -4   0  -3    0.45    0.15
   4   0   3    0.32    0.16
  -4   0   3    0.40    0.23
  -4   0   3    0.41    0.16
   4   0   3    0.36    0.23
   4   0   4  116.13    7.56
   4   0   4  127.09    7.87
  -4   0  -4  114.34    7.86
   4   0  -4  120.74    7.87
   4   0   4  121.61    7.87
  -4   0   4  117.93    7.96
   4   0  -4  124.03    7.48
  -4   0  -5    0.33    0.27
   4   0   5   -0.03    0.42
   4   0   5    0.21    0.32
   4   0  -5    0.04    0.27
  -4   0   5    0.08    0.36
   4   0   5    0.63    0.40
  -4   0  -6    0.84    0.57
  -4   0   6    0.38    0.43
   4   0  -6    0.24    0.36
   4   0   6    0.07    0.45
   4   0  -7    1.29    0.49
  -4   0   7    1.13    0.57
  -4  -1   0    0.19    0.20
  -4   1   0    0.60    0.22
   4   1   0    0.01    0.11
  -4  -1   0    0.12    0.15
   4  -1   0    0.15    0.21
   4   1   0    0.26    0.18
  -4   1   0    0.66    0.23
   4   1   1   27.54    1.72
  -4   1  -1   26.07    1.74
   4   1   1   26.77    1.72
  -4  -1   1   24.91    1.75
   4  -1  -1   26.13    1.73
   4  -1  -1   25.24    1.69
  -4  -1   1   26.05    1.78
   4   1  -1   25.02    1.71
   4  -1   1   22.43    1.73
  -4  -1  -1   28.21    1.74
   4  -1   1   27.13    1.70
   4  -1   1   25.63    1.78
  -4  -1  -1   27.14    1.83
   4   1  -1   24.29    1.77
   4  -1  -2    3.11    0.35
  -4   1  -2    3.33    0.33
  -4  -1   2    2.79    0.36
   4   1   2    3.40    0.32
   4   1   2    2.66    0.36
  -4  -1   2    2.83    0.32
   4  -1  -2    3.26    0.33
   4  -1   2    3.36    0.29
   4  -1   2    3.39    0.40
  -4   1   2    3.45    0.39
   4   1  -2    3.08    0.31
  -4  -1  -2    3.57    0.29
   4  -1   2    3.70    0.40
  -4  -1  -2    2.47    0.46
  -4   1   2    3.12    0.31
   4   1  -2    3.16    0.35
   4   1   3    1.14    0.22
  -4   1  -3    1.37    0.21
   4   1   3    1.18    0.30
   4  -1  -3    1.03    0.27
   4  -1  -3    1.19    0.24
  -4  -1   3    1.18    0.23
  -4  -1   3    1.55    0.30
  -4   1   3    1.31    0.27
  -4  -1  -3    1.25    0.38
   4  -1   3    0.96    0.21
   4   1  -3    1.13    0.25
  -4   1   3    1.20    0.30
   4  -1   3    0.73    0.28
  -4  -1  -3    1.14    0.18
   4  -1   3    0.89    0.26
   4   1  -3    1.30    0.23
   4  -1  -4    0.17    0.29
  -4   1  -4    0.19    0.21
   4   1   4    0.00    0.31
   4   1   4    0.09    0.22
  -4  -1   4    0.21    0.31
   4  -1  -4   -0.32    0.24
  -4  -1  -4    0.31    0.41
   4   1  -4   -0.22    0.24
   4  -1   4    0.19    0.28
   4   1  -4   -0.21    0.22
  -4   1   4    0.09    0.31
   4  -1   4   -0.03    0.32
  -4  -1  -4   -0.11    0.18
   4  -1   4   -0.15    0.23
   4  -1  -5   60.72    4.12
  -4   1  -5   59.04    4.10
   4   1   5   60.42    4.05
   4   1   5   64.90    4.16
   4  -1  -5   60.68    3.96
  -4  -1   5   63.82    4.22
   4   1  -5   60.01    4.13
  -4  -1  -5   66.01    4.25
   4  -1   5   61.78    4.03
  -4   1   5   58.08    4.20
   4  -1   5   63.34    4.20
  -4  -1   6    1.28    0.50
   4   1   6    1.53    0.53
   4  -1  -6    0.47    0.35
  -4   1  -6    1.42    0.37
   4   1  -6    1.03    0.43
  -4   1   6    1.74    0.51
   4  -1   6    1.96    0.60
  -4  -1  -6    1.10    0.69
  -4  -1   7   29.19    2.25
   4  -1  -7   25.60    2.09
   4   1  -7   28.32    2.14
  -4   1   7   29.18    2.24
  -4  -1  -7   34.13    2.26
  -4  -2   0    1.22    0.25
   4   2   0    0.58    0.16
   4  -2   0    1.12    0.14
  -4  -2   0    1.31    0.19
   4  -2   0    1.19    0.24
  -4   2   0    1.16    0.24
   4   2   0    1.04    0.21
   4  -2   0    0.60    0.19
   4   2   1   12.85    0.96
  -4  -2   1   14.06    0.99
   4   2   1   14.32    0.93
  -4  -2   1   13.67    0.98
  -4   2  -1   14.65    0.95
   4  -2  -1   14.30    0.95
   4  -2   1   15.04    1.00
   4   2  -1   11.41    0.94
  -4   2   1   12.70    0.98
  -4   2   1   10.44    1.01
   4  -2   1   14.34    1.02
  -4  -2  -1   11.92    0.93
   4   2  -1   15.35    0.99
  -4   2   1   14.61    0.95
   4   2   2   22.53    1.46
  -4  -2   2   20.85    1.51
   4   2   2   21.41    1.47
  -4   2  -2   18.55    1.41
   4  -2  -2   20.96    1.45
  -4   2  -2   22.50    1.46
  -4  -2   2   20.81    1.48
   4   2  -2   21.15    1.50
   4  -2   2   23.57    1.48
   4  -2   2   20.46    1.51
  -4  -2  -2   21.03    1.41
   4   2  -2   22.12    1.40
  -4   2   2   21.46    1.47
  -4   2   2   22.37    1.54
  -4  -2  -2   22.75    1.59
  -4  -2   3    0.13    0.24
  -4  -2   3    0.09    0.21
   4   2   3   -0.22    0.21
   4   2   3    0.09    0.17
   4  -2  -3    0.18    0.24
  -4   2  -3   -0.18    0.15
   4   2  -3    0.05    0.15
   4   2  -3    0.32    0.24
   4  -2   3   -0.06    0.23
  -4   2   3    0.39    0.25
   4  -2   3    0.14    0.16
  -4  -2  -3    0.11    0.36
  -4   2   3   -0.04    0.21
   4  -2   3    0.29    0.21
  -4  -2  -3    0.19    0.12
  -4  -2   4  110.12    7.38
  -4   2  -4   98.32    7.24
  -4   2  -4  111.06    7.30
   4   2   4  113.49    7.29
   4   2   4  113.57    7.04
   4  -2  -4  110.86    6.96
  -4  -2   4  113.33    7.21
  -4  -2  -4  109.21    7.26
   4   2  -4  121.71    7.32
  -4  -2  -4  107.29    7.35
   4  -2   4  109.25    6.98
   4  -2   4  114.00    7.28
  -4   2   4  108.98    7.32
  -4   2   4  116.88    7.39
   4   2   5    0.00    0.39
  -4   2  -5    0.12    0.28
  -4  -2   5    0.06    0.37
   4   2   5    0.05    0.32
   4  -2  -5   -0.10    0.36
  -4  -2  -5    0.13    0.55
  -4   2   5   -0.10    0.32
  -4   2   5   -0.19    0.34
   4  -2   5   -0.39    0.37
   4   2  -5   -0.14    0.33
   4  -2   5   -0.18    0.36
   4   2   6    1.19    0.46
   4   2   6    1.17    0.56
  -4  -2   6    1.42    0.51
   4  -2  -6    0.85    0.37
  -4   2  -6    1.27    0.38
  -4   2   6    0.78    0.45
   4   2  -6    1.24    0.45
   4  -2   6    0.60    0.52
  -4  -2   7   -0.25    0.52
   4  -2  -7    0.18    0.38
  -4  -2  -7    0.20    0.63
  -4   2   7   -0.59    0.47
   4   2  -7   -0.07    0.48
  -4  -3   0    3.37    0.32
  -4   3   0    3.41    0.28
   4  -3   0    3.33    0.35
  -4  -3   0    2.82    0.37
   4   3   0    3.31    0.34
  -4   3   0    2.77    0.35
   4   3   0    3.05    0.33
   4  -3   0    3.12    0.34
  -4  -3   1    1.90    0.28
  -4   3  -1    1.57    0.22
   4  -3  -1    2.33    0.29
  -4  -3   1    1.79    0.25
   4   3   1    1.68    0.28
   4  -3  -1    1.82    0.21
   4   3   1    1.96    0.22
   4  -3   1    2.07    0.34
  -4   3   1    2.16    0.34
  -4   3   1    1.69    0.22
   4   3  -1    2.09    0.28
   4  -3   1    2.23    0.29
   4   3  -1    2.05    0.23
  -4  -3  -1    1.46    0.31
  -4  -3   2    0.95    0.24
   4   3   2    0.85    0.18
  -4   3  -2    0.65    0.11
   4  -3  -2    0.82    0.25
   4   3   2    1.19    0.27
  -4  -3   2    0.33    0.21
  -4   3  -2    0.83    0.19
  -4   3   2    0.79    0.21
   4  -3   2    0.76    0.25
  -4   3   2    0.51    0.25
   4   3  -2    0.50    0.16
   4   3  -2    0.96    0.26
   4  -3   2    0.60    0.24
  -4  -3  -2    0.74    0.29
   4   3   3   41.65    2.84
  -4   3  -3   44.69    2.89
   4   3   3   47.23    2.90
  -4  -3   3   41.52    2.95
  -4  -3   3   44.29    2.89
   4  -3  -3   40.88    2.80
  -4   3  -3   41.94    2.85
  -4  -3  -3   36.57    2.94
   4  -3   3   42.97    2.80
   4   3  -3   43.64    2.94
  -4   3   3   44.31    2.92
   4  -3   3   42.98    2.93
  -4   3   3   46.96    2.98
   4   3   4    3.43    0.55
  -4  -3   4    3.40    0.51
  -4   3  -4    3.40    0.41
   4  -3  -4    3.27    0.50
   4   3   4    3.88    0.46
  -4  -3   4    3.27    0.45
  -4   3   4    2.68    0.45
   4   3  -4    2.97    0.48
   4  -3   4    3.32    0.53
  -4  -3  -4    3.41    0.58
   4  -3   4    3.00    0.45
  -4   3   4    4.07    0.52
   4   3   5   62.29    4.22
  -4   3  -5   61.40    4.27
  -4  -3   5   63.27    4.38
   4  -3  -5   60.98    4.13
   4   3   5   67.87    4.32
  -4   3   5   64.31    4.37
  -4  -3  -5   66.99    4.39
  -4   3   5   60.40    4.32
   4  -3   5   65.35    4.34
   4   3  -5   67.06    4.34
   4  -3  -6   -0.05    0.45
  -4   3  -6   -0.35    0.33
  -4  -3   6    0.15    0.47
   4   3   6    0.87    0.55
   4   3   6    0.14    0.41
  -4   3   6    0.58    0.45
   4  -3   6    0.08    0.49
  -4   3   6    0.20    0.39
   4   3  -6    0.06    0.39
  -4   3  -7   26.09    1.90
   4  -3  -7   25.24    1.93
  -4  -3   7   24.56    2.06
   4   3  -7   26.35    1.98
  -4   3   7   24.01    2.02
  -4  -3  -7   26.97    2.13
   4   4   0    6.05    0.54
  -4   4   0    6.31    0.45
  -4  -4   0    5.46    0.55
   4  -4   0    5.99    0.56
  -4  -4   0    6.56    0.48
   4   4   0    5.84    0.49
  -4   4   0    6.20    0.56
   4  -4   0    5.70    0.55
   4  -4  -1    4.01    0.44
   4  -4  -1    4.79    0.42
   4   4   1    3.91    0.44
  -4   4  -1    4.31    0.42
   4   4   1    4.62    0.39
  -4   4  -1    4.38    0.31
  -4  -4   1    4.62    0.47
  -4  -4   1    4.50    0.45
  -4   4   1    4.46    0.39
  -4   4   1    4.92    0.53
   4  -4   1    4.91    0.51
   4  -4   1    4.63    0.45
  -4  -4  -1    4.47    0.48
   4   4  -1    4.60    0.40
   4   4  -1    3.47    0.41
  -4  -4   2   51.72    3.44
   4  -4  -2   51.53    3.33
   4   4   2   53.24    3.44
   4   4   2   51.03    3.35
  -4  -4   2   49.81    3.48
  -4   4  -2   52.43    3.45
  -4   4  -2   49.88    3.36
  -4  -4  -2   56.47    3.50
   4   4  -2   57.47    3.49
   4   4  -2   49.40    3.21
   4  -4   2   52.20    3.47
  -4   4   2   50.45    3.44
  -4  -4   3    0.47    0.28
   4  -4  -3    0.28    0.30
  -4  -4   3    0.31    0.28
   4   4   3    0.30    0.22
   4   4   3    0.34    0.31
  -4   4  -3    0.58    0.22
   4  -4   3    0.58    0.31
   4  -4   3    0.53    0.27
  -4   4   3    0.35    0.25
  -4   4   3    0.41    0.29
  -4  -4  -3    0.57    0.35
   4   4  -3    0.28    0.33
  -4   4  -4   77.07    5.10
   4   4   4   79.15    5.11
   4   4   4   75.79    4.97
  -4  -4   4   77.76    5.18
  -4  -4   4   77.22    5.07
   4  -4  -4   73.06    4.90
   4  -4   4   75.61    5.12
  -4   4   4   73.73    5.11
   4   4  -4   74.87    5.16
  -4   4   4   80.42    5.18
   4  -4   4   79.83    4.88
  -4   4  -5    0.26    0.31
   4  -4  -5    0.04    0.42
   4   4   5    0.10    0.33
  -4  -4   5    0.73    0.44
   4   4   5   -0.02    0.43
   4   4  -5    0.89    0.46
   4  -4   5    0.56    0.44
  -4  -4  -5   -0.04    0.48
  -4   4   5    0.46    0.38
  -4   4   5    0.54    0.35
  -4  -4   6    0.68    0.50
   4  -4  -6    0.57    0.50
  -4   4  -6    0.17    0.36
   4   4   6    1.02    0.45
   4  -4   6    0.41    0.52
  -4   4   6    0.27    0.45
  -4  -4  -6    0.61    0.57
  -4   4   6   -0.43    0.40
   4   4  -6    0.94    0.47
   4   4   7   -0.35    0.50
  -4  -4   7   -0.59    0.53
  -4   4  -7   -0.56    0.42
   4   4  -7    0.43    0.57
  -4  -4  -7    0.40    0.67
  -4   4   7    0.24    0.53
  -4   4   7    0.01    0.51
   4  -4   7   -0.08    0.60
  -4   5   0    0.47    0.21
   4  -5   0    0.75    0.21
  -4  -5   0    0.80    0.27
   4  -5   0    0.52    0.22
   4   5   0    0.54    0.20
  -4   5   0    0.71    0.14
  -4  -5   0    0.64    0.15
   4   5   0    0.43    0.18
   4  -5  -1   11.93    0.87
   4   5   1   11.03    0.91
   4   5   1   13.14    0.87
  -4  -5   1   11.73    0.97
  -4   5  -1   11.87    0.79
  -4  -5   1   12.04    0.89
   4  -5  -1   11.80    0.93
  -4   5  -1   12.10    0.89
   4  -5   1   11.80    0.94
  -4   5   1   12.02    0.85
  -4  -5  -1   13.54    1.00
  -4   5   1    8.58    1.00
   4  -5   1   12.17    0.93
   4   5  -1   10.69    0.83
   4   5   2    8.70    0.83
   4   5   2   10.40    0.75
  -4  -5   2    9.06    0.86
   4  -5  -2    9.69    0.86
  -4  -5   2    9.49    0.78
  -4   5  -2    9.26    0.75
   4   5  -2    9.22    0.77
  -4  -5  -2   10.57    0.90
   4  -5   2    9.23    0.85
  -4   5   2    9.04    0.74
   4  -5   2    8.37    0.84
  -4  -5   3   -0.17    0.28
   4   5   3    0.46    0.32
   4   5   3    0.45    0.25
  -4   5  -3    0.38    0.24
   4  -5  -3    1.21    0.36
  -4  -5   3   -0.02    0.31
   4   5  -3    0.52    0.32
   4  -5   3    0.66    0.34
  -4   5   3    0.81    0.34
   4  -5   3    0.69    0.29
  -4   5   3    0.33    0.27
  -4  -5  -3    0.63    0.36
   4   5   4    0.51    0.31
  -4  -5   4    0.59    0.39
  -4  -5   4    0.41    0.39
   4   5   4    0.55    0.42
  -4   5  -4    0.93    0.31
   4  -5  -4    0.45    0.41
   4  -5   4    0.34    0.39
  -4   5   4    0.77    0.39
  -4  -5  -4    0.97    0.45
   4   5  -4    0.43    0.42
  -4   5   4   -0.08    0.32
   4   5   5   19.29    1.42
   4   5   5   17.76    1.53
  -4   5  -5   17.78    1.36
  -4  -5   5   18.34    1.47
   4  -5  -5   18.92    1.47
  -4  -5   5   17.13    1.46
   4  -5   5   17.30    1.50
  -4  -5  -5   19.37    1.51
  -4   5   5   18.10    1.46
   4   5  -5   15.17    1.43
  -4   5   5   17.95    1.43
   4   5   6   -0.10    0.41
  -4   5  -6    0.21    0.38
   4  -5  -6   -0.04    0.51
  -4  -5   6   -0.45    0.47
  -4   5   6   -0.48    0.41
  -4   5   6   -0.12    0.43
  -4  -5  -6    0.72    0.59
   4  -5   6    0.16    0.52
   4   5  -6   -0.53    0.47
  -4   5  -7   22.90    1.68
   4  -5  -7   21.70    1.88
   4   5   7   22.41    1.79
   4  -5   7   19.50    1.86
  -4  -5  -7   22.60    1.90
   4   5  -7   18.03    1.78
  -4   6   0   52.91    3.51
   4   6   0   52.37    3.41
   4   6   0   53.33    3.51
   4  -6   0   52.13    3.53
  -4   6   0   55.17    3.59
  -4  -6   0   53.29    3.57
   4   6   0   55.46    3.55
   4  -6   0   53.53    3.41
   4   6   1    5.42    0.57
  -4  -6   1    5.02    0.57
  -4   6  -1    5.53    0.41
   4  -6  -1    5.77    0.49
  -4  -6   1    5.22    0.49
   4  -6  -1    5.20    0.55
  -4   6  -1    6.00    0.52
   4   6   1    5.03    0.49
   4  -6   1    5.36    0.53
   4   6  -1    6.29    0.51
   4  -6   1    5.54    0.56
  -4   6   1    5.82    0.49
  -4  -6  -1    4.74    0.56
   4   6  -1    5.11    0.50
  -4   6   1    3.52    0.58
  -4  -6   2   52.51    3.62
  -4  -6   2   53.28    3.63
   4   6   2   57.47    3.60
  -4   6  -2   53.85    3.60
   4  -6  -2   54.08    3.50
   4   6   2   56.02    3.53
  -4  -6  -2   55.59    3.62
  -4   6   2   53.85    3.59
  -4   6   2   42.85    3.67
   4  -6   2   58.73    3.51
   4  -6   2   55.41    3.63
  -4   6  -3    0.26    0.26
   4  -6  -3    0.16    0.36
   4   6   3    0.14    0.25
  -4  -6   3    0.43    0.33
   4   6   3   -0.26    0.33
  -4  -6   3    0.04    0.36
   4   6  -3   -0.16    0.31
   4  -6   3    0.54    0.28
  -4   6   3   -0.25    0.23
  -4  -6  -3    0.09    0.37
  -4   6   3    0.36    0.35
   4  -6   3   -0.64    0.31
  -4  -6   4   53.88    3.88
   4  -6  -4   53.69    3.70
  -4  -6   4   55.60    3.82
   4   6   4   55.78    3.78
   4   6   4   57.56    3.83
  -4   6  -4   55.86    3.80
   4  -6   4   57.09    3.87
  -4  -6  -4   62.31    3.85
  -4  -6  -4   56.02    3.72
  -4   6   4   58.26    3.90
   4   6  -4   59.76    3.87
  -4   6   4   53.04    3.82
   4   6   5    0.29    0.37
  -4   6  -5   -0.15    0.32
   4  -6  -5   -0.15    0.47
  -4  -6   5    0.29    0.45
  -4  -6   5    0.05    0.44
   4  -6   5   -0.15    0.46
   4   6  -5   -0.50    0.42
  -4  -6  -5    0.14    0.52
  -4   6   5    0.15    0.40
  -4   6   5   -0.07    0.38
   4  -6  -6    0.37    0.56
  -4   6  -6    0.53    0.41
   4   6   6    1.27    0.47
  -4  -6   6    0.84    0.56
   4   6  -6    0.57    0.54
  -4   6   6    0.69    0.47
  -4  -6  -6    0.06    0.61
   4  -6   6    0.85    0.59
   4  -6  -7    0.20    0.65
   4   6   7    0.09    0.55
   4   6  -7   -0.54    0.58
  -4   7   0    0.17    0.25
   4  -7   0   -0.07    0.25
  -4   7   0    0.12    0.17
  -4  -7   0    0.08    0.25
  -4  -7   0    0.14    0.32
   4  -7   0    0.17    0.23
   4   7   0    0.16    0.21
   4  -7  -1    3.40    0.48
  -4  -7   1    3.33    0.37
   4   7   1    2.96    0.38
  -4   7  -1    2.97    0.39
  -4  -7   1    3.13    0.48
   4  -7  -1    3.19    0.37
   4   7   1    2.86    0.45
   4   7  -1    3.17    0.39
  -4   7   1    2.81    0.35
  -4   7   1    2.71    0.52
  -4  -7  -1    3.26    0.50
   4  -7   1    3.55    0.43
   4  -7   1    2.75    0.43
   4  -7  -2    0.31    0.36
  -4  -7   2    0.32    0.27
   4   7   2    0.30    0.25
  -4   7  -2    1.08    0.28
  -4  -7   2    0.83    0.39
   4   7   2    0.61    0.37
   4  -7   2    0.81    0.35
  -4   7   2    0.53    0.39
  -4   7   2    0.52    0.25
   4   7  -2    0.33    0.26
  -4  -7  -2    1.35    0.40
   4  -7   2    1.17    0.37
   4   7   3    2.53    0.41
  -4  -7   3    2.42    0.46
   4  -7  -3    2.74    0.51
  -4   7  -3    2.54    0.39
  -4  -7   3    1.74    0.48
  -4   7   3    2.59    0.52
   4  -7   3    1.97    0.50
  -4   7   3    2.36    0.40
  -4  -7  -3    2.62    0.50
   4   7  -3    1.56    0.41
  -4  -7  -3    2.72    0.55
   4   7   4    0.09    0.29
  -4   7  -4    0.44    0.31
   4  -7  -4    0.20    0.45
  -4  -7   4    0.60    0.42
  -4  -7   4    0.18    0.44
   4  -7   4    0.34    0.44
  -4   7   4    0.88    0.41
  -4  -7  -4   -0.13    0.47
  -4  -7  -4    0.38    0.42
  -4   7   4    0.11    0.34
   4   7  -4    0.60    0.36
   4  -7  -5   33.11    2.48
  -4  -7   5   36.38    2.56
   4   7   5   36.18    2.53
  -4  -7   5   35.37    2.57
  -4   7  -5   35.55    2.47
  -4   7   5   32.81    2.50
   4   7  -5   34.99    2.52
  -4   7   5   38.09    2.58
   4  -7   5   33.53    2.58
  -4  -7  -5   33.61    2.51
  -4   7  -6    0.69    0.44
   4   7   6    0.40    0.43
  -4  -7   6   -0.64    0.51
   4  -7  -6    0.25    0.59
   4   7  -6    0.85    0.51
   4  -7   6    0.26    0.57
  -4  -7  -6    0.58    0.66
  -4   7   6    0.30    0.49
  -4   8   0   -0.05    0.18
   4  -8   0    0.42    0.27
  -4  -8   0    0.36    0.38
   4  -8   0    0.40    0.31
  -4   8   0    0.39    0.28
   4   8   0    0.78    0.26
  -4  -8   0    0.79    0.31
   4   8   1    8.79    0.72
   4  -8  -1    8.96    0.82
  -4   8  -1    8.83    0.77
   4  -8  -1    6.69    0.74
  -4  -8   1    8.32    0.85
   4   8  -1    9.54    0.71
  -4   8   1    7.99    0.90
   4  -8   1    8.96    0.81
   4  -8   1    8.41    0.81
  -4  -8  -1    8.36    0.79
  -4  -8  -1    9.16    0.86
  -4   8   1    8.44    0.71
   4   8  -1    8.44    0.72
   4  -8  -2    6.82    0.74
  -4  -8   2    6.32    0.75
   4   8   2    7.10    0.66
  -4   8  -2    5.41    0.61
  -4  -8   2    7.02    0.67
  -4   8   2    6.14    0.78
  -4  -8  -2    6.62    0.74
   4  -8   2    7.92    0.77
   4  -8   2    6.90    0.75
  -4   8   2    6.85    0.65
  -4  -8  -2    6.49    0.74
   4   8  -2    6.30    0.65
   4   8   3    0.30    0.30
   4  -8  -3    0.36    0.42
  -4   8  -3    0.54    0.30
  -4  -8   3    0.08    0.42
  -4  -8   3    0.51    0.37
  -4  -8  -3   -0.25    0.38
   4  -8   3    0.32    0.41
  -4  -8  -3    0.18    0.47
  -4   8   3    0.44    0.39
   4   8  -3   -0.15    0.27
  -4   8   3    0.12    0.31
   4   8   4   29.49    2.12
  -4  -8   4   30.40    2.17
   4  -8  -4   28.89    2.13
  -4   8  -4   29.29    2.08
  -4  -8   4   29.74    2.20
  -4   8   4   30.42    2.12
  -4   8   4   31.82    2.22
   4  -8   4   30.37    2.22
   4   8  -4   24.74    2.09
  -4  -8  -4   28.45    2.14
   4   8   5    0.35    0.42
  -4  -8   5    0.40    0.50
   4  -8  -5    0.10    0.53
  -4   8  -5   -0.54    0.35
  -4  -8   5   -0.39    0.51
   4  -8   5    0.38    0.53
  -4  -8  -5    0.59    0.60
  -4   8   5   -0.16    0.41
   4   8  -5   -0.41    0.37
  -4  -8   6    0.55    0.59
   4   8   6    0.06    0.44
   4  -8  -6    0.44    0.65
  -4   8  -6    0.08    0.43
   4   8  -6   -0.42    0.48
   4  -8   6    0.38    0.62
  -4   8   6    0.70    0.48
  -4  -8  -6    0.95    0.72
  -4   9   0   -0.20    0.28
  -4  -9   0   -0.33    0.39
   4   9   0    0.03    0.26
   4  -9   0   -0.46    0.28
   4  -9   0    0.06    0.31
   4   9   1    4.67    0.52
   4  -9  -1    4.52    0.60
  -4   9  -1    5.64    0.56
  -4  -9   1    3.16    0.60
   4  -9   1    4.53    0.54
   4   9  -1    4.42    0.52
  -4  -9  -1    3.75    0.58
  -4   9   1    4.18    0.47
  -4  -9  -1    4.54    0.65
  -4   9   1    3.82    0.65
   4  -9   1    4.80    0.60
   4  -9  -2    2.25    0.52
  -4  -9   2    1.89    0.52
  -4   9  -2    2.26    0.39
   4   9   2    1.32    0.36
  -4  -9  -2    1.86    0.50
   4  -9   2    1.81    0.48
  -4   9   2    2.02    0.39
   4   9  -2    1.92    0.35
  -4   9   2    1.76    0.55
  -4  -9  -2    1.89    0.52
   4   9  -2    2.11    0.40
  -4   9  -3    0.28    0.31
  -4  -9   3    0.29    0.39
   4  -9  -3   -0.17    0.44
  -4  -9   3    0.04    0.44
   4   9   3    0.15    0.31
  -4  -9  -3    0.08    0.44
  -4   9   3   -0.08    0.33
  -4  -9  -3   -0.29    0.47
  -4   9   3    0.33    0.43
   4   9  -3    0.50    0.34
   4  -9   3    0.12    0.42
   4   9   4    0.31    0.38
  -4  -9   4    0.70    0.47
   4  -9  -4    0.71    0.52
  -4  -9   4    0.81    0.54
  -4   9  -4    0.33    0.36
  -4   9   4   -0.01    0.40
   4   9  -4    0.07    0.33
   4  -9   4    0.28    0.50
  -4  -9  -4    0.25    0.57
   4   9   5   21.63    1.61
  -4   9  -5   18.56    1.51
  -4  -9   5   20.49    1.65
   4  -9  -5   17.58    1.63
  -4  -9   5   21.75    1.72
  -4   9   5   20.29    1.59
   4   9  -5   16.63    1.53
  -4  -9  -5   18.75    1.69
   4  -9   5   20.74    1.73
  -4  -9   6    0.88    0.69
   4   9  -6    0.35    0.51
  -4 -10   0   11.74    1.15
   4  10   0   11.86    0.98
   4 -10   0   11.94    1.07
   4 -10   0   12.23    1.05
  -4  10   0   14.63    1.12
  -4  10  -1   -0.17    0.29
   4 -10  -1    0.42    0.39
  -4 -10   1    0.22    0.45
   4  10   1    0.25    0.27
  -4 -10  -1    0.40    0.45
  -4  10   1   -0.15    0.42
  -4  10   1   -0.18    0.28
   4  10  -1    0.02    0.29
   4 -10   1    0.35    0.37
  -4  10  -2   15.77    1.26
   4 -10  -2   16.71    1.38
   4  10   2   16.43    1.27
  -4 -10   2   16.30    1.42
  -4 -10  -2   15.49    1.41
  -4 -10  -2   13.90    1.40
   4 -10   2   15.49    1.38
  -4  10   2   16.26    1.25
   4  10  -2   17.15    1.25
  -4  10   2   18.01    1.51
   4 -10  -3    0.41    0.50
  -4  10  -3   -0.10    0.32
  -4 -10   3    0.60    0.50
   4  10   3   -0.05    0.33
   4  10  -3   -0.06    0.31
  -4  10   3    0.25    0.35
   4 -10   3    0.01    0.45
  -4 -10  -3   -0.13    0.46
   4  10  -3    0.23    0.35
  -4 -10  -3    0.30    0.55
  -4 -10   4   13.18    1.29
   4 -10  -4   14.75    1.29
  -4  10  -4   12.82    1.10
   4  10   4   12.18    1.12
   4  10  -4   10.93    1.09
   4 -10   4   14.07    1.32
  -4  10   4   13.01    1.12
   4  10  -4   13.16    1.12
  -4 -10  -4   13.64    1.31
   4  10   5   -0.08    0.45
  -4  10  -5   -0.11    0.40
   4 -10  -5    0.38    0.62
  -4 -10   5   -0.48    0.59
  -4 -10  -5    0.66    0.70
   4  10  -5    0.20    0.43
   4 -10   5   -0.08    0.58
  -4  10   5   -0.36    0.40
   4  10  -5    0.23    0.45
   4  11   0    0.31    0.32
   4 -11   0    0.67    0.39
  -4  11   0   -0.12    0.38
  -4 -11   0    0.26    0.48
   4 -11   0    0.21    0.38
  -4 -11   1    0.80    0.52
   4  11   1    0.71    0.35
  -4  11  -1    0.15    0.35
   4 -11  -1    0.70    0.45
   4 -11   1    0.22    0.41
   4  11  -1    0.79    0.35
  -4 -11  -1    0.97    0.51
  -4  11   1    1.14    0.54
   4  11   2    0.55    0.33
  -4 -11   2   -0.33    0.48
  -4  11  -2    0.18    0.35
   4 -11  -2   -0.20    0.48
   4  11  -2    0.55    0.36
   4 -11   2    0.28    0.45
  -4  11   2   -0.17    0.54
  -4 -11  -2    0.17    0.49
  -4  11   2    0.55    0.36
  -4 -11  -2   -0.65    0.50
   4 -11  -3    0.90    0.57
  -4 -11   3    0.53    0.53
  -4  11  -3    0.50    0.39
   4  11   3    1.19    0.39
  -4  11   3    0.86    0.42
   4  11  -3    0.46    0.38
   4 -11   3    0.70    0.53
  -4 -11  -3   -0.10    0.57
  -4 -11   4    0.23    0.58
  -4  11  -4    0.05    0.39
   4  11   4    0.52    0.45
   4 -11  -4   -0.23    0.58
  -4 -11  -4    0.32    0.66
   4  11  -4    0.36    0.42
  -4  11   4   -0.46    0.42
   4  11  -4    0.22    0.40
   4 -11   4    0.04    0.57
   4  11  -5    5.39    0.74
   4  12   0    1.50    0.40
  -4 -12   0    0.96    0.57
  -4  12   0    1.18    0.50
   4  12   1    0.60    0.38
  -4  12  -1    0.16    0.39
  -4 -12   1    0.92    0.56
   4 -12  -1    1.23    0.51
  -4  12   1    0.30    0.57
  -4 -12  -1    0.63    0.55
   4 -12   1    1.55    0.52
   4  12  -1    1.41    0.40
  -4  12  -2    5.00    0.64
  -4 -12   2    4.84    0.80
   4  12   2    5.25    0.67
   4 -12  -2    5.37    0.79
   4 -12   2    5.05    0.78
  -4 -12  -2    4.51    0.76
   4  12  -2    5.03    0.63
   4 -12  -3   -0.33    0.58
   4  12   3   -0.26    0.39
  -4 -12   3   -0.71    0.53
  -4  12  -3    0.15    0.40
   4 -12   3    0.18    0.54
  -4 -12  -3   -0.34    0.63
  -4  12   3   -0.01    0.41
   4  12  -3    0.23    0.39
  -4 -12  -4    6.03    1.00
   4  12  -4    6.25    0.75
  -4  12   4    5.26    0.77
  -4  13   0    0.09    0.52
   4  13   0    0.47    0.40
  -4 -13   0    0.39    0.59
   4  13   1    0.06    0.38
  -4 -13   1   -0.29    0.56
   4 -13  -1    0.39    0.49
  -4  13  -1   -0.21    0.41
  -4 -13  -1    0.33    0.57
   4 -13   1    0.46    0.50
   4  13  -1    0.25    0.38
  -4 -13   2   -0.02    0.58
   4  13   2    0.60    0.44
   4 -13  -2    0.15    0.57
  -4  13  -2   -0.07    0.42
   4 -13   2    0.90    0.58
  -4 -13  -2    0.37    0.59
   4  13  -2    0.61    0.43
   4 -13  -3    0.47    0.64
  -4  13  -3    0.16    0.45
   4  13  -3    0.54    0.45
   4 -13   3    0.47    0.62
  -4 -14   0    2.42    0.75
   4  14   0    1.88    0.51
  -4 -14   1    0.00    0.60
   4  14   1   -0.13    0.42
  -4  14  -1    0.06    0.51
   4  14  -1    0.16    0.38
  -4 -14  -1    0.77    0.66
   4 -14  -2    2.34    0.71
   4 -14   2    2.19    0.71
   4  14  -2    2.64    0.55
  -5   0   0   -0.16    0.17
  -5   0   0    0.23    0.22
   5   0   0   -0.24    0.17
   5   0   0    0.05    0.10
   5   0   1   67.34    4.36
   5   0   1   67.33    4.26
   5   0  -1   68.58    4.22
  -5   0  -1   63.42    4.45
  -5   0   1   68.06    4.37
   5   0  -1   67.89    4.40
  -5   0  -1   70.19    4.42
  -5   0   1   63.60    4.46
  -5   0  -2  443.62   28.78
  -5   0   2  450.81   28.86
   5   0   2  444.19   28.61
   5   0   2  449.86   27.30
   5   0  -2  427.65   27.23
  -5   0  -2  456.46   28.41
  -5   0   2  427.14   28.31
   5   0  -2  450.52   28.65
   5   0   3    0.65    0.31
   5   0  -3    1.03    0.26
  -5   0   3    0.94    0.30
   5   0  -3    1.02    0.24
  -5   0  -3    1.04    0.39
   5   0   3    0.84    0.21
   5   0   3    0.75    0.28
  -5   0  -3    1.06    0.19
  -5   0  -4   34.15    2.43
  -5   0   4   32.63    2.40
   5   0  -4   35.13    2.23
   5   0  -4   34.44    2.32
   5   0   4   32.92    2.42
   5   0   4   30.72    2.30
  -5   0  -4   33.47    2.26
   5   0   4   34.04    2.30
  -5   0   5    0.89    0.44
   5   0  -5    0.56    0.31
  -5   0  -5    1.01    0.52
   5   0   5    1.36    0.45
   5   0   6   10.37    1.05
  -5   0   6    9.03    1.01
  -5   0  -6    9.39    1.09
   5   0  -6    8.55    0.89
  -5   0   7    0.88    0.59
   5   0  -7    0.84    0.43
   5   1   0   -0.11    0.10
   5  -1   0    0.02    0.10
  -5  -1   0   -0.22    0.21
  -5  -1   0   -0.14    0.16
  -5   1   0    0.17    0.20
   5   1   0    0.03    0.18
   5  -1   0    0.14    0.21
  -5   1   0    0.10    0.24
  -5  -1   1  149.09    9.53
   5   1   1  148.96    9.42
  -5   1  -1  145.87    9.49
   5  -1  -1  146.87    9.43
   5   1   1  156.40    9.06
   5  -1  -1  141.34    9.00
  -5  -1   1  147.48    9.36
   5   1  -1  147.63    9.03
   5   1  -1  130.78    9.46
   5  -1   1  136.08    9.39
   5  -1   1  142.57    9.39
  -5  -1  -1  156.25    9.43
   5  -1  -2   17.93    1.17
   5   1   2   16.43    1.13
  -5  -1   2   16.91    1.24
   5  -1  -2   15.26    1.16
   5   1   2   16.60    1.21
  -5  -1   2   15.49    1.18
  -5   1  -2   16.57    1.15
   5  -1   2   18.00    1.22
  -5   1   2   17.56    1.27
  -5  -1  -2   16.39    1.13
  -5  -1  -2   15.00    1.35
   5  -1   2   16.70    1.25
   5   1  -2   16.73    1.14
  -5   1   2   16.60    1.14
   5  -1   2   16.54    1.11
   5   1  -2   16.63    1.19
   5   1   3    0.58    0.29
   5  -1  -3    0.74    0.22
   5   1   3    0.41    0.19
  -5   1  -3    0.37    0.18
  -5  -1   3    0.42    0.22
  -5  -1   3    0.54    0.28
   5  -1  -3    0.90    0.27
   5  -1   3    0.56    0.18
   5  -1   3    0.76    0.31
  -5  -1  -3    0.66    0.16
  -5  -1  -3    0.43    0.42
   5   1  -3    0.26    0.24
  -5   1   3    0.93    0.31
   5  -1   3    0.74    0.28
   5   1  -3    0.85    0.23
   5   1   4   43.74    2.74
  -5  -1   4   40.82    2.83
   5  -1  -4   40.98    2.74
   5   1   4   39.57    2.73
   5  -1  -4   40.04    2.65
  -5   1  -4   39.04    2.70
   5  -1   4   39.12    2.71
   5   1  -4   40.31    2.75
  -5  -1  -4   37.35    2.90
  -5   1   4   42.42    2.84
   5  -1   4   39.40    2.82
  -5  -1  -4   39.37    2.68
   5  -1  -5   50.81    3.37
   5  -1  -5   52.31    3.25
  -5  -1   5   47.46    3.47
   5   1   5   49.42    3.35
  -5   1  -5   48.69    3.34
   5   1  -5   48.73    3.38
  -5   1   5   49.04    3.47
   5  -1   5   49.76    3.33
   5  -1   5   52.25    3.48
  -5  -1  -5   48.67    3.54
   5  -1  -6    7.65    0.80
  -5  -1   6    7.64    0.93
   5   1   6    6.73    0.93
  -5  -1  -6    8.09    1.10
   5  -1   6    7.65    0.91
  -5   1   6    7.76    0.92
   5  -1   6    7.84    0.99
   5   1  -6    8.51    0.84
   5  -1  -7    0.88    0.47
  -5  -1   7    0.65    0.57
   5   1   7    1.09    0.66
  -5   1  -7   -0.03    0.71
   5   1  -7    0.43    0.48
  -5   1   7    0.02    0.53
   5   2   0    0.41    0.20
   5   2   0   -0.22    0.10
   5  -2   0   -0.10    0.19
   5  -2   0    0.15    0.16
   5  -2   0   -0.16    0.09
  -5   2   0   -0.15    0.20
  -5  -2   0    0.22    0.15
  -5  -2   0    0.18    0.22
   5  -2  -1   34.63    2.28
   5   2   1   35.86    2.34
  -5  -2   1   35.03    2.37
   5   2   1   38.02    2.32
  -5   2  -1   34.42    2.37
   5  -2  -1   33.38    2.33
  -5  -2   1   36.00    2.40
   5  -2   1   33.85    2.38
   5  -2   1   40.20    2.35
   5   2  -1   39.40    2.38
   5   2  -1   32.40    2.28
  -5  -2  -1   32.96    2.35
  -5   2   1   34.15    2.44
  -5   2   1   37.03    2.36
  -5   2  -2  251.61   15.91
   5  -2  -2  249.31   15.82
   5   2   2  254.84   15.82
   5  -2  -2  244.88   15.08
   5   2   2  250.35   15.13
  -5  -2   2  236.32   15.67
  -5  -2   2  248.61   15.96
  -5   2   2  231.52   15.99
  -5  -2  -2  260.96   15.76
   5  -2   2  250.10   15.14
   5  -2   2  244.85   15.72
  -5  -2  -2  251.12   15.87
   5   2  -2  226.40   15.87
  -5   2   2  245.80   15.61
   5   2  -2  227.21   15.06
  -5   2   2  239.73   15.84
  -5   2  -3   17.69    1.22
  -5  -2   3   17.97    1.32
   5  -2  -3   16.04    1.26
  -5  -2   3   16.01    1.26
   5   2   3   16.41    1.29
   5   2   3   17.97    1.24
  -5   2   3   16.16    1.27
   5   2  -3   16.01    1.27
  -5   2   3   18.13    1.35
   5  -2   3   16.81    1.33
  -5  -2  -3   17.40    1.17
   5  -2   3   17.99    1.28
  -5  -2  -3   19.05    1.45
   5   2  -3   17.49    1.17
   5   2   4   17.64    1.28
  -5  -2   4   16.64    1.37
   5  -2  -4   17.15    1.32
   5  -2  -4   17.32    1.28
  -5   2  -4   16.92    1.25
   5   2   4   16.16    1.36
  -5   2   4   16.47    1.32
   5  -2   4   17.45    1.34
  -5  -2  -4   19.58    1.58
   5  -2   4   15.55    1.39
   5   2  -4   17.00    1.30
  -5   2   4   18.51    1.40
   5  -2  -5    1.22    0.41
   5   2   5    0.61    0.35
   5   2   5    0.96    0.47
   5  -2  -5    0.88    0.33
  -5  -2   5    0.94    0.44
  -5   2  -5    1.21    0.32
  -5   2   5    1.11    0.45
   5  -2   5    1.14    0.44
   5  -2   5    0.96    0.48
  -5  -2  -5    1.95    0.67
   5   2  -5    1.15    0.40
   5  -2  -6    3.96    0.56
  -5  -2   6    3.80    0.69
  -5   2  -6    4.09    0.51
   5   2   6    4.23    0.75
  -5   2   6    3.74    0.68
   5   2  -6    3.81    0.58
   5  -2   6    2.25    0.66
  -5  -2  -6    3.50    0.85
   5  -2  -7    1.64    0.48
  -5  -2   7    1.48    0.63
   5   2   7    2.11    0.74
  -5   2   7    0.99    0.60
   5  -2   7    2.18    0.74
   5   2  -7    0.56    0.51
  -5   3   0   -0.02    0.20
   5  -3   0   -0.07    0.18
  -5  -3   0    0.01    0.14
   5  -3   0   -0.04    0.08
   5  -3   0    0.07    0.15
   5   3   0   -0.28    0.12
   5   3   0    0.11    0.17
  -5  -3   0   -0.19    0.23
   5   3   1  300.26   19.18
   5   3   1  290.86   18.29
   5  -3  -1  291.45   18.26
  -5   3  -1  283.20   19.29
  -5  -3   1  293.39   19.31
  -5  -3   1  290.06   19.01
   5   3  -1  310.39   19.20
   5  -3   1  312.48   18.32
  -5  -3  -1  300.08   19.25
  -5   3   1  318.34   19.38
  -5  -3  -1  273.61   19.03
  -5   3   1  289.90   19.17
   5  -3   1  283.91   19.01
   5   3  -1  310.32   18.25
  -5   3   1  303.93   18.97
  -5   3  -2   23.36    1.54
   5   3   2   22.83    1.57
   5  -3  -2   23.53    1.54
  -5  -3   2   23.38    1.58
  -5  -3   2   22.36    1.60
   5   3   2   24.21    1.53
  -5   3   2   23.62    1.55
   5  -3   2   22.26    1.61
  -5  -3  -2   17.95    1.63
   5   3  -2   22.84    1.59
   5  -3   2   16.84    1.54
   5   3  -2   21.24    1.47
  -5  -3   3   15.43    1.21
  -5  -3   3   16.05    1.26
  -5   3  -3   16.38    1.16
   5  -3  -3   16.83    1.23
   5   3   3   14.43    1.24
   5   3   3   16.71    1.17
   5  -3   3   16.44    1.28
  -5  -3  -3   15.44    1.35
   5   3  -3   14.92    1.25
  -5   3   3   16.73    1.30
   5  -3   3   16.92    1.23
  -5   3   3   15.39    1.20
  -5   3  -4   17.67    1.30
  -5  -3   4   17.26    1.42
   5   3   4   18.19    1.44
   5   3   4   18.38    1.34
  -5  -3   4   18.66    1.37
   5  -3  -4   19.21    1.39
  -5   3   4   17.74    1.44
  -5   3   4   16.98    1.37
   5  -3   4   17.70    1.37
   5  -3   4   18.05    1.44
  -5  -3  -4   18.35    1.56
   5   3  -4   16.94    1.39
   5  -3  -5   30.70    2.19
   5   3   5   29.59    2.27
   5   3   5   32.71    2.25
  -5  -3   5   32.37    2.33
  -5   3  -5   30.69    2.19
  -5   3   5   28.41    2.24
   5   3  -5   31.37    2.26
  -5   3   5   31.63    2.32
   5  -3   5   31.58    2.33
   5  -3   5   33.21    2.23
  -5  -3  -5   35.14    2.42
   5  -3  -6    2.55    0.58
  -5  -3   6    2.23    0.61
  -5   3  -6    2.53    0.44
   5   3   6    2.23    0.67
   5  -3  -6    2.70    0.49
   5  -3   6    2.35    0.65
  -5   3   6    2.42    0.59
   5   3  -6    2.60    0.55
   5  -3  -7    0.02    0.44
  -5  -3   7    0.09    0.60
  -5   3   7   -0.47    0.52
   5  -3   7   -0.41    0.61
   5   3  -7    0.12    0.52
  -5  -3  -7    1.12    0.68
   5   4   0   -0.10    0.17
  -5  -4   0   -0.13    0.13
   5   4   0   -0.04    0.14
   5  -4   0   -0.24    0.18
   5  -4   0    0.18    0.17
  -5  -4   0   -0.06    0.24
  -5   4   0    0.04    0.11
  -5   4   0   -0.04    0.20
  -5  -4   1   80.21    5.19
   5  -4  -1   79.44    4.98
   5   4   1   82.01    5.20
   5   4   1   78.89    5.01
   5  -4  -1   79.54    5.13
  -5   4  -1   78.41    5.23
  -5  -4   1   77.73    5.23
  -5   4   1   85.53    5.33
  -5   4   1   80.51    5.18
   5  -4   1   70.43    5.03
   5  -4   1   79.67    5.19
   5   4  -1   72.38    5.20
   5   4  -1   81.91    4.95
  -5  -4  -1   84.57    5.22
   5   4   2  241.77   15.34
  -5   4  -2  256.38   16.14
   5   4   2  259.18   16.05
  -5  -4   2  238.88   15.90
  -5  -4   2  245.20   16.17
   5  -4  -2  246.21   15.30
  -5  -4  -2  235.00   15.94
   5  -4   2  247.63   15.93
   5   4  -2  274.15   16.09
   5  -4   2  225.45   15.32
  -5   4   2  243.55   16.05
   5   4  -2  257.32   15.22
   5   4   3    8.10    0.82
   5   4   3    8.73    0.70
  -5  -4   3    8.44    0.77
   5  -4  -3    9.22    0.79
  -5  -4   3    8.23    0.82
  -5   4  -3    8.31    0.71
   5  -4   3    7.70    0.80
  -5   4   3    9.28    0.87
   5   4  -3    7.97    0.77
   5  -4   3    8.26    0.78
  -5  -4  -3    5.28    0.78
  -5   4   3    8.28    0.74
  -5  -4   4    1.97    0.47
  -5  -4   4    2.77    0.46
   5   4   4    2.19    0.51
   5   4   4    2.26    0.38
   5  -4  -4    1.98    0.46
  -5   4  -4    2.00    0.36
  -5   4   4    2.44    0.50
   5  -4   4    2.33    0.43
  -5  -4  -4    1.67    0.56
  -5   4   4    1.97    0.41
   5   4  -4    1.65    0.45
   5  -4   4    1.78    0.48
   5   4   5    1.02    0.39
  -5   4  -5    1.04    0.34
  -5  -4   5    1.08    0.49
   5  -4  -5    1.69    0.48
   5   4   5    1.88    0.55
  -5   4   5    0.91    0.45
  -5   4   5    0.57    0.42
  -5  -4  -5    0.40    0.53
   5   4  -5    1.07    0.44
   5  -4   5    0.65    0.47
  -5  -4   6    1.26    0.58
   5   4   6    2.85    0.57
   5  -4  -6    2.91    0.60
   5   4   6    2.21    0.66
  -5   4  -6    2.35    0.46
   5  -4   6    3.08    0.68
  -5   4   6    3.41    0.63
   5   4  -6    1.45    0.57
  -5   4   6    1.98    0.55
  -5   4  -7    3.06    0.57
   5   4  -7    2.07    0.66
  -5   4   7    2.79    0.73
   5  -4   7    3.92    0.83
  -5  -4  -7    3.34    0.82
  -5  -5   0   -0.10    0.27
   5   5   0   -0.13    0.18
  -5   5   0   -0.01    0.12
  -5   5   0   -0.18    0.21
  -5  -5   0    0.08    0.14
   5   5   0    0.29    0.17
   5  -5   0    0.25    0.22
   5  -5   0   -0.11    0.19
  -5  -5   1  129.01    8.47
  -5  -5   1  122.30    8.38
   5  -5  -1  123.95    8.05
  -5   5  -1  131.17    8.48
   5  -5  -1  132.65    8.32
   5   5   1  136.92    8.43
   5   5   1  126.89    8.07
  -5   5   1  129.25    8.41
  -5   5   1  127.89    8.57
   5   5  -1  124.45    8.00
   5  -5   1  130.01    8.09
   5  -5   1  132.82    8.39
  -5  -5  -1  134.65    8.41
  -5  -5   2    2.63    0.44
  -5  -5   2    2.55    0.40
   5   5   2    2.67    0.44
   5   5   2    3.24    0.37
   5  -5  -2    3.55    0.47
  -5   5  -2    2.84    0.36
  -5  -5  -2    3.71    0.52
  -5   5   2    2.76    0.37
   5  -5   2    2.91    0.45
   5  -5   2    3.22    0.47
  -5   5   2    1.71    0.44
   5   5  -2    3.04    0.42
  -5   5  -3    1.19    0.31
   5   5   3    1.48    0.32
  -5  -5   3    1.06    0.40
  -5  -5   3    1.58    0.40
   5  -5  -3    1.43    0.41
   5   5   3    1.70    0.44
   5  -5   3    1.32    0.42
  -5   5   3    0.95    0.31
  -5   5   3    1.29    0.43
  -5  -5  -3    1.59    0.48
   5  -5   3    1.60    0.37
   5   5  -3    1.24    0.39
   5   5   4    4.83    0.58
  -5   5  -4    5.07    0.54
  -5  -5   4    5.16    0.64
  -5  -5   4    5.65    0.69
   5  -5  -4    3.82    0.61
   5   5   4    3.53    0.64
   5   5  -4    5.32    0.68
  -5  -5  -4    4.34    0.69
  -5   5   4    4.84    0.60
   5  -5   4    5.64    0.71
  -5   5   4    6.06    0.70
  -5   5  -5   17.44    1.34
  -5  -5   5   16.50    1.46
   5  -5  -5   19.29    1.46
   5   5   5   19.13    1.41
   5   5   5   18.24    1.53
  -5  -5  -5   14.31    1.55
  -5   5   5   19.26    1.51
  -5   5   5   15.52    1.37
   5  -5   5   19.90    1.54
   5   5  -5   16.37    1.42
  -5  -5   6    5.20    0.82
  -5   5  -6    5.81    0.66
   5   5   6    6.44    0.78
   5  -5  -6    5.72    0.80
  -5   5   6    4.58    0.71
  -5  -5  -6    5.01    0.84
  -5   5   6    5.87    0.82
   5  -5   6    4.89    0.83
   5   5  -6    5.77    0.81
  -5   5  -7    0.40    0.46
   5  -5   7    0.70    0.70
   5  -6   0    0.30    0.22
  -5  -6   0   -0.31    0.14
  -5  -6   0   -0.10    0.31
   5   6   0    0.01    0.18
  -5   6   0    0.02    0.15
   5   6   0   -0.02    0.22
   5  -6   0   -0.43    0.22
  -5   6   0   -0.17    0.24
  -5  -6   1   57.07    3.71
   5  -6  -1   56.42    3.58
   5   6   1   53.17    3.59
   5   6   1   58.97    3.70
  -5  -6   1   55.44    3.73
   5  -6  -1   58.25    3.65
  -5   6  -1   56.18    3.72
   5  -6   1   55.51    3.71
  -5   6   1   57.74    3.67
  -5   6   1   45.22    3.81
   5   6  -1   54.47    3.51
  -5  -6  -1   56.79    3.75
   5  -6   1   55.82    3.59
   5   6   2  160.83   10.54
  -5  -6   2  165.62   11.07
  -5   6  -2  169.02   11.05
  -5  -6   2  165.44   10.92
   5  -6  -2  169.04   10.52
   5   6   2  178.56   11.01
   5  -6   2  182.20   10.54
   5  -6   2  166.39   10.94
  -5   6   2  169.28   10.99
   5   6  -2  151.48   11.00
  -5  -6  -2  175.51   10.95
  -5   6   2  174.73   11.16
  -5  -6   3    1.07    0.44
   5   6   3    1.38    0.45
   5  -6  -3    1.85    0.45
   5   6   3    1.19    0.31
  -5  -6   3    1.55    0.42
  -5   6  -3    1.58    0.33
  -5   6   3    1.06    0.44
  -5   6   3    0.81    0.35
  -5  -6  -3    1.90    0.50
   5   6  -3    1.51    0.40
   5  -6   3    0.51    0.34
   5  -6   3    1.34    0.43
   5   6   4    5.03    0.61
  -5  -6   4    4.86    0.68
   5   6   4    4.44    0.70
   5  -6  -4    4.47    0.65
  -5   6  -4    5.34    0.58
  -5  -6   4    4.52    0.67
   5  -6   4    5.08    0.71
   5   6  -4    5.64    0.67
  -5   6   4    5.35    0.62
  -5  -6  -4    5.08    0.72
  -5   6   4    5.77    0.72
  -5  -6   5    0.43    0.50
   5  -6  -5    0.52    0.47
  -5   6  -5    0.34    0.35
   5   6   5    0.43    0.50
   5   6   5    0.41    0.39
  -5  -6   5    1.01    0.52
  -5   6   5    0.02    0.41
  -5   6   5    1.06    0.50
   5   6  -5    0.49    0.43
   5  -6   5    0.22    0.52
  -5  -6  -5    0.59    0.55
   5  -6  -6    1.84    0.62
   5   6   6    2.03    0.56
  -5  -6   6    2.04    0.65
  -5   6  -6    2.23    0.49
   5  -6   6    2.25    0.68
  -5  -6  -6    1.64    0.70
   5   6  -6    1.90    0.61
  -5   6   6    2.18    0.59
  -5   6   6    2.58    0.63
   5   7   0   -0.50    0.22
   5  -7   0    0.06    0.24
  -5   7   0   -0.30    0.27
   5   7   0    0.07    0.21
  -5  -7   0   -0.30    0.36
   5  -7   0   -0.08    0.28
   5   7   1   76.30    4.77
   5  -7  -1   77.83    4.71
  -5  -7   1   69.93    4.79
  -5  -7   1   73.23    4.77
  -5   7  -1   76.31    4.80
   5  -7  -1   78.26    4.61
   5   7   1   73.53    4.61
  -5   7   1   73.05    4.74
   5  -7   1   71.88    4.59
  -5   7   1   58.23    4.88
  -5  -7  -1   73.11    4.81
   5  -7   1   73.30    4.77
   5   7  -1   60.51    4.75
  -5  -7   2    8.97    0.90
   5  -7  -2    9.72    0.89
   5   7   2   10.46    0.83
  -5  -7   2    9.20    0.84
  -5   7  -2    9.84    0.82
   5   7   2    8.57    0.90
   5  -7   2    9.66    0.94
  -5   7   2   10.41    0.80
  -5  -7  -2    9.28    0.93
  -5   7   2   12.05    1.04
   5  -7   2   10.99    0.97
   5   7  -2    6.82    0.78
   5   7   3    0.72    0.32
  -5  -7   3    0.85    0.40
   5  -7  -3    0.83    0.43
  -5   7  -3    1.00    0.32
  -5  -7   3    0.43    0.44
   5   7   3    0.66    0.42
   5   7  -3    0.93    0.37
   5  -7   3    1.43    0.45
  -5  -7  -3    0.71    0.46
  -5   7   3    0.70    0.32
  -5   7   3    0.94    0.45
  -5  -7   4   14.27    1.29
   5  -7  -4   13.56    1.27
  -5   7  -4   13.25    1.16
   5   7   4   15.40    1.23
   5   7   4   14.19    1.34
  -5  -7   4   15.35    1.31
   5  -7   4   15.99    1.35
   5   7  -4   16.44    1.26
  -5  -7  -4   13.59    1.32
  -5   7   4   17.78    1.38
  -5   7   4   14.09    1.22
  -5  -7  -4   16.72    1.40
  -5   7  -5   18.21    1.43
   5   7   5   19.37    1.51
  -5  -7   5   18.24    1.58
   5  -7  -5   17.03    1.51
  -5  -7   5   18.41    1.58
  -5  -7  -5   17.56    1.58
  -5   7   5   19.06    1.59
   5  -7   5   18.08    1.62
   5   7  -5   20.45    1.53
  -5  -7   6    2.76    0.73
   5  -7  -6    2.76    0.69
   5   7   6    3.43    0.65
  -5   7  -6    2.81    0.54
   5   7  -6    2.71    0.64
  -5  -7  -6    2.21    0.75
   5  -7   6    3.11    0.76
  -5   7   6    2.72    0.63
   5   8   0    0.55    0.28
  -5   8   0    0.00    0.32
  -5  -8   0    0.65    0.43
   5  -8   0   -0.55    0.28
   5  -8   0   -0.16    0.26
   5   8   1    4.40    0.50
  -5  -8   1    4.28    0.62
  -5   8  -1    4.07    0.51
   5  -8  -1    4.44    0.58
   5   8  -1    4.26    0.51
  -5  -8  -1    3.73    0.62
  -5  -8  -1    4.12    0.58
   5  -8   1    5.12    0.57
  -5   8   1    4.08    0.45
   5  -8   1    4.17    0.55
  -5   8   1    4.48    0.69
   5  -8  -2   52.02    3.45
   5   8   2   50.02    3.47
  -5   8  -2   52.75    3.54
  -5  -8   2   51.80    3.54
  -5  -8   2   49.78    3.57
   5   8   2   55.52    3.54
   5  -8   2   49.52    3.55
  -5   8   2   53.23    3.51
  -5  -8  -2   50.42    3.44
   5  -8   2   53.58    3.47
  -5   8   2   56.80    3.69
  -5  -8  -2   50.86    3.58
   5  -8  -3    8.86    0.87
   5   8   3    8.87    0.79
  -5  -8   3    9.00    0.84
  -5  -8   3    8.02    0.88
  -5   8  -3    9.21    0.76
   5  -8   3    8.05    0.89
  -5   8   3    4.91    0.84
  -5   8   3    7.01    0.76
  -5  -8  -3    8.04    0.87
  -5  -8  -3    9.11    0.90
   5   8  -3    6.73    0.76
   5   8   4   13.30    1.15
   5  -8  -4   12.38    1.21
  -5  -8   4   13.86    1.25
  -5   8  -4   12.44    1.09
  -5  -8   4   13.44    1.22
  -5   8   4   17.03    1.34
  -5  -8  -4   12.41    1.22
   5  -8   4   12.83    1.27
   5   8  -4   12.29    1.11
  -5  -8  -4   16.09    1.36
  -5   8   4   12.60    1.13
  -5  -8   5    0.69    0.56
   5  -8  -5   -0.26    0.51
  -5  -8   5    1.30    0.60
  -5   8  -5    0.23    0.39
   5   8   5    0.29    0.43
  -5  -8  -5    0.36    0.61
   5  -8   5    0.38    0.55
   5   8  -5    0.41    0.42
  -5   8   5    0.53    0.47
  -5  -8   6    0.48    0.61
   5   8   6    0.26    0.52
   5  -8  -6    0.50    0.61
  -5   8   6    0.49    0.54
   5   8  -6    0.61    0.51
  -5   9   0    0.25    0.35
   5  -9   0   -0.13    0.32
   5   9   0    0.09    0.25
  -5  -9   0    0.43    0.45
   5  -9   0    0.10    0.31
   5  -9  -1   34.03    2.29
   5   9   1   35.53    2.33
  -5   9  -1   34.23    2.34
  -5  -9   1   30.02    2.38
  -5  -9  -1   33.97    2.31
  -5  -9  -1   34.07    2.42
   5   9  -1   33.40    2.33
   5  -9   1   31.60    2.35
   5  -9   1   32.71    2.27
   5   9   2    8.97    0.75
  -5  -9   2    7.00    0.75
  -5  -9   2    6.95    0.86
   5  -9  -2    9.33    0.88
  -5   9  -2    7.52    0.76
  -5   9   2   10.20    0.99
  -5  -9  -2    7.88    0.89
  -5   9   2    7.70    0.76
  -5  -9  -2    8.25    0.86
   5  -9   2    8.86    0.89
   5   9  -2    6.20    0.74
  -5  -9   3    0.15    0.49
  -5  -9   3   -0.05    0.40
   5   9   3    0.53    0.36
  -5   9  -3    0.17    0.33
   5  -9  -3    0.75    0.48
  -5  -9  -3    0.42    0.50
  -5  -9  -3    0.39    0.52
  -5   9   3   -0.68    0.44
  -5   9   3    0.37    0.36
   5   9  -3   -0.39    0.32
   5  -9   3    0.09    0.45
   5   9   4   12.96    1.10
  -5  -9   4   12.30    1.21
  -5   9  -4   10.99    1.02
  -5  -9   4   11.05    1.14
   5  -9  -4   12.70    1.18
  -5  -9  -4   11.44    1.16
  -5   9   4   11.58    1.07
   5   9  -4   10.13    1.04
  -5   9   4   14.89    1.30
   5  -9   4   12.37    1.23
  -5   9  -5    8.95    0.89
  -5  -9   5    7.84    1.03
   5   9   5    9.11    0.99
   5  -9  -5    8.48    1.02
  -5  -9   5    9.30    1.03
   5   9  -5    8.32    0.93
  -5   9   5    8.22    0.93
  -5  -9  -5    7.47    1.03
   5  -9   5    9.56    1.12
   5 -10   0   -0.19    0.33
   5  10   0   -0.19    0.29
  -5  10   0   -0.12    0.36
   5 -10   0    0.08    0.33
  -5 -10   0   -0.08    0.45
  -5  10  -1    6.73    0.76
   5  10   1    8.96    0.76
   5 -10  -1    9.46    0.87
  -5 -10   1    8.20    0.91
   5 -10   1    8.50    0.86
  -5 -10  -1    7.43    0.89
   5  10  -1    8.22    0.77
  -5  10   1    6.08    0.92
   5 -10   1    7.43    0.79
   5 -10  -2   43.19    2.90
   5  10   2   44.40    2.95
  -5 -10   2   40.44    3.01
  -5  10  -2   42.15    2.93
   5  10  -2   38.94    2.91
  -5  10   2   46.24    3.12
  -5 -10  -2   42.69    3.01
   5 -10   2   41.26    2.98
  -5  10   2   41.79    2.91
  -5 -10  -2   43.06    2.90
   5 -10  -3    2.41    0.61
  -5 -10   3    1.59    0.59
  -5  10  -3    1.10    0.41
   5  10   3    1.51    0.44
  -5 -10  -3    1.78    0.61
  -5 -10  -3    1.99    0.60
   5  10  -3    0.36    0.35
  -5  10   3   -0.20    0.53
  -5  10   3    1.79    0.47
   5 -10   3    1.36    0.55
   5 -10  -4    5.40    0.80
  -5 -10   4    4.46    0.72
  -5 -10   4    5.30    0.82
  -5  10  -4    4.93    0.63
   5  10   4    4.88    0.68
  -5 -10  -4    4.21    0.81
  -5  10   4    4.06    0.65
   5  10  -4    3.62    0.63
   5 -10   4    4.56    0.79
  -5 -10   5   -0.20    0.57
   5  10   5   -0.04    0.49
  -5 -10   5   -0.41    0.62
  -5  10   5    0.09    0.50
   5  10  -5   -0.72    0.42
  -5 -11   0   -0.29    0.49
  -5  11   0    0.29    0.43
   5 -11   0    0.19    0.39
   5  11   0    0.21    0.29
  -5 -11   1   18.29    1.52
   5 -11  -1   16.76    1.39
   5  11   1   18.63    1.36
  -5  11  -1   16.52    1.36
   5 -11   1   15.55    1.40
   5  11  -1   17.29    1.32
  -5  11   1   14.68    1.53
  -5 -11  -1   16.92    1.51
  -5 -11   2    1.05    0.58
   5 -11  -2    1.96    0.58
   5  11   2    1.81    0.45
  -5  11  -2    1.53    0.44
  -5 -11  -2    1.56    0.60
  -5 -11  -2    2.23    0.62
  -5  11   2    1.23    0.63
   5 -11   2    1.31    0.53
   5  11  -2    0.59    0.40
  -5  11  -3   -0.16    0.38
  -5 -11   3   -0.42    0.52
   5 -11  -3    0.36    0.55
   5  11   3   -0.40    0.37
  -5  11   3    0.32    0.42
  -5 -11  -3   -0.73    0.58
  -5 -11  -3    0.54    0.58
   5  11  -3    0.27    0.39
   5 -11   3    0.16    0.51
  -5 -11   4    2.54    0.73
  -5  11  -4    2.12    0.52
   5 -11  -4    2.13    0.70
   5  11   4    2.10    0.57
  -5 -11  -4    2.44    0.77
  -5  11   4    2.37    0.57
   5 -11   4    2.13    0.69
   5  11  -4    1.79    0.49
   5  12   0    0.21    0.34
   5 -12   0   -0.31    0.40
  -5 -12   0   -0.04    0.55
  -5  12   0   -0.48    0.45
  -5 -12   1    7.82    1.03
   5  12   1    9.62    0.91
   5 -12  -1    9.50    0.97
  -5  12  -1    9.58    0.95
  -5  12   1    6.30    1.03
  -5 -12  -1    9.87    1.07
   5 -12   1    9.46    0.99
   5  12  -1   10.07    0.92
   5  12   2   15.10    1.30
  -5 -12   2   14.10    1.44
  -5  12  -2   15.00    1.30
   5 -12  -2   15.51    1.43
  -5 -12  -2   17.16    1.50
   5 -12   2   14.79    1.42
   5  12  -2   17.10    1.30
  -5  12  -3    0.85    0.45
   5 -12  -3    0.18    0.60
   5  12   3    0.83    0.47
  -5 -12   3    0.54    0.61
  -5 -12  -3    0.31    0.67
   5 -12   3    0.04    0.56
   5  12  -3    0.86    0.45
  -5  12   4    1.04    0.53
  -5  13   0    0.50    0.57
   5  13   0   -0.38    0.34
  -5 -13   0   -0.59    0.59
  -5 -13   1   13.32    1.40
   5 -13  -1   14.35    1.32
  -5  13  -1   14.19    1.31
   5  13   1   13.95    1.25
   5  13  -1   17.81    1.27
  -5 -13  -1   13.62    1.39
  -5  13   1   12.84    1.48
  -5  13  -2    1.62    0.52
   5  13   2    1.23    0.50
  -5 -13   2    2.01    0.69
   5 -13  -2    1.71    0.65
   5 -13   2    1.39    0.61
  -5 -13  -2    1.20    0.67
   5  13  -2    2.05    0.52
  -5  14   0    0.76    0.69
  -5  14  -1    2.58    0.68
  -5 -14  -1    3.44    0.82
   6   0   0  148.40    9.60
   6   0   0  149.82    9.22
  -6   0   0  149.45    9.72
  -6   0   0  145.37    9.57
   6   0   1   -0.23    0.21
   6   0  -1    0.17    0.23
   6   0  -1    0.03    0.16
   6   0   1    0.25    0.10
  -6   0   1    0.15    0.24
  -6   0  -1    0.07    0.19
  -6   0   1   -0.47    0.19
  -6   0  -1   -0.30    0.31
   6   0   2   37.37    2.40
  -6   0   2   35.10    2.39
  -6   0  -2   36.02    2.39
   6   0  -2   35.77    2.32
  -6   0   2   36.02    2.50
   6   0  -2   36.00    2.41
  -6   0  -2   32.90    2.53
   6   0   2   36.21    2.36
  -6   0  -3   24.94    1.86
   6   0  -3   24.61    1.70
   6   0  -3   22.93    1.63
  -6   0   3   23.58    1.81
  -6   0  -3   23.95    1.65
   6   0   3   26.14    1.76
   6   0  -4   86.02    5.30
   6   0  -4   84.23    5.57
  -6   0  -4   82.94    5.64
   6   0   4   83.84    5.42
  -6   0   4   84.93    5.69
  -6   0  -4   83.65    5.54
   6   0  -5   34.05    2.44
  -6   0   5   34.36    2.56
   6   0   5   36.60    2.49
  -6   0  -5   34.95    2.59
   6   0   6    1.93    0.62
  -6   0   6    2.75    0.66
  -6   0  -6    2.27    0.78
   6   0  -6    2.88    0.51
  -6   0   7    2.57    0.74
   6   0  -7    2.54    0.59
  -6   0  -7    3.31    0.96
   6   1   0   44.20    3.25
  -6   1   0   54.08    3.44
  -6   1   0   49.90    3.41
   6  -1   0   52.53    3.33
   6  -1   0   51.20    3.28
   6   1   0   52.17    3.34
  -6  -1   1   56.50    3.81
   6  -1  -1   58.08    3.73
   6   1   1   60.62    3.67
  -6  -1   1   57.24    3.75
  -6   1  -1   59.87    3.80
  -6   1  -1   60.01    3.78
   6  -1  -1   56.97    3.61
   6   1   1   52.52    3.71
   6  -1   1   54.38    3.69
  -6  -1  -1   59.37    3.78
   6   1  -1   60.07    3.77
  -6  -1  -1   62.56    3.82
   6   1  -1   61.15    3.63
   6  -1   1   54.96    3.66
  -6   1   1   48.05    3.72
  -6   1   1   50.70    3.82
   6  -1  -2   24.03    1.60
   6   1   2   25.07    1.68
  -6   1  -2   23.72    1.62
   6   1   2   23.94    1.60
   6  -1  -2   22.79    1.63
  -6  -1   2   26.40    1.74
  -6  -1   2   23.21    1.65
   6   1  -2   23.90    1.61
  -6   1   2   24.22    1.61
   6  -1   2   22.83    1.73
  -6  -1  -2   24.74    1.83
   6   1  -2   22.25    1.65
   6  -1   2   23.46    1.68
  -6   1   2   22.97    1.74
  -6  -1  -2   23.40    1.60
   6  -1  -3   71.93    4.68
  -6  -1   3   73.25    4.79
  -6   1  -3   72.61    4.67
   6   1   3   73.59    4.66
  -6  -1   3   68.67    4.62
   6  -1  -3   70.88    4.48
   6   1   3   76.31    4.59
   6   1  -3   70.47    4.70
   6   1  -3   69.18    4.44
  -6  -1  -3   72.61    4.65
  -6  -1  -3   61.50    4.78
   6  -1   3   73.02    4.57
   6  -1   3   66.05    4.73
  -6   1   3   70.52    4.80
   6  -1  -4    1.20    0.37
  -6   1  -4    1.34    0.27
  -6  -1   4    0.81    0.43
   6  -1  -4    0.95    0.32
   6   1   4    0.95    0.43
   6   1  -4    0.97    0.35
  -6  -1  -4    1.38    0.62
   6  -1   4    1.08    0.46
  -6   1   4    1.03    0.43
   6  -1   4    1.20    0.42
   6  -1  -5   10.59    0.91
   6   1   5    8.96    1.02
  -6  -1   5    9.80    1.04
  -6   1  -5   10.51    0.84
   6   1  -5   10.55    0.93
  -6  -1  -5    8.37    1.14
  -6   1   5   11.27    1.08
   6  -1   5   10.90    1.06
   6  -1   5   10.06    1.10
  -6  -1   6    0.62    0.53
   6   1   6    0.47    0.53
  -6   1  -6    0.32    0.62
   6  -1  -6    0.31    0.37
   6  -1   6    0.18    0.50
  -6   1   6   -0.02    0.50
  -6  -1  -6    0.45    0.71
   6   1  -6    0.37    0.40
   6   1   7    4.18    0.89
   6  -1  -7    5.23    0.73
  -6   1  -7    6.59    1.06
  -6  -1   7    5.75    0.90
  -6   1   7    5.28    0.88
   6   1  -7    5.09    0.75
   6   2   0  145.89    9.91
   6  -2   0  149.60    9.52
  -6   2   0  173.19    9.88
  -6   2   0  134.54   10.03
   6   2   0  174.69    9.52
  -6  -2   0  139.67    9.87
   6  -2   0  144.19    9.88
  -6  -2   0  163.24    9.99
   6   2   1    5.14    0.53
   6  -2  -1    4.56    0.47
   6   2   1    4.46    0.41
  -6  -2   1    4.75    0.50
   6  -2  -1    4.48    0.41
  -6  -2   1    5.00    0.50
  -6   2  -1    4.86    0.49
  -6  -2  -1    4.90    0.48
  -6  -2  -1    3.28    0.53
  -6   2   1    5.45    0.56
  -6   2   1    5.48    0.49
   6   2  -1    5.18    0.45
   6  -2   1    4.79    0.52
   6   2  -1    4.46    0.48
   6  -2   1    5.51    0.55
   6  -2  -2    0.57    0.25
   6   2   2    1.05    0.19
   6   2   2    0.39    0.27
  -6  -2   2    0.26    0.26
  -6  -2   2    0.58    0.29
  -6   2  -2    0.56    0.20
   6  -2  -2    0.79    0.20
  -6  -2  -2    0.36    0.36
  -6   2   2   -0.26    0.27
   6   2  -2    0.42    0.24
   6  -2   2    0.50    0.27
   6  -2   2    0.43    0.28
   6   2  -2    0.35    0.25
  -6  -2  -2    0.31    0.17
  -6  -2   3   39.31    2.69
   6   2   3   39.97    2.58
  -6  -2   3   38.57    2.59
   6  -2  -3   37.43    2.51
  -6   2  -3   39.54    2.58
   6  -2  -3   35.87    2.57
   6   2   3   36.16    2.59
  -6  -2  -3   43.63    2.76
   6  -2   3   40.95    2.60
   6   2  -3   38.07    2.47
   6  -2   3   37.87    2.67
  -6   2   3   36.53    2.70
   6   2  -3   34.62    2.62
  -6   2  -4   27.99    1.99
   6   2   4   28.09    2.08
  -6  -2   4   26.91    2.13
   6  -2  -4   27.52    2.01
   6   2   4   32.30    2.04
   6  -2  -4   30.07    2.02
   6  -2   4   29.44    2.06
  -6  -2  -4   29.14    2.24
  -6   2   4   29.59    2.16
   6  -2   4   28.04    2.14
   6   2  -4   28.57    2.05
  -6   2  -5    9.88    0.89
   6   2   5    8.80    1.04
   6  -2  -5   10.90    0.94
  -6  -2   5    9.87    1.07
   6  -2  -5   12.12    1.08
  -6  -2  -5   12.75    1.24
   6   2  -5   11.63    0.97
   6  -2   5   10.56    1.04
  -6   2   5   11.95    1.12
   6  -2   5   11.24    1.12
  -6  -2   6    3.25    0.70
   6  -2  -6    4.26    0.60
   6   2   6    3.44    0.72
  -6   2   6    4.96    0.77
   6   2  -6    3.16    0.60
  -6  -2  -6    4.34    0.90
   6  -2   6    3.39    0.76
  -6   2  -7    3.58    0.90
   6   2   7    2.87    0.83
  -6   2   7    4.04    0.79
   6  -2   7    2.72    0.81
   6  -3   0   44.36    2.96
  -6   3   0   37.90    3.02
  -6  -3   0   46.33    2.96
   6  -3   0   43.43    2.88
   6  -3   0   43.79    2.89
   6   3   0   47.91    2.87
  -6  -3   0   47.01    3.01
  -6  -3   1  205.31   13.16
   6   3   1  193.73   13.25
   6   3   1  214.69   12.69
   6  -3  -1  199.41   13.23
  -6  -3   1  207.77   13.36
   6  -3  -1  196.14   12.64
  -6   3  -1  201.40   13.34
   6  -3   1  193.13   13.16
  -6   3   1  177.15   13.13
   6  -3   1  217.03   12.70
   6   3  -1  202.44   12.64
   6   3  -1  228.05   13.28
  -6  -3  -1  200.54   13.30
  -6   3   1  231.26   13.43
   6  -3  -2   38.80    2.56
   6   3   2   38.86    2.57
  -6  -3   2   40.31    2.65
   6   3   2   39.13    2.56
   6  -3  -2   39.68    2.51
  -6  -3   2   38.48    2.60
  -6   3  -2   38.63    2.58
   6  -3   2   31.08    2.54
  -6  -3  -2   35.89    2.68
   6   3  -2   40.65    2.62
  -6   3   2   38.42    2.58
   6   3  -2   38.62    2.47
   6  -3   2   37.13    2.63
  -6  -3   3   43.64    2.96
  -6  -3   3   43.78    3.05
   6   3   3   45.36    2.96
   6  -3  -3   46.78    2.90
   6   3   3   41.85    2.94
  -6   3  -3   45.94    2.96
  -6   3   3   42.78    3.09
   6  -3   3   42.26    3.02
  -6  -3  -3   46.72    3.09
   6  -3   3   45.37    2.95
   6   3  -3   39.59    3.01
  -6   3   3   42.77    2.98
   6   3   4    1.79    0.50
   6  -3  -4    2.43    0.48
  -6   3  -4    2.08    0.36
  -6  -3   4    1.97    0.50
   6  -3  -4    2.81    0.42
   6   3   4    2.85    0.42
  -6   3   4    1.97    0.51
  -6  -3  -4    3.14    0.64
   6  -3   4    2.06    0.48
   6   3  -4    2.25    0.48
  -6   3   4    2.25    0.46
   6  -3   4    2.09    0.52
  -6  -3   5    7.93    0.91
   6   3   5    5.94    0.86
  -6   3  -5    6.89    0.70
   6  -3  -5    6.71    0.78
   6  -3  -5    7.32    0.75
  -6   3   5    8.75    0.91
   6  -3   5    6.77    0.87
   6   3  -5    6.87    0.80
  -6  -3  -5    8.18    0.99
   6  -3   5    6.91    0.83
  -6  -3   6   -0.38    0.51
  -6   3  -6   -0.02    0.34
   6  -3  -6    0.07    0.39
   6   3   6    0.74    0.58
   6  -3   6    0.05    0.56
   6   3  -6   -0.21    0.39
  -6  -3  -6   -0.16    0.65
  -6   3   6    0.14    0.51
   6   3   7    3.72    0.88
   6  -3   7    4.10    0.89
  -6   3   7    3.01    0.79
  -6   4   0   95.62    6.55
  -6  -4   0   97.98    6.46
  -6  -4   0   99.54    6.47
   6  -4   0  101.69    6.42
   6   4   0  103.49    6.20
   6  -4   0   94.39    6.19
  -6  -4   1   11.59    1.00
   6   4   1   11.77    0.95
  -6   4  -1   10.75    0.89
   6  -4  -1   11.41    0.92
   6  -4  -1   11.38    0.89
   6   4   1   11.12    0.86
  -6  -4   1   11.72    0.91
   6  -4   1   11.63    0.99
   6   4  -1   12.10    0.89
  -6  -4  -1   11.83    1.05
   6  -4   1   11.05    0.96
  -6   4   1   11.71    0.86
   6   4  -1   11.60    0.87
  -6   4   1   12.52    1.04
   6  -4  -2    3.51    0.46
  -6   4  -2    3.15    0.38
   6   4   2    2.18    0.44
  -6  -4   2    2.93    0.43
   6   4   2    3.32    0.36
  -6  -4   2    2.71    0.45
  -6   4   2    2.96    0.52
   6  -4   2    2.29    0.44
   6  -4   2    2.92    0.48
  -6   4   2    2.74    0.37
   6   4  -2    3.33    0.42
  -6  -4  -2    1.96    0.53
  -6   4  -3    4.22    0.48
   6   4   3    4.75    0.50
   6  -4  -3    4.60    0.57
   6   4   3    5.36    0.66
  -6  -4   3    4.56    0.57
  -6  -4   3    4.58    0.59
   6   4  -3    4.77    0.56
  -6  -4  -3    3.04    0.64
   6  -4   3    4.16    0.60
  -6   4   3    4.11    0.63
  -6   4   3    4.59    0.54
   6  -4   3    3.99    0.60
   6   4   4   38.63    2.62
  -6  -4   4   34.83    2.66
  -6   4  -4   37.13    2.55
  -6  -4   4   39.95    2.61
   6  -4  -4   37.51    2.53
   6   4   4   41.39    2.60
   6  -4   4   38.84    2.67
  -6   4   4   36.56    2.61
  -6   4   4   38.11    2.71
  -6  -4  -4   32.93    2.70
   6  -4   4   38.15    2.57
   6   4  -4   32.68    2.61
  -6   4  -5    5.14    0.56
   6   4   5    5.73    0.67
   6  -4  -5    5.25    0.69
  -6  -4   5    3.89    0.71
   6   4   5    4.66    0.76
  -6   4   5    5.35    0.77
  -6   4   5    5.33    0.69
  -6  -4  -5    5.36    0.85
   6   4  -5    4.16    0.66
   6  -4   5    6.00    0.80
  -6  -4   6    1.47    0.63
   6   4   6    1.48    0.66
   6  -4  -6    2.10    0.57
   6  -4  -6    1.33    0.47
  -6   4  -6    1.26    0.41
   6  -4   6    1.52    0.62
   6   4  -6    1.23    0.54
  -6   4   6    1.33    0.60
  -6   4   7    3.98    0.82
  -6   5   0  179.93   11.76
   6   5   0  180.11   11.10
   6  -5   0  172.07   11.10
  -6  -5   0  185.24   11.59
   6  -5   0  181.29   11.53
  -6  -5   0  176.49   11.66
  -6  -5   1   19.30    1.46
   6  -5  -1   20.43    1.34
  -6  -5   1   18.26    1.36
  -6   5  -1   17.99    1.36
   6   5   1   18.32    1.34
   6   5   1   18.58    1.38
   6  -5  -1   18.77    1.37
  -6  -5  -1   20.58    1.50
   6   5  -1   18.61    1.30
  -6   5   1   19.19    1.32
  -6   5   1   18.36    1.50
   6  -5   1   16.95    1.42
   6   5  -1   17.90    1.34
   6  -5   1   19.53    1.41
   6   5   2   12.44    1.09
   6   5   2   12.49    0.97
  -6   5  -2   12.47    0.99
   6  -5  -2   12.70    1.05
  -6  -5   2   12.97    1.04
  -6  -5   2   11.98    1.09
  -6   5   2   12.88    0.97
  -6  -5  -2   12.02    1.17
  -6   5   2   13.05    1.16
   6  -5   2   12.05    1.09
   6   5  -2   13.31    0.99
   6  -5   2   11.82    1.08
   6   5   3   52.64    3.47
  -6  -5   3   54.38    3.57
  -6  -5   3   53.16    3.52
   6  -5  -3   55.31    3.40
   6   5   3   53.60    3.50
  -6   5  -3   52.32    3.49
  -6   5   3   53.99    3.51
   6  -5   3   49.04    3.54
   6  -5   3   42.90    3.40
  -6  -5  -3   41.06    3.56
   6   5  -3   58.94    3.54
  -6  -5   4    0.64    0.43
   6   5   4   -0.09    0.39
  -6  -5   4    0.83    0.45
   6   5   4    1.03    0.36
   6  -5  -4    0.97    0.43
  -6   5  -4    0.80    0.32
   6   5  -4    0.66    0.38
   6  -5   4    0.76    0.41
  -6   5   4    0.76    0.45
  -6  -5  -4   -0.54    0.48
   6  -5   4    1.00    0.46
  -6   5   4    0.54    0.37
   6  -5  -5    5.49    0.72
   6   5   5    4.63    0.77
  -6  -5   5    7.01    0.82
  -6   5  -5    5.09    0.59
   6   5   5    5.07    0.67
   6  -5   5    5.80    0.82
  -6   5   5    4.42    0.65
  -6   5   5    5.58    0.80
  -6  -5  -5    2.62    0.75
   6   5  -5    4.64    0.71
   6   5   6    0.98    0.49
   6  -5  -6    0.34    0.53
   6   5   6    0.97    0.63
  -6   5  -6    0.33    0.39
  -6  -5   6    0.97    0.61
   6   5  -6    1.25    0.56
  -6   5   6    0.32    0.51
   6  -5   6    0.66    0.61
  -6   5   6    1.07    0.59
   6   6   0   61.55    3.95
  -6   6   0   66.27    4.20
  -6  -6   0   66.67    4.18
   6  -6   0   62.00    3.96
   6  -6   0   65.37    4.10
   6   6   0   51.78    4.10
  -6   6  -1    3.16    0.42
   6  -6  -1    2.22    0.43
  -6  -6   1    2.62    0.51
   6   6   1    2.83    0.38
  -6  -6   1    3.18    0.38
   6   6   1    3.02    0.45
   6   6  -1    2.21    0.39
  -6   6   1    3.05    0.36
  -6   6   1    2.74    0.55
   6  -6   1    2.57    0.48
   6  -6   1    3.26    0.46
  -6  -6  -1    2.83    0.55
   6  -6  -2    4.32    0.59
  -6   6  -2    4.78    0.52
   6   6   2    4.96    0.53
   6   6   2    4.64    0.62
  -6  -6   2    4.33    0.62
  -6  -6   2    4.88    0.57
   6   6  -2    4.93    0.55
  -6  -6  -2    4.71    0.68
  -6   6   2    6.09    0.72
   6  -6   2    5.04    0.63
  -6   6   2    4.65    0.52
   6  -6   2    4.62    0.62
   6  -6  -3    3.47    0.55
   6   6   3    3.50    0.60
  -6  -6   3    3.23    0.53
  -6  -6   3    2.97    0.57
  -6   6  -3    3.16    0.43
   6   6   3    3.28    0.45
   6  -6   3    3.86    0.59
  -6   6   3    1.19    0.52
  -6  -6  -3    2.94    0.62
  -6   6   3    2.21    0.44
   6   6  -3    4.22    0.52
   6  -6   3    1.58    0.48
  -6  -6   4   28.96    2.17
   6  -6  -4   27.02    2.10
  -6   6  -4   30.08    2.09
  -6  -6   4   29.80    2.20
   6   6   4   27.96    2.17
   6   6   4   29.24    2.13
   6   6  -4   31.84    2.15
  -6  -6  -4   28.33    2.26
  -6   6   4   31.98    2.28
  -6   6   4   29.91    2.14
   6  -6   4   29.43    2.23
   6   6   5    9.84    1.01
  -6  -6   5   10.21    1.12
  -6   6  -5   10.93    0.94
   6  -6  -5   10.33    1.04
   6   6   5   11.14    1.20
  -6   6   5   10.45    1.02
  -6  -6  -5    8.23    1.12
   6  -6   5   11.56    1.16
   6   6  -5   11.48    1.06
  -6   6   5   11.76    1.18
  -6  -6   6    1.27    0.66
   6  -6  -6    0.87    0.56
  -6   6  -6    0.35    0.42
   6   6   6    1.50    0.55
   6   6  -6    0.85    0.54
  -6  -6  -6    1.86    0.70
   6  -6   6    1.58    0.68
  -6   6   6    0.35    0.52
  -6   6   6    1.68    0.64
   6   7   0   13.88    1.08
   6   7   0   11.86    1.05
  -6   7   0   14.99    1.17
   6  -7   0   13.41    1.09
   6  -7   0   15.50    1.12
  -6  -7   0   12.70    1.23
   6   7   1   44.73    2.95
   6   7   1   45.62    2.90
  -6   7  -1   44.10    2.98
  -6  -7   1   45.13    3.02
   6  -7  -1   43.77    2.88
   6  -7   1   43.19    2.97
  -6  -7  -1   44.56    3.04
  -6   7   1   38.77    3.08
   6  -7   1   40.63    2.89
   6   7   2   17.21    1.33
  -6   7  -2   15.54    1.23
  -6  -7   2   14.45    1.35
   6  -7  -2   16.00    1.31
   6   7   2   16.66    1.24
  -6  -7   2   15.42    1.27
   6  -7   2   15.45    1.31
   6   7  -2   14.86    1.21
   6  -7   2   16.29    1.33
  -6   7   2   16.29    1.21
  -6  -7  -2   18.29    1.43
  -6   7   2   17.57    1.43
   6   7   3   19.53    1.52
  -6   7  -3   18.47    1.38
  -6  -7   3   18.47    1.52
   6  -7  -3   16.85    1.42
   6   7   3   18.48    1.38
  -6  -7   3   18.08    1.46
   6  -7   3   12.95    1.43
   6  -7   3   18.51    1.50
   6   7  -3   19.61    1.40
  -6   7   3   18.86    1.39
  -6  -7  -3   20.38    1.59
   6   7   4    1.22    0.52
  -6  -7   4    0.66    0.49
   6   7   4    0.95    0.39
  -6   7  -4    0.70    0.36
  -6  -7   4    1.08    0.52
   6  -7  -4    0.91    0.49
  -6   7   4    0.77    0.42
  -6  -7  -4    1.67    0.60
   6   7  -4    0.91    0.42
  -6   7   4    1.16    0.52
   6  -7   4   -0.11    0.47
   6   7   5    2.89    0.58
   6  -7  -5    2.91    0.63
  -6   7  -5    2.52    0.49
  -6  -7   5    3.02    0.68
   6   7   5    1.86    0.70
  -6  -7  -5    2.39    0.70
  -6   7   5    4.37    0.75
   6   7  -5    3.30    0.60
  -6   7   5    1.83    0.55
   6  -7   5    3.70    0.73
   6   7   6    0.39    0.51
   6  -7  -6   -0.03    0.57
  -6   7  -6    0.67    0.45
  -6  -7   6    0.46    0.64
  -6   7   6    0.05    0.52
   6   7  -6    0.22    0.47
  -6   7   6    0.16    0.60
   6  -7   6    0.67    0.65
   6   8   0   40.63    2.88
  -6   8   0   45.96    2.98
  -6  -8   0   40.27    2.97
   6  -8   0   41.09    2.79
   6  -8   0   43.45    2.88
   6   8   1    1.03    0.41
  -6   8  -1    0.96    0.35
  -6  -8   1    1.93    0.51
   6   8   1    1.28    0.32
   6  -8  -1    1.80    0.43
  -6   8   1    0.60    0.49
   6  -8   1    1.45    0.42
  -6  -8  -1    1.33    0.52
   6   8  -1    0.77    0.30
   6  -8   1    1.43    0.40
  -6   8  -2    0.74    0.33
   6   8   2    0.90    0.34
   6   8   2   -0.12    0.38
  -6  -8   2    0.24    0.46
   6  -8  -2    0.70    0.42
  -6  -8   2    0.25    0.34
   6  -8   2    0.28    0.39
   6   8  -2    0.67    0.33
  -6   8   2    1.13    0.33
  -6  -8  -2    1.19    0.51
   6  -8   2    0.39    0.40
  -6   8   2    0.43    0.47
  -6  -8   3   23.58    1.79
   6  -8  -3   24.13    1.77
   6   8   3   26.12    1.76
  -6  -8   3   24.39    1.85
   6   8   3   22.14    1.81
  -6   8  -3   22.01    1.70
   6  -8   3   24.09    1.84
  -6   8   3   18.39    1.86
   6   8  -3   23.91    1.73
  -6   8   3   22.59    1.73
  -6  -8  -3   25.15    1.90
  -6  -8   4    7.02    0.89
   6  -8  -4    7.69    0.88
   6   8   4    7.75    0.83
  -6  -8   4    7.27    0.88
  -6   8  -4    6.92    0.75
  -6  -8  -4    7.59    0.91
  -6   8   4    6.12    0.77
   6   8  -4    7.30    0.80
  -6  -8  -4    9.09    0.99
  -6   8   4    6.23    0.91
   6  -8   4    6.26    0.89
  -6   8  -5    6.64    0.74
   6   8   5    6.65    0.84
   6  -8  -5    6.06    0.87
  -6  -8   5    7.00    0.93
  -6  -8   5    6.78    0.91
   6  -8   5    6.52    0.95
   6   8  -5    7.05    0.83
  -6   8   5    5.98    0.81
  -6   8   5    7.51    0.98
  -6  -8  -5    4.76    0.89
   6   8   6    1.63    0.61
  -6   9   0    0.96    0.44
   6  -9   0    1.19    0.37
  -6  -9   0    0.66    0.51
   6   9   0    1.33    0.37
   6  -9   0    1.15    0.38
   6   9   1   15.67    1.14
  -6   9  -1   13.63    1.15
  -6  -9   1   14.23    1.27
   6  -9  -1   13.54    1.18
   6  -9   1   15.67    1.22
   6   9  -1   11.81    1.09
   6  -9   1   14.76    1.20
  -6   9   1   10.82    1.26
  -6  -9  -1   16.47    1.24
  -6  -9  -1   14.99    1.32
  -6   9  -2   11.18    0.95
  -6  -9   2   12.02    1.12
   6  -9  -2   12.36    1.08
   6   9   2   12.18    0.97
   6   9  -2    7.63    0.91
  -6  -9  -2    8.62    0.98
   6  -9   2   10.30    1.01
  -6   9   2   11.88    1.17
   6  -9   2   10.77    1.05
  -6  -9  -2   12.05    1.13
  -6  -9   3   10.35    1.09
  -6  -9   3   11.36    1.07
   6  -9  -3   11.78    1.07
  -6   9  -3   10.46    0.95
   6   9   3   12.07    0.97
  -6  -9  -3    9.54    1.08
  -6   9   3    8.08    1.10
   6  -9   3   12.10    1.13
   6   9  -3    9.62    0.92
  -6   9   3    9.84    0.94
  -6  -9  -3   10.14    1.05
  -6   9  -4    0.51    0.40
   6  -9  -4    1.12    0.58
  -6  -9   4    0.65    0.57
  -6  -9   4    0.80    0.54
   6   9   4    1.27    0.46
  -6   9   4    0.83    0.46
  -6  -9  -4    1.14    0.63
   6   9  -4    0.50    0.42
   6  -9   4    0.40    0.55
  -6  -9  -4    1.26    0.64
  -6   9   4    0.65    0.58
  -6  -9   5    2.30    0.75
   6   9   5    1.34    0.56
  -6  -9   5    2.58    0.68
   6  -9  -5    3.21    0.71
  -6   9  -5    2.91    0.54
   6   9  -5    2.35    0.59
  -6  -9  -5    2.08    0.74
   6  -9   5    2.37    0.73
  -6   9   5    2.15    0.61
   6 -10   0   16.72    1.32
   6  10   0   16.65    1.29
  -6 -10   0   16.87    1.47
  -6  10   0   16.24    1.41
   6 -10  -1    1.01    0.46
   6  10   1    1.30    0.39
  -6 -10   1    0.42    0.53
  -6  10  -1    1.73    0.44
   6  10  -1    0.92    0.38
  -6  10   1    0.87    0.57
  -6 -10  -1    1.60    0.58
   6 -10   1    0.71    0.42
   6 -10   1    0.71    0.41
   6 -10  -2    2.30    0.57
   6  10   2    4.00    0.55
  -6  10  -2    2.71    0.50
  -6 -10   2    2.59    0.66
   6 -10   2    2.75    0.58
  -6 -10  -2    2.45    0.62
  -6 -10  -2    3.43    0.70
  -6  10   2    2.46    0.69
   6  10  -2    1.68    0.43
   6 -10  -3    6.11    0.80
  -6 -10   3    5.28    0.82
  -6  10  -3    5.00    0.64
   6  10   3    5.86    0.69
   6 -10   3    4.53    0.76
   6  10  -3    3.45    0.60
  -6 -10  -3    5.02    0.77
  -6  10   3    4.50    0.85
  -6 -10  -3    5.09    0.83
  -6 -10   4    9.47    1.10
   6 -10  -4   11.24    1.11
  -6  10  -4    7.96    0.88
  -6 -10   4    9.39    1.03
   6  10   4    9.59    1.01
  -6  10   4    8.17    0.92
   6  10  -4    8.34    0.92
  -6 -10  -4    8.47    1.08
   6 -10   4   10.50    1.12
  -6 -10   5    4.63    0.90
  -6 -10   5    5.33    0.86
  -6  10   5    3.95    0.75
  -6 -11   0   16.29    1.55
   6 -11   0   17.24    1.41
  -6  11   0   18.76    1.56
   6  11   0   18.72    1.40
   6 -11  -1    3.41    0.62
   6  11   1    3.54    0.55
  -6  11  -1    2.45    0.54
  -6 -11   1    3.08    0.70
  -6  11   1    2.38    0.70
   6 -11   1    3.20    0.59
  -6 -11  -1    2.25    0.68
   6  11  -1    3.64    0.53
  -6 -11   2    3.84    0.73
   6  11   2    3.33    0.56
   6 -11  -2    4.42    0.69
  -6  11  -2    2.52    0.53
   6 -11   2    4.06    0.67
  -6 -11  -2    3.45    0.74
  -6  11   2    1.84    0.70
   6  11  -2    2.34    0.52
  -6  11  -3    5.44    0.70
   6  11   3    6.90    0.78
   6 -11  -3    6.00    0.85
  -6 -11   3    7.13    0.93
   6 -11   3    4.50    0.80
  -6 -11  -3    5.66    0.89
  -6 -11  -3    5.48    0.89
   6  11  -3    4.76    0.68
  -6  11   3    6.07    0.96
  -6 -11   4    0.18    0.64
   6  11   4   -0.55    0.45
  -6 -11  -4   -0.23    0.70
   6 -11   4    0.06    0.60
   6  11  -4   -0.11    0.43
   6  12   0    9.41    0.82
  -6  12   0    7.45    0.96
   6 -12   0    7.70    0.84
  -6 -12   0    5.30    0.91
   6 -12  -1    1.64    0.55
  -6  12  -1    0.74    0.49
  -6 -12   1    2.21    0.69
   6  12   1    1.56    0.47
  -6 -12  -1    1.43    0.65
  -6  12   1    1.18    0.67
   6  12  -1    1.10    0.43
   6 -12  -2   -0.46    0.49
  -6 -12   2    0.11    0.60
  -6  12  -2   -0.15    0.43
   6  12   2    0.24    0.39
   6  12  -2    0.61    0.44
  -6  12   2   -0.28    0.63
  -6 -12  -2    0.42    0.63
   6 -12   2    0.00    0.49
   6 -12  -3    1.79    0.68
   6  12   3    1.05    0.48
  -6 -12   3    1.21    0.67
  -6  12  -3    0.99    0.50
  -6 -12  -3   -0.41    0.70
   6 -12   3    1.65    0.63
   6  12  -3    0.66    0.45
  -6 -12  -3    1.63    0.72
   6  13   0    7.94    0.87
  -6 -13   0    8.06    1.05
  -6  13   0    6.99    1.02
   6 -13  -1    6.51    0.85
  -6  13  -1    6.72    0.86
  -6 -13   1    5.27    0.95
   6  13   1    5.54    0.77
  -6 -13  -1    6.73    0.96
   6  13  -1    5.63    0.74
  -6  13   1    6.21    1.04
   6 -13  -2    3.62    0.74
   6 -13   2    2.46    0.70
  -6 -13  -2    3.07    0.80
  -7   0   0    0.06    0.29
  -7   0   0    0.29    0.26
   7   0   0   -0.33    0.23
   7   0   0   -0.09    0.12
  -7   0  -1   13.06    0.96
   7   0   1   14.88    1.02
   7   0   1   10.77    0.81
  -7   0   1    9.50    0.99
  -7   0   1   12.23    1.01
   7   0   2   54.36    3.51
   7   0  -2   52.91    3.54
   7   0  -2   55.01    3.41
  -7   0  -2   53.97    3.53
  -7   0   2   51.35    3.64
  -7   0  -2   48.39    3.65
  -7   0   2   54.99    3.52
  -7   0  -3    1.56    0.58
   7   0  -3    2.11    0.35
  -7   0  -3    1.83    0.29
   7   0   3    2.45    0.51
  -7   0   3    1.77    0.48
   7   0  -3    1.53    0.33
  -7   0  -4    8.34    1.06
   7   0  -4    9.09    0.83
   7   0  -4   11.82    0.88
  -7   0   4    9.89    1.01
   7   0   4    9.84    1.01
  -7   0  -5    1.80    0.68
   7   0  -5    1.21    0.39
   7   0   5    1.08    0.53
  -7   0   5    0.83    0.51
   7   0  -6   30.00    2.21
   7   0   6   29.95    2.33
  -7   0  -6   28.30    2.49
  -7   0   6   33.67    2.41
  -7   0  -7    0.29    0.85
  -7  -1   0   -0.64    0.28
   7  -1   0   -0.19    0.23
   7  -1   0   -0.12    0.12
   7   1   0   -0.07    0.24
  -7  -1   0   -0.10    0.25
  -7   1   0    0.42    0.28
   7   1   0   -0.31    0.12
  -7   1   0   -0.04    0.30
  -7  -1   1   11.57    1.02
   7   1   1   10.06    0.99
  -7   1  -1   11.21    1.08
   7  -1  -1   11.69    0.89
  -7   1  -1   12.04    0.97
  -7  -1   1    9.58    0.99
   7  -1  -1   11.88    0.99
   7  -1   1   12.70    1.02
  -7   1   1   12.93    1.04
   7   1  -1   13.33    0.91
  -7   1   1   11.35    1.01
   7   1  -1   14.43    0.99
  -7  -1  -1   11.48    1.08
  -7  -1  -1   14.62    0.97
   7   1   2   12.18    1.00
   7   1   2   11.00    0.78
   7  -1  -2   11.21    0.82
  -7  -1   2   12.94    0.95
  -7   1  -2   11.41    0.83
  -7   1  -2    8.68    0.95
   7  -1  -2   11.21    0.88
  -7  -1   2   11.91    0.97
   7   1  -2    9.28    0.85
  -7   1   2    6.81    0.91
  -7  -1  -2   10.82    1.03
  -7  -1  -2   11.40    0.83
   7   1  -2    9.24    0.90
   7  -1   2    9.19    0.94
  -7   1  -3  115.51    7.35
   7  -1  -3  113.96    7.01
  -7  -1   3  113.83    7.48
   7   1   3  117.67    7.14
   7  -1  -3  109.22    7.34
  -7   1  -3  111.41    7.37
  -7   1   3  108.63    7.49
   7  -1   3  119.24    7.13
  -7  -1  -3  108.90    7.43
   7   1  -3  108.43    6.99
   7   1  -3  107.83    7.37
   7  -1  -4   22.34    1.68
  -7   1  -4   24.07    1.65
   7   1   4   25.03    1.81
  -7  -1   4   24.20    1.85
   7  -1  -4   25.90    1.68
  -7   1  -4   21.76    1.83
   7  -1   4   24.77    1.80
   7   1  -4   22.77    1.70
  -7  -1  -4   17.78    1.91
  -7   1   4   24.72    1.86
   7  -1  -5    7.80    0.76
   7   1   5    7.37    0.91
  -7   1  -5    6.72    0.93
  -7  -1   5    7.53    0.91
   7   1  -5    6.80    0.76
  -7  -1  -5    6.47    1.02
   7  -1   5    6.72    0.89
  -7   1   5    7.29    0.92
  -7   1  -6    2.15    0.77
  -7  -1   6    3.47    0.72
   7   1   6    2.35    0.69
   7  -1  -6    2.40    0.53
  -7  -1  -6    2.08    0.82
  -7   1   6    2.93    0.71
   7   1  -6    2.38    0.54
   7  -1   6    3.00    0.72
   7   1   7    3.54    0.87
  -7   1  -7    3.50    1.01
   7   2   0   -0.03    0.25
  -7   2   0   -0.64    0.30
   7   2   0   -0.07    0.14
   7  -2   0   -0.03    0.25
   7  -2   0    0.06    0.13
  -7  -2   0   -0.52    0.30
  -7  -2   0   -0.59    0.20
  -7   2   0   -0.23    0.27
  -7   2  -1   11.98    1.10
  -7  -2   1   12.70    1.03
   7  -2  -1   11.32    0.99
  -7  -2   1   12.54    1.09
   7   2   1   14.08    1.05
  -7   2  -1   11.36    0.99
   7  -2  -1   11.11    0.90
  -7  -2  -1   11.36    1.13
  -7   2   1   12.77    1.03
  -7  -2  -1   13.65    0.98
  -7   2   1   13.00    1.09
   7   2  -1   14.86    1.02
   7   2  -1   13.79    0.95
   7  -2   1   13.91    1.07
   7  -2  -2   11.50    0.87
  -7   2  -2   11.93    0.89
  -7  -2   2   13.26    1.03
   7  -2  -2   10.63    0.91
   7   2   2   10.74    0.83
   7   2   2   12.59    1.03
  -7  -2   2   13.00    1.01
  -7   2   2    8.49    1.00
   7   2  -2   11.52    0.92
   7   2  -2   13.19    0.94
  -7  -2  -2   14.65    1.15
   7  -2   2    8.06    0.95
   7  -2   2    9.76    1.00
   7  -2  -3    6.50    0.64
  -7  -2   3    6.83    0.78
   7   2   3    7.22    0.63
  -7  -2   3    6.93    0.67
  -7   2  -3    7.67    0.64
   7  -2  -3    8.24    0.71
   7   2   3    7.60    0.82
   7  -2   3    6.42    0.77
   7  -2   3    7.28    0.79
  -7   2   3    5.66    0.77
   7   2  -3    6.23    0.69
  -7  -2  -3    5.63    0.80
  -7  -2   4    1.57    0.51
  -7   2  -4    1.80    0.34
   7   2   4    1.69    0.51
   7  -2  -4    1.65    0.43
   7  -2  -4    2.12    0.39
  -7   2   4    2.62    0.56
   7  -2   4    1.38    0.48
  -7  -2  -4    1.87    0.62
   7  -2   4    1.55    0.50
   7   2  -4    1.40    0.42
   7  -2  -5    0.12    0.33
  -7   2  -5   -0.30    0.28
  -7  -2   5   -0.38    0.46
   7  -2  -5    0.03    0.40
   7   2   5    0.57    0.49
   7  -2   5   -0.47    0.45
   7  -2   5    0.40    0.51
  -7   2   5    0.81    0.52
   7   2  -5    0.10    0.35
  -7  -2  -5    0.67    0.63
  -7  -2   6   32.79    2.53
   7  -2  -6   31.46    2.36
   7   2   6   31.97    2.49
   7  -2   6   35.03    2.58
  -7   2   6   32.16    2.54
   7   2  -6   32.33    2.41
  -7  -2  -6   36.37    2.64
  -7   2  -7    1.49    0.83
  -7  -3   0    0.25    0.33
   7  -3   0   -0.19    0.27
  -7   3   0   -0.43    0.28
  -7   3   0   -0.19    0.27
   7   3   0    0.16    0.25
  -7  -3   0   -0.07    0.21
   7   3   0    0.16    0.17
   7   3   1   10.95    0.91
   7  -3  -1   10.37    0.86
  -7  -3   1   11.05    0.87
  -7   3  -1   12.33    0.86
   7  -3  -1   10.26    0.74
   7   3   1    7.57    0.75
  -7  -3   1   11.89    0.97
  -7   3   1   11.82    0.97
   7   3  -1   11.35    0.80
  -7  -3  -1    8.72    0.78
   7  -3   1    9.52    0.91
  -7  -3  -1    9.38    0.96
  -7   3   1   11.81    0.94
   7   3  -1    7.92    0.83
   7  -3   1    9.14    0.89
   7  -3  -2   22.48    1.54
  -7  -3   2   22.18    1.65
   7   3   2   21.00    1.53
  -7  -3   2   21.65    1.65
  -7   3  -2   21.25    1.56
   7   3   2   23.27    1.66
   7  -3  -2   21.29    1.57
   7  -3   2   21.23    1.64
  -7  -3  -2   22.87    1.75
   7   3  -2   24.15    1.54
   7  -3   2   22.51    1.66
  -7   3   2   19.16    1.70
   7   3  -2   24.31    1.60
   7  -3  -3   73.75    4.82
   7   3   3   75.04    4.83
  -7   3  -3   74.31    4.85
   7  -3  -3   75.80    4.66
   7   3   3   71.70    4.75
  -7  -3   3   75.82    4.95
  -7  -3   3   75.16    4.82
   7   3  -3   66.87    4.87
   7  -3   3   72.69    4.89
   7  -3   3   66.25    4.72
  -7  -3  -3   74.09    4.92
   7  -3  -4    5.46    0.63
  -7   3  -4    4.93    0.54
  -7  -3   4    5.05    0.72
   7   3   4    4.41    0.70
   7  -3  -4    5.30    0.58
   7  -3   4    4.54    0.71
   7   3  -4    4.18    0.63
  -7   3   4    5.38    0.75
   7  -3   4    5.99    0.73
  -7  -3  -4    5.44    0.79
   7  -3  -5   13.97    1.12
  -7  -3   5   12.78    1.28
   7   3   5   13.64    1.34
  -7   3  -5   13.15    1.07
   7  -3  -5   12.59    1.21
  -7  -3  -5   14.02    1.35
   7   3  -5   12.48    1.16
   7  -3   5   14.82    1.30
   7  -3   5   13.12    1.32
  -7   3   5   15.65    1.36
   7  -3  -6    1.00    0.43
   7   3   6    0.18    0.61
  -7  -3   6    0.29    0.59
  -7  -3  -6    0.63    0.72
  -7   3   6    1.85    0.65
   7  -3   6    1.39    0.65
   7   3  -6    1.65    0.54
   7  -4   0   -0.02    0.23
  -7   4   0   -0.65    0.31
   7   4   0    0.07    0.25
  -7  -4   0    0.25    0.22
   7  -4   0    0.10    0.28
  -7  -4   0   -0.29    0.37
   7   4   0    0.03    0.18
   7  -4  -1   34.17    2.33
   7  -4  -1   31.37    2.32
  -7  -4   1   36.07    2.42
  -7  -4   1   36.30    2.49
  -7   4  -1   35.07    2.43
   7   4   1   36.28    2.39
   7   4  -1   34.05    2.31
  -7   4   1   37.61    2.53
   7   4  -1   37.77    2.38
  -7   4   1   34.91    2.41
   7  -4   1   31.78    2.42
   7  -4   1   36.13    2.39
  -7  -4   2    6.57    0.72
  -7  -4   2    7.21    0.71
   7   4   2    6.80    0.61
   7  -4  -2    6.12    0.59
   7   4   2    6.01    0.72
  -7   4  -2    6.18    0.62
   7  -4  -2    7.33    0.69
  -7   4   2    6.20    0.77
   7  -4   2    6.27    0.73
   7   4  -2    8.99    0.66
  -7   4   2    5.89    0.61
   7  -4   2    6.76    0.74
  -7  -4  -2    5.10    0.77
   7  -4  -3    6.31    0.60
   7   4   3    7.23    0.80
   7   4   3    6.18    0.61
  -7  -4   3    7.00    0.75
  -7   4  -3    5.90    0.59
   7  -4  -3    6.62    0.70
  -7  -4   3    6.15    0.70
  -7  -4  -3    5.20    0.79
   7  -4   3    5.83    0.72
   7  -4   3    5.02    0.71
  -7   4   3    5.63    0.64
   7   4  -3    6.64    0.67
  -7   4   3    2.81    0.68
   7   4   4    0.04    0.29
  -7  -4   4   -0.05    0.43
  -7   4  -4    0.37    0.31
   7  -4  -4    0.45    0.40
   7   4   4    0.00    0.42
   7  -4  -4   -0.02    0.29
   7   4  -4    0.58    0.37
   7  -4   4    0.08    0.42
  -7   4   4   -0.30    0.43
   7  -4   4    0.31    0.42
  -7  -4  -4    0.34    0.56
  -7   4   4   -0.30    0.37
   7  -4  -5    1.35    0.49
  -7   4  -5    0.66    0.35
   7   4   5    1.09    0.56
  -7  -4   5    0.58    0.54
   7  -4  -5    0.97    0.40
   7  -4   5    1.14    0.56
  -7  -4  -5    0.15    0.64
   7   4  -5    0.40    0.40
  -7   4   5    1.54    0.60
  -7  -4   6   34.27    2.64
   7   4   6   35.51    2.63
   7  -4  -6   35.84    2.45
   7  -4  -6   37.51    2.46
  -7   4  -6   33.44    2.40
  -7   4   6   37.03    2.67
   7   4  -6   26.80    2.49
   7  -4   6   33.08    2.62
  -7  -4  -6   36.49    2.72
   7   5   0   -0.10    0.21
  -7  -5   0    0.29    0.43
   7  -5   0   -0.35    0.29
   7  -5   0   -0.15    0.25
  -7   5   0    0.51    0.37
   7   5   0    0.03    0.26
   7  -5  -1    0.91    0.34
  -7   5  -1    1.93    0.37
   7   5   1    1.04    0.35
  -7  -5   1    0.90    0.31
  -7  -5   1    1.73    0.48
   7   5   1    0.93    0.27
  -7   5   1    1.66    0.48
   7   5  -1    1.36    0.31
   7  -5   1    1.40    0.36
  -7  -5  -1    1.44    0.49
  -7   5   1    0.77    0.25
   7   5  -1    1.22    0.29
   7  -5   1    1.56    0.43
  -7  -5   2    0.24    0.41
   7  -5  -2   -0.11    0.33
   7   5   2    0.15    0.24
  -7  -5   2    0.09    0.32
   7   5   2    0.04    0.35
  -7   5  -2   -0.07    0.28
  -7   5   2   -0.05    0.25
  -7  -5  -2    0.65    0.50
   7   5  -2   -0.04    0.27
  -7   5   2    0.08    0.42
   7  -5   2   -0.31    0.34
   7  -5   2    0.08    0.34
  -7  -5   3   33.06    2.35
  -7   5  -3   31.90    2.27
   7  -5  -3   32.08    2.25
   7   5   3   33.11    2.34
   7   5   3   33.88    2.28
  -7  -5   3   33.22    2.37
  -7  -5  -3   25.74    2.40
  -7   5   3   32.47    2.29
   7   5  -3   35.54    2.30
   7  -5   3   32.62    2.36
  -7  -5   4    5.86    0.76
  -7  -5   4    6.53    0.76
  -7   5  -4    5.39    0.61
   7   5   4    6.52    0.70
   7   5   4    5.80    0.82
   7  -5  -4    8.07    0.77
   7   5  -4    6.67    0.73
   7  -5   4    5.03    0.74
  -7  -5  -4    3.46    0.78
  -7   5   4    5.86    0.71
  -7   5   4    4.92    0.82
   7  -5   4    6.41    0.83
  -7  -5   5    9.79    1.08
   7   5   5    8.96    1.11
  -7   5  -5    9.77    0.88
   7   5   5   10.09    0.96
   7  -5  -5    9.91    0.98
  -7   5   5    9.54    0.94
  -7   5   5    9.72    1.12
   7   5  -5    9.24    0.94
   7  -5   5   10.12    1.11
  -7  -5  -5    8.04    1.09
   7  -5  -6    0.78    0.56
  -7   5  -6    0.48    0.42
  -7  -5   6    1.09    0.68
   7   5   6    0.58    0.68
   7  -5  -6    1.01    0.49
  -7   5   6    1.99    0.70
   7  -5   6    1.01    0.66
   7   5  -6    1.27    0.52
  -7  -6   0    0.31    0.45
   7  -6   0    0.34    0.28
   7  -6   0    0.37    0.33
   7   6   0   -0.30    0.23
  -7   6   0    0.44    0.41
   7   6   0   -0.34    0.26
   7   6   1   23.50    1.61
  -7   6  -1   22.18    1.59
  -7  -6   1   22.23    1.56
  -7  -6   1   22.69    1.71
   7   6   1   18.06    1.52
   7  -6  -1   22.17    1.57
   7   6  -1   21.40    1.55
  -7  -6  -1   21.89    1.73
   7  -6   1   23.51    1.63
   7  -6   1   16.14    1.59
  -7   6   1   24.82    1.75
   7  -6  -2    9.63    0.91
  -7  -6   2   10.79    0.94
   7   6   2    9.40    0.98
   7   6   2    9.40    0.85
  -7   6  -2    9.50    0.88
  -7  -6   2   10.36    1.00
   7  -6   2   10.25    0.98
  -7   6   2   10.60    0.86
   7   6  -2   11.01    0.88
  -7  -6  -2    8.31    1.03
  -7   6   2   12.24    1.10
   7  -6   2   10.24    0.96
  -7  -6   3    2.26    0.52
   7   6   3    2.86    0.43
  -7  -6   3    2.10    0.55
   7  -6  -3    1.77    0.48
  -7   6  -3    1.86    0.41
   7   6   3    1.64    0.51
   7   6  -3    2.12    0.44
   7  -6   3    1.81    0.50
  -7  -6  -3    2.01    0.61
  -7   6   3    2.43    0.60
  -7   6   3    1.75    0.43
   7  -6   3    2.10    0.52
  -7   6  -4    1.66    0.41
   7   6   4    2.02    0.45
   7  -6  -4    1.46    0.51
   7   6   4    1.81    0.57
  -7  -6   4    1.96    0.58
  -7  -6   4    1.74    0.56
  -7   6   4    1.89    0.45
  -7   6   4    1.42    0.58
   7  -6   4    1.96    0.59
  -7  -6  -4    0.71    0.62
   7   6  -4    2.72    0.49
  -7  -6   5    1.10    0.61
   7  -6  -5    0.96    0.53
   7   6   5    1.15    0.47
  -7   6  -5    0.68    0.39
   7   6   5    1.54    0.63
  -7   6   5    1.05    0.52
   7  -6   5    0.80    0.60
   7   6  -5    1.20    0.48
  -7  -6  -5   -0.13    0.66
  -7   6   5    0.97    0.60
  -7   6  -6   21.79    1.61
  -7  -6   6   24.13    1.88
   7  -6  -6   19.27    1.72
  -7   6   6   20.12    1.87
   7   6  -6   20.90    1.70
   7  -6   6   19.76    1.86
  -7   6   6   18.45    1.70
   7   7   0   -0.19    0.23
   7  -7   0   -0.11    0.33
   7   7   0   -0.26    0.29
  -7   7   0   -0.16    0.39
  -7  -7   0   -0.33    0.46
   7  -7   0    0.40    0.30
   7  -7  -1    4.01    0.55
   7   7   1    3.67    0.55
  -7  -7   1    4.66    0.67
  -7   7  -1    3.41    0.52
   7   7   1    2.52    0.42
   7  -7   1    3.07    0.57
  -7  -7  -1    4.06    0.66
   7  -7   1    3.32    0.53
   7   7  -1    3.26    0.45
  -7   7   1    3.80    0.66
  -7  -7   2    7.63    0.73
  -7  -7   2    6.10    0.79
   7  -7  -2    7.49    0.76
   7   7   2    5.65    0.65
   7   7   2    6.74    0.79
  -7   7  -2    5.21    0.65
   7  -7   2    7.05    0.79
   7   7  -2    5.96    0.66
  -7   7   2    7.74    0.87
  -7  -7  -2    6.01    0.84
   7  -7   2    7.42    0.77
  -7  -7   3   43.93    3.00
  -7  -7   3   43.27    2.99
  -7   7  -3   43.06    2.92
   7   7   3   41.16    2.93
   7  -7  -3   41.26    2.86
   7   7   3   39.52    2.93
  -7   7   3   42.95    2.93
  -7   7   3   37.73    3.06
   7   7  -3   46.74    2.93
   7  -7   3   42.04    3.00
  -7  -7  -3   43.37    3.05
   7  -7   3   40.25    2.90
   7   7   4    8.51    0.88
   7  -7  -4    9.30    0.94
  -7  -7   4   10.32    1.01
  -7  -7   4    8.04    0.95
  -7   7  -4    8.24    0.82
   7   7   4    7.77    1.00
  -7  -7  -4    6.92    1.00
   7  -7   4    8.19    0.98
   7   7  -4    8.57    0.86
  -7   7   4    6.05    0.96
  -7   7   4    7.84    0.85
   7  -7  -5    2.38    0.62
  -7  -7   5    3.83    0.77
  -7   7  -5    2.68    0.52
   7   7   5    3.16    0.76
   7   7   5    3.29    0.62
  -7   7   5    3.86    0.79
   7  -7   5    2.69    0.72
  -7   7   5    2.60    0.62
   7   7  -5    5.01    0.67
  -7  -7  -5    3.13    0.78
  -7   7  -6    0.93    0.48
  -7   7   6    0.82    0.70
   7   8   0   -0.54    0.25
   7  -8   0    0.00    0.31
   7  -8   0   -0.15    0.34
  -7   8   0    0.42    0.43
  -7  -8   0    0.69    0.50
  -7   8  -1    0.88    0.39
  -7  -8   1    1.75    0.55
   7  -8  -1    1.33    0.44
   7   8   1    1.33    0.36
   7   8   1    1.43    0.44
  -7   8   1    2.22    0.58
   7  -8   1    2.26    0.46
  -7  -8  -1    1.76    0.59
   7  -8   1    1.91    0.48
   7   8  -1    0.96    0.33
   7   8   2    5.70    0.63
   7   8   2    5.02    0.71
   7  -8  -2    5.29    0.67
  -7  -8   2    4.84    0.75
  -7   8  -2    4.29    0.58
   7   8  -2    4.76    0.59
   7  -8   2    5.52    0.68
   7  -8   2    3.43    0.64
  -7  -8  -2    5.23    0.80
  -7   8   2    6.77    0.84
   7   8   3    1.86    0.44
  -7   8  -3    1.16    0.41
   7   8   3    0.86    0.54
  -7  -8   3    1.97    0.54
   7  -8  -3    2.33    0.56
  -7  -8   3    1.49    0.61
   7   8  -3    1.49    0.42
  -7   8   3    1.79    0.45
   7  -8   3    1.67    0.56
  -7  -8  -3    1.55    0.65
  -7   8   3    1.30    0.63
  -7   8  -4    1.63    0.46
   7   8   4    2.02    0.51
   7   8   4    2.72    0.69
   7  -8  -4    3.55    0.65
  -7  -8   4    2.35    0.65
  -7  -8   4    2.46    0.63
  -7   8   4    1.72    0.52
  -7   8   4    1.32    0.65
  -7  -8  -4    3.16    0.74
   7  -8   4    2.12    0.64
   7   8  -4    2.74    0.53
   7  -8  -5   -0.20    0.52
  -7   8  -5    0.19    0.42
  -7  -8   5    0.53    0.62
   7   8   5    0.66    0.48
   7   8  -5   -0.14    0.44
  -7   8   5    0.58    0.65
  -7  -8  -5    0.24    0.66
   7  -8   5   -0.09    0.57
  -7   8   5    0.00    0.49
   7   9   0    0.17    0.32
   7  -9   0   -0.06    0.36
  -7   9   0   -0.19    0.43
  -7  -9   0    0.05    0.52
   7   9   1    0.49    0.32
   7  -9  -1    1.13    0.44
  -7  -9   1   -0.18    0.50
   7   9   1    0.92    0.45
  -7   9  -1    0.86    0.40
   7  -9   1    0.42    0.40
   7  -9   1    0.88    0.44
  -7  -9  -1    1.42    0.62
   7   9  -1   -0.11    0.31
  -7   9   1    0.54    0.53
  -7  -9   2    8.13    0.95
  -7   9  -2    7.37    0.79
   7   9   2    8.22    0.93
   7  -9  -2    8.76    0.91
   7   9   2    7.72    0.82
  -7  -9  -2    8.90    1.02
   7  -9   2    7.82    0.86
   7   9  -2    8.06    0.77
  -7   9   2    8.14    0.99
   7  -9   2    6.72    0.86
   7  -9  -3   23.21    1.79
   7   9   3   22.95    1.77
  -7  -9   3   23.09    1.92
   7   9   3   24.19    1.90
  -7   9  -3   22.50    1.75
   7   9  -3   22.34    1.74
  -7  -9  -3   26.10    1.99
   7  -9   3   25.46    1.90
  -7   9   3   23.10    1.99
  -7  -9   4    5.36    0.81
  -7  -9   4    4.94    0.84
   7  -9  -4    6.38    0.83
   7   9   4    5.50    0.74
  -7   9  -4    4.72    0.65
   7  -9   4    4.94    0.84
  -7  -9  -4    5.43    0.91
  -7  -9  -4    5.28    0.86
   7   9  -4    5.01    0.69
  -7   9   4    5.01    0.71
  -7   9   4    2.55    0.80
  -7  -9   5    0.42    0.62
   7   9   5    0.81    0.54
  -7  -9   5    0.64    0.70
  -7   9   5    0.10    0.54
  -7   9   5    1.66    0.74
   7 -10   0   -0.52    0.37
   7  10   0    0.25    0.32
  -7 -10   0   -0.42    0.54
  -7  10   0    0.39    0.49
  -7 -10   1    3.93    0.74
   7 -10  -1    3.46    0.61
  -7  10  -1    4.29    0.62
   7  10   1    3.82    0.53
   7  10  -1    1.94    0.46
  -7 -10  -1    2.68    0.72
   7 -10   1    3.81    0.63
  -7  10   1    1.97    0.67
   7 -10   1    3.85    0.60
   7 -10  -2    3.09    0.62
  -7 -10   2    4.28    0.77
   7  10   2    4.13    0.58
  -7  10  -2    3.47    0.57
  -7 -10  -2    3.79    0.78
  -7 -10  -2    4.03    0.71
   7  10  -2    1.36    0.47
  -7  10   2    3.56    0.73
   7 -10   2    3.02    0.62
   7 -10  -3    0.98    0.52
   7  10   3    1.10    0.46
  -7  10  -3    1.12    0.45
  -7 -10   3    1.17    0.63
   7 -10   3    0.44    0.53
  -7 -10  -3    0.61    0.63
  -7 -10  -3    0.66    0.67
  -7  10   3   -0.13    0.61
   7  10  -3    0.26    0.41
   7  10   4    2.13    0.57
  -7  10  -4    2.54    0.55
  -7 -10   4    3.28    0.77
   7 -10  -4    1.26    0.62
   7  10  -4    2.43    0.55
  -7 -10  -4    1.96    0.77
  -7  10   4    0.34    0.68
  -7 -10  -4    0.75    0.72
   7 -10   4    1.45    0.66
  -7  11   0    0.28    0.54
  -7 -11   0    0.56    0.61
   7  11   0    0.09    0.33
   7 -11   0   -0.09    0.43
   7  11   1    0.54    0.36
   7 -11  -1    0.04    0.45
  -7 -11   1    0.29    0.59
  -7  11  -1    0.05    0.45
   7  11  -1   -0.22    0.36
  -7  11   1   -0.20    0.58
  -7 -11  -1    0.42    0.62
   7 -11   1   -0.39    0.44
   7  11   2    0.69    0.44
  -7 -11   2    0.77    0.63
  -7  11  -2    0.08    0.44
   7 -11  -2   -0.04    0.48
   7  11  -2   -0.27    0.37
   7 -11   2    0.43    0.50
  -7 -11  -2    0.88    0.68
  -7  11   2    0.53    0.62
  -7  11  -3    5.97    0.75
   7 -11  -3    6.10    0.85
  -7 -11   3    6.31    0.96
   7  11   3    5.84    0.79
   7  11  -3    4.30    0.71
  -7 -11  -3    6.08    0.92
  -7 -11  -3    7.34    1.02
   7 -11   3    5.67    0.87
  -7  11   3    6.77    1.02
  -7  12   0   -0.08    0.58
   7 -12   0    0.30    0.50
   7  12   0   -0.10    0.36
  -7 -12   0    1.10    0.66
  -7  12  -1    3.62    0.71
   7  12   1    4.19    0.63
  -7 -12   1    4.08    0.83
   7 -12  -1    5.03    0.74
  -7 -12  -1    4.22    0.85
  -7  12   1    5.12    0.90
   7  12  -1    3.40    0.62
   7 -12  -2   -0.05    0.54
  -7 -12   2    0.21    0.65
  -7  12  -2    0.09    0.47
   7  12   2    0.09    0.44
   7 -12   2   -0.06    0.51
   7  12  -2   -0.40    0.37
  -7  12   2   -0.14    0.65
  -7 -12  -2   -0.01    0.68
  -7 -12  -3    0.74    0.80
   7 -12   3    0.05    0.58
  -7  13   0    0.01    0.64
   7 -13  -1    0.08    0.53
  -7  13   1    1.03    0.76
  -8   0   0  449.56   28.49
  -8   0   0  447.91   28.94
   8   0   0  457.16   27.40
   8   0   0  425.37   28.69
   8   0  -1    0.76    0.23
  -8   0   1    0.24    0.35
  -8   0   1    0.62    0.37
  -8   0  -1    0.74    0.33
   8   0   1    0.87    0.37
  -8   0  -1    1.14    0.44
   8   0  -1    0.76    0.31
   8   0  -2   14.47    1.11
  -8   0  -2   15.62    1.42
  -8   0   2   10.54    1.22
  -8   0   2   17.39    1.23
   8   0   2   14.65    1.26
  -8   0  -2   16.05    1.14
   8   0  -2   14.58    1.18
   8   0  -3    0.82    0.32
   8   0  -3    0.04    0.29
  -8   0  -3    0.33    0.58
   8   0   3    0.72    0.43
  -8   0   3    0.84    0.48
   8   0   4   23.94    1.80
  -8   0  -4   19.55    1.86
  -8   0   4   21.75    1.80
   8   0  -4   22.99    1.64
  -8   0   5    0.04    0.53
   8   0  -5    0.35    0.38
  -8   0  -5    1.16    0.71
   8   0   5    0.09    0.53
   8   0  -6    3.40    0.63
   8   0   6    3.86    0.82
  -8   0   6    4.50    0.85
  -8   0  -6    4.16    0.99
   8  -1   0    3.79    0.50
  -8   1   0    4.64    0.56
  -8   1   0    3.40    0.50
  -8  -1   0    2.84    0.54
   8  -1   0    4.16    0.36
  -8  -1   0    2.87    0.49
   8   1   0    3.80    0.37
   8   1   0    3.56    0.50
  -8   1  -1   69.70    5.14
   8  -1  -1   61.77    5.04
   8  -1  -1   67.01    4.90
   8   1  -1   82.55    4.90
  -8  -1  -1   84.28    5.14
  -8   1   1   79.40    5.08
   8  -1   1   83.55    4.96
   8   1  -1   80.98    5.06
  -8   1   1   78.65    5.19
  -8  -1  -1   85.33    5.12
   8  -1  -2    7.03    0.66
   8   1   2    6.23    0.74
  -8  -1   2    7.10    0.68
  -8   1  -2    7.78    0.65
  -8   1  -2    7.07    0.86
   8  -1  -2    6.03    0.59
  -8  -1   2    7.12    0.76
  -8  -1  -2    5.54    0.60
  -8  -1  -2    5.95    0.78
   8   1  -2    7.52    0.68
   8   1  -2    5.47    0.61
   8  -1   2    5.44    0.72
  -8   1   2    3.98    0.70
  -8  -1   3  103.24    6.77
   8  -1  -3  102.58    6.32
   8   1   3  105.27    6.47
  -8   1  -3  108.97    6.62
  -8   1  -3  100.12    6.69
   8  -1  -3  100.51    6.61
  -8   1   3   84.40    6.74
   8  -1   3  104.09    6.46
   8   1  -3   93.96    6.63
  -8  -1  -3  105.57    6.71
   8   1  -3   97.08    6.32
   8  -1  -4    0.40    0.36
   8  -1  -4   -0.05    0.30
  -8  -1   4   -0.55    0.44
   8   1   4   -0.28    0.43
  -8   1  -4   -0.18    0.52
   8  -1   4    0.39    0.47
  -8  -1  -4   -0.38    0.55
   8   1  -4    0.02    0.33
  -8   1   4    0.49    0.49
  -8   1  -5    1.47    0.68
   8   1   5    1.29    0.59
   8  -1  -5    1.61    0.44
  -8  -1   5    1.82    0.64
   8  -1   5    1.93    0.63
  -8   1   5    1.80    0.62
  -8  -1  -5    1.65    0.72
   8   1  -5    1.59    0.46
  -8  -1   6    1.74    0.71
  -8   1  -6    2.63    0.88
   8   1   6    1.61    0.71
   8  -1  -6    3.03    0.57
  -8   1   6    3.97    0.81
   8  -1   6    1.77    0.70
  -8  -1  -6    2.54    0.85
   8   1  -6    2.46    0.54
  -8   2   0  195.26   12.68
   8   2   0  209.08   12.72
   8   2   0  172.74   12.18
  -8   2   0  220.00   12.89
   8  -2   0  204.07   12.20
  -8  -2   0  174.36   12.67
   8   2   1    5.33    0.64
  -8   2  -1    4.09    0.55
  -8   2  -1    3.86    0.64
   8  -2  -1    3.49    0.54
  -8  -2   1    3.53    0.58
   8  -2  -1    4.62    0.44
  -8  -2   1    4.48    0.56
   8   2  -1    4.90    0.47
  -8   2   1    4.68    0.54
   8   2  -1    4.84    0.56
  -8   2   1    4.33    0.60
   8  -2   1    4.86    0.61
  -8  -2  -1    4.24    0.50
  -8  -2  -1    5.27    0.69
   8   2   2   51.36    3.23
   8   2   2   39.79    3.14
   8  -2  -2   48.00    3.17
  -8   2  -2   45.78    3.29
  -8   2  -2   50.28    3.21
   8  -2  -2   48.19    3.10
  -8  -2   2   51.17    3.25
  -8  -2   2   49.24    3.32
   8   2  -2   46.38    3.20
  -8   2   2   41.74    3.32
  -8  -2  -2   48.86    3.30
   8   2  -2   52.18    3.09
   8  -2   2   47.08    3.19
  -8   2  -3    1.69    0.56
   8  -2  -3    1.58    0.34
  -8   2  -3    1.22    0.33
  -8  -2   3    2.75    0.56
   8  -2  -3    1.22    0.40
   8   2   3    1.53    0.50
  -8   2   3    0.32    0.48
  -8  -2  -3    1.79    0.57
   8  -2   3    1.49    0.50
   8   2  -3    1.32    0.40
   8  -2   3    0.75    0.44
   8  -2  -4   27.93    1.97
   8  -2  -4   28.70    1.97
  -8   2  -4   27.21    2.14
   8   2   4   29.49    2.13
  -8  -2   4   28.61    2.16
  -8   2  -4   30.83    1.97
  -8   2   4   26.95    2.17
   8  -2   4   27.96    2.11
   8  -2   4   25.92    2.12
   8   2  -4   23.39    2.01
  -8  -2  -4   30.03    2.20
   8  -2  -5    0.66    0.37
  -8   2  -5    1.72    0.67
  -8  -2   5    1.84    0.62
   8   2   5    1.25    0.59
   8  -2   5    1.26    0.60
   8   2  -5    0.94    0.45
  -8  -2  -5    1.16    0.67
  -8   2   5    1.70    0.63
   8  -2  -6    3.44    0.58
   8   2   6    4.02    0.84
  -8  -2   6    2.84    0.78
  -8   2  -6    3.74    0.88
   8  -2   6    2.14    0.73
  -8   2   6    4.43    0.85
   8   2  -6    3.58    0.65
  -8  -2  -6    3.71    0.88
   8   3   0    7.30    0.72
  -8   3   0    6.58    0.72
  -8  -3   0    3.47    0.69
   8   3   0    6.61    0.57
  -8  -3   0    6.59    0.63
   8  -3   0    6.27    0.71
  -8   3   0    7.13    0.76
  -8  -3   1   49.87    3.42
   8   3   1   53.33    3.34
  -8  -3   1   48.91    3.43
  -8   3  -1   51.58    3.42
  -8   3  -1   48.31    3.42
   8  -3  -1   46.10    3.25
   8   3  -1   52.91    3.34
  -8   3   1   52.33    3.48
   8   3  -1   42.87    3.24
  -8   3   1   53.10    3.37
  -8  -3  -1   48.32    3.47
   8  -3   1   52.97    3.30
   8   3   2    1.18    0.44
   8  -3  -2    0.89    0.26
   8  -3  -2    0.94    0.36
   8   3   2    0.87    0.23
  -8  -3   2    0.79    0.43
  -8  -3   2    1.64    0.46
  -8   3  -2    0.41    0.31
   8  -3   2    1.13    0.42
   8  -3   2    0.28    0.37
  -8  -3  -2    0.59    0.52
   8   3  -2    0.97    0.31
  -8   3   2    1.16    0.48
   8   3  -2    0.80    0.31
  -8  -3   3  118.18    7.17
  -8   3  -3  108.43    7.21
   8  -3  -3  108.44    6.89
   8   3   3  113.29    7.03
   8  -3  -3  111.06    7.18
  -8  -3   3  108.93    7.33
   8   3  -3   99.54    7.21
   8  -3   3  103.92    7.22
  -8  -3  -3  114.38    7.26
   8   3   4    2.40    0.61
  -8  -3   4    2.46    0.60
   8  -3  -4    2.32    0.43
   8  -3  -4    2.21    0.49
  -8   3  -4    2.22    0.42
   8  -3   4    2.47    0.61
   8   3  -4    2.09    0.48
  -8  -3  -4    3.68    0.70
   8  -3   4    2.94    0.60
  -8   3   4    2.24    0.63
   8  -3  -5    0.17    0.33
  -8   3  -5    0.04    0.33
  -8  -3   5    0.99    0.60
   8  -3  -5    0.65    0.47
   8   3   5   -0.74    0.46
  -8  -3  -5    0.75    0.64
   8  -3   5    0.27    0.54
  -8   3   5    0.31    0.54
   8  -3   5    0.43    0.55
   8   3  -5    0.09    0.38
   8   3   6    0.58    0.64
   8  -3  -6   -0.02    0.41
  -8  -3   6    0.58    0.66
  -8  -3  -6    0.22    0.73
   8  -3   6    0.62    0.67
   8   3  -6   -0.38    0.42
  -8   3   6    0.45    0.67
  -8   4   0  255.69   15.28
  -8  -4   0  220.09   15.33
   8  -4   0  213.49   14.73
   8   4   0  232.46   15.39
   8   4   0  265.39   14.75
  -8  -4   1    4.86    0.55
   8  -4  -1    4.20    0.55
  -8  -4   1    5.47    0.68
  -8   4  -1    4.64    0.58
   8   4   1    4.51    0.61
  -8   4   1    4.07    0.62
  -8  -4  -1    2.05    0.61
   8   4  -1    4.73    0.47
   8  -4   1    3.70    0.56
   8   4  -1    4.36    0.53
   8  -4   1    4.28    0.59
   8   4   2   17.21    1.49
  -8  -4   2   21.08    1.64
  -8   4  -2   20.00    1.55
   8  -4  -2   22.46    1.49
  -8  -4   2   22.95    1.70
   8  -4  -2   21.09    1.55
   8   4   2   21.29    1.66
  -8   4   2   23.07    1.73
   8   4  -2   23.67    1.54
   8  -4   2   19.22    1.64
  -8  -4  -2   20.39    1.77
   8  -4   2   23.77    1.64
   8   4   3    3.06    0.61
   8   4   3    2.71    0.42
  -8   4  -3    2.94    0.44
  -8  -4   3    4.05    0.63
   8  -4  -3    3.10    0.53
  -8  -4   3    3.39    0.58
   8  -4  -3    3.42    0.43
   8  -4   3    2.40    0.57
   8  -4   3    1.68    0.54
  -8   4   3    1.01    0.56
  -8  -4  -3    3.62    0.71
   8   4  -3    3.32    0.48
   8   4   4   18.28    1.57
   8  -4  -4   17.74    1.38
  -8  -4   4   18.97    1.57
  -8   4  -4   17.41    1.38
   8  -4  -4   18.18    1.45
   8   4  -4   19.25    1.45
   8  -4   4   18.28    1.57
  -8  -4  -4   18.11    1.65
   8  -4   4   19.49    1.56
  -8   4  -5    2.31    0.45
   8  -4  -5    2.57    0.48
   8  -4  -5    1.58    0.51
   8   4   5    1.91    0.67
  -8  -4   5    3.24    0.72
   8   4  -5    0.91    0.48
  -8   4   5    1.73    0.66
  -8  -4  -5    2.17    0.74
   8  -4   5    2.65    0.67
   8  -4   5    1.12    0.62
  -8  -4   6    3.81    0.86
   8  -4  -6    3.69    0.60
   8   4   6    3.05    0.84
  -8  -4  -6    3.80    0.93
   8  -4   6    2.68    0.80
  -8   4   6    4.64    0.90
   8   4  -6    3.02    0.66
   8   5   0    1.11    0.38
   8  -5   0    0.39    0.38
   8   5   0    0.71    0.28
  -8  -5   0    1.26    0.54
  -8   5   0    0.98    0.46
   8  -5   0    1.03    0.35
  -8  -5   1   63.77    4.16
  -8  -5   1   62.84    4.22
   8  -5  -1   56.85    3.98
  -8   5  -1   61.05    4.19
   8   5   1   64.43    4.06
   8   5  -1   65.05    3.98
   8  -5   1   61.16    4.15
  -8   5   1   62.79    4.26
   8  -5   1   58.64    4.02
   8   5  -1   61.30    4.11
  -8   5  -2    1.87    0.41
   8  -5  -2    1.85    0.44
   8   5   2    1.08    0.48
   8   5   2    1.29    0.31
  -8  -5   2    0.80    0.52
  -8  -5   2    1.73    0.46
  -8   5   2    2.13    0.56
   8  -5   2    1.19    0.45
  -8  -5  -2    0.10    0.54
   8   5  -2    1.66    0.34
   8  -5   2    1.50    0.47
   8  -5  -3   46.17    3.19
   8   5   3   50.00    3.32
  -8  -5   3   51.20    3.37
  -8  -5   3   52.09    3.40
  -8   5  -3   50.72    3.30
   8  -5  -3   51.98    3.27
   8   5   3   45.36    3.28
   8  -5   3   43.32    3.26
  -8  -5  -3   44.87    3.42
   8  -5   3   47.84    3.38
  -8   5   3   42.14    3.44
   8   5  -3   51.56    3.31
   8   5   4    0.84    0.39
   8   5   4    1.22    0.56
  -8  -5   4    1.35    0.56
   8  -5  -4    1.27    0.48
  -8   5  -4    0.67    0.38
   8  -5  -4    1.06    0.37
  -8  -5  -4   -0.13    0.63
  -8   5   4    0.49    0.57
   8   5  -4    1.21    0.41
   8  -5   4    0.39    0.53
   8  -5   4    1.03    0.52
   8  -5  -5    2.71    0.59
  -8   5  -5    2.39    0.48
   8  -5  -5    2.73    0.52
  -8  -5   5    2.17    0.71
   8   5   5    2.29    0.71
  -8   5   5    2.85    0.76
  -8  -5  -5    2.78    0.81
   8   5  -5    2.55    0.56
   8  -5   5    3.23    0.72
   8  -5  -6    0.93    0.59
   8  -5  -6    0.12    0.46
  -8  -5   6    0.67    0.71
  -8   5  -6   -0.03    0.42
  -8   5   6    0.34    0.68
  -8  -5  -6   -1.15    0.74
   8  -6   0  177.17   10.96
   8   6   0  189.01   10.59
  -8  -6   0  178.06   11.05
   8   6   0  144.41   11.02
   8  -6   0  161.31   10.57
  -8   6  -1    5.57    0.66
   8   6   1    5.55    0.70
   8  -6  -1    5.14    0.64
  -8  -6   1    5.57    0.80
   8  -6   1    6.02    0.69
  -8  -6  -1    4.89    0.79
   8   6  -1    6.02    0.58
  -8   6   1    5.50    0.76
   8  -6   1    4.55    0.68
  -8   6  -2   11.86    1.01
   8   6   2   12.50    1.15
  -8  -6   2   13.13    1.20
   8   6   2   10.04    0.94
  -8  -6   2   13.04    1.09
   8  -6  -2   10.57    1.03
  -8  -6  -2    7.72    1.11
   8  -6   2   12.20    1.08
  -8   6   2   11.79    1.16
   8  -6   2   10.63    1.08
   8   6  -2   14.03    0.98
   8   6   3    1.35    0.37
   8   6   3    1.38    0.53
  -8  -6   3    1.51    0.56
   8  -6  -3    1.45    0.46
  -8   6  -3    0.67    0.38
  -8  -6   3    1.27    0.51
   8   6  -3    1.33    0.39
  -8  -6  -3   -0.50    0.55
   8  -6   3    1.32    0.50
   8  -6   3    1.58    0.53
  -8   6   3    0.85    0.40
  -8   6   3    1.53    0.59
   8  -6  -4   11.27    1.01
  -8  -6   4   11.25    1.12
  -8   6  -4   10.74    0.93
   8   6   4    9.60    1.12
   8   6   4   10.04    0.95
  -8  -6  -4    9.50    1.17
   8   6  -4   11.30    0.93
  -8   6   4   10.83    0.98
   8  -6   4   10.41    1.11
  -8   6   4    5.65    1.03
   8  -6   4    7.26    1.01
  -8   6  -5    1.16    0.44
   8   6   5    0.42    0.62
   8  -6  -5    0.22    0.51
  -8  -6   5    1.41    0.68
   8  -6  -5    0.62    0.43
  -8  -6  -5    0.92    0.76
   8   6  -5    0.94    0.43
   8  -6   5    0.87    0.62
  -8   6   5    0.98    0.52
  -8   6   5    1.16    0.67
   8  -6  -6    1.84    0.64
  -8   6  -6    1.47    0.50
   8  -7   0    0.37    0.35
  -8   7   0    1.52    0.50
   8  -7   0    0.47    0.39
   8   7   0    0.23    0.26
  -8  -7   0    1.25    0.59
   8   7   1   22.83    1.72
   8  -7  -1   22.41    1.64
  -8   7  -1   22.98    1.72
  -8  -7   1   24.35    1.84
   8  -7   1   23.34    1.73
  -8   7   1   25.40    1.83
  -8  -7  -1   21.78    1.83
   8  -7   1   17.55    1.68
   8   7  -1   22.33    1.63
  -8  -7   2    4.17    0.71
   8   7   2    2.76    0.45
   8  -7  -2    2.71    0.54
  -8   7  -2    3.19    0.53
   8   7   2    3.22    0.63
  -8  -7  -2    3.22    0.72
   8  -7   2    3.15    0.56
   8  -7   2    3.24    0.59
  -8   7   2    2.80    0.65
   8   7  -2    3.87    0.49
   8   7   3   53.61    3.52
  -8  -7   3   53.60    3.58
   8  -7  -3   48.22    3.38
   8   7   3   44.23    3.46
  -8  -7   3   51.71    3.57
  -8   7  -3   50.85    3.49
  -8  -7  -3   43.62    3.60
  -8   7   3   51.76    3.67
   8  -7   3   53.41    3.58
   8   7  -3   54.99    3.48
   8  -7   3   54.72    3.47
  -8   7  -4   -0.12    0.38
  -8  -7   4   -1.05    0.52
   8   7   4    0.63    0.56
   8  -7  -4    0.56    0.49
  -8  -7   4    0.26    0.55
   8   7   4    0.16    0.37
  -8   7   4    0.79    0.46
  -8  -7  -4   -0.38    0.63
   8   7  -4    0.17    0.38
  -8   7   4   -0.78    0.55
   8  -7   4    0.56    0.54
  -8   7  -5    0.96    0.46
  -8  -7   5    0.37    0.64
   8  -7  -5    0.85    0.56
   8   7   5    0.07    0.63
   8   7   5    0.21    0.46
  -8  -7  -5   -1.65    0.67
   8  -7   5    0.85    0.64
   8   7  -5    0.42    0.42
  -8   7   5    0.51    0.68
  -8   7   5   -0.24    0.49
   8   8   0   37.41    3.20
   8  -8   0   51.66    3.18
  -8  -8   0   58.95    3.44
  -8   8   0   47.30    3.37
  -8   8  -1    5.02    0.65
   8   8   1    5.59    0.71
   8   8   1    2.62    0.50
  -8  -8   1    5.21    0.80
   8  -8  -1    5.48    0.65
  -8  -8  -1    4.99    0.83
   8  -8   1    4.38    0.67
   8  -8   1    5.51    0.69
   8   8  -1    4.75    0.58
  -8   8   1    5.38    0.81
   8   8   2   20.82    1.58
  -8   8  -2   18.44    1.46
   8  -8  -2   16.82    1.45
  -8  -8   2   17.60    1.61
   8   8   2   17.31    1.43
   8  -8   2   19.52    1.51
  -8   8   2   19.98    1.63
  -8  -8  -2   18.67    1.66
   8   8  -2   18.20    1.41
   8  -8   2   18.30    1.54
   8   8   3    0.06    0.50
   8   8   3    0.50    0.36
   8  -8  -3   -0.01    0.44
  -8  -8   3    0.37    0.59
  -8   8  -3   -0.01    0.39
  -8  -8  -3    0.43    0.64
  -8   8   3    0.14    0.57
   8  -8   3    0.11    0.49
   8   8  -3    0.64    0.38
  -8   8  -4    5.64    0.72
   8  -8  -4    7.43    0.86
  -8  -8   4    7.97    0.95
  -8  -8   4    6.07    0.92
   8   8   4    6.02    0.95
   8   8   4    6.80    0.80
  -8   8   4    4.53    0.94
   8   8  -4    7.31    0.78
   8  -8   4    7.22    0.96
  -8  -8  -4    4.27    0.96
   8  -8  -5    0.30    0.56
  -8   8  -5    0.30    0.45
  -8  -8   5   -0.02    0.66
   8   8   5    0.21    0.50
  -8   8   5    0.54    0.72
  -8   8   5   -0.03    0.53
  -8  -8  -5    0.59    0.79
  -8   9   0    1.11    0.56
   8   9   0    0.06    0.34
  -8  -9   0    1.32    0.64
   8  -9   0    1.21    0.46
   8   9   1    9.26    0.99
  -8   9  -1   14.31    1.13
   8  -9  -1   12.98    1.10
  -8  -9   1   12.09    1.24
   8   9  -1   10.81    0.99
   8  -9   1   10.22    1.11
   8  -9   1   12.03    1.14
  -8  -9  -1   12.40    1.26
  -8   9   1   12.74    1.26
  -8   9  -2    3.21    0.56
  -8  -9   2    3.94    0.79
   8   9   2    3.27    0.69
   8  -9  -2    2.93    0.61
   8   9   2    3.26    0.55
  -8   9   2    4.01    0.76
   8  -9   2    3.81    0.64
   8  -9   2    4.05    0.68
   8   9  -2    3.59    0.54
  -8  -9  -2    3.81    0.83
   8   9   3   21.28    1.83
  -8   9  -3   22.77    1.82
   8   9   3   26.08    2.00
   8  -9  -3   22.44    1.83
  -8  -9   3   26.14    2.04
  -8  -9  -3   28.22    2.11
  -8   9   3   26.03    2.07
   8  -9   3   25.63    1.97
   8   9  -3   23.74    1.81
   8   9   4   -0.16    0.62
   8  -9  -4    0.32    0.51
  -8  -9   4   -0.11    0.64
  -8   9  -4    0.22    0.45
   8   9   4    0.66    0.43
   8   9  -4   -0.21    0.42
   8  -9   4    0.71    0.62
  -8  -9  -4    0.93    0.77
  -8   9   4    0.19    0.66
   8  10   0   35.17    3.04
  -8  10   0   41.88    3.22
  -8 -10   0   55.34    3.29
   8 -10   0   49.82    3.03
   8 -10  -1    0.50    0.45
  -8 -10   1    1.24    0.65
   8  10   1   -0.22    0.31
  -8  10  -1    0.39    0.47
  -8 -10  -1    0.18    0.66
  -8  10   1    0.58    0.58
   8  10  -1   -0.12    0.35
   8 -10   1    0.11    0.48
  -8 -10   2    3.26    0.80
  -8  10  -2    3.62    0.61
   8 -10  -2    3.14    0.66
   8  10   2    3.89    0.62
  -8 -10  -2    4.03    0.87
   8 -10   2    3.83    0.69
   8  10  -2    3.19    0.55
  -8  10   2    4.73    0.80
  -8 -10   3    0.59    0.67
  -8  10  -3    0.05    0.44
   8 -10  -3   -0.09    0.49
   8  10   3    0.06    0.43
   8 -10   3   -0.06    0.53
  -8 -10  -3    0.47    0.66
  -8 -10  -3   -0.28    0.72
   8  10  -3    0.08    0.38
  -8  10   3   -0.05    0.65
  -8 -10   4    3.22    0.82
   8  10   4    1.89    0.57
  -8 -10  -4    3.10    0.84
  -8  10   4    1.37    0.81
  -8 -10  -4    2.32    0.87
  -8  11   0    0.25    0.59
   8 -11   0    0.46    0.48
   8  11   0   -0.35    0.37
  -8 -11   0    0.48    0.68
   8 -11  -1    6.77    0.85
   8  11   1    6.37    0.79
  -8  11  -1    8.43    0.94
  -8 -11   1    7.35    1.01
   8  11  -1    5.69    0.77
  -8  11   1    8.82    1.08
   8 -11   1    8.03    0.94
  -8 -11  -1    7.36    1.06
   8 -11  -2   -0.72    0.48
   8  11   2    0.36    0.44
  -8  11  -2   -0.42    0.45
  -8 -11   2    0.78    0.70
   8 -11   2   -0.12    0.50
  -8  11   2   -0.36    0.61
  -8 -11  -2   -0.41    0.72
   8  11  -2    0.06    0.42
   8  11   3   10.42    1.10
  -8 -11   3   10.50    1.27
  -8 -11  -3   13.41    1.40
   8 -11   3    9.73    1.17
  -8  11   3   10.80    1.33
  -8 -11  -3    9.16    1.18
   8  12   0   13.14    1.31
   8 -12   0   17.97    1.45
  -8  12   0   14.97    1.57
  -8 -12   0   18.64    1.66
   8 -12  -1    1.93    0.59
  -8 -12   1    1.36    0.73
   8  12   1    0.80    0.45
  -8  12  -1    2.06    0.65
   8  12  -1    0.07    0.41
  -8 -12  -1    2.23    0.81
  -8  12   1   -0.04    0.69
  -8 -12  -2    4.11    0.96
  -8  12   2    3.78    0.89
  -9   0   0    0.20    0.42
  -9   0   0    0.79    0.36
   9   0   0    0.29    0.34
   9   0  -1   12.52    0.95
  -9   0   1   12.51    1.19
   9   0   1   13.24    1.15
  -9   0   1   13.21    1.20
  -9   0  -1   12.23    1.23
   9   0  -1   13.02    1.09
  -9   0  -1   13.74    1.09
   9   0  -2   29.57    1.94
  -9   0  -2   25.62    1.96
  -9   0  -2   33.40    2.17
   9   0   2   24.09    2.01
  -9   0   2   22.74    2.07
   9   0  -2   29.80    1.96
  -9   0   3   13.12    1.35
  -9   0  -3   14.48    1.40
   9   0  -3   13.97    1.15
   9   0   3   16.18    1.36
   9   0  -3   14.88    1.21
  -9   0  -4    2.22    0.74
  -9   0   4    3.42    0.72
   9   0   4    4.05    0.74
   9   0  -4    3.68    0.53
   9   0   5   -0.60    0.54
  -9   0  -5   -0.70    0.67
   9   0  -5   -0.09    0.38
  -9   0   5   -0.15    0.59
  -9   0   6   19.75    1.84
   9   0   6   22.70    1.91
   9   0  -6   19.97    1.61
  -9   0  -6   16.69    1.85
   9   1   0   -0.35    0.31
  -9   1   0   -0.18    0.37
  -9  -1   0    0.13    0.34
   9   1   0   -0.26    0.15
  -9   1   0    0.35    0.37
  -9  -1   0   -0.22    0.43
   9  -1   0   -0.03    0.32
   9   1   1    1.94    0.52
   9  -1  -1    2.36    0.49
  -9   1  -1    3.00    0.60
  -9   1  -1    3.64    0.53
  -9  -1   1    1.93    0.52
  -9  -1   1    2.18    0.51
   9  -1  -1    3.66    0.39
  -9   1   1    3.63    0.54
  -9   1   1    2.90    0.57
   9   1  -1    3.25    0.37
   9  -1   1    3.59    0.56
  -9  -1  -1    3.72    0.63
   9   1  -1    3.73    0.52
  -9  -1  -1    3.69    0.48
   9   1   2    2.00    0.54
  -9  -1   2    2.68    0.53
  -9  -1   2    1.26    0.54
  -9   1  -2    3.08    0.48
   9  -1  -2    2.88    0.52
   9  -1  -2    3.28    0.42
  -9   1  -2    2.77    0.70
   9  -1   2    2.39    0.56
  -9   1   2    2.16    0.60
   9   1  -2    3.10    0.47
   9   1  -2    2.49    0.40
  -9  -1  -2    2.98    0.63
  -9   1  -3    7.39    1.06
   9   1   3    9.55    1.01
   9  -1  -3    9.82    0.80
  -9   1  -3    9.82    0.82
  -9  -1   3    9.20    1.00
   9  -1  -3   10.54    0.92
  -9   1   3    6.39    0.94
   9   1  -3    7.57    0.81
   9   1  -3    7.81    0.82
   9  -1   3    7.44    0.93
  -9  -1  -3    9.47    1.01
   9  -1  -4    3.85    0.55
  -9  -1   4    3.88    0.75
  -9   1  -4    3.60    0.81
   9   1   4    5.24    0.82
   9  -1  -4    4.06    0.57
   9   1  -4    3.39    0.57
  -9   1   4    3.60    0.77
  -9  -1  -4    4.41    0.80
   9  -1   4    4.05    0.75
  -9  -1   5   19.44    1.73
   9  -1  -5   20.57    1.51
   9   1   5   20.40    1.75
  -9   1  -5   13.79    1.68
  -9   1   5   18.72    1.72
  -9  -1  -5   19.51    1.77
   9   1  -5   18.09    1.51
   9  -1   5   21.53    1.76
  -9  -1   6    2.67    0.82
  -9   1  -6    1.81    0.90
   9  -1  -6    0.98    0.47
   9   1   6    1.13    0.75
  -9   1   6    1.09    0.74
  -9  -1  -6    1.84    0.83
   9   1  -6    0.77    0.53
   9  -1   6    1.68    0.75
   9   2   0    0.18    0.18
  -9   2   0    0.02    0.39
  -9   2   0    0.62    0.41
  -9  -2   0    0.00    0.46
   9  -2   0    0.34    0.33
   9   2   0   -0.16    0.35
  -9  -2   0   -0.47    0.32
   9   2   1   17.24    1.67
  -9   2  -1   15.42    1.67
  -9   2  -1   18.23    1.82
   9   2   1   20.54    1.55
   9  -2  -1   18.66    1.65
  -9   2   1   27.60    1.79
  -9   2   1   27.12    1.73
   9   2  -1   23.92    1.63
   9   2  -1   25.74    1.58
  -9  -2  -1   25.59    1.82
   9  -2   1   28.98    1.74
  -9  -2   2   41.70    2.78
   9  -2  -2   38.39    2.63
  -9   2  -2   37.38    2.83
  -9   2  -2   38.85    2.70
  -9  -2   2   35.17    2.78
   9   2   2   36.87    2.71
   9  -2  -2   36.56    2.61
   9   2  -2   42.01    2.59
  -9  -2  -2   41.99    2.81
   9   2  -2   37.92    2.64
  -9   2   2   39.78    2.84
   9  -2   2   39.64    2.70
   9  -2  -3    1.11    0.40
  -9   2  -3    1.31    0.36
  -9  -2   3    0.74    0.51
   9   2   3    1.27    0.53
  -9   2  -3    1.43    0.60
   9  -2  -3    1.06    0.32
   9   2  -3    1.03    0.36
  -9  -2  -3    1.58    0.57
  -9   2   3    0.30    0.51
   9  -2   3    0.00    0.45
   9   2   4    4.16    0.76
  -9   2  -4    3.14    0.75
   9  -2  -4    4.53    0.56
  -9  -2   4    5.54    0.82
   9  -2  -4    4.89    0.62
  -9  -2  -4    4.10    0.77
   9  -2   4    4.08    0.76
  -9   2   4    3.98    0.78
   9   2  -4    3.70    0.59
   9   2   5    0.12    0.59
   9  -2  -5    0.50    0.40
  -9  -2   5    0.38    0.62
  -9   2  -5    0.16    0.66
  -9   2   5    0.40    0.61
   9  -2   5   -0.38    0.55
  -9  -2  -5    0.64    0.67
   9   2  -5    0.02    0.38
  -9  -2   6   14.57    1.53
  -9   2  -6   11.51    1.48
   9  -2  -6   14.92    1.24
   9   2   6   14.27    1.51
  -9  -2  -6   16.26    1.53
  -9   2   6   11.71    1.46
   9   2  -6   12.52    1.27
   9   3   0    0.63    0.39
   9  -3   0   -0.34    0.31
  -9   3   0   -0.45    0.40
  -9   3   0   -0.38    0.43
   9   3   0    0.04    0.20
  -9  -3   0   -0.53    0.47
   9  -3  -1    3.74    0.59
  -9  -3   1    3.74    0.66
  -9   3  -1    2.82    0.58
  -9  -3   1    3.56    0.57
   9   3   1    3.34    0.42
   9   3   1    4.61    0.66
  -9   3  -1    4.49    0.70
  -9  -3  -1    2.91    0.69
  -9   3   1    3.92    0.65
   9   3  -1    5.81    0.61
   9   3  -1    4.86    0.46
   9  -3   1    4.86    0.61
  -9   3  -2    4.29    0.55
  -9  -3   2    3.34    0.62
   9   3   2    4.65    0.71
  -9   3  -2    4.18    0.69
  -9  -3   2    4.11    0.67
   9  -3  -2    3.85    0.55
  -9   3   2    4.59    0.71
   9   3  -2    2.87    0.44
   9  -3   2    4.49    0.65
  -9  -3  -2    3.67    0.71
   9   3   3   25.96    1.85
  -9   3  -3   22.45    1.63
   9  -3  -3   23.02    1.63
  -9  -3   3   22.87    1.80
   9  -3  -3   21.64    1.58
   9  -3   3   20.98    1.76
   9  -3   3   18.10    1.71
  -9  -3  -3   23.18    1.83
  -9   3   3   19.56    1.81
   9   3  -3   22.70    1.63
   9   3   4    5.19    0.84
  -9   3  -4    4.60    0.55
  -9  -3   4    4.27    0.78
   9  -3  -4    5.07    0.58
   9  -3  -4    4.08    0.62
   9  -3   4    3.47    0.73
  -9  -3  -4    4.93    0.82
   9  -3   4    4.47    0.78
   9   3  -4    4.52    0.61
  -9   3   4    2.21    0.72
   9   3   5    8.79    1.14
   9  -3  -5    9.20    0.86
  -9  -3   5    9.09    1.10
  -9   3  -5    7.08    1.05
   9  -3  -5    9.75    0.93
   9  -3   5    8.14    1.07
  -9  -3  -5    8.21    1.07
  -9   3   5    7.62    1.06
   9  -3   5    7.26    1.04
   9   3  -5    7.20    0.87
   9  -3  -6    6.23    0.80
  -9  -3  -6    6.60    1.07
  -9   4   0    0.32    0.45
  -9  -4   0   -0.62    0.49
   9   4   0    0.30    0.23
   9   4   0   -0.15    0.38
  -9   4   0    0.22    0.46
   9  -4   0   -0.07    0.35
   9  -4  -1    6.14    0.73
   9   4   1    8.30    0.86
  -9  -4   1    7.67    0.89
  -9   4  -1    6.07    0.78
  -9  -4   1    6.10    0.73
   9   4   1    6.10    0.63
  -9   4  -1    7.44    0.83
   9   4  -1    6.37    0.72
   9  -4   1    8.73    0.81
   9  -4   1    6.14    0.76
  -9  -4  -1    5.91    0.87
  -9   4   1    7.48    0.84
   9   4  -1    8.44    0.66
  -9  -4   2   51.39    3.48
   9  -4  -2   45.26    3.27
  -9   4  -2   48.52    3.40
  -9  -4   2   49.70    3.47
   9   4   2   53.66    3.43
   9  -4   2   44.67    3.44
   9  -4   2   54.28    3.36
  -9  -4  -2   46.99    3.51
  -9   4   2   53.80    3.54
   9   4  -2   50.65    3.35
  -9  -4   3    1.59    0.55
   9  -4  -3    0.15    0.29
   9   4   3    0.77    0.53
  -9   4  -3    0.34    0.36
   9  -4  -3    0.24    0.38
   9  -4   3   -0.22    0.45
   9   4  -3    0.93    0.34
  -9   4   3    0.63    0.55
   9  -4   3    0.51    0.49
  -9  -4  -3    0.68    0.59
  -9  -4   4    7.27    0.93
   9   4   4    8.66    1.03
   9  -4  -4    7.42    0.81
  -9   4  -4    6.83    0.71
   9  -4  -4    7.72    0.73
  -9  -4  -4    8.29    1.01
   9  -4   4    4.40    0.83
   9   4  -4    7.53    0.77
   9  -4   4    8.17    0.98
  -9   4   4    3.34    0.85
   9  -4  -5    1.66    0.54
  -9   4  -5    0.93    0.42
   9   4   5    1.02    0.67
  -9  -4   5    3.04    0.77
   9  -4  -5    1.60    0.46
  -9  -4  -5    1.07    0.75
   9  -4   5    1.44    0.67
  -9   4   5    1.59    0.70
   9  -4   5    1.29    0.64
   9   4  -5    0.98    0.45
  -9  -4  -6    9.88    1.31
  -9   5   0   -0.08    0.44
   9  -5   0   -0.55    0.36
   9   5   0    0.29    0.40
  -9  -5   0   -0.47    0.51
   9   5   0    0.03    0.22
  -9   5   0    0.31    0.46
   9   5   1    1.28    0.49
   9  -5  -1    1.42    0.43
   9   5   1    0.71    0.29
  -9   5  -1    1.12    0.46
  -9  -5   1    0.44    0.57
  -9   5   1    1.52    0.51
   9  -5   1    1.51    0.43
  -9  -5  -1    0.24    0.55
   9  -5   1    0.54    0.41
   9   5  -1    1.46    0.33
  -9   5  -2   13.43    1.18
  -9  -5   2   16.50    1.29
   9   5   2   16.21    1.35
   9  -5  -2   12.46    1.17
  -9  -5   2   16.22    1.40
  -9   5   2   14.42    1.32
   9  -5   2   14.50    1.29
  -9  -5  -2   10.38    1.29
   9  -5   2   13.40    1.24
   9   5  -2   14.83    1.11
   9  -5  -3   14.68    1.19
  -9   5  -3   13.24    1.12
  -9  -5   3   13.00    1.27
   9   5   3    9.21    1.03
  -9  -5   3   14.94    1.36
   9   5   3   13.95    1.34
   9   5  -3   13.47    1.08
  -9  -5  -3   14.29    1.37
   9  -5   3   14.94    1.31
  -9   5   3   13.72    1.35
   9  -5   3   13.59    1.26
  -9  -5   4    5.48    0.87
   9  -5  -4    6.47    0.78
   9  -5  -4    6.02    0.68
  -9   5  -4    7.02    0.70
   9   5   4    6.91    0.98
   9  -5   4    2.80    0.76
   9  -5   4    7.37    0.94
  -9   5   4    3.70    0.87
  -9  -5  -4    5.51    0.97
   9   5  -4    6.77    0.72
  -9   5  -5    5.88    0.71
  -9  -5   5    6.60    0.99
   9   5   5    6.14    1.01
   9  -5  -5    6.51    0.82
   9  -5  -5    6.63    0.75
  -9   5   5    4.97    0.98
  -9  -5  -5    6.26    1.03
   9   5  -5    6.95    0.79
   9  -5   5    6.36    0.97
  -9  -6   0    0.07    0.55
   9   6   0    0.22    0.39
  -9   6   0   -0.14    0.46
   9  -6   0    0.09    0.40
   9   6   0    0.01    0.25
   9  -6  -1    3.16    0.55
   9   6   1    2.49    0.45
  -9   6  -1    3.95    0.62
   9   6   1    4.79    0.69
  -9  -6   1    3.95    0.76
   9  -6   1    5.08    0.64
  -9   6   1    3.42    0.64
   9  -6   1    3.61    0.58
   9   6  -1    4.31    0.49
  -9  -6  -1    2.43    0.71
   9   6   2   22.64    1.79
   9  -6  -2   20.93    1.65
  -9  -6   2   23.73    1.82
  -9   6  -2   21.69    1.68
   9  -6   2   23.04    1.71
  -9   6   2   21.93    1.81
   9  -6   2   21.02    1.76
   9   6  -2   22.21    1.60
   9  -6  -3    3.73    0.62
   9   6   3    2.36    0.49
  -9  -6   3    3.56    0.69
  -9   6  -3    4.01    0.58
  -9  -6   3    4.54    0.77
   9   6   3    4.34    0.77
  -9  -6  -3    3.87    0.82
  -9   6   3    3.59    0.78
   9  -6   3    3.76    0.71
   9   6  -3    4.36    0.55
   9  -6   3    3.86    0.69
  -9  -6   4    4.15    0.79
   9   6   4    5.08    0.86
  -9   6  -4    3.44    0.56
   9  -6  -4    4.55    0.67
  -9   6   4    2.53    0.78
   9  -6   4    2.27    0.69
  -9  -6  -4    3.07    0.85
   9   6  -4    4.46    0.60
   9  -6   4    3.96    0.78
   9  -6  -5    0.10    0.50
  -9   6  -5    0.11    0.43
  -9  -6   5    0.36    0.68
   9  -6  -5    0.57    0.43
   9   6   5   -0.24    0.64
  -9  -6  -5    0.00    0.78
   9   6  -5    0.22    0.44
   9  -6   5    0.81    0.64
  -9   6   5   -0.22    0.67
   9   7   0   -0.13    0.27
  -9   7   0   -0.55    0.44
   9  -7   0   -0.03    0.39
  -9  -7   0    0.45    0.61
   9  -7  -1    0.75    0.42
   9   7   1    1.79    0.52
  -9   7  -1    1.25    0.49
   9   7   1    0.35    0.32
  -9  -7   1    1.69    0.66
   9   7  -1    1.01    0.35
  -9   7   1    2.11    0.58
   9  -7   1    0.66    0.44
   9  -7   1    1.24    0.47
  -9  -7  -1    0.70    0.62
   9  -7  -2    0.34    0.42
  -9  -7   2    1.31    0.66
   9   7   2    0.81    0.35
  -9   7  -2    1.19    0.46
   9   7   2    1.35    0.55
   9   7  -2    1.38    0.38
   9  -7   2    1.52    0.50
   9  -7   2    1.26    0.51
  -9  -7  -2   -1.03    0.60
  -9   7   2    2.03    0.62
  -9   7  -3    6.57    0.72
   9   7   3    4.17    0.64
   9  -7  -3    6.14    0.77
   9   7   3    5.88    0.89
  -9  -7   3    6.51    0.92
  -9   7   3    6.29    0.93
   9  -7   3    5.42    0.79
   9   7  -3    6.63    0.69
   9  -7   3    6.15    0.86
  -9  -7  -3    3.65    0.90
   9   7   4    1.06    0.66
   9  -7  -4    3.60    0.63
  -9   7  -4    1.65    0.49
   9   7   4    1.35    0.45
  -9  -7   4    2.68    0.71
   9  -7   4    2.97    0.73
   9   7  -4    2.41    0.49
  -9   7   4    1.59    0.73
  -9  -7  -4   -0.59    0.71
   9  -7  -5    7.28    0.89
  -9   7  -5    6.86    0.77
  -9  -7   5    8.07    1.07
  -9  -7  -5    4.92    1.07
  -9   7   5    2.89    0.96
   9   8   0    0.02    0.30
  -9   8   0   -0.04    0.50
  -9  -8   0   -0.40    0.60
   9  -8   0    0.23    0.44
  -9  -8   1   13.70    1.38
   9   8   1   15.26    1.31
  -9   8  -1   12.08    1.24
   9  -8  -1   12.93    1.19
   9  -8   1   11.66    1.21
  -9  -8  -1   14.50    1.42
   9  -8   1   15.21    1.29
   9   8  -1   13.32    1.10
  -9   8   1   15.33    1.35
  -9   8  -2    4.90    0.72
  -9  -8   2    5.47    0.90
   9  -8  -2    4.71    0.71
   9   8   2    6.55    0.87
   9  -8   2    5.63    0.80
   9   8  -2    6.31    0.68
  -9   8   2    6.36    0.88
   9  -8   2    5.36    0.73
  -9  -8  -2    4.98    0.93
   9  -8  -3    1.46    0.52
   9   8   3    0.60    0.36
  -9  -8   3    0.47    0.66
   9   8   3    2.16    0.68
  -9   8  -3    0.70    0.46
  -9  -8  -3    0.56    0.73
   9   8  -3    1.00    0.38
   9  -8   3    1.64    0.60
  -9   8   3    0.69    0.65
   9  -8   3    0.53    0.52
   9   8   4    0.73    0.66
  -9  -8   4    1.58    0.74
   9   8   4    1.07    0.48
   9  -8  -4    0.57    0.53
  -9   8  -4    1.24    0.48
  -9   8   4    0.81    0.73
  -9  -8  -4   -0.18    0.77
   9   8  -4    0.84    0.41
   9  -8   4    0.73    0.63
  -9  -9   0    0.60    0.68
  -9   9   0   -0.55    0.50
   9  -9   0    0.42    0.46
   9   9   0   -0.25    0.31
  -9  -9   1    0.59    0.67
   9  -9  -1    0.05    0.46
  -9   9  -1    0.67    0.50
   9   9   1   -0.13    0.34
  -9  -9  -1    0.83    0.70
   9   9  -1    0.37    0.34
   9  -9   1    0.61    0.48
  -9   9   1   -0.28    0.55
  -9   9  -2   -0.65    0.44
   9   9   2   -0.29    0.35
   9   9   2    0.05    0.54
  -9  -9   2   -0.49    0.62
   9  -9  -2   -0.05    0.46
  -9  -9  -2   -0.08    0.69
   9   9  -2   -0.09    0.36
   9  -9   2    0.17    0.49
   9  -9   2    0.07    0.47
  -9   9   2   -0.57    0.55
   9   9   3    1.90    0.52
   9   9   3    1.97    0.72
  -9   9  -3    3.16    0.60
   9  -9  -3    3.14    0.63
  -9  -9   3    2.69    0.80
   9   9  -3    2.41    0.51
  -9  -9  -3    1.56    0.81
   9  -9   3    1.25    0.62
  -9   9   3    1.51    0.73
   9   9   4    0.81    0.72
  -9  -9   4    0.75    0.75
   9   9   4    1.10    0.50
   9  -9   4    2.20    0.72
  -9   9   4    0.72    0.76
  -9  -9  -4    0.74    0.85
  -9  10   0    0.07    0.56
  -9 -10   0    0.89    0.73
   9 -10   0   -0.05    0.48
   9  10   0   -0.49    0.37
   9 -10  -1    3.53    0.67
  -9  10  -1    4.21    0.73
  -9 -10   1    3.57    0.85
   9  10   1    2.06    0.50
  -9 -10  -1    3.16    0.87
  -9  10   1    3.19    0.76
   9  10  -1    3.13    0.55
   9 -10   1    3.58    0.69
   9 -10  -2    3.85    0.70
   9  10   2    3.19    0.61
  -9 -10   2    3.03    0.84
  -9  10  -2    4.03    0.71
   9  10  -2    3.89    0.60
   9 -10   2    5.10    0.77
  -9  10   2    4.62    0.85
  -9 -10  -2    6.94    1.06
  -9  10  -3    1.52    0.56
   9  10   3    2.13    0.77
   9  10   3    1.54    0.54
  -9 -10   3    1.24    0.80
  -9 -10  -3    1.12    0.85
   9  10  -3    1.54    0.50
   9 -10   3    2.59    0.69
  -9  10   3    1.50    0.78
  -9  11   0   -0.48    0.59
  -9 -11   0   -0.35    0.71
   9  11   0    0.09    0.41
   9 -11   0    0.75    0.53
  -9  11  -1    0.46    0.62
   9 -11  -1    0.23    0.53
  -9 -11   1    0.63    0.74
   9  11   1   -0.28    0.41
  -9  11   1   -0.43    0.62
   9  11  -1    0.50    0.45
  -9 -11  -1    0.52    0.79
   9 -11   1    0.97    0.56
   9  11   2    2.36    0.58
  -9 -11   2    2.67    0.88
  -9 -11  -2    3.06    0.92
   9 -11   2    1.81    0.64
  -9  11   2    2.55    0.81
   9 -12   0   -0.11    0.56
 -10   0   0   38.02    2.65
  10   0   0   34.29    2.52
 -10   0   0   38.75    2.68
 -10   0  -1    5.91    0.78
  10   0  -1    5.63    0.68
 -10   0   1    5.89    0.79
 -10   0  -1    7.54    0.72
 -10   0   1    6.64    0.78
  10   0   1    5.69    0.76
  10   0  -2    0.64    0.31
  10   0   2    0.63    0.47
 -10   0  -2    0.91    0.54
 -10   0   2   -0.29    0.49
  10   0  -2    1.19    0.40
 -10   0   3   10.56    1.34
  10   0  -3   15.37    1.20
 -10   0  -3   17.37    1.45
  10   0   3   14.15    1.40
  10   0  -3   16.60    1.30
 -10   0   4   18.97    1.84
  10   0  -4   21.54    1.64
  10   0   4   22.34    1.86
 -10   0  -4   23.18    1.90
 -10   0   5    1.27    0.75
 -10   0  -5    2.71    0.84
  10   0   5    2.11    0.75
  10   0  -5    2.81    0.57
 -10  -1   0   40.53    2.93
  10  -1   0   40.37    2.77
 -10   1   0   41.98    2.90
  10   1   0   41.68    2.80
 -10  -1   0   40.92    2.88
 -10   1   0   40.63    2.89
  10   1   1   20.27    1.65
 -10  -1   1   18.13    1.72
 -10   1  -1   20.96    1.61
  10  -1  -1   17.63    1.53
 -10  -1   1   19.74    1.68
 -10   1  -1   18.98    1.67
  10   1  -1   21.02    1.46
 -10  -1  -1   23.47    1.73
 -10   1   1   22.28    1.68
  10   1  -1   23.42    1.59
  10  -1   1   21.35    1.61
 -10   1   1   22.82    1.71
  10  -1  -2   16.67    1.42
 -10  -1   2   12.70    1.48
 -10   1  -2   13.95    1.41
  10  -1  -2   17.34    1.33
 -10   1  -2   19.26    1.61
  10   1   2   13.39    1.47
  10  -1   2   19.21    1.50
 -10  -1  -2   23.74    1.58
  10   1  -2   21.75    1.40
 -10   1   2   18.88    1.57
  10   1  -2   20.03    1.32
 -10   1  -3   15.37    1.51
  10  -1  -3   17.04    1.33
  10  -1  -3   17.96    1.26
  10   1   3   17.42    1.48
 -10  -1   3   12.28    1.40
  10  -1   3   12.44    1.38
 -10   1   3   13.20    1.43
 -10  -1  -3   18.73    1.48
  10   1  -3   14.67    1.22
 -10   1  -4   -0.64    0.63
  10   1   4    0.51    0.59
  10  -1  -4    0.61    0.39
 -10  -1   4    0.99    0.65
  10  -1   4    0.50    0.58
 -10   1   4    0.03    0.60
 -10  -1  -4    0.89    0.62
  10   1  -4    0.19    0.38
  10  -1  -5    5.79    0.72
 -10   1  -5    2.82    0.91
 -10  -1   5    6.65    1.01
  10   1   5    4.54    0.93
  10   1  -5    4.09    0.69
  10  -1   5    4.91    0.95
 -10   1   5    4.97    0.95
 -10  -1  -5    4.20    0.88
 -10  -2   0   49.04    3.58
  10   2   0   52.27    3.45
  10   2   0   54.15    3.42
 -10  -2   0   51.42    3.55
 -10   2   0   54.75    3.55
 -10   2   0   52.20    3.57
  10  -2   0   45.74    3.38
 -10  -2   1    1.90    0.62
  10  -2  -1    3.15    0.55
 -10  -2   1    1.80    0.57
 -10   2  -1    3.12    0.57
 -10   2  -1    2.72    0.69
  10   2   1    2.51    0.58
  10   2  -1    3.74    0.40
  10   2  -1    3.95    0.56
 -10  -2  -1    3.80    0.68
 -10   2   1    3.46    0.63
  10  -2   1    3.81    0.57
 -10   2  -2    0.98    0.46
 -10   2  -2    1.24    0.66
 -10  -2   2    0.76    0.52
  10   2   2    1.01    0.53
  10  -2  -2    1.50    0.48
 -10   2   2    2.10    0.60
 -10  -2  -2    1.96    0.62
  10   2  -2    1.47    0.32
  10   2  -2    1.90    0.42
  10  -2   2    1.32    0.50
  10   2   3   11.13    1.15
  10  -2  -3    9.99    0.93
 -10   2  -3   11.99    0.93
 -10   2  -3    9.38    1.14
  10  -2  -3    8.36    0.82
 -10  -2   3    7.82    1.03
  10  -2   3    7.62    1.00
 -10   2   3    8.06    1.07
 -10  -2  -3    7.89    1.00
  10   2  -3    9.35    0.82
 -10  -2   4   18.68    1.58
  10  -2  -4   17.10    1.30
  10  -2  -4   18.42    1.40
  10   2   4   18.81    1.62
 -10   2  -4   15.35    1.60
  10   2  -4   13.99    1.31
 -10  -2  -4   18.03    1.56
  10  -2   4   11.57    1.45
  10   2   5   11.85    1.34
  10  -2  -5    9.91    0.90
 -10   2  -5    9.35    1.26
 -10  -2   5    9.52    1.20
 -10   2   5    7.35    1.15
  10  -2   5    8.52    1.19
  10   2  -5    7.59    0.92
 -10  -2  -5    9.52    1.17
 -10  -3   0   36.20    2.77
  10   3   0   32.38    2.60
 -10   3   0   39.72    2.73
  10   3   0   40.98    2.55
  10  -3   0   36.69    2.57
 -10   3   0   37.78    2.70
  10   3   1   13.89    1.33
 -10  -3   1   10.59    1.25
 -10   3  -1   12.03    1.27
 -10   3  -1   13.00    1.36
  10  -3  -1   12.89    1.26
 -10  -3  -1   16.42    1.45
 -10   3   1   17.52    1.34
  10   3  -1   16.57    1.11
  10  -3   1   19.30    1.30
  10   3  -1   14.79    1.25
 -10  -3   2    8.55    0.98
  10  -3  -2    7.09    0.85
 -10   3  -2    8.45    0.89
 -10   3  -2    8.89    1.05
  10   3   2    7.66    0.98
 -10  -3   2    7.63    0.94
  10   3  -2    8.79    0.76
 -10   3   2    9.43    1.01
  10  -3   2   10.13    0.97
 -10  -3  -2    9.78    1.03
 -10   3  -3    9.40    1.07
 -10  -3   3    6.50    0.95
  10  -3  -3    9.16    0.87
 -10   3  -3    9.48    0.86
  10   3   3    6.31    0.97
 -10   3   3    5.71    0.96
  10  -3   3    6.86    0.92
 -10  -3  -3    8.26    1.02
  10   3  -3    7.88    0.73
  10  -3  -4    0.27    0.43
 -10   3  -4    0.90    0.68
  10  -3  -4    0.78    0.38
 -10  -3   4    0.69    0.64
  10   3   4    0.24    0.61
  10  -3   4   -0.15    0.55
  10   3  -4    0.22    0.39
 -10   3   4    0.37    0.62
 -10  -3  -4   -0.02    0.61
  10  -3  -5    5.10    0.67
 -10   3  -5    3.74    0.91
 -10  -3   5    5.73    0.96
  10   3   5    4.17    0.93
 -10   3   5    2.45    0.85
 -10  -3  -5    4.88    0.92
  10   3  -5    3.79    0.66
  10  -3   5    6.14    1.00
 -10   4   0   27.89    2.09
  10  -4   0   26.86    1.98
 -10   4   0   26.16    2.13
  10   4   0   30.53    1.93
  10   4   0   24.14    2.00
 -10  -4   1    0.19    0.57
  10   4   1    1.29    0.30
  10  -4  -1    1.39    0.47
 -10   4  -1    1.43    0.59
  10   4   1    1.41    0.51
 -10   4  -1    0.89    0.50
 -10  -4  -1    0.52    0.61
  10   4  -1    1.06    0.29
 -10   4   1    1.38    0.52
  10   4  -1    0.45    0.41
  10  -4   1    0.93    0.42
  10  -4  -2    0.71    0.43
 -10  -4   2    0.70    0.50
 -10   4  -2    0.65    0.44
 -10   4  -2    1.12    0.61
  10   4   2    0.28    0.52
 -10  -4   2    0.27    0.57
 -10   4   2    0.84    0.56
  10   4  -2    0.50    0.29
 -10  -4  -2    1.39    0.65
  10  -4   2   -0.09    0.41
  10  -4  -3   22.24    1.75
 -10   4  -3   28.05    2.00
 -10   4  -3   22.81    1.75
 -10  -4   3   23.23    1.92
  10   4   3   25.21    1.95
  10   4  -3   23.74    1.69
  10  -4   3   22.47    1.85
 -10   4   3   22.75    1.95
 -10  -4  -3   21.99    1.94
  10  -4   3   21.17    1.89
  10   4   4   20.68    1.76
  10  -4  -4   18.94    1.51
 -10   4  -4   20.05    1.73
 -10   4  -4   18.34    1.46
 -10  -4   4   20.40    1.73
  10   4  -4   19.53    1.45
 -10  -4  -4   18.49    1.70
  10  -4   4   15.62    1.63
 -10   4   4   13.67    1.67
 -10   4  -5    8.53    1.18
  10   4   5   10.15    1.27
  10  -4  -5   11.85    0.98
 -10  -4   5   11.05    1.28
  10  -4  -5    9.84    1.01
 -10   4   5    5.20    1.13
  10   4  -5    8.62    0.97
  10  -4   5    9.20    1.19
 -10  -4  -5    9.49    1.21
  10  -5   0    1.51    0.48
  10   5   0    1.71    0.34
 -10  -5   0   -0.42    0.59
  10   5   0    2.12    0.54
 -10   5   0    1.84    0.56
  10   5   1    1.98    0.37
 -10  -5   1    2.14    0.68
  10  -5  -1    1.72    0.51
  10   5   1    2.27    0.60
 -10   5  -1    2.81    0.64
 -10   5  -1    1.16    0.53
  10   5  -1    1.76    0.36
  10  -5   1    2.16    0.49
 -10   5   1    2.64    0.59
 -10  -5  -1    0.91    0.65
 -10  -5   2   16.37    1.54
 -10   5  -2   16.16    1.36
  10   5   2   17.35    1.50
  10  -5  -2   15.18    1.32
 -10  -5  -2   15.62    1.54
  10  -5   2   14.77    1.43
 -10   5   2   15.55    1.44
  10   5  -2   15.98    1.21
  10   5   3   14.27    1.35
 -10  -5   3   11.13    1.21
  10  -5  -3   11.43    1.09
 -10   5  -3   13.10    1.09
  10  -5   3   10.78    1.19
  10   5  -3   11.48    0.98
  10  -5   3   10.17    1.14
 -10  -5  -3   10.47    1.27
 -10   5   3   10.74    1.25
 -10  -5   4    1.67    0.69
 -10   5  -4    0.36    0.43
  10  -5  -4    0.83    0.50
  10   5   4    0.41    0.63
  10  -5   4   -0.06    0.57
 -10   5   4    0.27    0.63
  10  -5   4    0.05    0.57
  10   5  -4    0.74    0.39
 -10  -5  -4    0.38    0.75
 -10  -5   5    5.30    0.95
  10  -5  -5    4.62    0.73
  10  -5   5    2.22    0.81
 -10  -5  -5    5.05    0.99
  10   5  -5    4.49    0.63
 -10   5   5    0.56    0.79
  10   6   0   15.78    1.12
  10  -6   0   12.24    1.24
 -10   6   0   13.67    1.31
 -10  -6   0   12.00    1.35
 -10   6  -1    1.44    0.57
  10   6   1    2.51    0.62
  10  -6  -1    1.65    0.51
  10   6   1    1.09    0.35
 -10  -6   1    1.41    0.70
  10  -6   1    1.73    0.53
  10   6  -1    1.97    0.36
 -10  -6  -1    0.75    0.66
 -10   6   1    1.09    0.53
  10  -6   1    0.90    0.43
  10  -6  -2    0.33    0.44
 -10  -6   2   -0.07    0.63
  10   6   2   -0.28    0.30
  10   6   2    0.74    0.56
 -10   6  -2    0.28    0.45
  10  -6   2   -0.05    0.47
  10   6  -2   -0.08    0.30
 -10   6   2    0.49    0.55
  10  -6   2    0.14    0.44
 -10  -6  -2   -0.56    0.62
  10   6   3   18.83    1.63
 -10   6  -3   16.98    1.39
 -10  -6   3   19.20    1.63
  10  -6  -3   13.86    1.38
  10   6  -3   17.63    1.32
  10  -6   3   16.57    1.50
  10  -6   3   15.79    1.54
 -10  -6  -3   15.71    1.60
 -10   6   3   18.32    1.63
 -10   6  -4   10.50    1.01
  10   6   4   11.83    1.33
  10  -6  -4   10.98    1.07
 -10  -6   4   11.08    1.22
 -10  -6  -4    9.26    1.24
  10   6  -4   10.43    0.95
 -10   6   4    8.94    1.23
  10  -6   4    7.03    1.10
  10  -6   4   10.24    1.20
  10  -6  -5    3.77    0.72
 -10  -6   5    5.06    0.98
 -10   6  -5    3.18    0.61
 -10  -6  -5    3.93    1.01
  10  -7   0   18.52    1.69
 -10  -7   0   20.81    1.90
 -10   7   0   19.85    1.79
  10   7   0   25.37    1.64
  10   7   1    9.60    0.91
 -10   7  -1    9.78    1.09
 -10  -7   1   10.58    1.23
  10   7   1   11.51    1.14
  10  -7  -1    9.52    1.01
 -10  -7  -1    7.38    1.15
  10   7  -1   11.43    0.89
  10  -7   1   10.42    1.03
  10  -7   1   10.23    1.07
 -10   7   1   10.75    1.11
  10  -7  -2    6.48    0.79
  10   7   2    7.72    0.97
 -10   7  -2    6.98    0.82
 -10  -7   2    7.31    1.00
  10   7   2    4.69    0.66
  10   7  -2    6.08    0.66
  10  -7   2    5.90    0.84
 -10   7   2    7.36    0.94
  10  -7   2    7.24    0.84
 -10  -7  -2    2.22    0.85
  10   7   3    4.28    0.86
  10  -7  -3    4.60    0.71
  10   7   3    1.79    0.51
 -10  -7   3    4.40    0.88
 -10   7  -3    4.43    0.66
  10   7  -3    4.57    0.57
 -10   7   3    4.27    0.85
  10  -7   3    4.91    0.80
  10  -7   3    5.58    0.80
 -10  -7  -3    0.91    0.82
 -10   7  -4    0.39    0.49
  10  -7  -4   -0.16    0.49
  10   7   4   -0.04    0.67
  10   7  -4    0.45    0.40
 -10   7   4    0.04    0.72
 -10  -7  -4   -0.83    0.77
  10  -7   4    1.07    0.65
  10   8   0   13.94    1.11
 -10   8   0   12.08    1.30
  10  -8   0   11.79    1.22
 -10  -8   0   12.89    1.41
  10   8   1    0.80    0.39
  10  -8  -1    0.96    0.50
 -10   8  -1    1.37    0.61
 -10  -8   1    1.72    0.77
 -10  -8  -1    1.09    0.74
 -10   8   1    1.12    0.58
  10   8  -1    0.92    0.39
  10  -8   1    2.42    0.55
 -10  -8   2    1.91    0.77
  10  -8  -2    0.95    0.50
  10   8   2    0.58    0.37
  10   8   2    2.11    0.68
 -10   8  -2    1.87    0.57
  10  -8   2    2.47    0.57
 -10  -8  -2    0.41    0.76
  10   8  -2    1.93    0.41
  10  -8   2    0.51    0.55
 -10   8   2    1.25    0.64
 -10   8  -3    1.19    0.53
 -10  -8   3    1.92    0.79
  10  -8  -3    1.86    0.57
  10   8   3    0.20    0.41
  10   8   3    2.31    0.75
 -10   8   3    0.75    0.68
  10   8  -3    1.72    0.45
  10  -8   3    2.96    0.69
 -10  -8  -3    0.56    0.80
  10  -8   3    1.69    0.61
  10   8   4    4.22    0.93
 -10   8  -4    4.91    0.71
 -10  -8  -4    2.19    0.97
  10   9   0   22.93    1.61
 -10  -9   0   21.99    1.92
  10  -9   0   19.80    1.69
 -10   9   0   16.43    1.74
  10  -9  -1    4.44    0.72
  10   9   1    3.25    0.58
 -10   9  -1    3.37    0.76
 -10  -9   1    5.11    0.96
  10   9  -1    5.24    0.63
  10  -9   1    2.80    0.64
 -10   9   1    3.73    0.77
 -10  -9  -1    3.53    0.92
  10   9   2    1.92    0.55
 -10  -9   2    5.34    0.95
 -10   9  -2    4.06    0.71
  10   9   2    3.65    0.79
  10  -9  -2    3.29    0.66
  10  -9   2    3.36    0.65
 -10   9   2    2.28    0.74
 -10  -9  -2    4.40    0.97
  10   9  -2    3.43    0.56
  10  -9   2    3.66    0.74
 -10   9  -3    2.46    0.62
  10  -9  -3    2.23    0.62
 -10  -9   3    3.43    0.91
  10   9   3    1.99    0.79
  10   9   3    0.28    0.47
 -10   9   3    2.82    0.81
 -10  -9  -3    1.32    0.86
  10  -9   3    2.33    0.71
  10   9  -3    2.59    0.52
 -10 -10   0    4.36    0.99
  10 -10   0    3.96    0.75
 -10  10   0    3.28    0.80
  10  10   0    5.26    0.69
  10 -10  -1    0.92    0.55
 -10 -10   1    0.94    0.80
 -10  10  -1   -0.22    0.60
  10  10   1   -0.09    0.40
 -10  10   1    0.56    0.63
  10  10  -1    0.18    0.39
  10 -10   1   -0.13    0.50
 -10 -10  -1    1.06    0.84
 -10 -10   2   -0.21    0.78
  10  10   2   -0.23    0.42
 -10  10  -2   -0.20    0.56
  10  10  -2    0.25    0.43
 -10 -10  -2    0.61    0.87
 -10  10   2    0.11    0.65
  10 -10   2    0.51    0.52
  10 -11   0    1.40    0.66
  10 -11   1    0.82    0.60
  11   0   0   -0.09    0.36
 -11   0   0    0.60    0.52
 -11   0   0    0.05    0.43
  11   0   1    5.21    0.75
 -11   0  -1    5.92    0.82
 -11   0   1    6.73    0.83
  11   0  -1    5.92    0.71
 -11   0  -2   44.07    3.12
  11   0  -2   45.22    2.94
 -11   0   2   42.06    3.16
  11   0   2   42.62    3.05
 -11   0  -3    0.40    0.60
  11   0  -3    0.44    0.42
  11   0   3   -0.58    0.50
  11   0  -3    0.74    0.36
 -11   0   3    0.83    0.65
 -11   0   4    2.36    0.84
  11   0  -4    6.07    0.71
 -11   0  -4    4.97    0.89
  11   0   4    5.37    0.95
  11   0   5    2.24    0.84
 -11   0  -5    0.66    0.76
 -11   0   5    1.47    0.83
  11   0  -5    0.67    0.50
  11   1   0   -0.54    0.38
  11  -1   0    0.04    0.38
 -11  -1   0    0.75    0.46
 -11   1   0    0.00    0.43
 -11   1   0   -0.31    0.46
 -11  -1   0   -0.05    0.53
  11  -1  -1   83.06    5.63
 -11  -1   1   86.58    5.99
 -11   1  -1   89.88    5.91
 -11   1  -1   87.97    5.93
  11   1   1   89.25    5.74
 -11  -1   1   89.11    5.92
 -11  -1  -1   91.25    5.93
 -11   1   1   93.78    6.00
  11   1  -1   87.34    5.65
  11  -1   1   85.95    5.69
 -11   1  -2    1.61    0.66
 -11  -1   2    1.77    0.64
  11  -1  -2    2.08    0.50
  11   1   2    1.89    0.59
 -11   1   2    1.84    0.66
  11   1  -2    2.06    0.47
 -11  -1  -2    1.58    0.62
  11   1  -2    2.13    0.37
  11  -1   2    3.23    0.63
  11   1   3    3.94    0.82
 -11  -1   3    4.40    0.85
 -11   1  -3    4.29    0.86
  11  -1  -3    4.97    0.74
  11  -1  -3    5.40    0.64
 -11  -1  -3    6.57    0.87
 -11   1   3    5.36    0.91
  11   1  -3    5.85    0.64
  11  -1   3    4.41    0.80
 -11  -1   4   -1.56    0.60
  11  -1  -4    0.13    0.39
  11   1   4    0.68    0.66
 -11   1  -4    0.66    0.71
  11   1  -4    0.30    0.40
  11  -1   4   -0.41    0.57
 -11   1   4   -0.93    0.63
 -11  -1  -4    0.41    0.63
  11  -1  -5    4.99    0.71
 -11  -1   5    3.93    0.94
 -11   1  -5    3.76    0.95
  11   1   5    5.38    1.03
 -11   1   5    2.87    0.93
 -11  -1  -5    4.17    0.91
  11   1  -5    3.68    0.64
  11  -1   5    3.70    0.96
 -11   2   0    0.12    0.47
 -11   2   0    0.30    0.44
 -11  -2   0   -0.28    0.55
  11  -2   0    0.18    0.37
  11   2   0   -0.10    0.41
 -11  -2   1    3.75    0.78
 -11  -2   1    5.00    0.75
 -11   2  -1    5.17    0.80
  11  -2  -1    5.16    0.67
  11   2   1    5.23    0.77
 -11   2  -1    5.34    0.71
  11   2  -1    4.70    0.50
 -11   2   1    5.35    0.75
  11   2  -1    5.61    0.69
 -11  -2  -1    5.71    0.84
  11  -2   1    5.45    0.70
  11  -2  -2   33.88    2.60
 -11   2  -2   28.85    2.66
  11   2   2   32.04    2.67
 -11  -2   2   29.86    2.73
 -11   2  -2   36.56    2.80
  11  -2   2   44.68    2.71
 -11   2   2   46.28    2.84
  11   2  -2   43.41    2.57
 -11  -2  -2   42.24    2.78
  11   2   3   -0.04    0.58
 -11  -2   3    0.06    0.60
  11  -2  -3    0.11    0.46
 -11   2  -3   -0.03    0.70
 -11   2   3   -0.48    0.59
  11  -2   3    0.26    0.53
  11   2  -3    0.67    0.33
 -11  -2  -3    0.60    0.61
 -11  -2   4   10.30    1.32
  11  -2  -4   14.38    1.10
 -11   2  -4   11.54    1.39
  11   2   4   12.44    1.41
  11   2  -4   12.96    1.08
  11  -2   4    7.13    1.19
 -11  -2  -4   12.84    1.28
 -11   2   4   10.49    1.33
  11   2   5    0.18    0.77
 -11   2  -5   -0.31    0.78
  11  -2  -5   -0.13    0.46
 -11  -2   5    0.36    0.76
 -11   2   5   -1.34    0.68
  11  -2   5    0.52    0.75
  11   2  -5   -0.07    0.44
 -11  -2  -5    0.99    0.72
 -11   3   0   -0.23    0.44
  11  -3   0   -0.02    0.35
 -11  -3   0   -0.38    0.57
  11   3   0    0.28    0.46
 -11   3  -1   49.16    3.49
 -11  -3   1   39.73    3.45
  11   3   1   40.87    3.33
 -11   3  -1   47.51    3.44
  11  -3  -1   44.05    3.27
 -11   3   1   52.16    3.47
  11   3  -1   53.13    3.28
 -11  -3  -1   52.90    3.52
  11  -3   1   51.86    3.30
  11   3  -1   54.89    3.31
 -11  -3   2   -0.89    0.51
  11  -3  -2   -0.18    0.44
  11   3   2   -0.38    0.51
 -11   3  -2   -0.21    0.49
 -11   3  -2    0.38    0.70
  11  -3   2    1.01    0.48
  11   3  -2   -0.12    0.25
 -11   3   2    0.33    0.56
 -11  -3  -2   -0.52    0.57
 -11  -3   3    3.00    0.74
 -11   3  -3    2.25    0.56
  11  -3  -3    2.20    0.58
 -11   3  -3    0.91    0.77
  11   3   3    3.23    0.79
  11  -3   3    2.48    0.69
  11   3  -3    2.72    0.45
 -11   3   3    3.00    0.77
 -11  -3  -3    1.45    0.68
 -11   3  -4    2.47    0.90
  11   3   4    3.58    0.87
 -11  -3   4    3.13    0.82
  11  -3  -4    2.66    0.60
  11  -3   4    1.49    0.71
 -11  -3  -4    2.88    0.77
 -11   3   4    2.26    0.80
  11   3  -4    2.70    0.49
 -11  -3   5    5.38    1.02
  11  -3  -5    5.74    0.73
 -11  -3  -5    3.52    0.91
  11  -3   5    3.37    0.94
  11   3  -5    4.97    0.72
  11   4   0   -0.26    0.45
  11  -4   0   -0.01    0.38
 -11   4   0    0.21    0.48
 -11  -4   0   -0.61    0.62
  11   4   0    0.00    0.24
 -11  -4   1   -1.31    0.59
 -11   4  -1    0.09    0.63
  11   4   1    0.22    0.52
 -11   4  -1    1.02    0.54
  11  -4  -1    0.08    0.43
 -11  -4  -1    0.86    0.65
  11   4  -1    0.61    0.27
 -11   4   1    0.82    0.51
  11  -4   1    0.86    0.45
  11   4   2   34.22    2.59
  11  -4  -2   32.99    2.44
 -11   4  -2   33.65    2.65
 -11   4  -2   31.62    2.52
 -11  -4   2   28.60    2.58
 -11   4   2   37.21    2.61
  11   4  -2   34.80    2.36
  11  -4   2   35.46    2.45
 -11  -4  -2   39.39    2.66
  11   4   3    1.49    0.69
 -11   4  -3    0.10    0.71
 -11  -4   3    1.23    0.65
 -11   4  -3    1.38    0.51
  11  -4  -3    0.92    0.51
  11   4  -3    0.92    0.34
 -11   4   3    0.91    0.66
  11  -4   3    0.69    0.58
 -11  -4  -3    1.70    0.72
 -11   4  -4   16.29    1.68
  11   4   4   21.20    1.81
  11  -4  -4   18.04    1.49
 -11  -4   4   17.71    1.70
 -11   4   4   16.44    1.69
  11  -4   4   13.04    1.53
 -11  -4  -4   17.07    1.65
  11   4  -4   17.34    1.36
 -11  -4   5   -0.33    0.75
  11  -4   5   -1.27    0.66
  11  -5   0   -0.15    0.37
  11   5   0   -0.05    0.47
 -11   5   0    0.45    0.52
  11   5   0    0.20    0.28
 -11  -5   0   -0.06    0.67
  11  -5  -1   30.44    2.56
  11   5   1   38.89    2.70
 -11   5  -1   36.83    2.77
  11  -5   1   36.80    2.54
  11   5  -1   38.18    2.51
 -11  -5  -1   35.71    2.78
 -11   5   1   38.08    2.71
  11   5   2    2.56    0.74
 -11   5  -2    1.67    0.61
 -11   5  -2    2.69    0.77
  11  -5  -2    2.43    0.60
 -11  -5   2    2.58    0.81
  11   5  -2    2.62    0.42
 -11   5   2    2.72    0.71
  11  -5   2    2.98    0.61
 -11  -5  -2    2.78    0.80
 -11   5  -3    1.18    0.73
  11   5   3    0.62    0.67
  11  -5  -3    1.40    0.54
 -11   5  -3    1.14    0.53
 -11   5   3    1.85    0.73
  11   5  -3    1.31    0.38
  11  -5   3    0.46    0.57
 -11  -5  -3    0.69    0.73
 -11  -5   4    0.47    0.74
 -11   5  -4    1.64    0.55
 -11   5  -4    1.93    0.83
  11   5   4    1.46    0.79
  11  -5  -4    2.88    0.63
 -11   5   4    1.71    0.80
  11   5  -4    1.83    0.46
  11  -5   4    2.05    0.74
 -11  -5  -4    1.84    0.85
  11  -6   0    0.57    0.46
 -11   6   0   -0.08    0.51
  11   6   0    0.09    0.30
 -11  -6   0   -1.55    0.66
 -11  -6   1   -0.51    0.69
  11   6   1    0.89    0.59
  11   6   1    1.13    0.38
 -11   6  -1    0.12    0.55
  11  -6  -1    0.54    0.49
  11   6  -1    0.70    0.32
 -11   6   1    0.69    0.55
  11  -6   1    0.33    0.43
 -11  -6  -1   -0.87    0.69
 -11   6  -2   21.03    1.85
  11   6   2   23.90    1.98
  11  -6  -2   21.48    1.78
 -11  -6   2   24.38    2.05
  11   6  -2   23.79    1.67
  11  -6   2   22.13    1.78
 -11  -6  -2   23.94    2.03
 -11   6   2   23.83    1.92
  11  -6   2   23.23    1.92
  11  -6  -3    1.37    0.54
 -11   6  -3    0.43    0.51
  11   6   3    0.44    0.69
  11  -6   3    0.70    0.62
  11  -6   3    0.07    0.53
 -11   6   3    0.93    0.68
  11   6  -3    0.66    0.36
 -11  -6  -3    1.26    0.78
  11  -6  -4    7.50    0.94
  11   6   4    8.49    1.24
 -11   6  -4    8.59    0.93
 -11  -6  -4    8.56    1.22
  11  -6   4    7.91    1.14
  11  -6   4    7.12    1.08
  11   6  -4    8.27    0.84
 -11   6   4    7.28    1.18
  11  -7   0    0.03    0.45
  11   7   0   -0.20    0.32
 -11   7   0    0.12    0.54
 -11  -7   0   -0.64    0.74
  11   7   1   39.97    2.50
 -11  -7   1   31.48    2.57
 -11   7  -1   23.17    2.38
  11  -7  -1   28.25    2.30
  11   7   1   36.04    2.27
  11   7  -1   35.39    2.24
 -11  -7  -1   21.98    2.47
 -11   7   1   32.89    2.43
  11  -7   1   32.86    2.29
  11   7   2    0.80    0.64
  11   7   2    0.07    0.36
  11  -7  -2    0.74    0.52
 -11   7  -2    0.62    0.57
 -11  -7   2    1.08    0.78
  11   7  -2   -0.03    0.32
 -11  -7  -2   -1.30    0.71
 -11   7   2    0.53    0.60
  11  -7   2    0.58    0.58
  11  -7   2    0.04    0.47
 -11  -7   3    4.19    0.91
 -11   7  -3    1.69    0.61
  11   7   3    2.04    0.80
  11  -7  -3    2.34    0.61
  11  -7   3    1.95    0.70
  11   7  -3    2.02    0.44
  11  -7   3    1.35    0.61
 -11  -7  -3    2.55    0.90
 -11   7   3    1.90    0.76
 -11   7  -4    0.46    0.54
 -11  -8   0   -0.78    0.76
  11   8   0   -0.05    0.37
  11  -8   0    0.39    0.50
 -11   8   0    0.49    0.60
 -11   8  -1    3.14    0.81
 -11  -8   1    5.40    1.02
  11  -8  -1    3.94    0.73
  11   8   1    3.75    0.58
 -11  -8  -1   -0.31    0.82
  11   8  -1    5.60    0.60
 -11   8   1    4.82    0.82
  11  -8   1    4.24    0.70
 -11  -8   2   16.17    1.55
 -11   8  -2   12.49    1.32
  11   8   2   11.76    1.15
  11  -8  -2   12.58    1.25
  11   8   2   15.91    1.50
  11  -8   2   14.30    1.29
  11  -8   2   14.24    1.37
  11   8  -2   13.74    1.12
 -11  -8  -2    7.83    1.36
 -11   8   2   13.32    1.38
  11   8   3   -0.70    0.66
 -11  -8   3    1.71    0.86
 -11   8  -3   -0.39    0.53
  11  -8   3   -0.15    0.57
  11   8  -3   -0.22    0.37
 -11  -8  -3   -0.18    0.84
  11  -8   3    0.71    0.64
 -11  -9   0   -0.32    0.80
  11  -9   0    0.60    0.58
  11   9   0    0.18    0.41
 -11   9   0   -0.31    0.60
  11  -9  -1   16.01    1.55
 -11  -9   1   20.93    1.88
  11   9   1   18.79    1.44
 -11   9  -1   12.66    1.59
 -11   9   1   17.85    1.63
 -11  -9  -1   14.83    1.76
  11  -9   1   18.88    1.53
  11   9  -1   19.55    1.43
 -11   9  -2    0.53    0.62
 -11  -9   2    0.58    0.83
  11   9   2   -0.49    0.43
 -11   9   2    0.15    0.66
  11  -9   2    0.41    0.53
  11   9  -2    0.19    0.40
 -11  -9  -2   -0.86    0.84
  11  10   0    0.15    0.44
  11  10   1    1.33    0.51
  11 -10   1    1.92    0.60
  12   0   0    1.30    0.48
 -12   0   0    1.35    0.60
 -12   0   0    1.58    0.54
  12   0   1    0.67    0.48
 -12   0  -1    0.71    0.59
 -12   0   1   -0.30    0.52
  12   0  -1    0.41    0.42
 -12   0   2    5.79    0.88
 -12   0  -2    4.35    0.80
  12   0   2    3.33    0.75
  12   0  -2    6.15    0.70
  12   0   3    0.18    0.58
 -12   0   3    0.29    0.65
 -12   0  -3    0.43    0.63
  12   0   4    6.69    1.16
 -12   0  -4   10.00    1.18
  12   0  -4    9.82    0.94
 -12   0   4    9.50    1.27
  12   0  -5   -0.43    0.45
  12   1   0    0.03    0.43
 -12   1   0    0.26    0.53
 -12  -1   0    0.28    0.60
  12  -1   0    0.35    0.42
 -12   1   0    0.34    0.48
 -12  -1   1    4.72    0.82
 -12   1  -1    6.09    0.84
  12  -1  -1    6.50    0.76
  12   1   1    5.64    0.81
  12  -1   1    5.86    0.78
 -12   1   1    5.24    0.82
 -12  -1  -1    6.48    0.87
  12   1  -1    5.65    0.73
  12   1   2    0.14    0.53
  12  -1  -2    0.05    0.41
 -12   1  -2    0.33    0.61
 -12  -1   2   -0.79    0.57
 -12   1   2   -0.39    0.58
  12   1  -2    0.50    0.42
  12  -1   2    0.04    0.48
 -12  -1  -2    0.32    0.62
  12  -1  -3    1.06    0.51
 -12  -1   3    1.41    0.74
 -12   1  -3    0.64    0.68
  12   1   3   -0.68    0.56
  12   1  -3    1.05    0.39
  12  -1   3    0.81    0.59
 -12   1   3    1.29    0.71
 -12  -1  -3   -0.04    0.60
  12   1   4   -0.08    0.71
 -12   1  -4   -0.39    0.70
 -12  -1   4    0.39    0.76
 -12   1   4   -0.07    0.74
 -12  -1  -4   -0.11    0.63
  12   1  -4    0.22    0.42
  12  -1   4   -0.03    0.66
  12  -2   0    0.50    0.42
 -12  -2   0   -0.35    0.58
 -12   2   0    0.17    0.48
  12   2   0    0.32    0.48
 -12   2  -1    1.83    0.64
  12   2   1    1.17    0.56
 -12   2  -1    1.78    0.55
  12  -2  -1    1.76    0.48
 -12  -2   1    1.50    0.69
  12   2  -1    1.73    0.52
 -12   2   1    1.59    0.60
  12  -2   1    1.32    0.49
 -12  -2  -1    1.56    0.69
  12   2   2    2.05    0.68
  12  -2  -2    1.64    0.53
 -12  -2   2    2.66    0.74
 -12   2  -2    2.46    0.75
  12  -2   2    3.30    0.66
 -12  -2  -2    3.09    0.75
 -12   2   2    2.75    0.72
  12  -2  -3    0.56    0.53
  12   2   3    0.06    0.64
 -12  -2   3   -0.12    0.66
 -12   2  -3   -0.13    0.71
  12  -2   3    0.04    0.54
 -12   2   3    0.36    0.67
  12   2  -3   -0.35    0.30
 -12  -2  -3   -0.69    0.59
 -12   2  -4   13.36    1.51
  12   2   4   12.15    1.47
 -12  -2   4    8.31    1.33
  12   2  -4   14.54    1.12
  12  -2   4   10.79    1.37
 -12  -2  -4   12.38    1.35
 -12   2   4   13.80    1.49
 -12   3   0    0.58    0.51
 -12  -3   0    0.81    0.69
  12  -3   0    0.22    0.40
  12   3   0    0.87    0.52
 -12  -3   1    3.62    0.85
  12   3   1    4.30    0.81
 -12   3  -1    4.43    0.72
 -12   3  -1    4.70    0.84
  12  -3  -1    4.28    0.66
 -12  -3  -1    4.17    0.86
  12  -3   1    4.00    0.66
  12   3  -1    5.17    0.72
 -12   3   1    4.51    0.77
  12   3   2    0.02    0.57
  12  -3  -2    0.37    0.48
 -12   3  -2    0.08    0.71
 -12   3  -2    0.05    0.53
  12   3  -2   -0.03    0.26
 -12   3   2    0.18    0.60
  12  -3   2    0.38    0.49
 -12  -3  -2   -0.32    0.64
 -12  -3   3   -1.22    0.60
 -12   3  -3   -0.28    0.75
  12   3   3    0.07    0.66
  12  -3  -3    0.55    0.53
  12   3  -3   -0.04    0.32
 -12   3   3    0.56    0.68
  12  -3   3   -0.09    0.55
 -12  -3  -3    0.02    0.63
  12   3   4    0.51    0.76
 -12  -3   4    1.24    0.81
  12  -3  -4    1.68    0.63
 -12   3  -4    0.39    0.86
  12   3  -4    1.23    0.43
  12  -3   4    0.43    0.68
 -12   3   4    2.08    0.85
 -12  -3  -4    1.53    0.76
 -12   4   0    3.50    0.69
  12   4   0    3.48    0.71
  12  -4   0    3.84    0.63
 -12  -4   0    4.14    0.89
  12  -4  -1   -0.02    0.42
  12   4   1    0.02    0.55
 -12   4  -1   -0.39    0.65
 -12  -4   1   -0.56    0.68
 -12   4  -1   -0.64    0.50
 -12   4   1    0.19    0.52
  12   4  -1    0.21    0.28
 -12  -4  -1   -0.36    0.67
  12  -4   1    0.25    0.44
  12   4   2    2.82    0.82
  12  -4  -2    3.65    0.72
 -12   4  -2    1.56    0.85
 -12   4  -2    2.55    0.72
  12  -4   2    4.41    0.70
 -12   4   2    3.95    0.78
  12   4  -2    4.31    0.49
 -12  -4  -2    2.88    0.83
  12   4   3   -0.84    0.63
  12  -4  -3    0.14    0.53
 -12   4  -3    0.27    0.81
 -12   4   3   -0.83    0.64
  12   4  -3   -0.28    0.31
  12  -4   3    0.22    0.57
 -12  -4  -3    0.17    0.71
  12   4   4    9.87    1.35
  12  -4  -4    9.44    1.07
 -12   4  -4    9.47    1.36
 -12  -4   4    8.21    1.24
  12   4  -4   11.04    0.95
  12  -4   4    8.01    1.16
 -12  -4  -4    8.56    1.21
 -12   5   0    0.83    0.56
  12  -5   0    0.66    0.43
 -12  -5   0    0.24    0.74
  12  -5  -1    7.50    0.92
 -12  -5   1    5.09    1.05
  12   5   1    4.74    0.94
 -12   5  -1    7.57    0.96
  12   5  -1    7.96    0.70
 -12   5   1    7.76    0.96
  12  -5   1    7.49    0.87
 -12  -5  -1    6.92    1.08
  12   5   2    0.82    0.69
 -12   5  -2    0.98    0.62
  12  -5  -2    1.16    0.58
 -12  -5   2   -0.73    0.76
 -12   5  -2    1.27    0.85
 -12   5   2    1.40    0.65
  12   5  -2    1.19    0.35
  12  -5   2    0.34    0.49
 -12  -5  -2    0.22    0.73
  12  -5  -3    0.41    0.55
  12   5   3    0.01    0.72
 -12   5  -3    0.75    0.60
 -12   5  -3   -0.28    0.78
 -12   5   3    0.65    0.70
 -12  -5  -3    0.19    0.75
  12  -5   3    1.04    0.60
  12   5  -3    0.99    0.37
  12  -5  -4    1.26    0.60
  12  -5   4    0.08    0.67
 -12   6   0    0.02    0.55
  12  -6   0    0.41    0.44
  12   6   0   -0.02    0.30
 -12  -6   0   -0.20    0.76
 -12   6  -1    0.43    0.61
 -12  -6   1   -0.94    0.77
  12  -6  -1    0.63    0.53
  12   6   1    0.35    0.63
  12  -6   1    0.81    0.47
  12   6  -1    0.27    0.32
 -12   6   1    0.82    0.58
 -12  -6  -1   -1.01    0.74
 -12  -6   2    1.38    0.87
  12   6   2    3.63    0.88
 -12   6  -2    5.05    0.84
  12  -6  -2    1.53    0.64
 -12   6  -2    3.33    0.91
 -12  -6  -2    2.45    0.88
 -12   6   2    2.25    0.75
  12  -6   2    4.04    0.68
  12   6  -2    2.77    0.47
  12  -6  -3   -0.23    0.52
 -12   6  -3   -0.04    0.79
  12   6   3    0.17    0.74
 -12   6  -3    0.14    0.60
  12  -6   3    0.01    0.57
  12   6  -3   -0.19    0.34
 -12   6   3    0.28    0.69
 -12  -6  -3    0.12    0.80
 -12   7   0    0.01    0.59
 -12  -7   0    0.51    0.83
  12  -7   0    0.11    0.47
  12   7   0    0.30    0.35
 -12   7  -1    0.62    0.65
 -12  -7   1   -0.87    0.78
  12  -7  -1    1.98    0.64
 -12  -7  -1    1.52    0.88
  12   7  -1    1.33    0.39
 -12   7   1    0.67    0.64
  12  -7   1    0.60    0.49
  12  -7  -2    0.38    0.55
 -12   7  -2   -0.06    0.65
 -12   7  -2    0.53    0.77
  12   7   2   -0.54    0.65
 -12  -7   2    0.02    0.82
 -12   7   2   -0.49    0.62
 -12  -7  -2   -1.08    0.81
  12   7  -2   -0.08    0.34
  12  -7   2    0.12    0.52
 -12   7  -3    0.55    0.87
  12   7   3    0.44    0.78
 -12   7  -3    0.57    0.64
  12  -7   3   -0.32    0.63
  12  -7   3    0.24    0.59
  12   8   0    1.72    0.46
  12  -8   0    1.69    0.60
 -12   8   0    1.50    0.72
 -12  -8   0    0.42    0.91
  12   8   1    1.57    0.46
 -12  -8   1    0.85    0.92
 -12   8  -1    1.20    0.69
  12  -8  -1    1.59    0.67
  12   8  -1    1.33    0.44
 -12   8   1    1.36    0.66
 -12  -8  -1   -0.58    0.84
  12  -8   1    2.08    0.59
  12   8   2    0.69    0.76
 -12  -8   2    0.57    0.91
 -12   8  -2    1.06    0.71
  12  -8   2    1.30    0.59
  12   8  -2    1.24    0.42
  12   9   0    0.41    0.42
  12   9   1    0.30    0.43
  13   0   0    0.31    0.44
 -13   0   0   -0.81    0.59
 -13   0  -1   11.89    1.24
 -13   0   1   11.21    1.23
  13   0   1   13.56    1.22
  13   0  -1   10.31    1.08
  13   0  -2   19.77    1.52
 -13   0   2   18.34    1.71
  13   0   2   16.49    1.61
 -13   0  -2   18.19    1.69
 -13   0  -3   -0.73    0.62
  13   0   3    0.17    0.63
 -13   0   3    0.52    0.77
 -13   0   4    0.83    0.88
 -13   1   0   -0.43    0.50
  13  -1   0    0.16    0.42
 -13  -1   0    0.02    0.63
  13   1   0   -0.15    0.46
  13   1   1   24.92    1.92
 -13   1  -1   24.18    1.99
  13  -1  -1   24.11    1.82
 -13   1   1   22.83    1.94
 -13  -1  -1   24.96    2.02
  13   1  -1   22.20    1.80
  13  -1   1   23.18    1.85
 -13   1  -2    5.13    0.88
 -13  -1   2    4.98    0.89
  13  -1  -2    5.28    0.71
  13   1   2    4.85    0.87
 -13  -1  -2    4.12    0.84
  13  -1   2    3.89    0.78
 -13   1   2    4.31    0.87
 -13  -1   3    0.32    0.74
 -13   1  -3    1.60    0.74
  13   1   3   -0.21    0.65
 -13  -1  -3    0.05    0.67
  13  -1   3    0.09    0.60
 -13   1   3    1.08    0.77
 -13  -1   4    3.74    1.03
 -13  -2   0    0.05    0.68
  13  -2   0    0.78    0.47
  13   2   0   -0.31    0.48
 -13   2   0    0.24    0.54
  13  -2  -1    6.17    0.78
  13   2   1    6.53    0.90
 -13   2  -1    6.84    0.92
 -13  -2  -1    5.67    0.97
  13   2  -1    5.95    0.80
 -13   2   1    7.50    0.93
  13  -2   1    5.67    0.81
 -13   2  -2   23.49    2.05
  13  -2  -2   23.59    1.87
  13   2   2   24.34    2.06
 -13  -2  -2   24.77    2.06
 -13   2   2   26.65    2.08
  13  -2   2   24.43    1.94
  13  -2  -3    3.52    0.68
 -13  -2   3    1.42    0.81
  13   2   3    2.08    0.83
 -13   2  -3    2.30    0.83
 -13   2   3    1.94    0.82
  13  -2   3    2.07    0.71
 -13  -2  -3    1.90    0.76
 -13  -2   4    0.73    0.89
  13   2  -4    1.94    0.49
 -13   3   0   -0.43    0.50
 -13  -3   0    0.43    0.71
  13  -3   0    0.57    0.46
  13   3   0   -0.63    0.48
 -13  -3   1   11.77    1.33
 -13   3  -1   10.47    1.20
  13  -3  -1    9.35    1.06
  13   3   1   12.73    1.29
 -13   3  -1   12.66    1.21
 -13   3   1   10.60    1.18
  13  -3   1   12.55    1.14
 -13  -3  -1   12.15    1.31
  13  -3  -2    2.67    0.63
  13   3   2    3.03    0.81
 -13   3  -2    2.63    0.87
 -13  -3  -2    3.24    0.86
  13  -3   2    2.82    0.66
 -13   3   2    2.20    0.75
  13  -3  -3    1.34    0.61
 -13   3  -3    0.76    0.87
  13   3   3    0.77    0.75
 -13  -3  -3    0.67    0.72
  13   3  -3    1.13    0.39
  13  -3   3    1.02    0.65
 -13   3   3    1.53    0.79
 -13   4   0   -0.32    0.53
  13   4   0   -0.43    0.54
 -13  -4   0   -0.43    0.75
  13  -4   0    0.16    0.44
  13  -4  -1    6.96    0.85
 -13   4  -1    7.44    0.90
 -13  -4   1    5.50    1.04
  13   4   1    6.60    0.98
 -13   4   1    5.87    0.90
  13  -4   1    5.94    0.82
 -13  -4  -1    5.77    1.04
  13  -4  -2   22.69    1.89
 -13   4  -2   24.42    2.20
  13   4   2   22.69    2.09
 -13   4  -2   23.36    1.99
 -13  -4  -2   24.71    2.08
  13  -4   2   24.82    1.90
 -13   4  -3    2.68    1.02
  13  -4  -3    2.41    0.75
  13   4   3    1.97    0.90
 -13   4   3    4.23    0.93
  13   4  -3    3.33    0.51
  13  -4   3    4.34    0.83
 -13  -5   0   -0.40    0.80
  13  -5   0    0.37    0.46
 -13   5   0    0.63    0.58
 -13   5  -1   10.45    1.11
  13  -5  -1    7.20    0.92
  13   5   1    5.35    1.06
 -13  -5   1    6.91    1.21
 -13   5   1   10.75    1.11
  13  -5   1    7.91    0.94
 -13  -5  -1   11.02    1.27
  13  -5  -2    1.93    0.64
 -13   5  -2    0.86    0.67
 -13   5  -2    1.38    0.92
  13   5   2   -0.72    0.69
  13  -5   2    0.42    0.51
 -13   5   2    1.50    0.71
 -13  -5  -2   -0.07    0.78
  13   5  -2    0.24    0.33
  13  -5  -3    0.65    0.64
 -13   5  -3    0.21    0.96
  13   5  -3    0.73    0.37
  13  -6   0   -0.29    0.46
 -13   6   0   -0.66    0.55
 -13  -6   0   -0.59    0.84
 -13   6  -1    7.20    1.01
 -13  -6   1    4.91    1.14
  13  -6  -1    4.51    0.82
 -13  -6  -1    5.79    1.13
  13  -6   1    6.38    0.84
  13   6  -1    6.04    0.65
 -13   6   1    6.31    0.94
 -13   6  -2    8.47    1.21
  13   6   2    8.76    1.33
  13  -6   2    8.69    1.08
 -13   6   2   13.05    1.33
  13   6  -2   12.90    0.96
 -13  -7   0   -1.28    0.89
 -13   7   0    0.31    0.62
 -13  -7   1    5.98    1.27
 -13   7  -1    8.25    1.11
  13   7  -1    8.46    0.81
 -13  -7   2   -0.33    0.94
  13   7   2    2.59    0.93
  13   7  -2    2.19    0.46
  13   8   0   -0.07    0.39
  14   0   0   18.38    1.56
 -14   0  -1    0.20    0.69
  14   0   1    0.85    0.58
  14   0  -1    1.61    0.54
  14   0   2   -0.08    0.58
 -14   0   2    0.66    0.72
 -14   0  -2   -0.33    0.68
 -14   0   3    1.43    0.86
  14  -1   0    6.21    0.84
  14   1   0    6.77    0.88
 -14  -1   0    6.72    1.00
  14   1   1    6.06    0.90
 -14   1  -1    7.39    0.99
  14  -1  -1    5.28    0.78
 -14   1   1    5.97    0.94
 -14  -1  -1    7.26    1.05
  14  -1   1    5.66    0.84
  14   1  -1    5.27    0.79
  14  -1  -2    2.65    0.60
 -14   1  -2    1.70    0.78
  14   1   2    2.51    0.76
 -14   1   2    1.81    0.77
 -14  -1  -2    2.18    0.79
  14  -1   2    1.46    0.67
 -14  -1   3    7.88    1.22
 -14   1   3    9.04    1.25
 -14  -2   0   26.87    2.24
 -14   2   0   25.22    2.08
  14   2   0   26.22    2.05
  14  -2  -1    1.56    0.54
  14   2   1    0.26    0.60
 -14   2  -1   -0.07    0.67
 -14  -2  -1    0.80    0.76
 -14   2   1    0.77    0.67
  14  -2   1    0.78    0.53
  14  -2  -2    0.15    0.49
  14   2   2   -0.08    0.65
 -14   2  -2   -0.14    0.72
 -14   2   2   -0.36    0.68
  14  -2   2    0.48    0.56
 -14  -2  -2    0.47    0.76
 -14   3   0    3.40    0.74
 -14  -3   0    2.05    0.88
  14  -3   0    2.43    0.61
  14   3   0    3.46    0.72
  14  -3  -1    1.60    0.56
  14   3   1    0.73    0.67
 -14   3   1    1.80    0.70
 -14  -3  -1    1.60    0.82
  14  -3   1    2.07    0.60
  14  -3  -2    3.55    0.72
 -14   3  -2    4.74    0.98
  14   3   2    4.65    0.96
 -14  -3  -2    4.16    0.95
 -14   3   2    4.53    0.92
  14  -4   0   14.72    1.35
 -14  -4   0   15.52    1.62
 -14   4   0   14.10    1.43
  14   4   1    1.03    0.73
 -14   4  -1   -0.04    0.61
  14  -4  -1    1.28    0.54
 -14   4   1    0.38    0.65
  14  -4   1    1.34    0.54
 -14  -4  -1    0.46    0.83
  14  -4  -2    1.68    0.63
  14   4   2    1.65    0.86
 -14   4  -2    1.74    0.91
 -14   4   2    2.43    0.80
 -14   5   0    7.38    1.01
 -14  -5   0    7.93    1.26
 -14   5  -1    0.44    0.65
  14   5   1    0.75    0.77
 -14  -5   1   -0.73    0.92
 -14   5   1    0.97    0.68
  15   0   0   -0.12    0.51
 -15   0  -1    1.68    0.83
  15   0  -1    1.48    0.58
  15  -1   0   -0.46    0.48
  15   1   0    0.41    0.57
  15  -1  -1    0.10    0.51
 -15  -1  -1    1.02    0.80
  15   1  -1    0.51    0.55
  15   2   0    0.22    0.58
  15   2   1    0.19    0.65
 -15   2   1    2.87    0.78
 -15  -2  -1    1.42    0.83
 -15  -3   0    0.12    0.86
   0   0   0    0.00    0.00
;
_shelx_hkl_checksum              59939
#END Tags that were not found in dictionaries
loop_
_space_group_symop_operation_xyz
'x, y, z'
'x+1/2, -y+1/2, -z+1/2'
'-x, y+1/2, -z'
'-x+1/2, -y, z+1/2'
'-x, -y, -z'
'-x-1/2, y-1/2, z-1/2'
'x, -y-1/2, z'
'x-1/2, y, -z-1/2'
loop_
_atom_site_label
_atom_site_type_symbol
_atom_site_fract_x
_atom_site_fract_y
_atom_site_fract_z
_atom_site_U_iso_or_equiv
_atom_site_adp_type
_atom_site_occupancy
_atom_site_site_symmetry_order
_atom_site_calc_flag
_atom_site_refinement_flags_posn
_atom_site_refinement_flags_adp
_atom_site_refinement_flags_occupancy
Mn1 Mn 0.12192(4) 0.2500 0.05306(9) 0.03063(18) Uani 1 2 d S T P
Br1 Br 0.24874(3) 0.2500 0.38213(7) 0.04418(17) Uani 1 2 d S T P
C1 C 0.2167(2) 0.3651(2) -0.0655(5) 0.0389(6) Uani 1 1 d . . .
C2 C 0.0363(2) 0.3672(2) 0.1902(5) 0.0386(6) Uani 1 1 d . . .
O3 O -0.0288(3) 0.2500 -0.3323(6) 0.0584(8) Uani 1 2 d S T P
O1 O 0.2735(2) 0.4351(2) -0.1341(4) 0.0605(7) Uani 1 1 d . . .
O2 O -0.01253(18) 0.4398(2) 0.2671(4) 0.0623(7) Uani 1 1 d . . .
C3 C 0.0298(4) 0.2500 -0.1844(7) 0.0390(8) Uani 1 2 d S T P
loop_
_atom_site_aniso_label
_atom_site_aniso_U_11
_atom_site_aniso_U_22
_atom_site_aniso_U_33
_atom_site_aniso_U_23
_atom_site_aniso_U_13
_atom_site_aniso_U_12
Mn1 0.0295(3) 0.0313(3) 0.0311(3) 0.000 0.0001(2) 0.000
Br1 0.0403(3) 0.0548(3) 0.0375(3) 0.000 -0.00730(16) 0.000
C1 0.0368(14) 0.0377(14) 0.0421(15) -0.0017(12) 0.0004(12) 0.0023(12)
C2 0.0339(13) 0.0404(14) 0.0416(14) -0.0038(12) -0.0005(12) -0.0017(11)
O3 0.0458(17) 0.086(2) 0.0434(17) 0.000 -0.0106(15) 0.000
O1 0.0610(14) 0.0463(14) 0.0740(18) 0.0050(11) 0.0136(12) -0.0141(11)
O2 0.0541(15) 0.0546(14) 0.0782(19) -0.0164(12) 0.0094(13) 0.0087(10)
C3 0.038(2) 0.042(2) 0.0369(19) 0.000 0.0036(17) 0.000
loop_
_atom_type_symbol
_atom_type_description
_atom_type_scat_dispersion_real
_atom_type_scat_dispersion_imag
_atom_type_scat_source
C C 0.0030 0.0020 'International Tables Vol C Tables 4.2.6.8 and 6.1.1.4'
O O 0.0110 0.0060 'International Tables Vol C Tables 4.2.6.8 and 6.1.1.4'
Mn Mn 0.3370 0.7280 'International Tables Vol C Tables 4.2.6.8 and 6.1.1.4'
Br Br -0.2900 2.4600 'International Tables Vol C Tables 4.2.6.8 and 6.1.1.4'
loop_
_geom_angle_atom_site_label_1
_geom_angle_atom_site_label_2
_geom_angle_atom_site_label_3
_geom_angle
_geom_angle_site_symmetry_1
_geom_angle_site_symmetry_3
C3 Mn1 C1 92.70(13) . 7_565
C3 Mn1 C1 92.70(13) . .
C1 Mn1 C1 89.75(18) 7_565 .
C3 Mn1 C2 92.05(12) . 7_565
C1 Mn1 C2 89.11(12) 7_565 7_565
C1 Mn1 C2 175.16(13) . 7_565
C3 Mn1 C2 92.05(12) . .
C1 Mn1 C2 175.16(13) 7_565 .
C1 Mn1 C2 89.11(12) . .
C2 Mn1 C2 91.64(18) 7_565 .
C3 Mn1 Br1 179.82(13) . .
C1 Mn1 Br1 87.43(9) 7_565 .
C1 Mn1 Br1 87.43(9) . .
C2 Mn1 Br1 87.82(9) 7_565 .
C2 Mn1 Br1 87.82(9) . .
O1 C1 Mn1 179.0(3) . .
O2 C2 Mn1 177.4(3) . .
O3 C3 Mn1 179.4(4) . .
loop_
_geom_bond_atom_site_label_1
_geom_bond_atom_site_label_2
_geom_bond_distance
_geom_bond_site_symmetry_2
Mn1 C3 1.811(4) .
Mn1 C1 1.878(3) 7_565
Mn1 C1 1.878(3) .
Mn1 C2 1.880(3) 7_565
Mn1 C2 1.880(3) .
Mn1 Br1 2.5041(7) .
C1 O1 1.127(4) .
C2 O2 1.118(3) .
O3 C3 1.137(6) .
