#------------------------------------------------------------------------------
#$Date: 2016-02-18 17:37:37 +0200 (Thu, 18 Feb 2016) $
#$Revision: 176729 $
#$URL: svn://www.crystallography.net/cod/cif/1/51/77/1517793.cif $
#------------------------------------------------------------------------------
#
# This file is available in the Crystallography Open Database (COD),
# http://www.crystallography.net/
#
# All data on this site have been placed in the public domain by the
# contributors.
#
data_1517793
loop_
_publ_author_name
'Dorot\'ikov\'a, Sandra'
'Plevov\'a, Krist\'ina'
'Bu\<cinsk\'y, Luk\'a\<s'
'Mal\<cek, Michal'
'Herich, Peter'
'Kuckov\'a, Lenka'
'Bobeni\<cov\'a, Miroslava'
'Soralov\'a, Stanislava'
'Ko\<z\'i\<sek, Jozef'
'Fronc, Marek'
'Milata, Viktor'
'Dvoranov\'a, Dana'
_publ_section_title
;
 Conformational, spectroscopic, and molecular dynamics DFT study of
 precursors for new potential antibacterial fluoroquinolone drugs.
;
_journal_issue                   40
_journal_name_full               'The journal of physical chemistry. A'
_journal_page_first              9540
_journal_page_last               9551
_journal_paper_doi               10.1021/jp506355f
_journal_volume                  118
_journal_year                    2014
_chemical_formula_moiety         'C12 H12 F N O2'
_chemical_formula_sum            'C12 H12 F N O2'
_chemical_formula_weight         221.23
_chemical_name_systematic
; 
 ? 
;
_space_group_crystal_system      triclinic
_space_group_IT_number           2
_space_group_name_Hall           '-P 1'
_space_group_name_H-M_alt        'P -1'
_symmetry_space_group_name_Hall  '-P 1'
_symmetry_space_group_name_H-M   'P -1'
_atom_sites_solution_hydrogens   geom
_audit_creation_method           SHELXL-2013
_cell_angle_alpha                108.298(4)
_cell_angle_beta                 98.083(4)
_cell_angle_gamma                100.432(4)
_cell_formula_units_Z            2
_cell_length_a                   6.1162(3)
_cell_length_b                   9.6371(5)
_cell_length_c                   10.2412(5)
_cell_measurement_reflns_used    2560
_cell_measurement_temperature    293(2)
_cell_measurement_theta_max      31.5520
_cell_measurement_theta_min      2.5600
_cell_volume                     550.90(5)
_computing_cell_refinement       'CrysAlis CCD'
_computing_data_collection       'CrysAlis CCD (Oxford Diffraction, 2010)'
_computing_data_reduction        'CrysAlis RED (Oxford Diffraction, 2010)'
_computing_molecular_graphics    'DIAMOND (Brandenburg, 1998)'
_computing_publication_material  ' enCIFer (Allen et al., 2008)'
_computing_structure_refinement  'SHELXL-2013 (Sheldrick, 2013)'
_computing_structure_solution    'SHELXS-2008 (Sheldrick, 2008)'
_diffrn_ambient_temperature      293(2)
_diffrn_detector_area_resol_mean 10.4340
_diffrn_measured_fraction_theta_full 0.958
_diffrn_measured_fraction_theta_max 0.996
_diffrn_measurement_device_type  'Mo K\a'
_diffrn_measurement_method       '\w scans'
_diffrn_radiation_type           MoK\a
_diffrn_radiation_wavelength     0.71073
_diffrn_reflns_av_R_equivalents  0.0178
_diffrn_reflns_av_unetI/netI     0.0141
_diffrn_reflns_Laue_measured_fraction_full 0.958
_diffrn_reflns_Laue_measured_fraction_max 0.996
_diffrn_reflns_limit_h_max       7
_diffrn_reflns_limit_h_min       -7
_diffrn_reflns_limit_k_max       11
_diffrn_reflns_limit_k_min       -11
_diffrn_reflns_limit_l_max       12
_diffrn_reflns_limit_l_min       -12
_diffrn_reflns_number            7308
_diffrn_reflns_point_group_measured_fraction_full 0.958
_diffrn_reflns_point_group_measured_fraction_max 0.996
_diffrn_reflns_theta_full        25.000
_diffrn_reflns_theta_max         24.702
_diffrn_reflns_theta_min         4.098
_diffrn_source                   'Enhance (Mo) X-ray Source'
_exptl_absorpt_coefficient_mu    0.102
_exptl_absorpt_correction_T_max  0.991
_exptl_absorpt_correction_T_min  0.907
_exptl_absorpt_correction_type   analytical
_exptl_absorpt_process_details
;
CrysAlisPro, Agilent Technologies,
Version 1.171.37.31 (release 14-01-2014 CrysAlis171 .NET)
(compiled Jan 14 2014,18:38:05)
Analytical numeric absorption correction using a multifaceted crystal
            model based on expressions derived by R.C. Clark & J.S. Reid.
(Clark, R. C. & Reid, J. S. (1995). Acta Cryst. A51, 887-897)
Empirical absorption correction using spherical harmonics,
 implemented in SCALE3 ABSPACK scaling algorithm.
;
_exptl_crystal_colour            colourless
_exptl_crystal_density_diffrn    1.334
_exptl_crystal_density_method    'not measured'
_exptl_crystal_description       block
_exptl_crystal_F_000             232
_exptl_crystal_size_max          0.9614
_exptl_crystal_size_mid          0.7891
_exptl_crystal_size_min          0.0922
_refine_diff_density_max         0.149
_refine_diff_density_min         -0.181
_refine_diff_density_rms         0.040
_refine_ls_extinction_method     none
_refine_ls_goodness_of_fit_ref   1.044
_refine_ls_hydrogen_treatment    constr
_refine_ls_matrix_type           full
_refine_ls_number_parameters     147
_refine_ls_number_reflns         1865
_refine_ls_number_restraints     133
_refine_ls_restrained_S_all      1.008
_refine_ls_R_factor_all          0.0505
_refine_ls_R_factor_gt           0.0413
_refine_ls_shift/su_max          0.000
_refine_ls_shift/su_mean         0.000
_refine_ls_structure_factor_coef Fsqd
_refine_ls_weighting_details
'w=1/[\s^2^(Fo^2^)+(0.0601P)^2^+0.0818P] where P=(Fo^2^+2Fc^2^)/3'
_refine_ls_weighting_scheme      calc
_refine_ls_wR_factor_gt          0.1099
_refine_ls_wR_factor_ref         0.1172
_reflns_Friedel_coverage         0.000
_reflns_number_gt                1528
_reflns_number_total             1865
_reflns_threshold_expression     'I > 2\s(I)'
_cod_data_source_file            jp506355f_si_004.cif
_cod_data_source_block           I
_cod_depositor_comments
'Adding full bibliography for 1517792--1517794.cif.'
_cod_database_code               1517793
#BEGIN Tags that were not found in dictionaries:
_shelx_space_group_comment
; 
The symmetry employed for this shelxl refinement is uniquely defined 
by the following loop, which should always be used as a source of 
symmetry information in preference to the above space-group names. 
They are only intended as comments. 
;
_shelxl_version_number           2013-4
_shelx_res_file
; 
TITL EXP_1127 IN P1              NEW: P-1 
CELL  0.71073  6.11620  9.63710 10.24120 108.29800 98.08300 100.43200 
ZERR 2  0.00030  0.00050  0.00050  0.00400  0.00400  0.00400 
LATT 1 
SFAC C H F N O 
UNIT 24 24 2 2 4 
L.S. 9 
FMAP 2 
PLAN -20 
ACTA 50 
SIMU 
DELU 
SHEL 5.0 0.85 
BOND $H 
HTAB N7 O2 
EQIV_$1 -x+3, -y+1, -z+1 
HTAB C6 F1_$1 
EQIV_$2 -x+1, -y, -z+1 
HTAB C2 O2_$2 
EQIV_$3 x, y+1, z+1 
HTAB C4 O1_$3 
CONF 
WGHT    0.060100    0.081800 
FVAR       7.63832 
F1    3    1.448778    0.637573    0.672222    11.00000    0.07987    0.06038 = 
         0.10365   -0.00978    0.03756   -0.02010 
O1    5    1.018826   -0.207008    0.052587    11.00000    0.10359    0.05933 = 
         0.07388   -0.01708    0.04565    0.00134 
O2    5    0.625701   -0.100601    0.350697    11.00000    0.06596    0.05472 = 
         0.06040    0.00212    0.02515   -0.00120 
N7    4    0.916242    0.160709    0.458656    11.00000    0.05394    0.03738 = 
         0.04294    0.00419    0.01638    0.00365 
AFIX  43 
H7A   2    0.795458    0.104790    0.466126    11.00000   -1.20000 
AFIX   0 
C1    1    0.993729    0.306128    0.560831    11.00000    0.05392    0.03639 = 
         0.03935    0.00602    0.01344    0.00796 
C3    1    0.931825    0.492661    0.760331    11.00000    0.07717    0.05493 = 
         0.05511    0.00149    0.03423    0.01344 
AFIX  43 
H3A   2    0.842548    0.521973    0.825616    11.00000   -1.20000 
AFIX   0 
C6    1    1.193735    0.402950    0.566082    11.00000    0.05641    0.04561 = 
         0.05083    0.00332    0.02246    0.00688 
AFIX  43 
H6A   2    1.285169    0.374331    0.502001    11.00000   -1.20000 
AFIX   0 
C5    1    1.252768    0.542124    0.668517    11.00000    0.05660    0.04349 = 
         0.05774    0.00397    0.01686    0.00038 
C2    1    0.863441    0.351337    0.658634    11.00000    0.06353    0.04880 = 
         0.05362    0.00650    0.02690    0.00438 
AFIX  43 
H2A   2    0.729152    0.286195    0.655839    11.00000   -1.20000 
AFIX   0 
C4    1    1.129534    0.591198    0.767158    11.00000    0.07453    0.04334 = 
         0.05027   -0.00143    0.01645    0.00820 
AFIX  43 
H4A   2    1.176902    0.686712    0.835756    11.00000   -1.20000 
AFIX   0 
C8    1    1.010401    0.101555    0.352504    11.00000    0.05444    0.03991 = 
         0.04081    0.00899    0.01359    0.00950 
AFIX  43 
H8A   2    1.143269    0.161288    0.346162    11.00000   -1.20000 
AFIX   0 
C11   1    0.721622   -0.137700    0.250795    11.00000    0.05787    0.04327 = 
         0.04613    0.00771    0.01187    0.00919 
C10   1    1.067346   -0.083168    0.142478    11.00000    0.06667    0.04662 = 
         0.04260    0.00654    0.01722    0.01407 
C9    1    0.932683   -0.039391    0.250029    11.00000    0.05532    0.03881 = 
         0.03916    0.00731    0.01162    0.01007 
C13   1    0.612427   -0.282333    0.131945    11.00000    0.07102    0.05287 = 
         0.06023   -0.00122    0.01287   -0.00526 
AFIX 137 
H13A  2    0.598852   -0.264231    0.044508    11.00000   -1.20000 
H13B  2    0.464052   -0.322178    0.144038    11.00000   -1.20000 
H13C  2    0.704326   -0.353376    0.131044    11.00000   -1.20000 
AFIX   0 
C12   1    1.274330    0.027477    0.142547    11.00000    0.07461    0.06437 = 
         0.06599    0.00896    0.03454    0.01072 
AFIX 137 
H12A  2    1.232906    0.117360    0.137414    11.00000   -1.20000 
H12B  2    1.337101   -0.015944    0.062778    11.00000   -1.20000 
H12C  2    1.385453    0.051826    0.227495    11.00000   -1.20000 
AFIX   0 
HKLF 4 
  
REM  EXP_1127 IN P1              NEW: P-1 
REM R1 =  0.0413 for    1528 Fo > 4sig(Fo)  and  0.0505 for all    1865 data 
REM    147 parameters refined using    133 restraints 
  
END 
  
WGHT      0.0601      0.0818 
  
REM Highest difference peak  0.149,  deepest hole -0.181,  1-sigma level  0.040 
Q1    1   0.4150 -0.2710  0.0964  11.00000  0.05    0.15 
Q2    1   0.9558 -0.0428  0.1887  11.00000  0.05    0.13 
Q3    1   0.5546 -0.3648  0.1830  11.00000  0.05    0.13 
Q4    1   0.9976 -0.0587  0.2167  11.00000  0.05    0.12 
Q5    1   0.9252 -0.1406  0.0145  11.00000  0.05    0.11 
Q6    1   1.0055 -0.0182  0.3038  11.00000  0.05    0.11 
Q7    1   1.2236  0.0273  0.0029  11.00000  0.05    0.10 
Q8    1   0.8794 -0.0990  0.2663  11.00000  0.05    0.10 
Q9    1   0.9167  0.0390  0.2583  11.00000  0.05    0.09 
Q10   1   0.9206  0.4629  0.4872  11.00000  0.05    0.09 
Q11   1   0.6861 -0.4108  0.1996  11.00000  0.05    0.09 
Q12   1   1.0410  0.3839  0.5146  11.00000  0.05    0.08 
Q13   1   1.1473  0.3378  0.6036  11.00000  0.05    0.08 
Q14   1   1.4263 -0.0576  0.1234  11.00000  0.05    0.08 
Q15   1   0.6192  0.2880  0.5975  11.00000  0.05    0.08 
Q16   1   0.7008 -0.3024  0.0561  11.00000  0.05    0.08 
Q17   1   0.4635 -0.0287  0.2416  11.00000  0.05    0.08 
Q18   1   1.1634  0.2650  0.6657  11.00000  0.05    0.08 
Q19   1   0.9729  0.5720  0.7029  11.00000  0.05    0.08 
Q20   1   0.9165  0.3371  0.5915  11.00000  0.05    0.08 
;
_shelx_res_checksum              28516
_shelx_hkl_file
; 
  -8  -4   4-204.784 84.1015   7 
  -8  -4   5 115.715 66.7775   7 
  -8  -4   6 71.8895 54.2877   7 
  -8  -4   7-43.2880 61.7926   7 
  -8  -3   3 284.622 91.4273   7 
  -8  -3   4-35.7270 47.1498   7 
  -8  -3   5-6.64935 51.4902   7 
  -8  -3   6 202.256 71.7813   7 
  -8  -3   7-55.4413 57.8309   7 
  -8  -3   8-54.8057 59.0926   7 
  -8  -2   0 407.841 104.538   8 
  -8  -2   1 170.309 64.1612   8 
  -8  -2   2-61.3567 50.4256   7 
  -8  -2   3-3.68263 54.2013   7 
  -8  -2   4-139.654 73.8285   7 
  -8  -2   5 239.009 75.9614   7 
  -8  -2   6 93.9066 59.2255   7 
  -8  -2   7 63.3150 45.6443   7 
  -8  -2   8-41.1601 66.0616   7 
  -8  -2   9-109.398 78.8773   7 
  -8  -1  -2 4.59558 45.6980   8 
  -8  -1  -1 0.56641 61.8622   8 
  -8  -1   0 57.2319 66.0690   8 
  -8  -1   1-45.3608 48.9384   7 
  -8  -1   2 82.5981 54.5667   7 
  -8  -1   3 55.0741 44.6798   7 
  -8  -1   4 19.8081 56.7223   7 
  -8  -1   5 78.8413 65.1313   7 
  -8  -1   6 64.1597 48.8543   7 
  -8  -1   7 181.882 64.8551   7 
  -8  -1   8-96.5705 66.1701   7 
  -8  -1   9-12.6556 50.1559   7 
  -8   0  -3 41.9827 61.9236   8 
  -8   0  -2 13.0124 60.6405   8 
  -8   0  -1 3.15871 40.4536   8 
  -8   0   0 74.3771 59.6646   7 
  -8   0   0 45.4897 44.7214   8 
  -8   0   1 41.8584 65.6320   7 
  -8   0   2 98.1902 60.9627   7 
  -8   0   3 477.072 107.713   7 
  -8   0   4 151.694 70.6200   7 
  -8   0   5-65.7771 66.6436   7 
  -8   0   6 26.5672 60.0465   7 
  -8   0   7 49.5183 47.2444   7 
  -8   0   8-49.3388 71.5201   7 
  -8   1  -4-128.698 85.9610   8 
  -8   1  -3 18.7870 41.9784   8 
  -8   1  -2 122.648 64.5670   8 
  -8   1  -1 33.0064 43.7235   8 
  -8   1  -1-12.7472 52.0163   7 
  -8   1   0 26.0325 45.7524   7 
  -8   1   1-21.8954 42.4791   7 
  -8   1   2-30.3816 52.6566   7 
  -8   1   3 19.6576 50.7405   7 
  -8   1   4 22.8880 59.0781   7 
  -8   1   5-28.9520 53.6819   7 
  -8   1   6-32.6383 61.4402   7 
  -8   1   7 168.035 67.6485   7 
  -8   1   8 31.6128 58.1496   7 
  -8   2  -5-38.7701 66.3317   8 
  -8   2  -4-60.6746 51.9760   8 
  -8   2  -3 196.017 65.2500   8 
  -8   2  -2-51.8617 42.3220   8 
  -8   2  -2 82.8755 50.1383   7 
  -8   2  -1 6.85229 60.9620   7 
  -8   2   0 15.3701 57.2500   7 
  -8   2   1 40.5268 44.0379   7 
  -8   2   2-41.9105 46.9247   7 
  -8   2   3-44.9726 62.5341   7 
  -8   2   4 89.8380 49.9921   7 
  -8   2   5 25.9266 57.0764   7 
  -8   2   6 129.733 59.9931   7 
  -8   2   7-47.6240 71.9274   7 
  -8   3  -3-18.9427 40.2610   8 
  -8   3  -2-17.7718 59.5217   7 
  -8   3  -1 9.89773 62.2051   7 
  -8   3   0 25.6796 59.1091   7 
  -8   3   1 20.8624 54.7088   7 
  -8   3   2-74.9627 57.1115   7 
  -8   3   3 128.987 46.2709   7 
  -8   3   4 91.5141 67.2029   7 
  -8   3   5 15.1496 55.6366   7 
  -8   3   6-3.67839 53.1719   7 
  -8   3   7-117.715 58.5686   7 
  -8   4  -3 7.58163 47.6567   7 
  -8   4  -2 49.8288 49.9742   7 
  -8   4  -1 36.0214 58.3967   7 
  -8   4   0-66.0477 50.0278   7 
  -8   4   1-10.1985 61.1387   7 
  -8   4   2-0.73801 50.4045   7 
  -8   4   3 57.8721 56.8973   7 
  -8   4   4 57.4603 51.6610   7 
  -8   4   5-73.5187 64.8521   7 
  -8   4   6 12.4457 42.9912   7 
  -8   5  -3 71.7755 60.4341   7 
  -8   5  -2-13.9460 60.9481   7 
  -8   5  -1 212.425 75.7678   7 
  -8   5   0 63.7313 56.0419   7 
  -8   5   1 64.6495 61.4396   7 
  -8   5   2-69.6104 60.3396   7 
  -8   5   3-48.9860 55.2283   7 
  -8   5   4-25.1275 43.7140   7 
  -8   5   5-56.3315 51.2797   7 
  -8   6  -4 7.65212 60.0950   7 
  -8   6  -3 102.255 57.8430   7 
  -8   6  -2 55.5646 55.8689   7 
  -8   6  -1 7.49886 54.5144   7 
  -8   6   0 133.453 71.6194   7 
  -8   6   1-24.0462 52.0263   7 
  -8   6   2 97.9799 52.0974   7 
  -8   6   3 158.614 70.7799   7 
  -8   6   4-15.8741 50.2608   7 
  -8   7  -4 74.5725 59.5249   7 
  -8   7  -3 107.772 53.9963   7 
  -8   7  -2-95.1624 85.7061   7 
  -8   7  -1-109.595 65.4194   7 
  -8   7   0-23.0129 48.6628   7 
  -8   7   1-58.6191 65.2769   7 
  -8   7   2-101.813 58.4662   7 
  -8   7   3-38.6793 57.9679   7 
  -8   8  -4 23.5463 50.7262   7 
  -8   8  -3-7.05318 48.7635   7 
  -8   8  -2 18.1202 60.5321   7 
  -8   8  -1-20.2074 51.3414   7 
  -8   8   0-15.2756 43.1164   7 
  -8   8   1 35.6116 43.2316   7 
  -8   8   2 20.9021 48.2751   7 
  -8   9  -3-39.3669 38.7058   7 
  -8   9  -2-74.1738 58.6650   7 
  -8   9  -1 194.945 70.6464   7 
  -8   9   0 7.57959 79.5078   7 
  -7  -6   3 160.444 85.7338   5 
  -7  -6   4 976.515 136.024   5 
  -7  -6   5 387.230 92.3634   5 
  -7  -6   6-10.5454 45.5243   5 
  -7  -5  -1 89.9917 50.1331   5 
  -7  -5   0-28.0378 60.4746   5 
  -7  -5   1 392.450 104.922   8 
  -7  -5   1 151.225 58.5293   5 
  -7  -5   2 1.06988 56.0534   8 
  -7  -5   2-13.0846 53.4233   5 
  -7  -5   3 408.548 94.2343   8 
  -7  -5   5 202.263 70.6471   7 
  -7  -5   6 33.6199 47.3146   7 
  -7  -5   7 3.16779 46.0903   5 
  -7  -5   7 150.558 50.6967   7 
  -7  -5   8-14.1789 41.0416   5 
  -7  -5   9 80.7437 72.7903   5 
  -7  -5  10 53.7278 46.1324   5 
  -7  -4  -3 43.9634 43.7549   5 
  -7  -4  -2 66.4801 51.9785   5 
  -7  -4  -1 155.211 47.6503   8 
  -7  -4   0 58.3663 44.3692   8 
  -7  -4   1-8.18726 44.9889   8 
  -7  -4   2 474.798 102.304   8 
  -7  -4   3 81.5689 48.3300   7 
  -7  -4   4 68.5821 46.0115   7 
  -7  -4   5-111.920 65.8183   7 
  -7  -4   6-58.6252 54.5508   7 
  -7  -4   7 562.015 91.1545   7 
  -7  -4   8 57.4289 55.3679   7 
  -7  -4   9 163.512 57.4227   7 
  -7  -4  10 34.3981 49.8994   5 
  -7  -4  11-40.4343 46.2731   5 
  -7  -3  -4-16.6857 60.1325   5 
  -7  -3  -3-18.2701 55.5917   8 
  -7  -3  -2 14.3784 51.8243   8 
  -7  -3  -1 75.5268 46.8200   8 
  -7  -3   0-30.9975 59.6451   8 
  -7  -3   1 64.9577 67.4767   8 
  -7  -3   2 63.7333 48.3604   8 
  -7  -3   2 184.996 60.9671   7 
  -7  -3   3 22.5758 42.9589   7 
  -7  -3   4 418.847 84.3139   7 
  -7  -3   5 118.774 56.5337   7 
  -7  -3   6 242.795 70.1130   7 
  -7  -3   7 18.3736 52.5146   7 
  -7  -3   8 0.36378 40.3686   7 
  -7  -3   9 227.130 60.2113   7 
  -7  -3  10-58.3484 51.1325   7 
  -7  -2  -4 101.830 70.4449   8 
  -7  -2  -3-19.8027 44.0092   8 
  -7  -2  -2 210.582 77.1410   8 
  -7  -2  -1-37.4628 52.8820   8 
  -7  -2   0 100.077 58.9621   8 
  -7  -2   1 2.33116 43.8466   8 
  -7  -2   1 56.7891 47.8545   7 
  -7  -2   2 133.401 64.8454   7 
  -7  -2   2 96.5024 50.3358   8 
  -7  -2   3-4.98104 38.8985   7 
  -7  -2   4 38.7797 44.7329   7 
  -7  -2   5 1042.80 124.135   7 
  -7  -2   6 469.212 88.6581   7 
  -7  -2   7-16.2928 49.7682   7 
  -7  -2   8 123.176 51.1998   7 
  -7  -2   9 29.2203 55.2126   7 
  -7  -2  10-14.9464 62.4996   7 
  -7  -2  11 85.8137 51.4278   7 
  -7  -1  -5 118.664 61.5950   8 
  -7  -1  -4 66.4652 57.9523   8 
  -7  -1  -3-42.2337 52.8368   8 
  -7  -1  -2-46.6846 55.8874   8 
  -7  -1  -1-15.6933 46.9594   8 
  -7  -1   0-87.5363 66.9123   7 
  -7  -1   0-62.9307 47.5871   8 
  -7  -1   1 191.683 68.6158   7 
  -7  -1   1 194.183 57.3235   8 
  -7  -1   2-77.2951 55.7570   7 
  -7  -1   3 66.8390 53.3998   7 
  -7  -1   4 20.4930 38.9054   7 
  -7  -1   5 268.527 68.1743   7 
  -7  -1   6-22.1953 44.8320   7 
  -7  -1   7 28.6074 42.7726   7 
  -7  -1   8-67.6677 51.7879   7 
  -7  -1   9 115.062 58.7725   7 
  -7  -1  10 35.2902 45.6082   7 
  -7  -1  11-36.0735 83.7378   7 
  -7   0  -6 69.3986 61.8971   8 
  -7   0  -5 119.884 66.8782   8 
  -7   0  -4 38.7777 50.9217   8 
  -7   0  -3 24.5979 40.1899   8 
  -7   0  -2-16.6469 38.4475   8 
  -7   0  -1 60.2807 42.9113   8 
  -7   0  -1 119.918 58.8970   7 
  -7   0   0 43.2408 41.5588   8 
  -7   0   0 83.5931 55.1889   7 
  -7   0   1 118.104 58.0721   7 
  -7   0   2-0.08751 39.4817   7 
  -7   0   3 321.257 71.5754   7 
  -7   0   4 77.2387 49.6935   7 
  -7   0   5 15.3270 39.2651   7 
  -7   0   6 198.967 55.8439   7 
  -7   0   7 59.1317 41.4184   7 
  -7   0   8 426.639 88.5857   7 
  -7   0   9 130.084 46.6092   7 
  -7   0  10-0.85080 44.9904   7 
  -7   0  11-65.2095 74.5847   7 
  -7   1  -7 74.9108 40.6318   8 
  -7   1  -6-80.2845 61.5948   8 
  -7   1  -5 6.42475 38.9902   8 
  -7   1  -4 92.7463 55.3541   8 
  -7   1  -3 150.149 61.4650   8 
  -7   1  -2 107.173 45.3191   8 
  -7   1  -2 107.156 52.7108   7 
  -7   1  -1 36.0945 48.7781   7 
  -7   1  -1 56.5709 47.9943   8 
  -7   1   0 101.450 55.8778   7 
  -7   1   0 42.5771 35.5608   8 
  -7   1   1 97.6667 66.7267   7 
  -7   1   2 61.8513 39.1185   7 
  -7   1   3 30.8593 48.5323   7 
  -7   1   4-28.6352 41.0248   7 
  -7   1   5 692.118 93.6091   7 
  -7   1   6 248.299 67.4039   7 
  -7   1   7 292.506 77.5879   7 
  -7   1   8 68.8754 73.3852   7 
  -7   1   9-5.69670 52.4372   7 
  -7   1  10-171.360 64.1544   7 
  -7   2  -7-37.7081 72.1087   8 
  -7   2  -6-22.0253 46.8390   8 
  -7   2  -5 96.8524 49.5577   8 
  -7   2  -4 147.438 66.2331   8 
  -7   2  -3-4.67312 52.0800   8 
  -7   2  -2 65.9915 50.1667   7 
  -7   2  -2 31.0093 41.5233   8 
  -7   2  -1 84.3932 49.1046   8 
  -7   2  -1 52.1350 47.6713   7 
  -7   2   0 306.745 80.3447   7 
  -7   2   1 18.2552 43.0795   7 
  -7   2   2 47.0654 46.4357   7 
  -7   2   3 631.242 99.6672   7 
  -7   2   4 102.244 49.3530   7 
  -7   2   5 109.461 55.1572   7 
  -7   2   6 498.608 97.8167   7 
  -7   2   7 59.7070 55.3086   7 
  -7   2   8 50.3904 48.4436   7 
  -7   2   9 338.854 88.2235   7 
  -7   2  10 309.615 84.9677   7 
  -7   3  -8 11.6611 49.5122   4 
  -7   3  -7 132.622 56.4572   4 
  -7   3  -6-37.0949 57.9999   8 
  -7   3  -6-16.1375 35.9190   4 
  -7   3  -5-84.5175 46.5828   8 
  -7   3  -5 69.4660 36.0711   4 
  -7   3  -4-56.3886 46.8790   8 
  -7   3  -4 99.7359 42.7949   4 
  -7   3  -3-51.7336 36.1662   8 
  -7   3  -3-62.8836 58.5716   7 
  -7   3  -2 29.6409 50.3092   7 
  -7   3  -2-24.4816 32.3026   8 
  -7   3  -1 184.242 63.4868   7 
  -7   3   0 324.618 68.6097   7 
  -7   3   1 1800.30 161.403   7 
  -7   3   2 543.631 92.8078   7 
  -7   3   3 232.280 62.3563   7 
  -7   3   4 144.955 56.2201   7 
  -7   3   5 28.5131 43.1993   7 
  -7   3   6-16.7051 53.8323   7 
  -7   3   7 149.890 63.1202   7 
  -7   3   8-31.6163 48.4477   7 
  -7   3   9 22.5531 56.5811   7 
  -7   4  -8-124.678 73.9692   4 
  -7   4  -7-67.0331 50.7795   4 
  -7   4  -6-42.1291 43.5121   4 
  -7   4  -5 5.68916 42.5101   8 
  -7   4  -5-45.0944 41.7372   4 
  -7   4  -4 19.9601 41.7200   7 
  -7   4  -4 48.4537 37.8657   8 
  -7   4  -4 59.7506 40.8161   4 
  -7   4  -3 248.560 58.0360   8 
  -7   4  -3 29.4444 40.7465   7 
  -7   4  -2 263.280 74.7229   7 
  -7   4  -1 180.398 65.9856   7 
  -7   4   0 296.210 70.4019   7 
  -7   4   1-5.18980 45.7984   7 
  -7   4   2 71.9366 39.1340   7 
  -7   4   3 7.60116 41.0407   7 
  -7   4   4 26.5938 39.1084   7 
  -7   4   5 166.465 48.4502   7 
  -7   4   6 96.1580 68.6252   7 
  -7   4   7 196.833 62.6070   7 
  -7   4   8-48.3925 75.2135   7 
  -7   5  -8-13.4144 62.9628   4 
  -7   5  -7 134.318 66.2938   4 
  -7   5  -6 55.2826 51.1297   4 
  -7   5  -5-81.7062 55.3947   4 
  -7   5  -4 21.6048 41.6739   7 
  -7   5  -4-3.94202 31.5732   4 
  -7   5  -3-15.0719 43.4738   7 
  -7   5  -2 298.523 73.7929   7 
  -7   5  -1 1259.21 136.955   7 
  -7   5   0-42.1565 49.6827   7 
  -7   5   1 198.935 63.7898   7 
  -7   5   2 111.841 62.1647   7 
  -7   5   3 19.7050 47.9837   7 
  -7   5   4 51.8461 45.2852   7 
  -7   5   5-52.8649 45.6367   7 
  -7   5   6 449.706 94.0075   7 
  -7   5   7 122.781 76.2198   7 
  -7   5   8 241.724 67.3666   7 
  -7   6  -8 82.0843 62.6150   4 
  -7   6  -7-23.6864 62.2791   4 
  -7   6  -6-18.3342 41.4154   4 
  -7   6  -5 68.5111 44.8401   4 
  -7   6  -4 34.7710 42.5222   4 
  -7   6  -4-41.0681 61.5700   7 
  -7   6  -3 107.211 47.3628   7 
  -7   6  -2 67.6617 54.4062   7 
  -7   6  -1 160.750 62.3122   7 
  -7   6   0-4.13880 51.2749   7 
  -7   6   1 137.978 60.3694   7 
  -7   6   2-16.4649 48.5542   7 
  -7   6   3 16.4134 43.5325   7 
  -7   6   4 2.35823 40.1266   7 
  -7   6   5 0.61712 46.7813   7 
  -7   6   6 114.488 55.3878   7 
  -7   6   7 735.403 117.268   7 
  -7   7  -8 134.265 76.2920   4 
  -7   7  -7 62.6518 56.3653   4 
  -7   7  -6-97.0972 61.4261   4 
  -7   7  -5-110.313 55.3459   4 
  -7   7  -5-23.1561 58.9116   7 
  -7   7  -4 56.4379 41.1207   7 
  -7   7  -3 138.470 63.7774   7 
  -7   7  -2 18.7202 43.9502   7 
  -7   7  -1-47.1923 55.0735   7 
  -7   7   0 67.4882 54.3864   7 
  -7   7   1 187.770 70.6379   7 
  -7   7   2 709.566 105.972   7 
  -7   7   3 63.6763 66.3798   7 
  -7   7   4 122.800 66.1622   7 
  -7   7   5-83.4322 77.7686   7 
  -7   7   6 86.4948 47.5843   7 
  -7   8  -8 117.584 74.7241   4 
  -7   8  -7-48.7706 63.5385   4 
  -7   8  -6 35.2834 39.5920   4 
  -7   8  -5 109.093 55.0349   7 
  -7   8  -4-24.6894 35.3573   7 
  -7   8  -3 60.2735 57.9944   7 
  -7   8  -2-26.2776 47.6613   7 
  -7   8  -1-11.2782 55.2608   7 
  -7   8   0 6.71407 42.7043   7 
  -7   8   1-29.8983 39.4436   7 
  -7   8   2-42.9432 49.5022   7 
  -7   8   3-63.1494 40.7405   7 
  -7   8   4-72.7531 56.1075   7 
  -7   8   5 8.62585 44.3402   7 
  -7   9  -5-58.2773 42.6754   7 
  -7   9  -4 14.0044 38.1552   7 
  -7   9  -3 13.0496 48.0411   7 
  -7   9  -2-49.6141 52.9418   7 
  -7   9  -1 190.279 60.5672   7 
  -7   9   0 12.4383 51.5310   7 
  -7   9   1 72.3200 47.0344   7 
  -7   9   2 12.7553 43.2740   7 
  -7   9   3-3.92606 49.5362   7 
  -7   9   4 8.63529 53.8550   7 
  -7  10  -3-108.412 61.3842   7 
  -7  10  -2-35.5042 45.2561   7 
  -7  10  -1 64.4018 44.6907   7 
  -7  10   0-51.7335 56.6928   7 
  -7  10   1-44.2240 58.7125   7 
  -7  10   2 92.9177 49.9421   7 
  -7  11   0-40.2070 42.9764   7 
  -7  11   1 22.0867 41.6578   7 
  -6  -8   3-20.1867 63.8029   5 
  -6  -8   3 13.1399 61.9837   8 
  -6  -8   4 46.3969 52.6001   5 
  -6  -8   4 55.6103 55.7767   8 
  -6  -8   5-66.7534 61.3749   5 
  -6  -8   6 942.356 134.399   5 
  -6  -8   7 474.761 106.109   5 
  -6  -7  -1-47.7677 48.0684   5 
  -6  -7   0 129.432 69.1462   5 
  -6  -7   0 108.064 52.6170   8 
  -6  -7   1 247.536 73.5629   5 
  -6  -7   1 258.373 71.9843   8 
  -6  -7   2 50.9620 62.0794   8 
  -6  -7   2 7.83289 51.5929   5 
  -6  -7   3 368.392 84.3306   5 
  -6  -7   3 398.935 93.2912   8 
  -6  -7   4 34.9609 59.5552   8 
  -6  -7   4 191.789 70.7668   5 
  -6  -7   5 644.904 117.184   5 
  -6  -7   6 83.8073 62.4688   5 
  -6  -7   7 88.4363 41.1227   5 
  -6  -7   8 59.9309 63.0476   5 
  -6  -7   9 75.5409 48.7884   5 
  -6  -7  10 142.841 68.8922   5 
  -6  -7  11 42.4183 43.9524   5 
  -6  -6  -3-152.905 69.6948   5 
  -6  -6  -2 244.645 59.3165   5 
  -6  -6  -1 103.254 58.4558   5 
  -6  -6  -1 99.0277 61.8306   8 
  -6  -6   0 216.972 73.9249   8 
  -6  -6   0 146.745 59.3208   5 
  -6  -6   1 419.089 99.9170   8 
  -6  -6   1 458.899 86.5635   5 
  -6  -6   2-8.86105 37.1002   5 
  -6  -6   2 42.2947 50.5309   8 
  -6  -6   3-30.5283 48.2386   8 
  -6  -6   3 8.70938 36.4672   5 
  -6  -6   4 772.593 114.302   5 
  -6  -6   5 162.714 58.3214   5 
  -6  -6   6 98.7711 43.3553   7 
  -6  -6   6 45.5223 34.6767   5 
  -6  -6   7 60.4479 34.4079   5 
  -6  -6   8 0.63746 41.6813   5 
  -6  -6   9 339.217 76.1056   5 
  -6  -6  10-12.6666 47.9944   5 
  -6  -6  11 80.4929 50.4010   5 
  -6  -5  -4 69.4318 34.6546   5 
  -6  -5  -3-33.0956 70.7589   8 
  -6  -5  -3 89.5055 53.0380   5 
  -6  -5  -2-13.5249 53.4318   8 
  -6  -5  -2-28.4759 35.1821   5 
  -6  -5  -1-45.2297 56.3758   5 
  -6  -5  -1 85.5847 69.3367   8 
  -6  -5   0 32.8548 56.1391   8 
  -6  -5   0 47.1240 41.2400   5 
  -6  -5   1 188.016 67.7659   8 
  -6  -5   1 150.553 61.1205   5 
  -6  -5   2 86.6070 46.2584   8 
  -6  -5   3 9.21314 36.4666   8 
  -6  -5   4 70.5043 40.6867   7 
  -6  -5   5 103.568 40.3829   7 
  -6  -5   6 463.995 74.2637   7 
  -6  -5   7 16.5011 29.4802   7 
  -6  -5   7-2.27306 40.2294   5 
  -6  -5   8 301.580 62.3006   7 
  -6  -5   8 288.506 77.3614   5 
  -6  -5   9 155.894 61.7053   5 
  -6  -5  10 54.8649 55.7605   5 
  -6  -5  11 196.806 60.4082   5 
  -6  -4  -4 40.9549 52.4785   8 
  -6  -4  -4 53.6190 52.5316   5 
  -6  -4  -3 480.168 84.7185   5 
  -6  -4  -3 422.542 83.2262   8 
  -6  -4  -2 511.779 94.7760   8 
  -6  -4  -2 573.344 92.7076   5 
  -6  -4  -1-18.3461 41.5830   8 
  -6  -4   0 220.103 70.3751   8 
  -6  -4   1-0.38020 39.5656   8 
  -6  -4   2 153.180 66.9664   8 
  -6  -4   3-11.5812 41.4129   7 
  -6  -4   3 149.504 62.0796   8 
  -6  -4   4 117.337 46.7247   7 
  -6  -4   5-40.2374 39.4962   7 
  -6  -4   6 21.7835 39.8038   7 
  -6  -4   7 1758.80 137.822   7 
  -6  -4   8 646.263 88.5657   7 
  -6  -4   9-26.2413 50.8629   7 
  -6  -4  10-7.35693 42.8435   5 
  -6  -4  10 5.29489 38.0814   7 
  -6  -4  11-50.0996 37.9216   5 
  -6  -3  -5-56.3905 76.2511   8 
  -6  -3  -5 30.6505 41.8638   5 
  -6  -3  -4-227.593 71.6120   8 
  -6  -3  -3 191.741 61.7977   8 
  -6  -3  -2 212.872 66.1680   8 
  -6  -3  -1-24.1563 37.0197   8 
  -6  -3   0 11.6246 44.4137   8 
  -6  -3   1 18.9106 42.6461   8 
  -6  -3   1-15.3907 46.1703   7 
  -6  -3   2-0.76637 35.4638   8 
  -6  -3   2 18.3749 32.1077   7 
  -6  -3   3 873.081 111.717   8 
  -6  -3   3 885.631 101.106   7 
  -6  -3   4 169.740 46.8028   7 
  -6  -3   5 39.2132 36.9548   7 
  -6  -3   6 31.1425 32.7944   7 
  -6  -3   7 632.641 92.4126   7 
  -6  -3   8-43.9839 51.7080   7 
  -6  -3   9 27.9761 32.3294   7 
  -6  -3  10 53.0368 31.9812   7 
  -6  -3  11 39.3181 36.4437   5 
  -6  -3  11 56.6326 45.3817   7 
  -6  -2  -6-360.969 85.7463   8 
  -6  -2  -5 99.0803 66.6138   8 
  -6  -2  -4 83.3300 59.6749   8 
  -6  -2  -3-22.4510 51.6668   8 
  -6  -2  -2 2.02866 44.3976   8 
  -6  -2  -1 320.412 74.2387   8 
  -6  -2   0 54.8994 51.1430   8 
  -6  -2   0 29.1503 39.1347   7 
  -6  -2   1 251.780 66.2742   7 
  -6  -2   1 330.631 70.1436   8 
  -6  -2   2 170.594 60.5590   7 
  -6  -2   2 75.3255 36.9350   8 
  -6  -2   3 120.568 50.8218   7 
  -6  -2   4 61.6752 39.3469   7 
  -6  -2   5 869.256 97.2295   7 
  -6  -2   6 48.4819 38.0078   7 
  -6  -2   7-0.07380 32.6428   7 
  -6  -2   8 344.441 70.1813   7 
  -6  -2   9 86.4287 57.4190   7 
  -6  -2  10 488.868 88.0446   7 
  -6  -2  11 165.639 58.2729   7 
  -6  -2  12-121.316 67.1284   7 
  -6  -2  13-115.670 57.1318   7 
  -6  -1  -7-56.4626 53.3707   8 
  -6  -1  -6-46.3658 46.9720   8 
  -6  -1  -5 189.700 63.7035   8 
  -6  -1  -4 14.4781 34.7474   8 
  -6  -1  -3 199.911 60.9504   8 
  -6  -1  -2 131.100 51.0986   8 
  -6  -1  -1 339.531 64.8876   8 
  -6  -1  -1 306.944 64.3645   7 
  -6  -1   0 715.596 97.7951   8 
  -6  -1   0 830.749 103.609   7 
  -6  -1   1-18.6693 36.7069   8 
  -6  -1   1-19.4387 40.3805   7 
  -6  -1   2 469.150 74.3162   8 
  -6  -1   2 511.243 80.8194   7 
  -6  -1   3 62.3250 52.8248   7 
  -6  -1   4 209.543 54.3541   7 
  -6  -1   5 73.8664 36.0986   7 
  -6  -1   6 56.1057 44.8390   7 
  -6  -1   7 1504.75 130.809   7 
  -6  -1   8 244.754 59.1352   7 
  -6  -1   9 532.201 92.0549   7 
  -6  -1  10 151.640 54.1769   7 
  -6  -1  11 40.3769 41.7209   7 
  -6  -1  12 89.5647 60.0847   7 
  -6  -1  13-57.1379 74.4043   7 
  -6   0  -8-10.2480 59.4940   8 
  -6   0  -7 48.2152 47.3753   8 
  -6   0  -6-20.9277 42.5672   8 
  -6   0  -5 33.0664 42.6496   8 
  -6   0  -4 131.884 49.8079   8 
  -6   0  -3 561.820 88.6531   8 
  -6   0  -2 192.374 63.8284   8 
  -6   0  -1 137.090 48.5338   8 
  -6   0  -1 104.769 54.4003   7 
  -6   0   0 303.984 64.7689   7 
  -6   0   0 313.567 68.0070   8 
  -6   0   1 41.3208 34.8848   7 
  -6   0   1 15.9423 35.0369   8 
  -6   0   2 845.881 100.515   7 
  -6   0   3-19.5789 50.9403   7 
  -6   0   4 81.6655 48.0963   7 
  -6   0   5 1655.76 131.941   7 
  -6   0   6-0.44652 36.1895   7 
  -6   0   7 239.893 63.6646   7 
  -6   0   8 903.672 103.808   7 
  -6   0   9 8.47956 44.1885   7 
  -6   0  10 86.1492 57.3986   7 
  -6   0  11 152.169 65.6195   7 
  -6   0  12 218.389 61.6994   7 
  -6   1  -9-42.1893 69.1565   8 
  -6   1  -8 20.5952 45.4403   8 
  -6   1  -7 404.405 86.6010   8 
  -6   1  -6 622.005 96.0276   8 
  -6   1  -5 194.809 49.9650   8 
  -6   1  -4 48.9489 36.5184   8 
  -6   1  -3 60.8043 40.8489   8 
  -6   1  -2 49.0250 38.2215   8 
  -6   1  -2 73.8512 39.8316   7 
  -6   1  -1-21.7743 28.5605   8 
  -6   1  -1 30.9065 50.6860   7 
  -6   1   0 83.1259 40.7618   8 
  -6   1   0 25.0086 37.3022   7 
  -6   1   1 791.207 98.9196   7 
  -6   1   2 1219.88 117.317   7 
  -6   1   3 7831.81 280.623   7 
  -6   1   4 1617.58 129.693   7 
  -6   1   5 510.480 79.7416   7 
  -6   1   6 292.342 63.2913   7 
  -6   1   7 10.9459 44.8612   7 
  -6   1   8-28.8438 44.3135   7 
  -6   1   9-11.4464 42.2188   7 
  -6   1  10-110.337 70.1939   7 
  -6   1  11-23.3027 50.9510   7 
  -6   1  12 325.583 73.9379   7 
  -6   2  -9-115.006 61.6894   8 
  -6   2  -8 100.608 53.5562   4 
  -6   2  -8 20.2184 50.7676   8 
  -6   2  -7 121.771 54.0601   4 
  -6   2  -7 77.0332 51.4508   8 
  -6   2  -6 100.753 51.8877   4 
  -6   2  -6 107.765 44.3534   8 
  -6   2  -5 17.9920 38.6172   8 
  -6   2  -5-13.1015 32.8414   4 
  -6   2  -4-0.61100 36.4459   8 
  -6   2  -4 93.6334 46.0718   4 
  -6   2  -3 14.9151 23.8347   4 
  -6   2  -3 76.9502 46.6305   7 
  -6   2  -3 55.8973 39.4546   8 
  -6   2  -2 12.1700 29.9349   8 
  -6   2  -2-28.3539 26.0484   4 
  -6   2  -2 33.5132 52.4950   7 
  -6   2  -1 317.553 74.7436   7 
  -6   2  -1 274.891 58.4281   8 
  -6   2  -1 346.120 44.4212   4 
  -6   2   0 2195.95 157.750   7 
  -6   2   1 959.220 110.360   7 
  -6   2   2 2143.95 151.503   7 
  -6   2   3-12.1712 40.7748   7 
  -6   2   4 413.706 76.3780   7 
  -6   2   5 177.583 56.8008   7 
  -6   2   6 138.490 42.5729   7 
  -6   2   7 293.383 63.3895   7 
  -6   2   8 140.112 52.3231   7 
  -6   2   9 264.852 69.0177   7 
  -6   2  10 246.570 69.9194   7 
  -6   2  11 2365.79 196.747   7 
  -6   3  -9 237.692 75.1378   4 
  -6   3  -9 235.515 65.9675   8 
  -6   3  -8 180.620 53.1467   8 
  -6   3  -8-116.913 78.1195   4 
  -6   3  -7 54.3630 37.7156   4 
  -6   3  -7 2.65833 42.4335   8 
  -6   3  -6 73.3058 41.2377   8 
  -6   3  -6 33.5131 45.8026   4 
  -6   3  -5 82.9429 40.5381   4 
  -6   3  -5 71.2761 46.4719   8 
  -6   3  -4-7.43840 30.0960   8 
  -6   3  -4 47.1957 33.6551   4 
  -6   3  -3 53.6649 51.8357   7 
  -6   3  -3-72.5616 37.1393   4 
  -6   3  -3 40.6949 33.5853   8 
  -6   3  -2 198.423 41.4217   4 
  -6   3  -2 176.595 58.3270   7 
  -6   3  -2 135.840 32.3029   8 
  -6   3  -1 144.936 32.6233   4 
  -6   3  -1 164.731 49.5044   7 
  -6   3   0 1553.62 78.4111   4 
  -6   3   0 1441.03 131.021   7 
  -6   3   1 5246.19 112.094   4 
  -6   3   1 5485.66 243.095   7 
  -6   3   2 144.284 53.1032   7 
  -6   3   3 968.859 102.923   7 
  -6   3   4 300.107 70.8373   7 
  -6   3   5 97.6158 44.1971   7 
  -6   3   6 158.110 48.7841   7 
  -6   3   7-20.3337 44.0011   7 
  -6   3   8 707.434 106.925   7 
  -6   3   9 50.2021 42.3013   7 
  -6   3  10 347.529 79.1236   7 
  -6   4  -9 1.14942 49.8541   4 
  -6   4  -8 126.021 57.8488   4 
  -6   4  -7 20.6293 42.2242   4 
  -6   4  -7-2.77163 32.2719   8 
  -6   4  -6 19.9857 32.2789   8 
  -6   4  -6-29.5916 41.7073   4 
  -6   4  -5 28.8828 37.2146   4 
  -6   4  -5 70.1890 41.0098   8 
  -6   4  -4 69.0779 32.7343   8 
  -6   4  -4 78.6447 41.3050   7 
  -6   4  -4-42.2494 30.4087   4 
  -6   4  -3 56.2779 33.4189   4 
  -6   4  -3 135.063 53.7600   7 
  -6   4  -3 70.1159 34.1737   8 
  -6   4  -2 244.021 61.0143   7 
  -6   4  -2 184.588 37.1336   4 
  -6   4  -1 655.211 65.2135   4 
  -6   4  -1 563.640 87.5867   7 
  -6   4   0 83.5751 24.9471   4 
  -6   4   0 17.9155 41.6016   7 
  -6   4   1 430.145 75.6901   7 
  -6   4   1 474.462 39.6875   4 
  -6   4   2 135.877 55.6773   7 
  -6   4   3 703.725 93.6417   7 
  -6   4   4-1.38091 41.1982   7 
  -6   4   5 76.7488 48.3657   7 
  -6   4   6 186.898 56.5666   7 
  -6   4   7-46.1379 39.8013   7 
  -6   4   8 103.030 48.8588   7 
  -6   4   9 1191.78 141.972   7 
  -6   4  10-8.03667 54.8488   7 
  -6   5  -9-16.0630 43.9837   4 
  -6   5  -8 88.5046 54.7410   4 
  -6   5  -7 33.3264 45.3522   4 
  -6   5  -6 351.727 56.8007   8 
  -6   5  -6 293.188 66.3449   4 
  -6   5  -5 163.365 55.2127   4 
  -6   5  -5 108.712 38.1193   8 
  -6   5  -4 66.2138 46.4495   7 
  -6   5  -4-30.3217 36.2085   4 
  -6   5  -4-46.4618 32.7233   8 
  -6   5  -3 39.8733 41.7848   7 
  -6   5  -3-37.9471 35.1188   4 
  -6   5  -2 157.039 56.5146   7 
  -6   5  -2 259.064 50.7438   4 
  -6   5  -1 606.300 90.1638   7 
  -6   5  -1 530.355 59.3590   4 
  -6   5   0 7.47349 17.8225   4 
  -6   5   0-23.3889 41.2875   7 
  -6   5   1 65.9568 40.0302   7 
  -6   5   1 93.8553 20.0617   4 
  -6   5   2 114.115 46.7834   7 
  -6   5   3 379.757 71.2604   7 
  -6   5   4 2662.98 176.528   7 
  -6   5   5 145.835 50.6658   7 
  -6   5   6 46.0179 46.2986   7 
  -6   5   7 73.7524 48.3370   7 
  -6   5   8 88.8996 42.9617   7 
  -6   5   9 281.266 78.3354   7 
  -6   6  -9-14.1575 47.3981   4 
  -6   6  -8 66.0622 61.3049   4 
  -6   6  -7 24.0519 39.1515   4 
  -6   6  -6 172.204 60.8766   4 
  -6   6  -5 85.7917 51.0515   7 
  -6   6  -5 66.0680 39.5866   4 
  -6   6  -4 7.36762 43.5815   7 
  -6   6  -4 54.0785 41.3095   4 
  -6   6  -3 27.2264 26.5306   4 
  -6   6  -3 41.8594 34.8281   7 
  -6   6  -2 78.3086 36.6092   4 
  -6   6  -2 71.0224 44.4751   7 
  -6   6  -1 80.8783 27.7598   4 
  -6   6  -1 33.0592 34.8482   7 
  -6   6   0 69.6124 35.7565   7 
  -6   6   0 40.5366 24.2795   4 
  -6   6   1 2.50285 17.7092   4 
  -6   6   1 47.6269 47.9394   7 
  -6   6   2 70.7033 40.0228   7 
  -6   6   3 59.5889 39.1173   7 
  -6   6   4 108.322 44.4488   7 
  -6   6   5-43.9321 51.3580   7 
  -6   6   6-2.41351 43.6187   7 
  -6   6   7 48.6934 52.3444   7 
  -6   6   8 1.23279 50.8480   7 
  -6   7  -9 29.7537 55.2601   4 
  -6   7  -8 33.8165 52.9441   4 
  -6   7  -7 114.408 62.7544   4 
  -6   7  -6 51.3717 45.9922   4 
  -6   7  -5-40.0036 39.1988   4 
  -6   7  -5 15.0136 37.1456   7 
  -6   7  -4 0.51926 45.2434   7 
  -6   7  -4 64.3982 43.1958   4 
  -6   7  -3-12.0163 35.8029   7 
  -6   7  -3 75.3818 39.1363   4 
  -6   7  -2 93.2320 44.8900   7 
  -6   7  -2 69.7647 31.5568   4 
  -6   7  -1 36.6849 25.3121   4 
  -6   7  -1-21.2900 36.7621   7 
  -6   7   0 82.0557 28.8830   4 
  -6   7   0 155.677 58.6446   7 
  -6   7   1 402.500 76.9943   7 
  -6   7   2 609.875 91.4548   7 
  -6   7   3 30.7847 41.3953   7 
  -6   7   4 20.7851 45.9767   7 
  -6   7   5 71.4511 46.9840   7 
  -6   7   6 118.165 55.8725   7 
  -6   7   7 538.132 101.395   7 
  -6   8  -9-15.6923 43.9240   4 
  -6   8  -8 118.900 55.4405   4 
  -6   8  -7-3.55228 51.2848   4 
  -6   8  -6 27.4445 39.7814   4 
  -6   8  -5 54.8444 51.4965   4 
  -6   8  -5 14.9105 33.4369   7 
  -6   8  -4 93.9885 55.8731   7 
  -6   8  -4 19.2245 42.3447   4 
  -6   8  -3 202.329 52.5597   4 
  -6   8  -3 69.4151 37.6413   7 
  -6   8  -2-37.0492 33.4942   4 
  -6   8  -2-19.4796 31.8394   7 
  -6   8  -1 24.6177 31.5186   4 
  -6   8  -1-35.0708 38.7367   7 
  -6   8   0 9.00363 37.2337   7 
  -6   8   0-13.6529 28.7968   4 
  -6   8   1 64.2538 44.4532   7 
  -6   8   2 15.2286 43.3937   7 
  -6   8   3 77.0118 39.6529   7 
  -6   8   4 177.345 70.8252   7 
  -6   8   5 26.7677 38.9519   7 
  -6   8   6 235.914 60.0730   7 
  -6   9  -9-40.9548 75.0887   4 
  -6   9  -8 83.8176 55.5375   4 
  -6   9  -7-51.3455 59.6922   4 
  -6   9  -6-24.6168 46.8272   4 
  -6   9  -5 74.2970 47.1597   7 
  -6   9  -5 61.8154 40.9527   4 
  -6   9  -4 53.0519 32.7450   4 
  -6   9  -4 58.0569 36.7795   7 
  -6   9  -3-18.2210 36.3102   7 
  -6   9  -3 58.0438 36.7370   4 
  -6   9  -2 21.6381 27.6596   4 
  -6   9  -2 43.9401 36.0839   7 
  -6   9  -1 21.7429 29.1657   4 
  -6   9  -1 58.8198 48.6299   7 
  -6   9   0 15.1211 45.7657   7 
  -6   9   1-21.2466 48.9219   7 
  -6   9   2 49.9693 53.1941   7 
  -6   9   3 102.858 52.1337   7 
  -6   9   4 25.7914 50.8816   7 
  -6   9   5 596.051 105.679   7 
  -6  10  -8-70.0285 60.2334   4 
  -6  10  -7-43.9016 58.6625   4 
  -6  10  -6-50.6972 52.8953   4 
  -6  10  -5 3.45209 43.0410   4 
  -6  10  -4-42.8410 47.8183   7 
  -6  10  -4 4.86377 40.0819   4 
  -6  10  -3 25.1372 39.4681   4 
  -6  10  -3 47.0711 45.1381   7 
  -6  10  -2 15.0790 30.6058   4 
  -6  10  -2-52.5783 53.1525   7 
  -6  10  -1 172.085 60.1478   7 
  -6  10  -1 115.622 37.8803   4 
  -6  10   0 201.655 55.1232   7 
  -6  10   1 124.869 51.3217   7 
  -6  10   2 220.528 67.6550   7 
  -6  10   3-0.58706 43.3019   7 
  -6  10   4-62.8920 55.5839   7 
  -6  11  -7-91.4296 57.7694   4 
  -6  11  -6-19.7438 47.3550   4 
  -6  11  -5-146.134 71.2489   4 
  -6  11  -4 56.0393 37.4865   4 
  -6  11  -3 46.3583 40.4970   4 
  -6  11  -2 9.36149 42.7158   4 
  -6  11  -1 2.15122 51.9728   7 
  -6  11   0-47.7265 51.2361   7 
  -6  11   1 23.9657 52.7908   7 
  -6  11   2 16.0104 36.0386   7 
  -6  11   3 120.671 53.1141   7 
  -6  12  -6 45.1175 58.8949   4 
  -6  12  -5 1.06642 48.4935   4 
  -6  12  -4 128.977 63.6220   4 
  -6  12  -3 191.830 65.3155   4 
  -5 -10   3 46.0670 67.5306   8 
  -5 -10   4 18.3960 69.5368   8 
  -5  -9   1 4.06872 51.2431   8 
  -5  -9   1-61.5000 59.9382   5 
  -5  -9   2 100.399 61.7070   5 
  -5  -9   2 146.181 71.5166   8 
  -5  -9   3 310.696 89.0713   8 
  -5  -9   3 161.992 50.8407   5 
  -5  -9   4 52.6323 42.9377   5 
  -5  -9   4-28.0034 44.9475   8 
  -5  -9   5 323.996 77.1455   5 
  -5  -9   6-4.61011 40.0191   5 
  -5  -9   7 334.582 84.7817   5 
  -5  -9   8 56.7283 49.9947   5 
  -5  -9   9 44.9064 45.7541   5 
  -5  -8  -1 19.1391 61.8819   8 
  -5  -8  -1 2.24522 46.2473   5 
  -5  -8   0 215.575 72.0855   8 
  -5  -8   0 518.214 96.6875   5 
  -5  -8   1 179.889 68.2308   8 
  -5  -8   1 215.701 66.9078   5 
  -5  -8   2 332.415 82.1633   8 
  -5  -8   2 355.294 81.8820   5 
  -5  -8   3 411.904 86.1866   8 
  -5  -8   3 460.332 88.2961   5 
  -5  -8   4-18.9580 57.8320   5 
  -5  -8   4 20.4465 50.0106   8 
  -5  -8   5 50.1857 40.9699   5 
  -5  -8   6 929.371 127.910   5 
  -5  -8   7 29.7942 55.6284   5 
  -5  -8   8 54.7482 53.5738   5 
  -5  -8   9 2.79242 54.1067   5 
  -5  -8  10-46.1812 49.0136   5 
  -5  -8  11 179.727 61.7496   5 
  -5  -8  12 34.2280 60.3665   2 
  -5  -7  -3-3.31739 41.0874   5 
  -5  -7  -3-18.4105 49.7571   8 
  -5  -7  -2 221.178 74.7710   8 
  -5  -7  -2-10.4773 47.2867   5 
  -5  -7  -1 98.9385 61.9193   8 
  -5  -7  -1 189.395 65.1484   5 
  -5  -7   0-19.7661 43.1880   8 
  -5  -7   0 12.4827 44.4468   5 
  -5  -7   1 47.2508 51.0384   8 
  -5  -7   1 24.3243 49.8657   5 
  -5  -7   2 36.5981 41.2261   5 
  -5  -7   2 28.0207 48.0578   8 
  -5  -7   3 129.304 40.3898   8 
  -5  -7   3 212.298 58.0893   5 
  -5  -7   4 85.2127 58.1049   8 
  -5  -7   4 98.2746 55.5715   5 
  -5  -7   5 44.9931 45.2631   5 
  -5  -7   6 69.0047 52.3916   5 
  -5  -7   7-4.88858 40.1377   5 
  -5  -7   8 258.746 67.9200   5 
  -5  -7   9-36.0890 40.0143   5 
  -5  -7  10 162.696 58.7151   5 
  -5  -7  11-56.1964 53.7161   5 
  -5  -7  11 77.5241 50.0411   2 
  -5  -7  12 10.7994 41.3528   2 
  -5  -7  13 77.9511 54.9957   2 
  -5  -6  -4 72.1311 64.9975   8 
  -5  -6  -4 81.0405 38.2386   5 
  -5  -6  -3 116.693 67.7656   8 
  -5  -6  -3 20.5889 34.0956   5 
  -5  -6  -2 31.9562 50.5997   8 
  -5  -6  -2 9.84846 31.7320   5 
  -5  -6  -1 1103.64 125.396   5 
  -5  -6  -1 1095.53 129.852   8 
  -5  -6   0 1231.39 142.700   8 
  -5  -6   0 1208.61 131.579   5 
  -5  -6   1 14.6998 31.0712   5 
  -5  -6   1 27.3167 43.9051   8 
  -5  -6   2 200.290 53.0074   5 
  -5  -6   2 225.165 71.9514   8 
  -5  -6   3 34.8397 45.3972   5 
  -5  -6   3-14.7158 36.9233   8 
  -5  -6   4 4.71079 33.9161   5 
  -5  -6   4-12.3007 34.5129   8 
  -5  -6   5 85.2571 32.3351   7 
  -5  -6   5 71.4594 46.9967   5 
  -5  -6   6 181.645 40.1529   7 
  -5  -6   6 257.498 72.2635   5 
  -5  -6   7-34.7951 33.9765   5 
  -5  -6   7 23.5078 30.4858   7 
  -5  -6   8-1.79414 39.0589   5 
  -5  -6   8 9.20567 23.6472   7 
  -5  -6   9 1154.83 127.060   5 
  -5  -6  10 481.726 80.4264   5 
  -5  -6  10 656.394 91.9219   2 
  -5  -6  11-24.2475 36.7048   5 
  -5  -6  11 47.5643 47.8075   2 
  -5  -6  12 43.0330 53.8515   2 
  -5  -6  13-49.9712 55.5979   2 
  -5  -5  -5 66.1060 64.3506   8 
  -5  -5  -4 34.1324 31.6333   5 
  -5  -5  -4 154.168 53.6621   8 
  -5  -5  -3 103.284 54.5845   8 
  -5  -5  -3-30.7323 43.9262   5 
  -5  -5  -2-88.0524 68.6835   8 
  -5  -5  -2-22.0191 40.0423   5 
  -5  -5  -1 803.871 107.781   8 
  -5  -5  -1 1110.81 119.750   5 
  -5  -5   0 438.509 82.3633   8 
  -5  -5   0 342.225 74.9486   5 
  -5  -5   1 59.6952 39.1317   8 
  -5  -5   1 76.9361 53.7265   5 
  -5  -5   2 17.7948 37.7527   8 
  -5  -5   3 1.69857 38.8613   8 
  -5  -5   4 3.59713 28.1629   7 
  -5  -5   4 25.4029 41.1455   8 
  -5  -5   5 1358.72 105.644   7 
  -5  -5   6 214.237 48.5811   7 
  -5  -5   6 176.102 56.5939   5 
  -5  -5   7 85.1797 44.6096   5 
  -5  -5   7 27.6676 29.4305   7 
  -5  -5   8 49.3494 39.9795   7 
  -5  -5   8 10.0738 33.7494   5 
  -5  -5   9 674.962 91.6974   2 
  -5  -5   9 573.474 89.6876   5 
  -5  -5   9 544.723 70.2509   7 
  -5  -5  10-40.1501 39.0198   2 
  -5  -5  10 43.5607 41.8758   5 
  -5  -5  11-72.3923 62.1278   2 
  -5  -5  11 57.3827 46.6937   5 
  -5  -5  12 39.2282 41.8458   2 
  -5  -4  -6 37.6456 45.0797   8 
  -5  -4  -5 64.6493 33.6565   5 
  -5  -4  -5 142.512 73.5215   8 
  -5  -4  -4-15.5092 28.6153   5 
  -5  -4  -4-44.8996 52.8353   8 
  -5  -4  -3 290.259 64.1736   5 
  -5  -4  -3 280.755 81.6916   8 
  -5  -4  -2 65.3446 36.6952   8 
  -5  -4  -2 19.8608 31.4609   5 
  -5  -4  -1 94.9604 42.1055   8 
  -5  -4   0 26.0778 44.4957   8 
  -5  -4   1 1040.82 114.457   8 
  -5  -4   2 42.2758 35.0105   8 
  -5  -4   2 59.9227 40.7204   7 
  -5  -4   3 584.155 76.6571   7 
  -5  -4   3 556.190 90.1617   8 
  -5  -4   4 534.564 71.5044   7 
  -5  -4   5 150.880 38.4893   7 
  -5  -4   6 109.578 35.3968   7 
  -5  -4   7 930.232 88.7566   7 
  -5  -4   8 43.9618 33.0573   7 
  -5  -4   8 8.55877 30.9795   2 
  -5  -4   9 7.90156 34.7036   5 
  -5  -4   9 43.4323 35.2582   7 
  -5  -4   9-37.5699 36.9199   2 
  -5  -4  10 161.818 45.1907   5 
  -5  -4  10 261.328 60.3587   7 
  -5  -4  10 169.557 53.8281   2 
  -5  -4  11 179.597 47.9308   2 
  -5  -4  11 17.4400 34.7189   5 
  -5  -4  11 139.193 44.6123   7 
  -5  -4  12 272.382 61.2910   2 
  -5  -3  -7 117.867 64.1638   8 
  -5  -3  -6 240.188 69.8505   8 
  -5  -3  -5-21.9220 42.8958   8 
  -5  -3  -5 48.5681 41.8833   5 
  -5  -3  -4-71.8689 45.0137   8 
  -5  -3  -3 123.954 51.5861   8 
  -5  -3  -2 82.8470 50.6961   8 
  -5  -3  -1 600.374 88.0071   8 
  -5  -3   0 352.757 71.7389   8 
  -5  -3   1 1771.54 136.793   8 
  -5  -3   1 1859.98 134.835   7 
  -5  -3   2 1780.35 123.417   7 
  -5  -3   2 1902.71 143.474   8 
  -5  -3   3 96.9728 40.5866   8 
  -5  -3   3 55.0809 33.6236   7 
  -5  -3   4 701.281 80.8819   7 
  -5  -3   5 28.5878 35.8555   7 
  -5  -3   6 285.288 52.5175   7 
  -5  -3   7 309.425 57.9175   7 
  -5  -3   8-31.7834 33.7738   7 
  -5  -3   8-0.27047 29.4058   2 
  -5  -3   9 1169.56 106.147   7 
  -5  -3   9 1166.01 99.7909   2 
  -5  -3  10 55.3196 31.3712   5 
  -5  -3  10 129.114 42.6452   2 
  -5  -3  10 154.262 46.0993   7 
  -5  -3  11 307.072 65.7573   2 
  -5  -3  11 244.368 56.3065   5 
  -5  -3  11 301.295 63.0792   7 
  -5  -3  12 54.1038 38.0014   7 
  -5  -2  -8-124.369 75.2322   8 
  -5  -2  -7-15.9262 48.9098   8 
  -5  -2  -6 139.311 49.7521   5 
  -5  -2  -6 65.1322 53.5747   8 
  -5  -2  -5 18.6846 41.0539   8 
  -5  -2  -4 190.419 63.3665   8 
  -5  -2  -3 3.67596 38.5079   8 
  -5  -2  -2 121.851 51.1634   8 
  -5  -2  -1 1328.86 117.772   8 
  -5  -2   0 682.536 85.4112   8 
  -5  -2   0 755.964 88.9058   7 
  -5  -2   1-14.7854 31.3567   7 
  -5  -2   1 12.2249 32.4938   8 
  -5  -2   2 757.443 84.9002   7 
  -5  -2   2 757.537 87.0777   8 
  -5  -2   3 2.08098 31.2631   7 
  -5  -2   4 2086.23 130.118   7 
  -5  -2   5 315.248 50.1634   7 
  -5  -2   6 18.7760 32.6138   7 
  -5  -2   7 3033.39 162.678   7 
  -5  -2   8 4.37308 31.5457   7 
  -5  -2   8-2.04304 24.7566   2 
  -5  -2   9 275.321 59.9862   7 
  -5  -2   9 232.919 42.1773   2 
  -5  -2  10 632.499 73.2309   2 
  -5  -2  10 706.416 95.2913   7 
  -5  -2  11-22.5593 53.1091   7 
  -5  -2  11-37.1645 46.8786   2 
  -5  -2  12-33.0869 56.3416   7 
  -5  -2  13 61.8637 50.9734   7 
  -5  -1  -9 86.4080 71.1462   8 
  -5  -1  -8-34.4601 49.3652   8 
  -5  -1  -7 260.961 73.2490   8 
  -5  -1  -6 8.93848 38.8382   8 
  -5  -1  -5 1922.68 153.753   8 
  -5  -1  -4 2960.49 180.732   8 
  -5  -1  -3 916.519 102.056   8 
  -5  -1  -2 226.129 57.7884   8 
  -5  -1  -1 102.186 49.5654   7 
  -5  -1  -1 138.288 45.3684   8 
  -5  -1   0 189.005 49.0899   8 
  -5  -1   0 247.044 53.7478   7 
  -5  -1   1-21.2095 36.7706   7 
  -5  -1   1 28.6446 37.5421   8 
  -5  -1   2 518.499 72.1307   8 
  -5  -1   2 560.823 72.0384   7 
  -5  -1   3 1936.05 128.794   7 
  -5  -1   4 1465.30 110.757   7 
  -5  -1   5 17089.9 367.670   7 
  -5  -1   6 2575.61 149.693   7 
  -5  -1   7 673.042 61.5980   2 
  -5  -1   7 599.064 73.5164   7 
  -5  -1   8 211.008 55.6093   7 
  -5  -1   8 224.997 41.4374   2 
  -5  -1   9 28.8393 34.8168   7 
  -5  -1   9 5.15416 23.2645   2 
  -5  -1  10 61.7253 36.7426   7 
  -5  -1  10 8.28514 32.1064   2 
  -5  -1  11-25.8655 51.3815   7 
  -5  -1  12-98.9773 60.3640   7 
  -5  -1  13 118.659 63.8424   7 
  -5  -1  14 49.1458 64.2348   7 
  -5   0 -10 45.4441 46.3173   8 
  -5   0  -9 31.4065 59.0905   8 
  -5   0  -8 287.787 76.7928   8 
  -5   0  -7 66.7886 44.3796   8 
  -5   0  -6 5.71849 47.8594   8 
  -5   0  -5 145.625 42.0064   8 
  -5   0  -4 173.618 48.8122   8 
  -5   0  -3 17.2781 35.0880   8 
  -5   0  -2-18.2161 46.8081   7 
  -5   0  -2 68.8442 38.3018   8 
  -5   0  -1 115.529 46.8709   7 
  -5   0  -1 39.7870 34.8511   8 
  -5   0   0 45.5127 34.4298   8 
  -5   0   0 83.7013 37.1210   7 
  -5   0   1 634.413 75.6446   8 
  -5   0   1 624.042 75.5151   7 
  -5   0   2 9097.42 268.014   7 
  -5   0   3 3406.01 165.185   7 
  -5   0   4 6512.96 229.171   7 
  -5   0   5 130.435 46.1807   7 
  -5   0   6 300.491 57.1365   7 
  -5   0   7 733.284 56.2658   2 
  -5   0   7 734.767 86.6125   7 
  -5   0   8 181.318 29.7684   2 
  -5   0   8 109.848 44.6895   7 
  -5   0   9 395.339 68.9057   7 
  -5   0   9 368.231 49.1570   2 
  -5   0  10-63.1474 55.3928   7 
  -5   0  11 211.520 62.3459   7 
  -5   0  12 451.152 85.2588   7 
  -5   0  13 1625.15 160.767   7 
  -5   1 -10-24.6826 68.0155   8 
  -5   1  -9-17.2666 46.4299   8 
  -5   1  -8 53.8507 46.8733   4 
  -5   1  -8 81.4690 52.3335   8 
  -5   1  -7 1979.07 161.606   4 
  -5   1  -7 1997.86 162.078   8 
  -5   1  -6 404.667 78.2258   4 
  -5   1  -6 553.699 85.7179   8 
  -5   1  -5 1020.55 105.462   4 
  -5   1  -5 1058.93 103.180   8 
  -5   1  -4 1.32154 27.7408   4 
  -5   1  -4 40.1910 36.0732   8 
  -5   1  -3 608.178 66.5612   4 
  -5   1  -3 668.399 80.1817   8 
  -5   1  -2 93.6489 29.8860   4 
  -5   1  -2 118.371 31.2351   8 
  -5   1  -2 104.767 40.7034   7 
  -5   1  -1 93.4881 24.5810   4 
  -5   1  -1 100.729 36.0615   8 
  -5   1  -1 183.816 56.5396   7 
  -5   1   0 1230.89 103.747   7 
  -5   1   0 1183.28 96.4090   8 
  -5   1   1 1093.39 89.7915   8 
  -5   1   1 869.247 88.7186   7 
  -5   1   2 4086.36 179.314   7 
  -5   1   3 17161.7 365.407   7 
  -5   1   4 770.420 80.3202   7 
  -5   1   5 1716.79 124.772   7 
  -5   1   6 420.785 71.0926   7 
  -5   1   7 54.9538 30.3385   7 
  -5   1   7 47.6614 17.6607   2 
  -5   1   8 362.666 39.4822   2 
  -5   1   8 399.234 76.2389   7 
  -5   1   9 31.6267 37.1238   7 
  -5   1  10 605.355 93.6648   7 
  -5   1  11-14.0130 58.4303   7 
  -5   1  12 231.608 70.2919   7 
  -5   1  13 1148.44 137.322   7 
  -5   2 -11-47.8755 43.4630   8 
  -5   2 -10 82.1988 64.4705   4 
  -5   2 -10 182.147 62.8625   8 
  -5   2  -9 78.0657 54.8886   8 
  -5   2  -9-52.9289 45.6822   4 
  -5   2  -8-46.3765 40.1663   8 
  -5   2  -8 21.0792 43.2956   4 
  -5   2  -7 250.145 57.8835   8 
  -5   2  -7 201.846 61.1369   4 
  -5   2  -6 7.33828 32.8688   4 
  -5   2  -6 13.8841 31.5989   8 
  -5   2  -5 90.9756 43.3235   4 
  -5   2  -5 98.0888 32.9904   8 
  -5   2  -4-14.4029 30.9073   4 
  -5   2  -4 31.4017 33.9914   8 
  -5   2  -3 294.963 46.6268   4 
  -5   2  -3 124.480 45.1625   7 
  -5   2  -3 214.133 48.8909   8 
  -5   2  -2 160.672 51.1453   7 
  -5   2  -2 215.101 47.1354   8 
  -5   2  -2 131.462 37.0940   4 
  -5   2  -1 18.4919 25.6035   8 
  -5   2  -1-3.36918 17.9360   4 
  -5   2  -1 4.31336 31.9986   7 
  -5   2   0 952.830 90.1252   7 
  -5   2   0 911.496 82.3209   8 
  -5   2   0 1021.24 60.9830   4 
  -5   2   1 2143.62 68.2861   4 
  -5   2   1 2188.84 134.306   7 
  -5   2   2 56.4095 36.7078   7 
  -5   2   3 1443.89 112.313   7 
  -5   2   4 141.354 50.5115   7 
  -5   2   5 1188.47 107.578   7 
  -5   2   6 120.826 45.7747   7 
  -5   2   7 239.577 51.6521   7 
  -5   2   8 470.050 79.5421   7 
  -5   2   9 229.343 61.8790   7 
  -5   2  10 151.870 73.2550   7 
  -5   2  11 1078.07 131.656   7 
  -5   2  12 41.2845 45.3905   7 
  -5   3 -11-82.7087 53.5128   8 
  -5   3 -10-8.71356 44.1921   4 
  -5   3 -10-96.5198 64.0129   8 
  -5   3  -9 131.336 54.2844   8 
  -5   3  -9 236.087 71.2441   4 
  -5   3  -8 5.74107 53.6206   4 
  -5   3  -8-128.789 46.0604   8 
  -5   3  -7-37.9973 39.8766   8 
  -5   3  -7-35.0146 41.2027   4 
  -5   3  -6 211.933 54.8162   4 
  -5   3  -6 254.144 53.4602   8 
  -5   3  -5 31.5855 33.5795   8 
  -5   3  -5 29.0874 32.7525   4 
  -5   3  -4 2477.90 143.228   4 
  -5   3  -4 2422.82 129.569   8 
  -5   3  -4 2158.52 154.270   7 
  -5   3  -3 1190.00 113.082   7 
  -5   3  -3 1210.49 92.5203   4 
  -5   3  -3 1412.36 97.4291   8 
  -5   3  -2 54.5107 46.9859   7 
  -5   3  -2 67.9702 27.7776   4 
  -5   3  -2 106.690 32.4343   8 
  -5   3  -1 145.293 34.6067   8 
  -5   3  -1 128.630 44.6712   7 
  -5   3  -1 181.631 35.0562   4 
  -5   3   0 337.909 37.6423   4 
  -5   3   0 346.939 59.6932   7 
  -5   3   1 1755.60 68.0958   4 
  -5   3   1 1833.60 123.473   7 
  -5   3   2 21.5216 6.76788   4 
  -5   3   2 32.3519 37.4220   7 
  -5   3   3 668.683 80.1668   7 
  -5   3   4-8.90229 33.5434   7 
  -5   3   5 318.605 70.0827   7 
  -5   3   6 5719.06 244.422   7 
  -5   3   7 385.376 74.6525   7 
  -5   3   8 24.2011 38.0840   7 
  -5   3   9 70.0508 45.9948   7 
  -5   3  10 21.8244 51.7755   7 
  -5   3  11 555.989 90.9797   7 
  -5   4 -10 113.384 57.6807   8 
  -5   4 -10 216.567 86.1099   4 
  -5   4  -9 52.6206 32.4878   8 
  -5   4  -9 76.2401 64.4653   4 
  -5   4  -8 35.0644 50.8948   4 
  -5   4  -8 2.70014 29.3032   8 
  -5   4  -7-53.3494 44.3714   4 
  -5   4  -7 17.1667 34.1146   8 
  -5   4  -6-18.5465 36.0603   4 
  -5   4  -6-16.3720 33.3464   8 
  -5   4  -5 89.3159 38.4710   8 
  -5   4  -5 101.851 43.6794   4 
  -5   4  -4 387.106 54.5326   8 
  -5   4  -4 359.537 61.4772   4 
  -5   4  -4 229.503 60.6690   7 
  -5   4  -3 97.4254 40.2742   7 
  -5   4  -3 76.3424 29.8893   8 
  -5   4  -3 47.9051 33.9670   4 
  -5   4  -2-44.4488 29.6459   7 
  -5   4  -2 35.7991 26.8865   4 
  -5   4  -2 33.8778 26.0050   8 
  -5   4  -1 88.4523 27.1910   4 
  -5   4  -1 85.1665 39.2713   7 
  -5   4   0 80.9337 20.5028   4 
  -5   4   0 79.7389 44.9303   7 
  -5   4   1 51.9204 44.3186   7 
  -5   4   1 34.2917 16.3301   4 
  -5   4   2 227.688 56.6718   7 
  -5   4   2 242.332 25.6918   4 
  -5   4   3 90.2991 16.0642   4 
  -5   4   3 28.6748 30.1009   7 
  -5   4   4 612.970 34.8040   4 
  -5   4   4 578.938 78.0921   7 
  -5   4   5 604.643 85.6644   7 
  -5   4   6 452.261 73.7607   7 
  -5   4   7-10.4498 42.2213   7 
  -5   4   8-26.8105 43.1155   7 
  -5   4   9 102.790 45.6820   7 
  -5   4  10 62.6831 52.8609   7 
  -5   4  11 120.060 65.5973   7 
  -5   5 -11-48.5849 74.2816   4 
  -5   5 -10 139.828 65.6058   4 
  -5   5  -9-11.6536 49.8269   4 
  -5   5  -8-63.0490 56.0001   4 
  -5   5  -8-49.1302 34.8650   8 
  -5   5  -7 282.024 72.3110   4 
  -5   5  -7 164.969 41.1920   8 
  -5   5  -6 409.303 53.3414   8 
  -5   5  -6 453.189 73.0901   4 
  -5   5  -5 24.1046 19.8140   8 
  -5   5  -5 36.1955 40.7414   7 
  -5   5  -5-3.25847 35.2586   4 
  -5   5  -4 130.835 48.9854   7 
  -5   5  -4 126.893 40.0609   4 
  -5   5  -4 166.881 35.1939   8 
  -5   5  -3 49.7440 37.0033   7 
  -5   5  -3 40.2665 27.4560   4 
  -5   5  -2 62.3555 41.2765   7 
  -5   5  -2 27.9747 20.3686   4 
  -5   5  -1 511.280 57.3247   4 
  -5   5  -1 452.612 69.2212   7 
  -5   5   0 743.866 61.1994   4 
  -5   5   0 677.398 84.3460   7 
  -5   5   1 68.5325 33.3232   7 
  -5   5   1 69.7984 23.9665   4 
  -5   5   2 892.538 97.5967   7 
  -5   5   2 964.960 61.4974   4 
  -5   5   3 422.343 73.4518   7 
  -5   5   3 565.064 44.6704   4 
  -5   5   4 1913.65 84.7043   4 
  -5   5   4 1962.32 139.913   7 
  -5   5   5 15.3637 12.4266   4 
  -5   5   5 27.6304 39.3227   7 
  -5   5   6 282.651 67.3038   7 
  -5   5   7 120.821 53.2981   7 
  -5   5   8-9.33014 50.6528   7 
  -5   5   9 1093.63 131.470   7 
  -5   5  10 149.053 48.3443   7 
  -5   6 -10 50.7440 54.4335   4 
  -5   6  -9-1.36511 61.8244   4 
  -5   6  -8-27.3914 46.2686   4 
  -5   6  -7 114.996 58.0740   4 
  -5   6  -6 180.427 51.8950   4 
  -5   6  -6 41.0646 20.6064   8 
  -5   6  -5-1.79111 29.9596   4 
  -5   6  -5-2.22205 17.9385   8 
  -5   6  -5 33.4038 38.0091   7 
  -5   6  -4 27.9366 34.3940   4 
  -5   6  -4 15.3560 28.4227   7 
  -5   6  -3 61.3075 35.5635   4 
  -5   6  -3 46.8280 36.4386   7 
  -5   6  -2 633.370 82.7334   7 
  -5   6  -2 592.383 66.7690   4 
  -5   6  -1 1111.27 82.3203   4 
  -5   6  -1 1028.13 98.9002   7 
  -5   6   0 106.545 30.8832   4 
  -5   6   0 87.7128 38.4606   7 
  -5   6   1 59.7023 24.5892   4 
  -5   6   1 0.36201 29.4218   7 
  -5   6   2-4.42671 32.2266   7 
  -5   6   2 58.7985 22.6558   4 
  -5   6   3 457.836 77.4197   7 
  -5   6   3 409.766 48.7460   4 
  -5   6   4 5.05981 18.9649   4 
  -5   6   4-6.76266 33.4130   7 
  -5   6   5 428.260 77.1055   7 
  -5   6   6 342.138 78.6654   7 
  -5   6   7 65.6928 49.8106   7 
  -5   6   8 661.463 100.714   7 
  -5   6   9 50.0902 61.0233   7 
  -5   7 -10-34.0778 48.3914   4 
  -5   7  -9 121.017 64.3654   4 
  -5   7  -8-63.8626 42.5609   4 
  -5   7  -7-26.5582 40.1015   4 
  -5   7  -6 76.5437 56.5119   4 
  -5   7  -5 96.3828 46.5478   4 
  -5   7  -5 74.4906 42.4939   7 
  -5   7  -4 65.8581 45.2489   7 
  -5   7  -4 124.032 46.0267   4 
  -5   7  -3 545.326 71.6952   7 
  -5   7  -3 552.407 71.4586   4 
  -5   7  -2 114.929 38.0416   4 
  -5   7  -2 65.3365 36.3973   7 
  -5   7  -1 109.187 31.2214   4 
  -5   7  -1 110.224 31.3826   7 
  -5   7   0-6.91047 28.2344   7 
  -5   7   0 17.3061 23.2838   4 
  -5   7   1 6.95371 19.6778   4 
  -5   7   1-10.9814 33.2914   7 
  -5   7   2 215.070 42.3399   4 
  -5   7   2 225.614 62.5839   7 
  -5   7   3 2.67620 19.3500   4 
  -5   7   3 53.9857 46.0486   7 
  -5   7   4 302.387 47.0596   4 
  -5   7   4 223.518 56.6585   7 
  -5   7   5 413.508 78.7293   7 
  -5   7   6 62.1719 42.8557   7 
  -5   7   7 1660.14 154.916   7 
  -5   7   8-30.2376 42.6749   7 
  -5   8 -10 122.311 62.4630   4 
  -5   8  -9 126.698 57.5326   4 
  -5   8  -8 144.148 68.2789   4 
  -5   8  -7 64.7469 38.9344   4 
  -5   8  -6 52.5182 43.5683   4 
  -5   8  -5 9.97360 33.0092   7 
  -5   8  -5-8.96327 34.9717   4 
  -5   8  -4 73.5140 35.0266   4 
  -5   8  -4 99.9566 53.5644   7 
  -5   8  -3 145.959 43.5015   7 
  -5   8  -3 174.859 42.2619   4 
  -5   8  -2 60.9991 33.3050   4 
  -5   8  -2 33.4157 28.3878   7 
  -5   8  -1 18.3285 32.4545   7 
  -5   8  -1-10.3482 32.5376   4 
  -5   8   0 171.950 46.9817   7 
  -5   8   0 313.766 55.2234   4 
  -5   8   1 748.192 79.3344   4 
  -5   8   1 752.795 92.4748   7 
  -5   8   2 1056.97 92.5979   4 
  -5   8   2 935.266 101.549   7 
  -5   8   3 338.945 52.5060   4 
  -5   8   3 346.611 70.0568   7 
  -5   8   4 729.924 106.885   7 
  -5   8   4 744.038 81.7251   4 
  -5   8   5 17.9750 46.6791   7 
  -5   8   6 223.639 77.9674   7 
  -5   8   7 88.8020 60.1374   7 
  -5   9 -10-58.1641 65.9682   4 
  -5   9  -9-13.8283 49.0392   4 
  -5   9  -8 71.5801 50.4391   4 
  -5   9  -7-19.0027 40.6742   4 
  -5   9  -6-67.9524 48.3399   4 
  -5   9  -5 84.6668 34.1292   7 
  -5   9  -5 129.527 50.5654   4 
  -5   9  -4-11.6618 29.4608   4 
  -5   9  -4-29.8134 26.7283   7 
  -5   9  -3 45.7939 29.1369   4 
  -5   9  -3 63.7748 40.9268   7 
  -5   9  -2 201.975 52.0831   4 
  -5   9  -2 137.408 46.3320   7 
  -5   9  -1 86.2061 28.0015   4 
  -5   9  -1 63.4163 40.3647   7 
  -5   9   0 651.305 78.4922   4 
  -5   9   0 621.609 80.5259   7 
  -5   9   1 152.098 39.8794   4 
  -5   9   1 148.396 48.3324   7 
  -5   9   2-12.2218 34.2836   7 
  -5   9   2 19.8892 26.5504   4 
  -5   9   3 79.4457 36.3025   4 
  -5   9   3 157.898 68.0852   7 
  -5   9   4-2.38015 49.9097   7 
  -5   9   5 495.787 86.2983   7 
  -5   9   6 8.54388 54.9242   7 
  -5  10  -9 9.92128 47.9485   4 
  -5  10  -8-46.9070 55.6207   4 
  -5  10  -7-9.45080 44.8773   4 
  -5  10  -6 46.9126 40.0520   4 
  -5  10  -5-179.453 56.2345   4 
  -5  10  -4 7.30978 31.4935   7 
  -5  10  -4 15.0901 31.4621   4 
  -5  10  -3 27.6416 31.4349   7 
  -5  10  -3-7.25295 41.3819   4 
  -5  10  -2 13.4978 33.0072   4 
  -5  10  -2-23.5894 31.3785   7 
  -5  10  -1 1514.03 131.952   4 
  -5  10  -1 1364.19 116.807   7 
  -5  10   0 1784.25 141.970   7 
  -5  10   0 1731.88 140.171   4 
  -5  10   1 62.9270 34.0245   4 
  -5  10   1 23.6188 33.8438   7 
  -5  10   2 87.0600 39.7027   7 
  -5  10   2 37.2225 41.3922   4 
  -5  10   3-42.7950 50.6129   7 
  -5  10   4 34.6363 47.8820   7 
  -5  10   5-44.3337 53.1415   7 
  -5  11  -8 39.7218 53.9325   4 
  -5  11  -7 73.9340 51.4695   4 
  -5  11  -6 90.2439 60.1503   4 
  -5  11  -5 47.1531 41.3577   4 
  -5  11  -4 64.7890 43.3617   4 
  -5  11  -3-7.20351 38.1325   4 
  -5  11  -2 401.724 78.5985   4 
  -5  11  -1-30.3102 31.8475   7 
  -5  11  -1 75.9135 30.8818   4 
  -5  11   0 59.1734 50.7123   7 
  -5  11   0-45.6476 39.3163   4 
  -5  11   1 24.2693 42.1382   7 
  -5  11   1 108.681 45.7376   4 
  -5  11   2-80.8036 63.1298   7 
  -5  11   2 5.30152 33.9158   4 
  -5  11   3 104.249 42.4157   7 
  -5  11   4 23.6344 40.0872   7 
  -5  12  -7 38.4677 44.1328   4 
  -5  12  -6-1.08707 38.6839   4 
  -5  12  -5 75.1047 53.5801   4 
  -5  12  -4-99.3860 64.3430   4 
  -5  12  -3 252.711 73.8211   4 
  -5  12  -2 76.0440 48.2370   4 
  -5  12  -1 161.124 63.6701   4 
  -5  12   0-70.1720 49.5021   4 
  -5  12   1 263.125 69.9157   4 
  -5  13  -5 102.740 65.8615   4 
  -5  13  -4 5.25411 39.6895   4 
  -5  13  -3 43.5309 38.8237   4 
  -5  13  -2 88.7690 46.7656   4 
  -5  13  -1 56.8442 37.9135   4 
  -5  13   0-53.0073 56.9191   4 
  -4 -11   2-20.9924 57.7054   8 
  -4 -11   3-194.617 67.9602   8 
  -4 -11   4 123.629 56.8936   8 
  -4 -10   0 68.7518 61.0774   8 
  -4 -10   1 45.9699 59.7586   8 
  -4 -10   2 258.951 80.4966   8 
  -4 -10   3 116.134 45.9663   8 
  -4 -10   4 329.480 85.7069   8 
  -4  -9  -2 165.460 72.8210   8 
  -4  -9  -1-42.8045 43.3941   8 
  -4  -9   0 28.0434 58.1256   8 
  -4  -9   1 179.609 80.6303   8 
  -4  -9   2-20.3789 48.4432   8 
  -4  -9   2 44.3813 55.3737   5 
  -4  -9   3 10.7317 49.9617   5 
  -4  -9   3 61.6232 44.0568   8 
  -4  -9   4 34.6524 47.9941   5 
  -4  -9   4-36.8385 50.5719   8 
  -4  -9   5 53.9007 53.8630   5 
  -4  -9   6 67.5375 60.3935   5 
  -4  -9   7 9.79422 39.5974   5 
  -4  -9  10 88.1178 65.6255   2 
  -4  -9  11-177.827 79.3679   2 
  -4  -9  12 219.577 83.2173   2 
  -4  -8  -3 51.8642 54.6271   8 
  -4  -8  -2 249.557 77.5050   8 
  -4  -8  -1 78.4582 65.5497   8 
  -4  -8  -1-54.1812 47.2713   5 
  -4  -8   0 134.441 59.1564   8 
  -4  -8   0-12.0192 38.1687   5 
  -4  -8   1 1280.60 133.935   5 
  -4  -8   1 1152.81 135.629   8 
  -4  -8   2 1667.01 154.713   8 
  -4  -8   2 1862.38 157.411   5 
  -4  -8   3 14.1467 31.8576   5 
  -4  -8   3-163.412 52.6581   8 
  -4  -8   4 95.5326 39.7922   5 
  -4  -8   4 97.1012 53.0943   8 
  -4  -8   5-10.2992 37.0952   5 
  -4  -8   6 38.4542 37.8846   5 
  -4  -8   7 218.969 58.4541   5 
  -4  -8   8 172.813 67.9654   5 
  -4  -8   9-3.18232 31.9279   5 
  -4  -8   9 54.8061 47.5431   2 
  -4  -8  10 36.6020 48.0379   2 
  -4  -8  11 447.708 87.8266   2 
  -4  -8  12 371.638 94.1961   2 
  -4  -8  13-64.5682 64.4473   2 
  -4  -7  -5-84.6120 76.6464   8 
  -4  -7  -4-30.8673 67.3965   8 
  -4  -7  -3 508.223 94.0643   8 
  -4  -7  -2 363.990 75.5280   5 
  -4  -7  -2 314.206 69.5806   8 
  -4  -7  -1-22.4507 39.2246   8 
  -4  -7  -1 38.5187 30.2102   5 
  -4  -7   0 6.61429 35.3875   5 
  -4  -7   0-59.7214 37.5304   8 
  -4  -7   1 1875.36 154.015   8 
  -4  -7   1 1847.93 153.763   5 
  -4  -7   2 416.234 78.7755   5 
  -4  -7   2 311.823 67.2834   8 
  -4  -7   3 1.82974 42.3837   8 
  -4  -7   3 27.8263 32.4409   5 
  -4  -7   4-4.05354 32.6005   5 
  -4  -7   4 66.7289 38.2735   8 
  -4  -7   5-23.2627 33.4465   5 
  -4  -7   6 95.2456 33.3799   5 
  -4  -7   7 783.078 101.345   5 
  -4  -7   8 153.996 54.5704   5 
  -4  -7   8 97.7198 49.2304   2 
  -4  -7   9 43.3566 33.2780   5 
  -4  -7   9 11.9540 38.8603   2 
  -4  -7  10 49.7520 32.9273   5 
  -4  -7  10-32.9051 44.8789   2 
  -4  -7  11 298.148 83.7014   2 
  -4  -7  12 88.2149 53.6366   2 
  -4  -7  13-56.7727 44.5026   2 
  -4  -6  -6 270.384 92.3739   8 
  -4  -6  -5-64.5100 57.6487   8 
  -4  -6  -4 86.5048 38.5031   5 
  -4  -6  -4 5.70890 46.3325   8 
  -4  -6  -3 78.0577 57.7260   8 
  -4  -6  -3 108.010 41.6398   5 
  -4  -6  -2-25.3440 41.3647   8 
  -4  -6  -2 22.1464 29.8756   5 
  -4  -6  -1 733.849 95.2258   5 
  -4  -6  -1 819.177 105.998   8 
  -4  -6   0 143.322 56.3247   8 
  -4  -6   0 195.795 58.9606   5 
  -4  -6   1 14.3312 34.1956   5 
  -4  -6   1-20.6471 40.6840   8 
  -4  -6   2 107.499 38.3072   5 
  -4  -6   2 84.6471 47.5109   8 
  -4  -6   3 2005.74 148.520   5 
  -4  -6   3 1817.44 145.295   8 
  -4  -6   4 5.70126 29.2480   5 
  -4  -6   4-19.8541 44.9161   8 
  -4  -6   5 675.275 65.2987   7 
  -4  -6   5 641.713 86.9101   5 
  -4  -6   6 550.604 58.9875   7 
  -4  -6   6 616.523 82.4879   5 
  -4  -6   7 94.7181 46.4929   2 
  -4  -6   7 102.175 23.5786   7 
  -4  -6   7 79.5312 41.4255   5 
  -4  -6   8 90.9291 41.9985   2 
  -4  -6   8 104.579 27.4106   7 
  -4  -6   8 124.101 39.8723   5 
  -4  -6   9 365.931 67.6085   5 
  -4  -6   9 443.577 78.2888   2 
  -4  -6  10 26.4805 30.2201   5 
  -4  -6  10 97.2775 48.4933   2 
  -4  -6  11-13.9878 39.9376   2 
  -4  -6  11 104.499 42.1951   5 
  -4  -6  12 64.3949 49.3788   2 
  -4  -6  13 36.8409 47.0555   2 
  -4  -6  14 7.95716 53.2694   2 
  -4  -5  -7 127.793 67.6076   8 
  -4  -5  -6 591.117 91.8316   8 
  -4  -5  -5 402.295 79.1415   8 
  -4  -5  -5 520.564 77.2788   5 
  -4  -5  -4 578.745 81.7902   5 
  -4  -5  -4 448.310 77.2637   8 
  -4  -5  -3 111.907 55.3282   8 
  -4  -5  -3 28.0536 25.6155   5 
  -4  -5  -2-18.1937 45.2499   8 
  -4  -5  -2 20.6536 27.7918   5 
  -4  -5  -1 276.335 61.8386   8 
  -4  -5  -1 209.082 45.4824   5 
  -4  -5   0 276.023 58.7301   8 
  -4  -5   0 290.897 55.0261   5 
  -4  -5   1 1377.60 122.904   8 
  -4  -5   1 1382.86 119.457   5 
  -4  -5   2 307.374 65.9607   8 
  -4  -5   2 316.151 61.6610   5 
  -4  -5   3 2879.99 169.844   8 
  -4  -5   3 2681.38 165.445   5 
  -4  -5   3 2869.52 138.200   7 
  -4  -5   4 2174.94 148.493   8 
  -4  -5   4 2459.12 156.089   5 
  -4  -5   4 2306.66 121.993   7 
  -4  -5   5 26.5459 28.8274   5 
  -4  -5   5 50.1877 22.9013   7 
  -4  -5   6 269.038 40.7894   7 
  -4  -5   6 274.652 50.7751   5 
  -4  -5   7 17.5167 27.8635   5 
  -4  -5   7-5.01861 31.0415   2 
  -4  -5   7-20.1701 25.3657   7 
  -4  -5   8 241.111 58.4355   5 
  -4  -5   8 125.438 40.1662   2 
  -4  -5   8 208.705 43.3934   7 
  -4  -5   9 409.066 68.7248   5 
  -4  -5   9 492.310 75.5227   2 
  -4  -5   9 387.846 53.6671   7 
  -4  -5  10 68.3358 43.9260   2 
  -4  -5  10 34.5268 26.9763   5 
  -4  -5  10 104.920 29.9889   7 
  -4  -5  11 335.522 59.5613   5 
  -4  -5  11 481.331 81.8439   2 
  -4  -5  12-51.7237 51.8671   2 
  -4  -5  13 94.9009 55.0986   2 
  -4  -5  14 75.0043 44.8006   2 
  -4  -4  -8 105.727 71.0891   8 
  -4  -4  -7 50.5677 54.9129   8 
  -4  -4  -6-13.8854 38.8583   8 
  -4  -4  -5 27.3327 30.8249   5 
  -4  -4  -5 38.1864 49.7610   8 
  -4  -4  -4 211.362 53.3357   8 
  -4  -4  -4 201.183 50.4408   5 
  -4  -4  -3 13.1486 29.3756   5 
  -4  -4  -3-27.1924 44.6649   8 
  -4  -4  -2 740.817 93.7913   8 
  -4  -4  -2 791.252 84.4549   5 
  -4  -4  -1 98.1402 37.4761   8 
  -4  -4   0 317.148 40.7953   1 
  -4  -4   0 394.427 70.5041   8 
  -4  -4   1 1477.91 119.012   8 
  -4  -4   1 1409.63 81.9051   1 
  -4  -4   2 1595.72 107.637   7 
  -4  -4   2 1436.12 113.849   8 
  -4  -4   2 1667.54 89.2436   1 
  -4  -4   3 116.020 34.7484   7 
  -4  -4   3 51.6057 33.6669   8 
  -4  -4   4 792.736 74.1341   7 
  -4  -4   5 218.345 36.8359   7 
  -4  -4   6 2489.28 124.094   7 
  -4  -4   6 2620.64 140.664   2 
  -4  -4   7 602.571 63.9277   7 
  -4  -4   7 591.148 71.2534   2 
  -4  -4   8 262.939 52.7878   2 
  -4  -4   8 237.845 52.9901   5 
  -4  -4   8 253.608 49.5367   7 
  -4  -4   9 2172.32 126.359   7 
  -4  -4   9 2256.49 142.034   2 
  -4  -4   9 2166.44 141.084   5 
  -4  -4  10 35.4487 33.4798   5 
  -4  -4  10 57.2480 34.0236   7 
  -4  -4  10 15.5821 38.5419   2 
  -4  -4  11 135.434 30.1613   7 
  -4  -4  11 61.6072 24.2507   5 
  -4  -4  11 206.557 51.5631   2 
  -4  -4  12 211.038 55.6558   2 
  -4  -4  12 371.633 68.2866   7 
  -4  -4  13 56.0898 62.2466   2 
  -4  -4  14 43.4904 44.1120   2 
  -4  -3  -8 21.4705 40.9163   8 
  -4  -3  -7 42.8879 47.8540   8 
  -4  -3  -6-26.5190 37.1905   8 
  -4  -3  -6 2.08945 27.0704   5 
  -4  -3  -5 1217.31 119.639   8 
  -4  -3  -5 1274.73 103.990   5 
  -4  -3  -4 621.234 89.6408   8 
  -4  -3  -4 555.540 70.7441   5 
  -4  -3  -3 7334.96 272.064   8 
  -4  -3  -2 11829.9 330.563   8 
  -4  -3  -1 3882.58 189.307   8 
  -4  -3   0 893.296 91.3699   8 
  -4  -3   0 786.510 66.2409   1 
  -4  -3   1 487.430 61.4610   7 
  -4  -3   1 436.846 67.3726   8 
  -4  -3   1 449.982 49.0385   1 
  -4  -3   2 1084.16 85.6432   7 
  -4  -3   2 1014.58 95.3794   8 
  -4  -3   3 59.8725 33.9368   7 
  -4  -3   3 4.35656 33.1573   8 
  -4  -3   4 680.459 67.4100   7 
  -4  -3   5 2204.35 116.603   7 
  -4  -3   6 821.622 73.1120   7 
  -4  -3   6 755.929 76.7365   2 
  -4  -3   7 18469.0 352.564   2 
  -4  -3   7 18239.5 348.463   7 
  -4  -3   8 2304.47 128.387   7 
  -4  -3   8 2386.50 132.770   2 
  -4  -3   9 260.905 49.1007   5 
  -4  -3   9 297.136 51.2836   7 
  -4  -3   9 251.656 52.0875   2 
  -4  -3  10 43.3630 31.2332   7 
  -4  -3  10 89.4425 43.7185   2 
  -4  -3  10 32.3177 26.1596   5 
  -4  -3  11 21.8990 35.5572   2 
  -4  -3  11 37.2570 38.4803   7 
  -4  -3  11 27.8118 25.6798   5 
  -4  -3  12-14.4048 31.6278   7 
  -4  -3  12-97.9204 50.7458   2 
  -4  -3  13-33.4487 31.0700   7 
  -4  -3  13-11.4283 37.5678   2 
  -4  -3  14 70.0774 36.6122   2 
  -4  -2  -9-50.3295 73.5645   8 
  -4  -2  -8-56.6682 51.8824   8 
  -4  -2  -7-9.72205 35.7135   8 
  -4  -2  -6 1019.97 113.841   8 
  -4  -2  -6 1066.49 90.5797   5 
  -4  -2  -5 326.794 61.4917   8 
  -4  -2  -4 132.639 51.9796   8 
  -4  -2  -3 154.949 41.4050   8 
  -4  -2  -2 110.979 42.1042   8 
  -4  -2  -1 132.735 40.3804   8 
  -4  -2   0 931.434 83.9479   8 
  -4  -2   0 1057.61 90.9417   7 
  -4  -2   1 53.3933 27.7791   8 
  -4  -2   1 87.8635 35.1671   7 
  -4  -2   2 521.652 60.2850   7 
  -4  -2   2 514.975 66.4936   8 
  -4  -2   3 795.739 73.6336   7 
  -4  -2   3 887.459 83.3236   8 
  -4  -2   4 17480.0 321.744   7 
  -4  -2   5 6933.85 186.281   2 
  -4  -2   5 6855.62 204.700   7 
  -4  -2   6 9396.14 248.099   7 
  -4  -2   6 9746.32 227.098   2 
  -4  -2   7 83.3933 28.7445   2 
  -4  -2   7 127.544 36.3141   7 
  -4  -2   8 52.3551 30.0051   7 
  -4  -2   8 29.4724 26.8016   2 
  -4  -2   9 802.902 83.1380   7 
  -4  -2   9 843.637 79.7196   2 
  -4  -2  10 122.559 36.2654   5 
  -4  -2  10 111.471 33.4901   2 
  -4  -2  10 164.892 44.7531   7 
  -4  -2  11 348.085 61.0703   2 
  -4  -2  11 212.016 44.5086   7 
  -4  -2  12 63.9113 32.9286   7 
  -4  -2  12 1.34899 30.5365   2 
  -4  -2  13 54.5023 48.2892   2 
  -4  -2  13 207.915 62.3441   7 
  -4  -2  14 103.601 43.6093   7 
  -4  -1 -10-98.2552 58.0469   8 
  -4  -1  -9 11.1070 49.3631   8 
  -4  -1  -8-33.0641 49.0658   8 
  -4  -1  -7-77.4063 48.3494   8 
  -4  -1  -6 346.677 66.6592   8 
  -4  -1  -5 11289.0 330.631   8 
  -4  -1  -4 1245.28 107.250   8 
  -4  -1  -3 5571.51 213.817   8 
  -4  -1  -2 47.7231 29.5403   8 
  -4  -1  -1 3573.44 161.791   7 
  -4  -1  -1 3421.32 155.602   8 
  -4  -1   0 33.0017 25.4285   8 
  -4  -1   0 40.0064 25.7171   7 
  -4  -1   1 422.204 54.8530   7 
  -4  -1   1 368.052 56.9205   8 
  -4  -1   2 5705.48 188.797   7 
  -4  -1   2 5290.63 195.286   8 
  -4  -1   3 1937.47 109.994   7 
  -4  -1   4 4744.81 169.649   7 
  -4  -1   5 30539.0 350.131   2 
  -4  -1   5 30922.5 438.953   7 
  -4  -1   6 1118.57 90.8371   7 
  -4  -1   6 1050.78 69.8186   2 
  -4  -1   7 1692.63 93.6409   2 
  -4  -1   7 1558.66 108.020   7 
  -4  -1   8 283.680 55.9274   7 
  -4  -1   8 284.320 47.1521   2 
  -4  -1   9 43.4725 37.1129   7 
  -4  -1   9-20.1885 29.7014   2 
  -4  -1  10 311.622 59.7800   7 
  -4  -1  10 250.774 47.8303   2 
  -4  -1  11 53.5800 30.9026   2 
  -4  -1  11 34.0390 35.4457   7 
  -4  -1  12 139.032 53.9470   7 
  -4  -1  12 209.480 52.0131   2 
  -4  -1  13 50.9103 39.1507   7 
  -4  -1  14 143.557 61.2751   7 
  -4   0 -11-56.9032 57.2809   8 
  -4   0 -10 175.296 72.4220   8 
  -4   0  -9 7.59909 53.1324   8 
  -4   0  -8 348.436 72.5038   8 
  -4   0  -7-26.2106 40.8222   4 
  -4   0  -7-0.07565 33.2138   8 
  -4   0  -6 39.9674 40.8304   8 
  -4   0  -6 15.2077 40.5169   4 
  -4   0  -5 745.430 85.0505   8 
  -4   0  -5 650.055 77.5965   4 
  -4   0  -4-7.89888 29.1988   8 
  -4   0  -4-5.05722 32.0942   4 
  -4   0  -3 231.569 44.5729   8 
  -4   0  -3 287.272 44.7988   4 
  -4   0  -2 50.1126 34.7601   7 
  -4   0  -2 41.0026 25.3820   4 
  -4   0  -2 27.4401 29.4623   8 
  -4   0  -1 1428.57 99.1681   8 
  -4   0  -1 1668.62 107.699   7 
  -4   0   0 387.100 55.8509   7 
  -4   0   0 329.522 51.6742   8 
  -4   0   1 2484.03 125.327   7 
  -4   0   1 2687.63 132.151   8 
  -4   0   2 1417.85 94.7233   7 
  -4   0   3 3869.48 152.091   7 
  -4   0   4 370.282 53.5856   7 
  -4   0   5 2714.60 90.9415   2 
  -4   0   5 2699.69 137.454   7 
  -4   0   6 274.240 35.5743   2 
  -4   0   6 266.593 51.5125   7 
  -4   0   7 1402.60 79.7276   2 
  -4   0   7 1457.54 106.743   7 
  -4   0   8 225.923 36.3508   2 
  -4   0   8 240.284 54.0816   7 
  -4   0   9 319.810 47.5271   2 
  -4   0   9 419.437 70.1149   7 
  -4   0  10 430.752 78.1580   7 
  -4   0  10 537.226 64.5811   2 
  -4   0  11 250.442 64.1216   7 
  -4   0  11 128.940 44.1124   2 
  -4   0  12 15.0929 40.8839   7 
  -4   0  12 138.532 52.5133   2 
  -4   0  13 456.824 84.7298   7 
  -4   0  14 104.912 61.5886   7 
  -4   1 -11-3.45031 48.7317   8 
  -4   1 -10 60.7480 52.8056   8 
  -4   1 -10-33.7381 49.1630   4 
  -4   1  -9-15.1563 48.5822   8 
  -4   1  -9 100.234 62.0244   4 
  -4   1  -8 187.181 64.0145   4 
  -4   1  -8 148.193 42.7382   8 
  -4   1  -7 693.731 86.6613   8 
  -4   1  -7 604.384 81.3913   4 
  -4   1  -6 150.487 52.1087   4 
  -4   1  -6-73.4449 49.7818   8 
  -4   1  -5 50.0420 35.6089   4 
  -4   1  -5 91.7595 39.1760   8 
  -4   1  -4 1124.08 90.2074   8 
  -4   1  -4 1118.45 93.9816   4 
  -4   1  -3 116.578 36.5267   8 
  -4   1  -3 94.0923 40.3865   7 
  -4   1  -3 124.375 40.9154   4 
  -4   1  -2 16364.9 305.608   8 
  -4   1  -2 16156.8 335.440   7 
  -4   1  -2 15377.4 285.496   4 
  -4   1  -1 10664.5 271.277   7 
  -4   1  -1 10770.7 243.353   8 
  -4   1  -1 10900.9 208.701   4 
  -4   1   0-5.63197 24.5334   7 
  -4   1   0 3.22022 12.5369   4 
  -4   1   0 14.2857 24.2623   8 
  -4   1   1 603.259 66.7183   7 
  -4   1   1 630.859 60.9707   8 
  -4   1   2 58.4524 32.5217   7 
  -4   1   3 4142.10 163.917   7 
  -4   1   4 330.074 51.6716   7 
  -4   1   5 1706.44 60.5049   2 
  -4   1   5 1735.62 110.906   7 
  -4   1   6-8.71104 13.9558   2 
  -4   1   6 2.84795 4.13766   4 
  -4   1   6-23.7407 28.5973   7 
  -4   1   7 9.56870 18.0627   2 
  -4   1   7 20.7557 11.1315   4 
  -4   1   8 6622.09 176.472   2 
  -4   1   8 6586.51 247.896   7 
  -4   1   9 527.666 59.1827   2 
  -4   1   9 582.166 80.8226   7 
  -4   1  10 122.967 35.5481   2 
  -4   1  10 46.5800 34.3185   7 
  -4   1  11-55.8278 55.7526   7 
  -4   1  11-69.1227 31.7349   2 
  -4   1  12-7.65243 43.9726   7 
  -4   1  13 547.646 101.146   7 
  -4   2 -12 301.701 79.8677   8 
  -4   2 -11 121.076 51.1070   8 
  -4   2 -11-45.7481 51.5905   4 
  -4   2 -10 105.882 67.9116   4 
  -4   2 -10 39.3362 46.2947   8 
  -4   2  -9 87.8924 57.3704   4 
  -4   2  -9 13.4232 37.6633   8 
  -4   2  -8 83.1162 39.7292   4 
  -4   2  -8 26.6264 39.6790   8 
  -4   2  -7 40.2973 32.6386   8 
  -4   2  -7 22.5902 39.1032   4 
  -4   2  -6 321.871 61.3069   4 
  -4   2  -6 325.527 57.4327   8 
  -4   2  -5 49.0922 23.8628   8 
  -4   2  -5 73.6824 45.2196   4 
  -4   2  -4 23.4703 22.4004   8 
  -4   2  -4 48.7326 25.6593   4 
  -4   2  -3 7.67085 24.3004   4 
  -4   2  -3 3.01434 23.9033   8 
  -4   2  -3 18.6208 31.8737   7 
  -4   2  -2 1747.43 94.8242   8 
  -4   2  -2 1861.72 96.1125   4 
  -4   2  -2 1632.48 110.335   7 
  -4   2  -1 31.8591 16.8579   4 
  -4   2  -1 31.9509 24.6776   8 
  -4   2  -1 2.89341 26.0690   7 
  -4   2   0 396.657 34.6605   4 
  -4   2   0 411.041 54.0834   7 
  -4   2   0 380.995 46.3112   8 
  -4   2   1-4.43251 24.5955   7 
  -4   2   1 13.8255 10.5817   4 
  -4   2   2 17.4870 5.33517   4 
  -4   2   2 28.8681 23.2794   7 
  -4   2   3 578.569 66.6720   7 
  -4   2   4 461.593 57.6697   7 
  -4   2   5 659.691 29.7383   2 
  -4   2   5 664.465 28.7021   4 
  -4   2   6 1449.02 56.3614   4 
  -4   2   6 1408.75 58.1380   2 
  -4   2   6 1499.56 108.866   7 
  -4   2   7 1444.11 70.9086   2 
  -4   2   7 1500.74 117.849   7 
  -4   2   8 814.642 94.7460   7 
  -4   2   8 849.747 63.4540   2 
  -4   2   9 208.306 58.5530   7 
  -4   2   9 132.508 30.6580   2 
  -4   2  10 110.080 54.2470   7 
  -4   2  10 30.3906 27.4557   2 
  -4   2  11 79.4409 40.9173   7 
  -4   2  12 6.89026 57.4627   7 
  -4   2  13-43.4548 56.3988   7 
  -4   3 -12 87.7941 44.5681   8 
  -4   3 -11-71.0008 62.9094   4 
  -4   3 -11-0.81977 41.5088   8 
  -4   3 -10 28.2312 49.6395   4 
  -4   3 -10-35.1599 37.0351   8 
  -4   3  -9 12.2651 37.2193   8 
  -4   3  -9-10.7034 38.0527   4 
  -4   3  -8 106.451 57.2152   4 
  -4   3  -8 123.898 38.5336   8 
  -4   3  -7 12.6480 34.6609   4 
  -4   3  -7 21.5847 31.3545   8 
  -4   3  -6 212.486 39.7394   8 
  -4   3  -6 223.499 50.8202   4 
  -4   3  -5 867.152 87.1963   4 
  -4   3  -5 824.325 74.5474   8 
  -4   3  -4 3595.91 157.270   4 
  -4   3  -4 3176.31 159.803   7 
  -4   3  -4 3480.12 135.890   8 
  -4   3  -3-2.76946 24.9731   4 
  -4   3  -3-5.47833 29.5161   7 
  -4   3  -3-6.47775 22.8887   8 
  -4   3  -2 836.407 80.5440   7 
  -4   3  -2 928.031 67.2038   8 
  -4   3  -2 986.410 70.0096   4 
  -4   3  -1 24.0583 26.0554   7 
  -4   3  -1-23.0874 18.0717   8 
  -4   3  -1-5.11227 18.2516   4 
  -4   3   0-12.4533 24.9910   7 
  -4   3   0 36.3860 16.7246   4 
  -4   3   1 3142.38 140.339   7 
  -4   3   1 3222.83 88.1295   4 
  -4   3   2 2005.54 112.918   7 
  -4   3   2 1984.25 62.0555   4 
  -4   3   3 482.694 29.8225   4 
  -4   3   3 464.560 58.0475   7 
  -4   3   4 2424.32 73.5606   4 
  -4   3   4 2538.43 76.1508   4 
  -4   3   5 516.323 38.7320   4 
  -4   3   5 430.021 59.5455   7 
  -4   3   6 3377.72 171.627   7 
  -4   3   6 3275.42 84.5481   2 
  -4   3   6 3360.76 106.395   4 
  -4   3   7 6.66220 35.3774   7 
  -4   3   7 4.56383 19.0379   2 
  -4   3   8 317.754 40.6159   2 
  -4   3   8 187.328 56.2872   7 
  -4   3   9 173.307 40.0327   2 
  -4   3   9 226.336 64.0665   7 
  -4   3  10-22.6642 38.8352   7 
  -4   3  11 1268.73 141.905   7 
  -4   3  12 225.599 71.2462   7 
  -4   4 -11-91.8351 56.8760   4 
  -4   4 -11-27.6843 44.3053   8 
  -4   4 -10-47.1576 43.0009   8 
  -4   4 -10 59.7711 46.6169   4 
  -4   4  -9 340.718 60.4453   8 
  -4   4  -9 310.034 72.2110   4 
  -4   4  -8 77.4169 38.7270   4 
  -4   4  -8 201.260 45.6173   8 
  -4   4  -7 191.051 57.7541   4 
  -4   4  -7 191.938 41.9562   8 
  -4   4  -6 95.8753 43.9589   4 
  -4   4  -6 94.4530 31.2508   8 
  -4   4  -5 547.566 70.2079   4 
  -4   4  -5 535.168 54.0101   8 
  -4   4  -4 326.224 56.2375   7 
  -4   4  -4 410.525 57.0561   4 
  -4   4  -4 415.900 46.0354   8 
  -4   4  -3 457.703 62.9210   7 
  -4   4  -3 534.436 47.7358   8 
  -4   4  -3 535.699 61.5740   4 
  -4   4  -2 38.3176 29.5878   7 
  -4   4  -2 47.9312 24.2019   4 
  -4   4  -2 43.3380 18.6256   8 
  -4   4  -1 30.3702 27.9412   7 
  -4   4  -1 7.81366 17.9191   4 
  -4   4   0 5193.52 179.593   7 
  -4   4   0 5419.16 143.290   4 
  -4   4   1 8313.17 166.177   4 
  -4   4   1 8268.68 231.654   7 
  -4   4   2 651.573 69.4604   7 
  -4   4   2 683.281 47.0149   4 
  -4   4   3 58.5762 31.1525   7 
  -4   4   3 37.0233 12.0532   4 
  -4   4   4 547.823 45.9882   4 
  -4   4   4 583.178 71.8365   7 
  -4   4   5 1263.35 105.531   7 
  -4   4   5 908.761 31.3355   2 
  -4   4   5 1233.15 74.9160   4 
  -4   4   6 106.300 48.8104   7 
  -4   4   6 74.7859 18.0903   2 
  -4   4   7 1236.96 115.653   7 
  -4   4   7 1132.63 63.5024   2 
  -4   4   8 490.765 80.8048   7 
  -4   4   8 532.248 55.1817   2 
  -4   4   9-10.9997 39.1696   7 
  -4   4  10 674.836 103.196   7 
  -4   4  11 157.202 65.3156   7 
  -4   5 -12-27.0756 63.5478   4 
  -4   5 -11 207.254 77.0098   4 
  -4   5 -10-20.1550 32.8586   8 
  -4   5 -10 51.5368 57.5138   4 
  -4   5  -9 62.6721 35.4537   8 
  -4   5  -9-5.64246 58.4258   4 
  -4   5  -8 2.25705 22.2387   8 
  -4   5  -8 5.30791 35.9976   4 
  -4   5  -7-8.34465 19.7608   8 
  -4   5  -7 20.6199 39.8750   4 
  -4   5  -6 245.260 55.7686   4 
  -4   5  -6 220.925 36.6271   8 
  -4   5  -5 19.5418 18.3303   8 
  -4   5  -5 35.1909 34.9769   7 
  -4   5  -5 97.2637 39.9741   4 
  -4   5  -4 212.179 30.1488   8 
  -4   5  -4 146.144 36.9242   4 
  -4   5  -4 153.136 42.1750   7 
  -4   5  -3 579.963 66.5217   4 
  -4   5  -3 603.237 70.3626   7 
  -4   5  -2 1391.13 96.7225   7 
  -4   5  -2 1380.98 91.2767   4 
  -4   5  -1 3288.71 133.448   4 
  -4   5  -1 3374.13 148.844   7 
  -4   5   0 224.960 34.2618   4 
  -4   5   0 204.551 45.0996   7 
  -4   5   1 31.4404 18.0652   4 
  -4   5   1 3.44067 25.5223   7 
  -4   5   2 14.0347 29.6892   7 
  -4   5   2 46.2127 19.8615   4 
  -4   5   3-2.17800 16.7596   4 
  -4   5   3-40.8300 32.7509   7 
  -4   5   4 542.115 79.8426   7 
  -4   5   5 51.7254 13.2212   2 
  -4   5   5 49.7829 37.6928   7 
  -4   5   6 836.016 49.5672   2 
  -4   5   6 885.663 96.3534   7 
  -4   5   7 830.228 103.118   7 
  -4   5   8-30.3248 47.5586   7 
  -4   5   9 3027.66 206.750   7 
  -4   5  10-22.1729 47.2694   7 
  -4   6 -12 51.3275 59.2840   4 
  -4   6 -11 105.638 59.1912   4 
  -4   6 -10-117.285 59.3964   4 
  -4   6  -9 76.2333 43.8141   4 
  -4   6  -8 111.545 36.0744   8 
  -4   6  -8 171.310 59.4016   4 
  -4   6  -7 77.2632 47.7599   4 
  -4   6  -7 109.118 28.9902   8 
  -4   6  -6 1352.88 115.612   4 
  -4   6  -6 1514.38 72.3012   8 
  -4   6  -5 676.489 78.5090   4 
  -4   6  -5 660.321 76.8621   7 
  -4   6  -5 704.283 42.2726   8 
  -4   6  -4 720.661 80.6268   4 
  -4   6  -4 700.315 77.2567   7 
  -4   6  -3 19.5687 25.8767   7 
  -4   6  -3 1.66360 30.3012   4 
  -4   6  -2 1128.41 89.6237   4 
  -4   6  -2 1018.06 83.7365   7 
  -4   6  -1 241.974 42.2784   7 
  -4   6  -1 278.696 48.5898   4 
  -4   6   0 1014.93 87.1526   7 
  -4   6   0 999.790 82.3363   4 
  -4   6   1 0.64650 25.0252   7 
  -4   6   1 68.5121 27.3772   4 
  -4   6   2 945.063 77.3871   4 
  -4   6   2 1075.20 96.2476   7 
  -4   6   3 1098.74 79.5422   4 
  -4   6   3 1111.26 101.063   7 
  -4   6   3 945.240 31.9695   2 
  -4   6   4 3617.16 184.456   7 
  -4   6   5 427.242 75.2474   7 
  -4   6   6 1733.84 144.676   7 
  -4   6   7 31.8627 40.6462   7 
  -4   6   8 209.890 68.5328   7 
  -4   6   9 22.9661 58.6863   7 
  -4   6  10-11.8558 54.2185   7 
  -4   7 -11 70.8435 55.8958   4 
  -4   7 -10 70.8712 47.3996   4 
  -4   7  -9 56.8778 43.9581   4 
  -4   7  -8 51.1790 48.4169   4 
  -4   7  -7 23.8693 41.4865   4 
  -4   7  -6 239.897 56.0747   4 
  -4   7  -5 242.493 55.8999   4 
  -4   7  -5 167.738 45.1060   7 
  -4   7  -4 34.9601 37.2760   4 
  -4   7  -4 4.87749 26.0377   7 
  -4   7  -3 670.826 71.0376   7 
  -4   7  -3 750.004 81.6443   4 
  -4   7  -2 36.3801 30.0283   7 
  -4   7  -2 8.82845 26.3995   4 
  -4   7  -1 207.454 39.6952   4 
  -4   7  -1 191.879 39.2679   7 
  -4   7   0 267.091 47.2621   4 
  -4   7   0 313.761 50.1734   7 
  -4   7   1 1098.56 88.2963   4 
  -4   7   1 1142.18 95.9934   7 
  -4   7   1 1083.47 51.7027   2 
  -4   7   2 2753.02 139.896   4 
  -4   7   2 2539.90 150.405   7 
  -4   7   3 1137.35 107.168   7 
  -4   7   3 1204.59 94.2191   4 
  -4   7   4 214.362 55.1871   7 
  -4   7   5 84.2381 45.0253   7 
  -4   7   6-43.4630 46.2702   7 
  -4   7   7 1009.49 120.660   7 
  -4   7   8-7.89002 51.3975   7 
  -4   7   9-85.9390 72.6917   7 
  -4   8 -11-59.1233 58.1724   4 
  -4   8 -10-27.3382 47.6899   4 
  -4   8  -9 330.202 76.4220   4 
  -4   8  -8 1462.68 143.749   4 
  -4   8  -7 92.9556 46.3903   4 
  -4   8  -6 273.078 65.1293   4 
  -4   8  -5 20.8374 32.5180   4 
  -4   8  -5 23.4253 27.3932   7 
  -4   8  -4 34.2324 29.6459   4 
  -4   8  -4 21.2422 30.7288   7 
  -4   8  -3-14.2484 39.9444   4 
  -4   8  -3 17.2126 26.5315   7 
  -4   8  -2 89.3887 35.3808   4 
  -4   8  -2 82.3163 28.7989   7 
  -4   8  -1 12.4066 24.3913   4 
  -4   8  -1 24.5664 29.3983   7 
  -4   8   0-13.9400 33.7281   4 
  -4   8   0 16.5886 31.8070   7 
  -4   8   1 7206.79 245.084   7 
  -4   8   1 6829.33 239.675   4 
  -4   8   2 10113.1 289.821   4 
  -4   8   2 10113.4 304.772   7 
  -4   8   3 899.470 92.8117   7 
  -4   8   3 781.231 84.7205   4 
  -4   8   4 191.606 41.7652   7 
  -4   8   5-46.6337 56.7418   7 
  -4   8   6-58.3783 48.6533   7 
  -4   8   7-33.8406 68.2118   7 
  -4   8   8-115.884 64.7394   7 
  -4   9 -11 21.0768 66.5794   4 
  -4   9 -10-9.57332 56.1809   4 
  -4   9  -9-14.6671 44.3304   4 
  -4   9  -8 125.041 53.0729   4 
  -4   9  -7 57.4323 48.7674   4 
  -4   9  -6 75.6509 36.9300   4 
  -4   9  -5 13.6961 20.2127   7 
  -4   9  -5-1.29403 28.8111   4 
  -4   9  -4 52.0070 30.0796   4 
  -4   9  -4 53.0495 29.7629   7 
  -4   9  -3 18.2000 26.7604   7 
  -4   9  -3 13.9143 36.2285   4 
  -4   9  -2 204.709 52.0470   4 
  -4   9  -2 135.029 36.7740   7 
  -4   9  -1 24.8345 31.6620   4 
  -4   9  -1 135.149 47.0906   7 
  -4   9   0 2255.44 141.521   7 
  -4   9   0 2157.28 143.379   4 
  -4   9   1 9.41095 30.4551   7 
  -4   9   1-8.82457 43.5171   4 
  -4   9   2 76.4904 44.2906   7 
  -4   9   2 6.62608 33.4012   4 
  -4   9   3 79.7539 29.7816   4 
  -4   9   3 58.8851 38.2685   7 
  -4   9   4 22.0982 36.0371   7 
  -4   9   5 153.485 45.5958   7 
  -4   9   6 30.2584 43.0568   7 
  -4   9   7-35.2812 40.6494   7 
  -4  10 -10 155.369 78.4732   4 
  -4  10  -9 43.2841 47.0681   4 
  -4  10  -8 41.0208 38.4639   4 
  -4  10  -7 56.0792 48.4766   4 
  -4  10  -6 132.349 53.6860   4 
  -4  10  -5 270.125 69.9042   4 
  -4  10  -4 17.3005 32.6324   4 
  -4  10  -4 21.6739 27.4810   7 
  -4  10  -3 29.0356 28.6958   7 
  -4  10  -3 15.5130 35.4510   4 
  -4  10  -2 102.325 39.5756   4 
  -4  10  -2 174.662 41.6247   7 
  -4  10  -1 1260.51 123.150   4 
  -4  10  -1 1398.83 107.342   7 
  -4  10   0 519.661 72.0332   7 
  -4  10   0 602.052 83.6166   4 
  -4  10   1 489.074 82.7680   4 
  -4  10   1 421.163 62.6228   7 
  -4  10   2-1.84964 32.8087   4 
  -4  10   2 69.2560 33.7418   7 
  -4  10   3 163.992 54.2929   4 
  -4  10   3 199.052 61.6576   7 
  -4  10   4-7.75856 47.7378   7 
  -4  10   4 33.0838 31.8792   4 
  -4  10   5 511.856 91.5899   7 
  -4  10   6 6.85837 54.1712   7 
  -4  11  -9-10.0705 49.9002   4 
  -4  11  -8-19.6333 38.0129   4 
  -4  11  -7-38.6602 51.9615   4 
  -4  11  -6 57.7537 48.5949   4 
  -4  11  -5-12.6267 37.6167   4 
  -4  11  -4 25.9655 36.0092   4 
  -4  11  -3 79.0271 50.7011   4 
  -4  11  -2 109.455 40.2313   4 
  -4  11  -2 46.3320 28.9583   7 
  -4  11  -1 29.3804 34.7621   4 
  -4  11  -1 15.3817 42.6220   7 
  -4  11   0 104.948 50.4778   7 
  -4  11   0-21.4490 38.2071   4 
  -4  11   1-68.7522 49.5407   4 
  -4  11   1 23.4458 35.7122   7 
  -4  11   2-6.29152 33.0445   4 
  -4  11   2 13.9523 35.8818   7 
  -4  11   3-84.6315 63.4473   7 
  -4  11   3 145.216 56.7566   4 
  -4  11   4 46.3383 49.6030   7 
  -4  11   4-19.1093 61.8953   4 
  -4  11   5-81.8126 60.7824   7 
  -4  12  -8 121.458 58.5466   4 
  -4  12  -7-62.0453 50.9402   4 
  -4  12  -6 55.1761 42.9446   4 
  -4  12  -5-38.0188 44.0712   4 
  -4  12  -4 147.692 56.0508   4 
  -4  12  -3 105.984 46.2766   4 
  -4  12  -2 48.1527 47.2659   4 
  -4  12  -1 83.2973 44.4328   4 
  -4  12   0 26.0043 34.1105   4 
  -4  12   1 60.6195 35.4930   4 
  -4  12   2 365.027 83.8698   4 
  -4  12   3 322.126 85.6076   4 
  -4  12   3 483.449 90.3508   7 
  -4  13  -6-1.04045 42.7392   4 
  -4  13  -5 112.559 59.1985   4 
  -4  13  -4 23.3546 36.6145   4 
  -4  13  -3 48.3488 51.9808   4 
  -4  13  -2-4.39862 38.1192   4 
  -4  13  -1-55.6459 45.9738   4 
  -4  13   0 40.2566 45.7841   4 
  -4  13   1 114.345 64.3664   4 
  -3 -11  -1 73.2684 63.0537   8 
  -3 -11   0 66.6148 49.0893   8 
  -3 -11   1-16.4389 40.8878   8 
  -3 -11   2 10.9677 66.8506   8 
  -3 -11   3 82.0333 61.5179   8 
  -3 -11   4-4.03836 44.4331   8 
  -3 -11   4 59.6759 61.0833   6 
  -3 -11   5 32.3165 53.9409   6 
  -3 -11   6 43.2603 42.7800   6 
  -3 -11   7-48.8549 52.2981   6 
  -3 -10  -2-46.1821 68.0126   8 
  -3 -10  -1-36.5329 50.8631   8 
  -3 -10   0 120.144 52.9353   8 
  -3 -10   1-49.6255 60.0118   8 
  -3 -10   2-22.0939 44.2614   8 
  -3 -10   3 706.814 107.109   8 
  -3 -10   3 820.417 117.951   6 
  -3 -10   4 1128.49 123.177   8 
  -3 -10   4 1606.72 160.114   6 
  -3 -10   5-51.3402 60.0236   6 
  -3 -10   6-13.0633 39.0879   6 
  -3 -10   7 44.5629 50.0698   6 
  -3 -10   9 121.126 68.3116   2 
  -3 -10  10 92.3386 71.3249   2 
  -3 -10  11-0.58956 44.4407   2 
  -3  -9  -4-21.4800 47.3268   8 
  -3  -9  -3-34.3872 50.6488   8 
  -3  -9  -2-34.1901 44.1362   8 
  -3  -9  -1 832.688 114.147   8 
  -3  -9   0 447.957 81.6463   8 
  -3  -9   1-97.4931 57.5150   8 
  -3  -9   2 81.9275 46.2295   8 
  -3  -9   2 42.9855 42.4581   6 
  -3  -9   3 1458.42 141.467   6 
  -3  -9   3 1361.98 133.622   8 
  -3  -9   4 172.416 58.4998   8 
  -3  -9   4 277.255 72.6396   6 
  -3  -9   5 41.6508 46.1303   6 
  -3  -9   6 27.0734 44.0720   6 
  -3  -9   8 58.5124 50.8350   2 
  -3  -9   9 182.992 57.2244   2 
  -3  -9  10 26.2684 50.1350   2 
  -3  -9  11 15.1411 51.1365   2 
  -3  -9  12 24.2197 49.3113   2 
  -3  -8  -5 257.293 70.0654   8 
  -3  -8  -4 249.282 75.7409   8 
  -3  -8  -3 99.8733 61.3118   8 
  -3  -8  -2 44.6480 36.6982   8 
  -3  -8  -1-19.4955 40.1935   8 
  -3  -8   0 0.08230 46.7186   8 
  -3  -8   1 781.409 99.9699   8 
  -3  -8   1 828.864 99.9944   5 
  -3  -8   2 103.639 48.0371   5 
  -3  -8   2 212.488 63.0902   8 
  -3  -8   2 141.195 48.2486   6 
  -3  -8   3-24.7579 40.9137   5 
  -3  -8   3-47.8164 41.5993   8 
  -3  -8   3-27.0706 42.3758   6 
  -3  -8   4 75.3220 41.7373   5 
  -3  -8   4 76.1357 47.8621   6 
  -3  -8   4 6.06637 36.2333   8 
  -3  -8   5 1513.57 134.014   5 
  -3  -8   5 1419.56 133.191   6 
  -3  -8   6-42.3794 35.8739   5 
  -3  -8   6 12.0696 34.3587   6 
  -3  -8   7 478.907 79.5897   5 
  -3  -8   7 564.717 90.4366   2 
  -3  -8   8 131.845 58.3202   2 
  -3  -8   9-52.7310 51.7193   2 
  -3  -8  10 56.9622 45.5675   2 
  -3  -8  11 205.448 64.0433   2 
  -3  -8  12-6.11424 47.2942   2 
  -3  -8  13 21.6836 58.4692   2 
  -3  -7  -6-34.2750 44.0711   8 
  -3  -7  -5-26.5372 45.0699   8 
  -3  -7  -4 1637.22 157.048   8 
  -3  -7  -3 650.951 94.9135   8 
  -3  -7  -2 792.208 107.202   8 
  -3  -7  -1 297.376 60.9768   5 
  -3  -7  -1 366.593 72.0490   8 
  -3  -7   0 5.88168 37.6301   8 
  -3  -7   0-43.8549 39.9412   5 
  -3  -7   1 279.945 61.7035   5 
  -3  -7   1 288.877 62.5241   8 
  -3  -7   2 52.8224 42.9983   8 
  -3  -7   2 27.8113 41.7554   5 
  -3  -7   3 1436.65 121.856   8 
  -3  -7   3 1567.32 130.508   6 
  -3  -7   3 1463.68 122.283   5 
  -3  -7   4 131.147 45.6274   5 
  -3  -7   4 91.9903 45.7804   8 
  -3  -7   4 155.976 50.7724   6 
  -3  -7   5 1374.23 121.072   5 
  -3  -7   6 1682.83 133.522   5 
  -3  -7   6 1676.48 132.353   2 
  -3  -7   7 63.3301 38.3328   5 
  -3  -7   7 4.33056 34.1509   2 
  -3  -7   8 94.2883 49.3804   2 
  -3  -7   8 39.7899 43.4137   5 
  -3  -7   9-19.3336 26.8923   5 
  -3  -7   9 15.7736 39.4367   2 
  -3  -7  10 44.5113 39.3163   2 
  -3  -7  11 282.280 69.3733   2 
  -3  -7  12 144.933 49.3538   2 
  -3  -7  13 15.8998 51.6330   2 
  -3  -7  14-49.0015 61.8971   2 
  -3  -6  -7 663.284 106.074   8 
  -3  -6  -6 10.8954 43.3786   8 
  -3  -6  -5-11.0055 36.6623   8 
  -3  -6  -4-30.3531 38.6780   8 
  -3  -6  -3 104.975 44.3286   8 
  -3  -6  -3 71.0429 32.7100   5 
  -3  -6  -2 194.302 50.4538   5 
  -3  -6  -2 158.364 43.2665   8 
  -3  -6  -1 171.909 47.0205   8 
  -3  -6  -1 179.552 50.4420   5 
  -3  -6   0 1302.79 113.634   8 
  -3  -6   0 1358.73 111.154   5 
  -3  -6   1 122.509 47.8420   8 
  -3  -6   1 104.979 40.7598   5 
  -3  -6   2 46.3767 30.0576   8 
  -3  -6   2 54.6036 35.3138   5 
  -3  -6   3 904.951 94.2409   5 
  -3  -6   3 806.396 88.9989   8 
  -3  -6   4 1298.29 114.229   5 
  -3  -6   4 1030.98 98.2496   8 
  -3  -6   5 72.0442 23.8645   7 
  -3  -6   5 72.7994 36.3311   5 
  -3  -6   6 443.258 71.8186   5 
  -3  -6   6 406.972 70.4148   2 
  -3  -6   6 416.020 43.0459   7 
  -3  -6   7 131.290 26.0043   7 
  -3  -6   7 107.974 42.5044   2 
  -3  -6   7 72.0386 28.5099   5 
  -3  -6   8 1399.00 118.629   2 
  -3  -6   8 1408.82 76.4349   7 
  -3  -6   8 1477.90 118.619   5 
  -3  -6   9 235.893 59.9619   2 
  -3  -6   9 243.535 56.0881   5 
  -3  -6   9 389.340 48.1170   7 
  -3  -6  10 332.985 58.3712   5 
  -3  -6  10 370.749 71.0297   2 
  -3  -6  11 819.272 108.561   2 
  -3  -6  12 30.6285 52.4722   2 
  -3  -6  13 39.0769 51.4445   2 
  -3  -6  14 258.899 71.5725   2 
  -3  -5  -8 101.345 49.6912   8 
  -3  -5  -7-42.5973 61.6148   8 
  -3  -5  -6 19.2906 53.9970   8 
  -3  -5  -5 131.271 43.9224   8 
  -3  -5  -4 42.6991 26.9529   5 
  -3  -5  -4-29.0314 45.3017   8 
  -3  -5  -3 3078.44 156.422   5 
  -3  -5  -3 2981.32 177.120   8 
  -3  -5  -2 2770.03 151.388   5 
  -3  -5  -2 3001.14 172.194   8 
  -3  -5  -1 15089.0 345.601   5 
  -3  -5  -1 14866.9 362.184   8 
  -3  -5  -1 14282.9 191.105   1 
  -3  -5   0 21810.3 221.100   1 
  -3  -5   0 22379.1 424.952   5 
  -3  -5   1 6389.39 224.218   5 
  -3  -5   1 6276.48 221.022   8 
  -3  -5   2 878.043 88.9942   5 
  -3  -5   2 797.628 83.1794   8 
  -3  -5   3 520.438 65.8027   8 
  -3  -5   3 513.196 68.7862   5 
  -3  -5   4 593.639 70.1936   5 
  -3  -5   4 653.989 55.5928   7 
  -3  -5   4 565.227 69.8733   8 
  -3  -5   5-40.4304 35.7965   2 
  -3  -5   5 6.92000 15.7224   7 
  -3  -5   5-3.91764 25.0327   5 
  -3  -5   6 72.2755 20.7999   7 
  -3  -5   6 101.482 35.7052   5 
  -3  -5   6 95.2862 38.5818   2 
  -3  -5   7 786.039 82.8017   5 
  -3  -5   7 763.391 80.9716   2 
  -3  -5   7 877.749 63.2444   7 
  -3  -5   8 111.977 43.1925   5 
  -3  -5   8 130.350 44.6782   2 
  -3  -5   8 76.1896 25.7746   7 
  -3  -5   9 9096.02 293.797   2 
  -3  -5   9 8883.76 268.875   5 
  -3  -5   9 8899.39 216.920   7 
  -3  -5  10 1410.01 94.4116   7 
  -3  -5  10 1496.51 112.149   5 
  -3  -5  10 1418.62 122.213   2 
  -3  -5  11 71.1854 54.0100   2 
  -3  -5  11 49.0321 32.4654   7 
  -3  -5  12 58.4844 53.9457   2 
  -3  -5  13-47.3442 48.4314   2 
  -3  -5  14-27.6301 50.6584   2 
  -3  -5  15-84.8397 43.5961   2 
  -3  -4  -9 31.8821 52.7328   8 
  -3  -4  -8-101.654 60.5443   8 
  -3  -4  -7 63.3721 44.5619   8 
  -3  -4  -6 262.943 64.9960   8 
  -3  -4  -5 86.9355 28.6659   5 
  -3  -4  -5 62.5812 33.8418   8 
  -3  -4  -4 4186.92 171.495   5 
  -3  -4  -4 4278.93 208.855   8 
  -3  -4  -3 839.218 81.7079   5 
  -3  -4  -3 888.353 63.8341   1 
  -3  -4  -3 803.767 92.7897   8 
  -3  -4  -2 586.331 65.3346   5 
  -3  -4  -2 658.568 52.9043   1 
  -3  -4  -2 589.798 75.1059   8 
  -3  -4  -1 19.3050 17.3050   1 
  -3  -4  -1 24.1658 31.6265   8 
  -3  -4  -1 52.9697 32.9603   5 
  -3  -4   0 175.487 27.8126   1 
  -3  -4   0 104.899 31.9818   5 
  -3  -4   0 140.148 39.9465   8 
  -3  -4   1 1406.99 65.5980   1 
  -3  -4   1 1247.47 95.6700   8 
  -3  -4   2 2210.63 104.273   7 
  -3  -4   2 2032.30 120.380   8 
  -3  -4   2 2145.98 84.6232   1 
  -3  -4   3 244.168 36.8561   7 
  -3  -4   3 202.121 43.6414   8 
  -3  -4   4 736.092 58.2324   7 
  -3  -4   5 555.123 65.6898   5 
  -3  -4   5 611.036 66.1711   2 
  -3  -4   5 602.837 51.8622   7 
  -3  -4   6 11961.7 280.804   2 
  -3  -4   6 11902.1 291.322   5 
  -3  -4   6 11699.5 227.158   7 
  -3  -4   7 4410.90 176.229   2 
  -3  -4   7 4395.04 145.400   7 
  -3  -4   7 4408.45 178.182   5 
  -3  -4   8 6631.36 227.244   2 
  -3  -4   8 6365.54 183.839   7 
  -3  -4   8 6646.95 217.861   5 
  -3  -4   9 43.6478 25.9343   5 
  -3  -4   9 97.3091 44.6380   2 
  -3  -4   9 96.9849 32.0489   7 
  -3  -4  10-29.2244 28.8707   7 
  -3  -4  10-33.5892 36.7531   2 
  -3  -4  10-5.48161 28.4658   5 
  -3  -4  11 286.082 49.7351   7 
  -3  -4  11 356.630 73.6548   2 
  -3  -4  12 137.727 38.8965   7 
  -3  -4  12 14.3753 48.7506   2 
  -3  -4  13 108.114 52.3738   2 
  -3  -4  14 24.2674 42.8740   2 
  -3  -4  15 71.4193 56.8194   2 
  -3  -3 -10-20.5842 61.7913   8 
  -3  -3  -9 75.6872 62.7965   8 
  -3  -3  -8 69.4302 43.4464   8 
  -3  -3  -7 111.052 53.3272   8 
  -3  -3  -6-13.6844 20.5834   5 
  -3  -3  -6 8.50697 34.1395   8 
  -3  -3  -5 0.21266 20.5866   5 
  -3  -3  -5-9.75595 42.6640   8 
  -3  -3  -4 856.332 90.6965   8 
  -3  -3  -4 881.382 77.0340   5 
  -3  -3  -3 36557.4 546.937   8 
  -3  -3  -3 36713.8 474.708   5 
  -3  -3  -3 36349.2 419.236   1 
  -3  -3  -2 1560.21 111.711   8 
  -3  -3  -2 1616.02 84.1555   1 
  -3  -3  -1 14071.0 227.816   1 
  -3  -3  -1 13405.0 305.239   8 
  -3  -3   0 75.6733 35.0336   8 
  -3  -3   0 29.4538 13.3272   1 
  -3  -3   1 6373.88 202.449   8 
  -3  -3   1 6634.70 149.898   1 
  -3  -3   1 6507.00 183.687   7 
  -3  -3   2 11.6126 13.8708   1 
  -3  -3   2 15.0633 25.4137   8 
  -3  -3   2 21.2308 22.7157   7 
  -3  -3   3 34.4256 18.5094   7 
  -3  -3   3 44.7378 31.7940   8 
  -3  -3   4 6682.03 186.870   2 
  -3  -3   4 6565.54 167.560   7 
  -3  -3   5 1185.42 73.9965   7 
  -3  -3   5 1256.56 83.7588   2 
  -3  -3   6 2651.92 112.204   7 
  -3  -3   6 2625.24 123.044   2 
  -3  -3   7 26026.7 369.321   7 
  -3  -3   7 26367.3 406.728   2 
  -3  -3   8 123.378 27.7841   4 
  -3  -3   8 129.732 35.9132   2 
  -3  -3   8 146.838 34.9662   5 
  -3  -3   8 167.573 40.6465   7 
  -3  -3   9 852.700 72.7596   5 
  -3  -3   9 762.384 82.1332   2 
  -3  -3   9 856.439 78.8848   7 
  -3  -3  10 59.4766 26.3612   5 
  -3  -3  10 73.7394 34.9425   2 
  -3  -3  10 111.875 34.7878   7 
  -3  -3  11 42.1524 39.4634   7 
  -3  -3  11 31.7563 34.0865   2 
  -3  -3  12 143.638 54.7328   2 
  -3  -3  12 117.018 39.8521   7 
  -3  -3  13 32.8544 37.0130   7 
  -3  -3  13-24.9398 50.5429   2 
  -3  -3  14 160.372 67.8742   2 
  -3  -3  15 6.93169 66.8868   2 
  -3  -2 -10 110.801 65.0440   8 
  -3  -2  -9 38.9218 48.7669   8 
  -3  -2  -8 567.687 92.0458   8 
  -3  -2  -7-0.22908 15.4291   5 
  -3  -2  -7-21.3771 40.5198   8 
  -3  -2  -6 746.333 91.8248   8 
  -3  -2  -6 803.655 66.0030   5 
  -3  -2  -5 52.6138 30.6800   8 
  -3  -2  -5 14.0129 23.3292   5 
  -3  -2  -4 100.045 42.9921   8 
  -3  -2  -3 2802.42 143.372   8 
  -3  -2  -3 2632.08 114.571   1 
  -3  -2  -2-57.2373 29.2301   8 
  -3  -2  -2-1.08257 18.3788   1 
  -3  -2  -1 263.146 42.8881   8 
  -3  -2  -1 290.795 37.4434   1 
  -3  -2   0 2246.76 109.013   7 
  -3  -2   0 2315.57 92.7339   1 
  -3  -2   1 3962.39 139.952   7 
  -3  -2   1 4242.21 124.905   1 
  -3  -2   2 798.548 56.2518   1 
  -3  -2   2 779.781 64.2513   7 
  -3  -2   3 11260.8 220.097   7 
  -3  -2   3 11817.4 224.121   1 
  -3  -2   4 691.913 57.1611   2 
  -3  -2   4 777.834 59.8974   7 
  -3  -2   5 2710.80 112.182   7 
  -3  -2   5 2599.35 109.408   2 
  -3  -2   6 280.790 43.9236   7 
  -3  -2   6 314.082 42.5971   2 
  -3  -2   7 2173.88 112.247   2 
  -3  -2   7 2223.26 93.3767   4 
  -3  -2   7 2216.44 114.641   7 
  -3  -2   8 242.552 42.2493   2 
  -3  -2   8 228.790 35.8646   4 
  -3  -2   8 272.135 47.5481   7 
  -3  -2   9 659.261 72.8404   2 
  -3  -2   9 745.441 76.0535   7 
  -3  -2   9 645.524 59.6603   5 
  -3  -2  10 118.197 27.0647   5 
  -3  -2  10 127.306 44.7026   2 
  -3  -2  10 140.971 40.0353   7 
  -3  -2  11 158.071 49.8691   2 
  -3  -2  11 149.712 52.4100   7 
  -3  -2  12 135.851 39.6765   2 
  -3  -2  12 181.651 57.4495   7 
  -3  -2  13 39.7261 40.2120   7 
  -3  -2  13 74.7601 47.3511   2 
  -3  -2  14-127.029 63.7955   2 
  -3  -2  14 113.119 61.2205   7 
  -3  -2  15 155.255 54.6586   2 
  -3  -1 -11-262.029 76.0264   8 
  -3  -1 -10 184.064 68.6158   8 
  -3  -1  -9 403.713 84.0669   8 
  -3  -1  -8 96.5909 51.8935   8 
  -3  -1  -7 53.7381 34.7526   8 
  -3  -1  -7 37.8285 21.8541   5 
  -3  -1  -6 138.507 47.2256   8 
  -3  -1  -5 1134.37 98.6498   8 
  -3  -1  -4-14.0838 26.1596   8 
  -3  -1  -3 2176.83 120.606   8 
  -3  -1  -2 3279.52 139.922   8 
  -3  -1  -2 3453.25 124.604   1 
  -3  -1  -1 2159.86 109.881   7 
  -3  -1  -1 2201.89 96.4611   1 
  -3  -1  -1 2117.77 107.999   8 
  -3  -1   0 63415.4 498.744   1 
  -3  -1   0 64138.5 558.357   7 
  -3  -1   1 41900.1 438.034   7 
  -3  -1   1 43599.0 408.570   1 
  -3  -1   2 557.773 51.6726   7 
  -3  -1   2 632.354 52.2100   1 
  -3  -1   3 88.2802 23.7472   1 
  -3  -1   3 154.682 31.1904   7 
  -3  -1   4 133.716 31.4846   7 
  -3  -1   4 144.180 26.3208   2 
  -3  -1   5 5489.67 167.201   7 
  -3  -1   5 5699.10 145.473   2 
  -3  -1   6 528.056 58.4907   7 
  -3  -1   6 536.341 51.1760   2 
  -3  -1   6 468.519 37.4078   4 
  -3  -1   7 1076.55 62.9468   4 
  -3  -1   7 1113.26 83.4538   7 
  -3  -1   7 1107.26 75.2977   2 
  -3  -1   8 7.08298 21.4522   2 
  -3  -1   8 18.8389 13.4529   4 
  -3  -1   8 54.5695 33.8535   7 
  -3  -1   9 16.2977 24.9555   2 
  -3  -1   9 45.2174 38.0669   7 
  -3  -1  10 4086.77 194.094   7 
  -3  -1  10 4211.54 187.916   2 
  -3  -1  10 4205.04 132.030   5 
  -3  -1  11 502.660 76.3608   7 
  -3  -1  11 365.392 54.7614   2 
  -3  -1  12 31.0409 44.4935   2 
  -3  -1  12-2.46904 42.3155   7 
  -3  -1  13-2.81620 40.0225   7 
  -3  -1  13 1.08718 39.9195   2 
  -3  -1  14-2.03766 42.6573   2 
  -3  -1  14 52.3593 50.7892   7 
  -3   0 -12 70.0767 64.6077   8 
  -3   0 -11 167.390 68.3587   8 
  -3   0 -10 395.665 82.3605   8 
  -3   0  -9 9.28599 46.4505   4 
  -3   0  -9 76.2900 47.6658   8 
  -3   0  -8 23.8428 12.6597   5 
  -3   0  -8-14.7588 41.2793   8 
  -3   0  -7 38.4966 39.4671   8 
  -3   0  -7-5.18311 37.8466   4 
  -3   0  -6 349.825 57.8165   4 
  -3   0  -6 288.729 55.3468   8 
  -3   0  -5 29.4495 30.1066   8 
  -3   0  -5 2.20231 31.6623   4 
  -3   0  -4 821.237 75.5527   8 
  -3   0  -4 845.107 75.1554   4 
  -3   0  -3 348.906 50.8349   8 
  -3   0  -3 284.750 45.3764   4 
  -3   0  -2 167.751 34.2560   4 
  -3   0  -2 127.477 37.0627   7 
  -3   0  -2 77.2963 32.8915   8 
  -3   0  -2 153.002 30.4169   1 
  -3   0  -1 3811.23 132.063   8 
  -3   0  -1 3982.01 117.088   4 
  -3   0  -1 3763.29 139.649   7 
  -3   0  -1 4086.18 133.262   1 
  -3   0   0 10593.8 209.053   1 
  -3   0   0 10439.0 214.034   8 
  -3   0   0 10638.4 222.053   7 
  -3   0   1 385.928 46.5793   7 
  -3   0   1 401.949 46.3481   8 
  -3   0   1 354.065 42.5162   1 
  -3   0   2 3245.66 119.145   7 
  -3   0   2 3298.48 120.104   1 
  -3   0   3 288.411 26.3303   2 
  -3   0   3 253.067 38.8332   7 
  -3   0   4 71.2460 26.1463   7 
  -3   0   4 112.272 18.2116   2 
  -3   0   5 710.435 34.8274   4 
  -3   0   5 765.805 49.4336   2 
  -3   0   5 658.032 63.7220   7 
  -3   0   6 398.756 32.3939   4 
  -3   0   6 461.305 43.5539   2 
  -3   0   7 875.084 80.1630   7 
  -3   0   7 825.863 64.7369   2 
  -3   0   7 896.693 57.3661   4 
  -3   0   8 1404.79 106.379   7 
  -3   0   8 1432.20 91.9752   2 
  -3   0   8 1323.96 80.2780   4 
  -3   0   9 1107.19 106.246   7 
  -3   0   9 1215.70 93.3537   2 
  -3   0  10 654.893 78.7639   2 
  -3   0  10 590.116 80.7143   7 
  -3   0  11 190.545 59.6792   7 
  -3   0  11 109.961 34.9334   2 
  -3   0  12 69.8836 52.1521   7 
  -3   0  12 24.4463 33.6954   2 
  -3   0  13 101.733 65.0652   7 
  -3   0  13-52.4943 53.8459   2 
  -3   0  14 153.500 54.9815   7 
  -3   1 -12 83.7650 52.1319   4 
  -3   1 -12 61.8797 46.0685   8 
  -3   1 -11-83.5985 66.5480   8 
  -3   1 -11 16.0295 47.3634   4 
  -3   1 -10 28.1323 46.7051   8 
  -3   1 -10 17.9995 42.8549   4 
  -3   1  -9-2.64103 33.7092   4 
  -3   1  -9 32.6804 37.0125   8 
  -3   1  -8 85.2551 52.1602   4 
  -3   1  -8 72.4836 40.8266   8 
  -3   1  -7 93.0272 35.8349   8 
  -3   1  -7 165.654 52.5655   4 
  -3   1  -6 566.403 68.4835   8 
  -3   1  -6 624.364 72.9567   4 
  -3   1  -5 93.8568 43.6715   4 
  -3   1  -5 84.3573 31.5868   8 
  -3   1  -4 3284.30 132.888   8 
  -3   1  -4 3270.50 142.299   4 
  -3   1  -3 3020.33 124.757   4 
  -3   1  -3 2937.56 117.875   8 
  -3   1  -2 18704.1 278.699   8 
  -3   1  -2 18322.7 278.524   4 
  -3   1  -2 18435.4 311.780   7 
  -3   1  -2 19256.0 304.213   1 
  -3   1  -1-32.2701 27.9439   7 
  -3   1  -1 3.58486 19.9884   4 
  -3   1  -1-8.76335 20.2697   1 
  -3   1  -1-16.6951 18.7392   8 
  -3   1   0 5882.59 150.009   8 
  -3   1   0 5541.50 111.104   4 
  -3   1   0 5573.00 159.624   7 
  -3   1   1 552.340 26.0327   4 
  -3   1   1 509.731 50.9816   7 
  -3   1   2 263.171 42.2089   7 
  -3   1   3 10806.5 224.498   7 
  -3   1   3 10439.0 109.144   2 
  -3   1   4 2586.75 52.5056   4 
  -3   1   4 2837.45 70.9129   2 
  -3   1   4 2616.21 116.892   7 
  -3   1   5 2470.95 70.8599   4 
  -3   1   5 2520.49 120.606   7 
  -3   1   5 2515.81 81.4371   2 
  -3   1   6 2652.98 131.423   7 
  -3   1   6 2465.43 93.5022   2 
  -3   1   6 2448.53 86.1820   4 
  -3   1   7 717.228 76.2719   7 
  -3   1   7 647.813 50.9225   4 
  -3   1   7 687.581 57.1067   2 
  -3   1   8 3434.68 169.997   7 
  -3   1   8 3686.42 144.562   2 
  -3   1   9-3.09403 25.7732   2 
  -3   1   9 4.62430 35.8966   7 
  -3   1  10 173.935 46.8591   2 
  -3   1  10 175.441 50.4834   7 
  -3   1  11 155.677 49.4161   2 
  -3   1  11 196.666 62.7701   7 
  -3   1  12 10.7980 38.0599   2 
  -3   1  12 41.0649 43.5148   7 
  -3   1  13 1037.57 115.489   2 
  -3   1  13 1001.25 126.436   7 
  -3   2 -13 94.7135 51.7121   8 
  -3   2 -12 37.0714 43.5581   4 
  -3   2 -12 71.9821 62.0951   8 
  -3   2 -11-22.0529 45.4298   4 
  -3   2 -11 46.3436 34.6804   8 
  -3   2 -10 13.1800 36.3354   8 
  -3   2 -10-48.6282 42.9902   4 
  -3   2  -9 31.4528 44.8143   4 
  -3   2  -9 18.4485 36.8873   8 
  -3   2  -8 194.201 54.8919   8 
  -3   2  -8 86.7050 45.1628   4 
  -3   2  -7 2847.95 147.107   8 
  -3   2  -7 2929.74 167.779   4 
  -3   2  -6 1580.19 114.327   4 
  -3   2  -6 1520.62 98.1725   8 
  -3   2  -5 328.919 44.4849   8 
  -3   2  -5 332.786 55.1371   4 
  -3   2  -4 806.280 60.0111   8 
  -3   2  -4 792.961 70.2058   4 
  -3   2  -3 4099.69 127.818   8 
  -3   2  -3 4223.92 142.682   4 
  -3   2  -3 3973.56 146.644   7 
  -3   2  -2 5506.88 145.986   4 
  -3   2  -2 5662.02 140.507   8 
  -3   2  -2 5403.43 162.963   7 
  -3   2  -1 7913.51 159.444   8 
  -3   2  -1 7885.18 187.400   7 
  -3   2  -1 7982.57 154.903   4 
  -3   2   0 9.81267 11.8212   4 
  -3   2   0-23.2809 17.8089   8 
  -3   2   0 24.1995 20.5056   7 
  -3   2   1 2923.86 68.1256   4 
  -3   2   1 2937.66 113.887   7 
  -3   2   2 26772.7 186.221   4 
  -3   2   2 28404.5 361.357   7 
  -3   2   3 32973.8 227.457   4 
  -3   2   3 35666.8 419.051   7 
  -3   2   4 923.939 45.6476   4 
  -3   2   4 912.975 37.5173   2 
  -3   2   4 856.213 73.4414   7 
  -3   2   5 24.2783 16.5445   2 
  -3   2   5 28.1699 14.1338   4 
  -3   2   5 32.7817 25.2253   7 
  -3   2   6 1598.47 78.4941   4 
  -3   2   6 1706.44 79.2941   2 
  -3   2   7 1697.41 90.6383   4 
  -3   2   7 1505.34 112.099   7 
  -3   2   7 1539.78 85.5463   2 
  -3   2   8 208.693 41.5540   2 
  -3   2   8 111.519 38.0539   7 
  -3   2   9 863.746 79.0475   2 
  -3   2   9 738.440 95.4370   7 
  -3   2  10 342.755 59.0784   2 
  -3   2  10 385.519 73.0250   7 
  -3   2  11 41.0048 33.8771   2 
  -3   2  11-22.4367 36.3958   7 
  -3   2  12 540.366 102.378   7 
  -3   2  12 340.054 62.1131   2 
  -3   2  13 62.1301 58.5879   7 
  -3   3 -13-74.3758 53.9277   8 
  -3   3 -12 131.668 63.1717   8 
  -3   3 -12-8.99076 46.2779   4 
  -3   3 -11 46.1303 48.8470   8 
  -3   3 -11 26.7898 49.4211   4 
  -3   3 -10 296.256 61.9726   8 
  -3   3 -10 275.229 72.9954   4 
  -3   3  -9 28.6106 38.3130   8 
  -3   3  -9 72.1392 43.4561   4 
  -3   3  -8 70.4686 40.0207   4 
  -3   3  -8-39.5494 37.1623   8 
  -3   3  -7 226.552 41.3019   8 
  -3   3  -7 266.913 57.7422   4 
  -3   3  -6 117.266 32.0890   8 
  -3   3  -6 6.58907 34.8685   4 
  -3   3  -5-10.8683 26.4244   4 
  -3   3  -5 33.3724 19.3680   8 
  -3   3  -4 1296.88 84.4274   7 
  -3   3  -4 1409.94 74.3136   8 
  -3   3  -3 83.5871 24.2827   8 
  -3   3  -3 55.5936 28.0674   7 
  -3   3  -3 67.5466 23.2974   4 
  -3   3  -2 3028.96 119.443   7 
  -3   3  -2 2869.66 110.738   4 
  -3   3  -2 2893.80 90.8188   8 
  -3   3  -1 3426.83 107.864   4 
  -3   3  -1 3439.42 95.7630   8 
  -3   3  -1 3383.94 124.074   7 
  -3   3   0 11894.1 183.311   4 
  -3   3   0 12077.1 230.065   7 
  -3   3   1 19837.6 221.525   4 
  -3   3   1 20403.6 306.769   7 
  -3   3   2 369.442 32.3580   4 
  -3   3   2 362.451 47.0419   7 
  -3   3   3 210.174 40.8928   7 
  -3   3   4 775.523 74.1198   7 
  -3   3   4 736.449 50.9421   4 
  -3   3   5-50.6088 35.7748   7 
  -3   3   5-24.2086 24.2851   4 
  -3   3   6 416.917 50.2712   4 
  -3   3   6 400.198 60.5265   7 
  -3   3   7 263.587 56.1909   7 
  -3   3   8 1096.56 113.973   7 
  -3   3   9 391.304 59.6900   2 
  -3   3   9 455.767 82.4879   7 
  -3   3  10 26.7260 31.3749   2 
  -3   3  10-2.71650 41.1080   7 
  -3   3  11 2454.66 153.073   2 
  -3   3  11 2590.03 194.968   7 
  -3   3  12-60.7785 43.3399   7 
  -3   4 -13 34.0619 47.1226   8 
  -3   4 -12 63.4465 50.1964   8 
  -3   4 -12-16.3591 46.0126   4 
  -3   4 -11 50.2198 41.4430   8 
  -3   4 -11 86.6019 63.4216   4 
  -3   4 -10 63.1164 29.5616   8 
  -3   4 -10 78.0553 40.5998   4 
  -3   4  -9 615.946 71.8025   8 
  -3   4  -9 538.412 86.1090   4 
  -3   4  -8 28.3863 40.2117   4 
  -3   4  -8 101.213 34.4479   8 
  -3   4  -7 396.836 66.3255   4 
  -3   4  -7 433.242 51.0167   8 
  -3   4  -6 1107.98 73.3927   8 
  -3   4  -6 1221.75 102.298   4 
  -3   4  -5 81.8737 38.0323   4 
  -3   4  -5 43.2472 18.2152   8 
  -3   4  -4 8461.81 224.225   4 
  -3   4  -4 7831.92 204.303   7 
  -3   4  -4 8295.05 155.916   8 
  -3   4  -3 3671.77 139.603   4 
  -3   4  -3 3574.04 129.659   7 
  -3   4  -3 3588.93 91.6283   8 
  -3   4  -2 8497.31 196.571   4 
  -3   4  -2 8065.99 192.338   7 
  -3   4  -1 331.818 39.9346   4 
  -3   4  -1 378.756 46.1930   7 
  -3   4   0 10037.2 193.229   4 
  -3   4   0 10240.3 217.100   7 
  -3   4   1 176.899 34.0721   7 
  -3   4   1 181.468 28.4618   4 
  -3   4   2 7059.19 193.305   7 
  -3   4   2 6049.51 76.2685   2 
  -3   4   3 63.2840 11.5465   2 
  -3   4   3 98.6965 35.5079   7 
  -3   4   4 2653.07 110.128   4 
  -3   4   4 2684.54 135.306   7 
  -3   4   5 572.848 58.6743   4 
  -3   4   5 555.111 73.8976   7 
  -3   4   6 8500.38 274.781   7 
  -3   4   7 511.652 79.5121   7 
  -3   4   8 1916.82 146.461   7 
  -3   4   9 68.1015 48.1651   7 
  -3   4  10 93.5559 60.8017   7 
  -3   4  11 54.0572 60.3721   7 
  -3   5 -12 72.4584 44.8138   4 
  -3   5 -12-29.2102 30.5754   8 
  -3   5 -11-18.3355 57.6326   4 
  -3   5 -11 45.3447 37.4563   8 
  -3   5 -10 22.8665 43.6568   4 
  -3   5 -10 42.2736 30.3005   8 
  -3   5  -9 25.4475 44.9438   4 
  -3   5  -9-4.70587 23.6013   8 
  -3   5  -8 20.7211 40.5730   4 
  -3   5  -8 21.0122 20.7826   8 
  -3   5  -7 177.958 35.1698   8 
  -3   5  -7 252.718 60.4655   4 
  -3   5  -6 402.835 65.2405   4 
  -3   5  -6 409.823 41.8206   8 
  -3   5  -5-1.93764 15.5349   8 
  -3   5  -5 58.0628 32.7819   4 
  -3   5  -4 571.498 55.5456   7 
  -3   5  -4 593.682 65.9223   4 
  -3   5  -4 619.532 35.0235   8 
  -3   5  -3 578.085 59.1322   4 
  -3   5  -3 549.779 54.1117   7 
  -3   5  -2 31.4106 20.3427   4 
  -3   5  -2 54.5898 19.5902   7 
  -3   5  -1 4560.47 153.481   4 
  -3   5  -1 4594.58 146.303   7 
  -3   5   0 15.3878 16.6260   4 
  -3   5   0-5.94744 11.9407   2 
  -3   5   0 9.85955 21.9189   7 
  -3   5   1 735.240 38.2309   2 
  -3   5   1 727.387 62.3216   4 
  -3   5   1 803.935 67.3663   7 
  -3   5   2 72.5197 25.6999   7 
  -3   5   2 78.5051 14.0913   2 
  -3   5   3 6832.77 214.546   7 
  -3   5   3 6706.47 128.146   2 
  -3   5   4 6328.41 143.293   2 
  -3   5   4 6274.08 219.971   7 
  -3   5   5 3974.75 186.944   7 
  -3   5   6 908.051 96.0177   7 
  -3   5   7 54.5822 47.1431   7 
  -3   5   8 160.943 58.0416   7 
  -3   5   9 1309.76 135.126   7 
  -3   5  10 21.7995 50.9352   7 
  -3   5  11 0.69237 62.8371   7 
  -3   6 -12-60.6563 75.5277   4 
  -3   6 -11-63.6084 63.7208   4 
  -3   6 -10 6.39931 23.9557   8 
  -3   6 -10-84.1962 41.1146   4 
  -3   6  -9-7.75170 28.2751   8 
  -3   6  -9-46.4351 49.0619   4 
  -3   6  -8 191.513 59.5555   4 
  -3   6  -8 136.183 28.5232   8 
  -3   6  -7 1673.64 128.153   4 
  -3   6  -7 1658.58 77.0080   8 
  -3   6  -6 14407.1 354.176   4 
  -3   6  -6 13892.8 181.759   8 
  -3   6  -5 428.487 22.5599   8 
  -3   6  -5 495.955 55.5688   7 
  -3   6  -4 1659.95 111.282   4 
  -3   6  -4 1752.30 92.8679   7 
  -3   6  -3 1.09565 19.5012   7 
  -3   6  -3 9.28043 24.4590   4 
  -3   6  -2 33.8442 26.8932   4 
  -3   6  -2 22.6122 18.5265   7 
  -3   6  -1 9.35557 14.9613   2 
  -3   6  -1-19.0886 25.1061   4 
  -3   6  -1-0.54430 20.9365   7 
  -3   6   0 1902.56 110.141   4 
  -3   6   0 2040.64 79.8750   2 
  -3   6   0 1994.84 102.582   7 
  -3   6   1 174.524 40.7274   7 
  -3   6   1 126.854 34.5127   4 
  -3   6   1 130.762 23.0895   2 
  -3   6   2 82.7674 19.9863   2 
  -3   6   2 43.6806 30.0242   7 
  -3   6   3 19501.2 380.314   7 
  -3   6   3 18691.6 254.097   2 
  -3   6   4 32154.1 365.773   2 
  -3   6   4 31080.0 523.370   7 
  -3   6   5 2579.51 159.065   7 
  -3   6   6 738.760 88.6045   7 
  -3   6   7 36.6749 35.5464   7 
  -3   6   8 36.1764 37.5664   7 
  -3   6   9 37.5020 56.1254   7 
  -3   6  10-54.5756 57.8351   7 
  -3   7 -12-17.2491 55.3375   4 
  -3   7 -11-51.6462 54.9383   4 
  -3   7 -10 34.0521 45.9119   4 
  -3   7  -9 71.3053 45.3921   4 
  -3   7  -8 24.4009 16.1846   8 
  -3   7  -8 7.69474 33.1057   4 
  -3   7  -7 95.8617 15.8096   8 
  -3   7  -7 134.077 47.2450   4 
  -3   7  -6 289.011 60.3642   4 
  -3   7  -5 596.648 76.7810   4 
  -3   7  -5 559.446 54.6230   7 
  -3   7  -4 38.6814 19.8742   7 
  -3   7  -4 72.7432 38.2576   4 
  -3   7  -3 63.7589 26.7818   4 
  -3   7  -3 22.5870 20.4741   7 
  -3   7  -2 235.426 43.3191   4 
  -3   7  -2 172.629 33.9817   7 
  -3   7  -1 77.2335 25.5599   2 
  -3   7  -1 42.4269 22.1685   7 
  -3   7  -1 9.84368 22.7622   4 
  -3   7   0 82.7180 31.2564   4 
  -3   7   0 145.683 27.1125   2 
  -3   7   0 140.320 37.1506   7 
  -3   7   1 735.219 77.7299   4 
  -3   7   1 847.001 60.0058   2 
  -3   7   1 873.832 78.2550   7 
  -3   7   2 9382.48 262.706   7 
  -3   7   2 9399.99 197.592   2 
  -3   7   3 379.099 65.1056   7 
  -3   7   3 310.255 41.1450   2 
  -3   7   4 138.083 52.5910   7 
  -3   7   5 127.799 40.3075   7 
  -3   7   6 1.49017 39.3231   7 
  -3   7   7 555.594 88.0914   7 
  -3   7   8 171.473 69.7126   7 
  -3   7   9 0.55781 43.7381   7 
  -3   8 -12 42.9811 51.0649   4 
  -3   8 -11-187.024 79.7549   4 
  -3   8 -10-19.7247 48.2013   4 
  -3   8  -9 604.898 91.8483   4 
  -3   8  -8 999.319 113.917   4 
  -3   8  -7 177.095 58.2062   4 
  -3   8  -6 39.9951 30.2502   4 
  -3   8  -5 665.795 82.5018   4 
  -3   8  -5 586.357 54.9743   7 
  -3   8  -4-3.75280 26.0530   4 
  -3   8  -4 28.0322 24.0533   7 
  -3   8  -3 1792.11 128.439   4 
  -3   8  -3 1781.66 92.9773   7 
  -3   8  -2 289.733 54.4199   4 
  -3   8  -2 363.446 48.5984   7 
  -3   8  -1 360.636 49.8783   7 
  -3   8  -1 261.766 51.0828   4 
  -3   8   0 692.665 70.4005   7 
  -3   8   0 606.235 75.6714   4 
  -3   8   1 3669.58 162.706   7 
  -3   8   1 3833.87 182.070   4 
  -3   8   2 1662.85 121.331   7 
  -3   8   3 2070.79 136.900   7 
  -3   8   4 344.884 61.1948   7 
  -3   8   5 362.421 73.1530   7 
  -3   8   6 110.251 55.9471   7 
  -3   8   7 1238.66 138.440   7 
  -3   8   8 76.4758 53.9577   7 
  -3   9 -12 43.0032 53.1317   4 
  -3   9 -11-38.4989 54.3508   4 
  -3   9 -10 22.5478 42.2284   4 
  -3   9  -9 45.0078 46.0833   4 
  -3   9  -8 5.77553 33.8516   4 
  -3   9  -7 70.0799 50.3489   4 
  -3   9  -6 124.595 51.7026   4 
  -3   9  -5-10.8182 30.4387   4 
  -3   9  -5 0.57508 17.0341   7 
  -3   9  -4 182.651 49.2347   4 
  -3   9  -4 196.191 35.6148   7 
  -3   9  -3 191.916 52.9228   4 
  -3   9  -3 146.904 35.0237   7 
  -3   9  -2 125.969 32.2228   7 
  -3   9  -2 104.264 43.7473   4 
  -3   9  -1 155.542 45.2477   4 
  -3   9  -1 111.444 35.4138   7 
  -3   9   0 300.659 59.8047   4 
  -3   9   0 281.705 52.2814   7 
  -3   9   1-0.60076 36.5680   7 
  -3   9   1 2.98098 33.3136   4 
  -3   9   2 8.53647 31.7777   7 
  -3   9   3 7.33680 30.9988   7 
  -3   9   4-32.9408 39.2308   7 
  -3   9   5 110.151 58.4626   7 
  -3   9   6 502.246 93.9641   7 
  -3   9   7 67.5751 53.8059   7 
  -3  10 -11-4.62102 61.2062   4 
  -3  10 -10-19.7111 45.5936   4 
  -3  10  -9-65.3972 63.2709   4 
  -3  10  -8-48.6581 47.8864   4 
  -3  10  -7-61.5613 53.3866   4 
  -3  10  -6 277.867 62.7329   4 
  -3  10  -5 719.267 94.7538   4 
  -3  10  -4-5.40807 17.2222   7 
  -3  10  -4-16.5320 31.9904   4 
  -3  10  -3 77.3978 36.5385   4 
  -3  10  -3 80.7669 26.0853   7 
  -3  10  -2 98.1134 33.1644   7 
  -3  10  -2 54.5575 37.8217   4 
  -3  10  -1 383.969 54.5523   7 
  -3  10  -1 279.721 66.6623   4 
  -3  10   0 428.095 62.1553   7 
  -3  10   0 455.621 77.1894   4 
  -3  10   1 173.681 49.5096   7 
  -3  10   1 54.3967 31.7386   4 
  -3  10   2 114.557 50.9662   7 
  -3  10   3 247.825 52.0252   7 
  -3  10   4 1085.04 120.774   7 
  -3  10   5 1027.91 127.540   7 
  -3  10   6 187.925 64.6882   7 
  -3  11 -10 49.5251 56.1681   4 
  -3  11  -9-176.568 65.1223   4 
  -3  11  -8-27.7988 50.9588   4 
  -3  11  -7-7.25755 39.7665   4 
  -3  11  -6 127.677 50.8973   4 
  -3  11  -5 24.7226 51.7703   4 
  -3  11  -4 101.962 43.4929   4 
  -3  11  -3-94.4372 54.9964   4 
  -3  11  -2-52.6106 46.1660   4 
  -3  11  -1 295.369 66.5961   4 
  -3  11  -1 287.484 47.6139   7 
  -3  11   0 254.562 60.9329   4 
  -3  11   0 331.692 57.6239   7 
  -3  11   1-13.1939 32.5696   4 
  -3  11   1 44.9617 32.8231   7 
  -3  11   2-4.35528 41.2059   4 
  -3  11   2 46.1736 43.9724   7 
  -3  11   3 24.1488 42.7644   7 
  -3  11   4 111.029 48.0340   7 
  -3  11   5 39.1298 50.8300   7 
  -3  12  -9 81.6280 57.5144   4 
  -3  12  -8 84.7634 49.4133   4 
  -3  12  -7-16.6352 41.6045   4 
  -3  12  -6-5.62159 40.5260   4 
  -3  12  -5 31.5702 38.4353   4 
  -3  12  -4-78.2372 57.4780   4 
  -3  12  -3 15.6526 38.9344   4 
  -3  12  -2 338.015 81.4860   4 
  -3  12  -1 16.3507 36.7616   4 
  -3  12   0 53.1974 47.4720   4 
  -3  12   1-27.5267 46.6617   4 
  -3  12   2 37.1940 44.1323   4 
  -3  12   3-56.3456 48.2137   4 
  -3  12   3 108.116 54.6400   7 
  -3  12   4 34.7365 40.2643   7 
  -3  13  -7 52.2716 46.3210   4 
  -3  13  -6 83.6554 46.4183   4 
  -3  13  -5 12.3607 36.5873   4 
  -3  13  -4 64.7717 35.4636   4 
  -3  13  -3 154.837 43.5477   4 
  -3  13  -2 22.7775 47.1614   4 
  -3  13  -1 142.392 58.6969   4 
  -3  13   0 31.0181 47.7554   4 
  -3  13   1 32.9224 50.5140   4 
  -2 -12   0 80.4986 59.6012   6 
  -2 -12   1 10.0749 51.4276   6 
  -2 -12   2 28.5040 52.6671   6 
  -2 -12   3-20.0928 49.3429   6 
  -2 -12   4-11.5196 51.8165   6 
  -2 -12   5 216.606 79.2026   6 
  -2 -12   6 635.068 108.985   6 
  -2 -12   7 0.23407 50.4058   6 
  -2 -12   8-64.2552 47.0241   6 
  -2 -12   9 4.90627 42.0963   6 
  -2 -12  10 37.5032 54.7712   6 
  -2 -11  -3-1.03050 41.5511   8 
  -2 -11  -2-52.6605 45.0932   8 
  -2 -11  -1-43.5585 43.2394   8 
  -2 -11  -1 64.3528 57.1516   6 
  -2 -11   0-3.84388 57.6715   8 
  -2 -11   0-33.8882 54.4180   6 
  -2 -11   1 580.181 90.0578   8 
  -2 -11   1 638.316 98.0025   6 
  -2 -11   2 272.850 66.7359   8 
  -2 -11   2 150.398 47.8462   6 
  -2 -11   3 35.4742 49.7863   6 
  -2 -11   3-4.57457 37.3780   8 
  -2 -11   4 120.141 50.2404   6 
  -2 -11   4 59.5881 51.0815   8 
  -2 -11   5 424.651 80.6262   6 
  -2 -11   6 88.6999 43.8667   6 
  -2 -11   7 34.1284 39.2890   6 
  -2 -11   8 67.0697 56.8003   6 
  -2 -11   9-22.4207 43.8986   6 
  -2 -11   9-46.1420 71.1185   2 
  -2 -11  10 58.3546 63.3285   6 
  -2 -11  10-62.9518 42.9154   2 
  -2 -11  11 136.179 71.4194   2 
  -2 -11  11 59.6022 44.4486   6 
  -2 -10  -4-51.9016 75.7702   8 
  -2 -10  -3 389.197 86.4729   8 
  -2 -10  -2 261.166 75.4271   6 
  -2 -10  -2 177.328 61.9411   8 
  -2 -10  -1 3.79015 33.1732   6 
  -2 -10  -1-90.1087 54.7507   8 
  -2 -10   0 71.8216 50.2682   8 
  -2 -10   0 85.1384 47.3645   6 
  -2 -10   1-53.9542 43.8290   6 
  -2 -10   1 0.15853 34.5770   8 
  -2 -10   2 53.3973 39.0986   6 
  -2 -10   2 21.7256 35.6905   8 
  -2 -10   3 346.630 64.3342   8 
  -2 -10   3 449.579 85.0084   6 
  -2 -10   4 89.9785 36.6581   8 
  -2 -10   4 7.94506 59.3910   6 
  -2 -10   5 11.8413 35.1320   6 
  -2 -10   6 73.2464 55.6885   6 
  -2 -10   7 396.243 74.9672   6 
  -2 -10   7 432.042 89.3150   2 
  -2 -10   8 34.4022 43.5562   6 
  -2 -10   8-0.58899 51.0622   2 
  -2 -10   9 258.987 60.3127   6 
  -2 -10   9 201.765 64.5223   2 
  -2 -10  10 67.5820 47.0587   6 
  -2 -10  10-69.5004 65.9607   2 
  -2 -10  11 34.3026 50.3040   2 
  -2 -10  11 41.7410 43.4928   6 
  -2 -10  12-51.6936 61.6319   2 
  -2  -9  -5 91.2872 52.0928   8 
  -2  -9  -4 90.8209 46.9543   8 
  -2  -9  -3 8.02930 38.5842   8 
  -2  -9  -2 2250.17 166.858   6 
  -2  -9  -2 2360.71 176.320   8 
  -2  -9  -1 664.826 90.6021   6 
  -2  -9  -1 634.331 89.5025   8 
  -2  -9   0 446.429 75.0259   8 
  -2  -9   0 366.767 77.1278   6 
  -2  -9   1 172.416 51.2052   8 
  -2  -9   1 241.938 58.6300   6 
  -2  -9   2-0.59642 28.2807   8 
  -2  -9   2 9.37503 29.7461   6 
  -2  -9   3 313.196 73.0699   6 
  -2  -9   3 254.874 60.3275   8 
  -2  -9   4 181.730 53.9986   6 
  -2  -9   4 198.321 55.3147   8 
  -2  -9   5 1015.86 111.377   6 
  -2  -9   6 19.6820 33.1934   6 
  -2  -9   7 205.819 60.8530   6 
  -2  -9   7 112.326 52.0665   2 
  -2  -9   8 459.889 77.5213   2 
  -2  -9   8 667.062 93.5672   6 
  -2  -9   9-57.1980 45.7962   2 
  -2  -9   9 3.63906 35.1379   6 
  -2  -9  10-22.7522 37.4458   6 
  -2  -9  10 82.5965 52.3833   2 
  -2  -9  11-146.236 65.8618   2 
  -2  -9  12-19.8088 45.8196   2 
  -2  -9  13 137.299 72.1975   2 
  -2  -8  -6 176.252 69.8473   8 
  -2  -8  -5 908.556 122.284   8 
  -2  -8  -4 49.7358 38.7004   8 
  -2  -8  -3 74.4996 33.9500   8 
  -2  -8  -2-64.8606 56.2946   8 
  -2  -8  -2 49.8310 32.8023   6 
  -2  -8  -1 226.282 57.8128   8 
  -2  -8  -1 240.617 58.6689   6 
  -2  -8   0 120.553 42.4350   8 
  -2  -8   0 149.475 48.6755   6 
  -2  -8   1 494.214 79.3992   6 
  -2  -8   1 475.343 74.2369   8 
  -2  -8   2 603.949 78.9850   8 
  -2  -8   2 713.916 91.2534   6 
  -2  -8   3 57.8928 36.3376   6 
  -2  -8   3 66.2306 37.1496   8 
  -2  -8   4 57.7517 43.4571   6 
  -2  -8   4 21.6736 31.5699   8 
  -2  -8   5 370.768 70.4553   6 
  -2  -8   6 358.309 65.7166   6 
  -2  -8   6 367.170 65.6106   2 
  -2  -8   7 22.8189 30.8365   6 
  -2  -8   7 84.6936 47.9787   2 
  -2  -8   8 64.4913 37.5760   6 
  -2  -8   8 2.04639 42.1332   2 
  -2  -8   9-24.0627 40.2937   6 
  -2  -8   9 26.4428 35.5115   2 
  -2  -8  10 507.008 92.2798   2 
  -2  -8  10 323.490 70.9332   6 
  -2  -8  11-38.2083 55.9535   2 
  -2  -8  12 324.735 88.4715   2 
  -2  -8  13 257.818 83.6371   2 
  -2  -8  14 17.6656 48.5223   2 
  -2  -7  -7 779.651 125.042   8 
  -2  -7  -6 47.7042 40.7910   8 
  -2  -7  -5 80.8540 56.8662   8 
  -2  -7  -4 8.99241 53.9827   8 
  -2  -7  -3 423.412 75.6917   8 
  -2  -7  -2 48.2092 39.9154   8 
  -2  -7  -2 12.4523 31.0781   6 
  -2  -7  -1 2980.71 165.307   8 
  -2  -7  -1 2810.33 160.287   6 
  -2  -7   0 4768.42 207.105   6 
  -2  -7   0 4777.61 204.735   8 
  -2  -7   1 16169.2 382.256   6 
  -2  -7   1 15905.1 355.979   8 
  -2  -7   2 20497.4 425.048   5 
  -2  -7   2 20109.0 388.951   8 
  -2  -7   2 20622.0 429.391   6 
  -2  -7   3 3429.09 177.813   5 
  -2  -7   3 3351.27 159.001   8 
  -2  -7   3 3564.20 181.610   6 
  -2  -7   4 238.822 54.3243   6 
  -2  -7   4 209.684 50.3396   5 
  -2  -7   4 181.025 43.8285   8 
  -2  -7   5 182.467 51.6973   5 
  -2  -7   5 202.931 49.2489   6 
  -2  -7   5 130.752 39.4314   2 
  -2  -7   6 6.53258 31.0076   6 
  -2  -7   6-52.3409 32.8738   2 
  -2  -7   7 64.6663 41.0992   2 
  -2  -7   7-11.9256 29.3328   6 
  -2  -7   8 25.6164 29.1045   6 
  -2  -7   8 98.4530 50.3649   2 
  -2  -7   9 157.173 53.2994   2 
  -2  -7   9 177.258 42.0218   6 
  -2  -7  10 9.39931 41.0628   2 
  -2  -7  11 2449.70 180.278   2 
  -2  -7  12 653.077 111.600   2 
  -2  -7  13 41.9257 51.5471   2 
  -2  -7  14-157.314 63.1923   2 
  -2  -6  -8 64.3812 68.8474   8 
  -2  -6  -7 90.9244 65.2962   8 
  -2  -6  -6 118.600 55.0522   8 
  -2  -6  -5 147.505 48.8036   8 
  -2  -6  -4 543.661 83.3688   8 
  -2  -6  -3 198.855 21.6407   1 
  -2  -6  -3 229.106 54.6793   8 
  -2  -6  -2 7762.88 250.561   6 
  -2  -6  -2 7803.02 263.960   8 
  -2  -6  -1 1032.68 88.8368   5 
  -2  -6  -1 1114.25 98.1815   6 
  -2  -6  -1 1087.86 97.3859   8 
  -2  -6   0 1432.76 112.205   6 
  -2  -6   0 1483.96 107.620   8 
  -2  -6   0 1372.44 106.016   5 
  -2  -6   1 22.6780 28.9365   5 
  -2  -6   1 1.21750 31.9394   8 
  -2  -6   1 32.6561 31.7635   6 
  -2  -6   2 615.064 65.0797   8 
  -2  -6   2 594.990 74.6859   6 
  -2  -6   2 606.163 70.6543   5 
  -2  -6   3 1586.82 103.161   8 
  -2  -6   3 1601.28 112.019   5 
  -2  -6   3 1606.52 113.148   6 
  -2  -6   4 1138.97 89.3139   8 
  -2  -6   4 1289.11 101.415   5 
  -2  -6   4 1284.74 102.256   2 
  -2  -6   4 1328.98 101.971   6 
  -2  -6   5 286.178 49.5872   6 
  -2  -6   5 318.721 55.5083   5 
  -2  -6   5 373.908 59.2317   2 
  -2  -6   6 290.934 51.6570   5 
  -2  -6   6 406.242 61.4028   6 
  -2  -6   6 289.211 25.7345   7 
  -2  -6   6 366.577 58.3003   2 
  -2  -6   7 165.979 43.9356   6 
  -2  -6   7 206.435 54.1949   2 
  -2  -6   7 199.701 43.3343   5 
  -2  -6   7 187.004 21.2695   7 
  -2  -6   8 3582.46 184.148   2 
  -2  -6   8 3534.59 96.1710   7 
  -2  -6   8 3928.58 176.419   6 
  -2  -6   9 1425.82 124.218   2 
  -2  -6   9 1403.15 69.0739   7 
  -2  -6  10 2355.50 162.611   2 
  -2  -6  11 72.3855 57.0672   2 
  -2  -6  12-45.9383 36.9146   2 
  -2  -6  13 58.7426 59.4247   2 
  -2  -6  14 42.2631 51.4028   2 
  -2  -5  -9 400.418 87.9779   8 
  -2  -5  -8 398.791 90.1660   8 
  -2  -5  -7 249.626 60.4308   8 
  -2  -5  -6-34.3368 43.4428   8 
  -2  -5  -5 315.552 64.1853   8 
  -2  -5  -4 9.87997 36.4590   8 
  -2  -5  -3 383.544 35.3867   1 
  -2  -5  -3 380.319 61.4101   8 
  -2  -5  -3 406.454 52.8584   5 
  -2  -5  -2 1224.46 91.6542   5 
  -2  -5  -2 1194.43 49.7169   1 
  -2  -5  -2 1249.35 103.013   8 
  -2  -5  -2 1168.12 90.6427   6 
  -2  -5  -1 58867.1 624.805   5 
  -2  -5  -1 59489.8 631.022   6 
  -2  -5  -1 60464.4 650.887   8 
  -2  -5   0 1682.98 104.908   5 
  -2  -5   0 1787.13 109.099   8 
  -2  -5   0 1720.30 107.893   6 
  -2  -5   1 13099.7 292.029   5 
  -2  -5   1 13206.9 296.938   6 
  -2  -5   1 12761.2 279.465   8 
  -2  -5   2 54.9909 26.0151   5 
  -2  -5   2 65.7108 21.9118   8 
  -2  -5   2 84.4509 27.4221   6 
  -2  -5   3 4337.28 159.317   8 
  -2  -5   3 4227.65 167.160   5 
  -2  -5   3 4421.59 172.686   6 
  -2  -5   4 12.0183 12.2635   7 
  -2  -5   4 7.42929 25.1457   5 
  -2  -5   4-13.3213 28.6091   6 
  -2  -5   4 15.3784 30.7835   2 
  -2  -5   5 304.773 45.8149   5 
  -2  -5   5 302.803 29.2651   7 
  -2  -5   5 244.358 46.7588   2 
  -2  -5   5 293.488 48.4999   6 
  -2  -5   6 2020.65 73.5884   7 
  -2  -5   6 1945.21 116.935   2 
  -2  -5   6 1949.00 117.192   6 
  -2  -5   6 2125.13 119.515   5 
  -2  -5   7 143.644 39.5783   5 
  -2  -5   7 59.8299 18.1529   7 
  -2  -5   7 74.8171 36.8304   2 
  -2  -5   7 65.7223 33.4450   6 
  -2  -5   8 990.338 97.6015   2 
  -2  -5   8 832.233 57.0555   7 
  -2  -5   8 790.658 75.4489   5 
  -2  -5   9 11415.3 322.898   2 
  -2  -5   9 11324.4 223.887   7 
  -2  -5  10 71.5917 42.3463   2 
  -2  -5  10 85.8932 23.4553   7 
  -2  -5  11 260.220 47.2342   7 
  -2  -5  11 294.455 69.6905   2 
  -2  -5  12 29.6434 43.0125   2 
  -2  -5  13-22.1043 50.9099   2 
  -2  -5  14 101.072 57.2103   2 
  -2  -5  15 4.94347 45.9750   2 
  -2  -4 -10-16.4810 54.7784   8 
  -2  -4  -9 33.4014 46.6029   8 
  -2  -4  -8 131.466 56.3948   8 
  -2  -4  -7 107.074 57.2343   8 
  -2  -4  -6 2246.36 156.022   8 
  -2  -4  -5 187.555 57.4852   8 
  -2  -4  -4 917.829 72.5652   5 
  -2  -4  -4 855.018 87.9022   8 
  -2  -4  -4 831.354 61.0372   1 
  -2  -4  -3 626.949 60.7563   5 
  -2  -4  -3 579.447 46.2225   1 
  -2  -4  -3 712.616 76.6818   8 
  -2  -4  -2 453.977 53.2895   5 
  -2  -4  -2 396.090 34.4031   1 
  -2  -4  -2 403.449 56.0398   8 
  -2  -4  -1 7138.90 198.358   5 
  -2  -4  -1 7336.20 118.111   1 
  -2  -4  -1 7080.46 211.438   8 
  -2  -4  -1 7531.77 205.260   6 
  -2  -4   0 1.03378 19.6159   6 
  -2  -4   0 9.06316 27.8458   8 
  -2  -4   0 5.48563 19.7777   5 
  -2  -4   0 8.71619 8.08062   1 
  -2  -4   1 236.169 41.3548   5 
  -2  -4   1 297.139 42.6551   8 
  -2  -4   1 302.640 43.5474   6 
  -2  -4   2 5002.67 167.795   5 
  -2  -4   2 4772.34 152.067   8 
  -2  -4   2 5075.25 168.194   6 
  -2  -4   3 2686.12 123.016   5 
  -2  -4   3 2518.29 113.564   8 
  -2  -4   3 2487.81 116.130   2 
  -2  -4   3 2629.51 86.6322   7 
  -2  -4   3 2676.67 123.475   6 
  -2  -4   4 825.216 68.6057   5 
  -2  -4   4 687.937 64.1346   2 
  -2  -4   4 747.664 44.5538   7 
  -2  -4   4 746.910 65.4090   6 
  -2  -4   5 7604.20 205.968   6 
  -2  -4   5 7529.29 205.920   2 
  -2  -4   5 7390.64 141.292   7 
  -2  -4   5 7138.90 201.698   5 
  -2  -4   6 41.4802 24.5142   5 
  -2  -4   6 54.8431 15.8787   7 
  -2  -4   6 34.4088 26.8892   2 
  -2  -4   7 1157.95 91.8531   2 
  -2  -4   7 1111.42 81.0217   5 
  -2  -4   7 1089.71 63.9162   7 
  -2  -4   8-5.69248 19.5685   5 
  -2  -4   8 11.3037 17.0790   7 
  -2  -4   8-6.10673 28.6455   2 
  -2  -4   9 839.254 69.5039   7 
  -2  -4   9 762.302 80.4633   2 
  -2  -4  10 69.6595 39.3419   2 
  -2  -4  10 77.1623 26.3885   7 
  -2  -4  11 216.921 58.7736   2 
  -2  -4  11 189.780 36.7568   7 
  -2  -4  12 5.20635 38.6497   2 
  -2  -4  12 22.7759 29.3317   7 
  -2  -4  13 77.7013 49.2263   2 
  -2  -4  13 16.9665 29.2323   7 
  -2  -4  14-66.8895 55.4378   2 
  -2  -4  15-100.654 77.7681   2 
  -2  -3 -10 23.1132 54.6928   8 
  -2  -3  -9 101.168 41.5369   8 
  -2  -3  -8 478.738 82.0653   8 
  -2  -3  -7 2312.38 160.467   8 
  -2  -3  -6 575.826 75.4530   8 
  -2  -3  -5 41.7149 23.3945   5 
  -2  -3  -5 8.15381 33.3268   8 
  -2  -3  -4 64.2826 23.4013   5 
  -2  -3  -4 74.1717 24.1048   1 
  -2  -3  -4 78.6431 34.9323   8 
  -2  -3  -3 1935.60 95.2825   5 
  -2  -3  -3 1938.34 115.118   8 
  -2  -3  -3 1973.40 85.4332   1 
  -2  -3  -2 76.0464 19.5708   1 
  -2  -3  -2 78.0242 24.7853   5 
  -2  -3  -1 8590.53 201.214   5 
  -2  -3  -1 8645.28 140.502   1 
  -2  -3   0 3470.90 81.3082   1 
  -2  -3   1 7652.65 160.623   7 
  -2  -3   1 7430.51 120.564   1 
  -2  -3   2 86594.8 625.464   8 
  -2  -3   2 86368.6 506.220   7 
  -2  -3   3 50953.5 376.520   7 
  -2  -3   3 50938.5 465.634   2 
  -2  -3   3 49839.3 475.830   8 
  -2  -3   4 907.380 66.3149   2 
  -2  -3   4 891.945 51.5989   7 
  -2  -3   5 45.1119 16.6485   7 
  -2  -3   5 37.7537 20.8856   5 
  -2  -3   5-0.27423 23.5548   2 
  -2  -3   6 46.7071 17.9105   5 
  -2  -3   6 47.4824 22.5440   4 
  -2  -3   6 51.4861 18.1719   7 
  -2  -3   7 2983.17 137.269   2 
  -2  -3   7 2892.76 111.027   7 
  -2  -3   7 3064.19 120.979   5 
  -2  -3   7 2936.77 123.091   4 
  -2  -3   8 379.859 42.5778   5 
  -2  -3   8 328.793 49.9502   2 
  -2  -3   8 388.099 47.0017   7 
  -2  -3   9 153.708 46.8913   2 
  -2  -3   9 171.910 31.8683   5 
  -2  -3   9 226.690 44.3847   7 
  -2  -3  10 175.993 36.5674   7 
  -2  -3  10 203.954 57.0602   2 
  -2  -3  11-15.2654 33.0067   7 
  -2  -3  11-24.8215 40.0920   2 
  -2  -3  12 1470.36 121.699   7 
  -2  -3  12 1603.85 141.196   2 
  -2  -3  13 273.519 74.6206   2 
  -2  -3  13 192.454 59.0420   7 
  -2  -3  14 223.113 68.7513   2 
  -2  -3  14 84.7567 47.1753   7 
  -2  -3  15 41.1015 44.5506   2 
  -2  -2 -11 121.998 67.9309   8 
  -2  -2 -10 58.9048 56.6572   8 
  -2  -2  -9 181.961 61.6320   8 
  -2  -2  -8 1506.35 133.479   8 
  -2  -2  -7 46.1841 32.0068   8 
  -2  -2  -6 19.8670 28.4580   8 
  -2  -2  -6 13.8940 12.2427   5 
  -2  -2  -5 142.395 25.8726   5 
  -2  -2  -5 167.353 44.1920   8 
  -2  -2  -4 1334.59 78.5518   1 
  -2  -2  -4 1236.94 92.7277   8 
  -2  -2  -4 1283.75 71.2263   5 
  -2  -2  -3 842.501 56.2850   1 
  -2  -2  -2 1252.55 63.1570   1 
  -2  -2  -1 811.198 46.3572   1 
  -2  -2   0 77.2915 24.4483   7 
  -2  -2   0 54.8241 13.5080   1 
  -2  -2   1 27100.0 289.596   7 
  -2  -2   1 27260.9 247.075   1 
  -2  -2   2 26378.8 273.105   7 
  -2  -2   2 26128.6 259.347   1 
  -2  -2   3 1406.66 69.6522   2 
  -2  -2   3 1491.87 65.5977   7 
  -2  -2   4 3592.20 115.016   2 
  -2  -2   4 3507.60 103.611   7 
  -2  -2   5 562.616 50.7196   2 
  -2  -2   5 561.265 43.8250   4 
  -2  -2   5 513.062 44.0971   7 
  -2  -2   6 447.258 42.3341   4 
  -2  -2   6 502.870 47.6815   7 
  -2  -2   6 539.503 52.1735   2 
  -2  -2   7 0.91952 19.7619   7 
  -2  -2   7 11.8884 13.6730   5 
  -2  -2   7 29.0254 18.1595   4 
  -2  -2   7-11.0592 21.9319   2 
  -2  -2   8 200.628 31.1024   5 
  -2  -2   8 176.231 39.3728   2 
  -2  -2   8 255.687 45.6429   7 
  -2  -2   9 76.9298 18.3083   5 
  -2  -2   9 47.0539 29.0913   2 
  -2  -2   9 91.0914 30.5538   7 
  -2  -2  10 1025.89 93.7089   7 
  -2  -2  10 867.783 94.2250   2 
  -2  -2  11 309.187 62.9855   2 
  -2  -2  11 133.980 45.6076   7 
  -2  -2  12 97.7136 46.6986   2 
  -2  -2  12 261.913 60.3992   7 
  -2  -2  13 45.9016 49.0180   2 
  -2  -2  13 130.298 49.5224   7 
  -2  -2  14-56.6410 60.1397   2 
  -2  -2  14-22.4829 38.1790   7 
  -2  -2  15 98.1858 48.9209   2 
  -2  -2  15 14.8513 39.4727   7 
  -2  -1 -12 143.837 79.4439   8 
  -2  -1 -11 41.6553 47.1915   8 
  -2  -1 -10 375.537 78.7494   8 
  -2  -1  -9 192.182 58.9670   8 
  -2  -1  -8 468.076 77.0032   8 
  -2  -1  -7 47.1205 36.4398   4 
  -2  -1  -7 53.2589 12.7289   5 
  -2  -1  -7 14.6227 35.4177   8 
  -2  -1  -6 179.901 42.8210   8 
  -2  -1  -6 175.709 24.5693   5 
  -2  -1  -6 108.970 31.7806   4 
  -2  -1  -5 1279.95 97.5066   4 
  -2  -1  -5 1079.77 85.6210   8 
  -2  -1  -4 1759.01 103.606   4 
  -2  -1  -4 1921.12 94.8711   1 
  -2  -1  -4 1728.00 101.536   8 
  -2  -1  -3 559.128 55.1568   4 
  -2  -1  -3 533.584 45.5995   1 
  -2  -1  -2 24017.4 276.991   1 
  -2  -1  -1 2794.84 86.5842   1 
  -2  -1  -1 2622.28 98.2832   7 
  -2  -1   0 57515.2 372.429   1 
  -2  -1   0 57407.7 428.893   7 
  -2  -1   1 1492.73 67.6827   7 
  -2  -1   1 1413.42 60.7965   1 
  -2  -1   2 11539.3 178.551   7 
  -2  -1   2 12067.1 166.311   2 
  -2  -1   2 11901.1 182.837   1 
  -2  -1   3 1185.76 59.4171   7 
  -2  -1   3 1246.11 56.8024   2 
  -2  -1   4 3120.47 96.2456   2 
  -2  -1   4 3114.28 77.8717   4 
  -2  -1   4 3075.13 102.805   7 
  -2  -1   5 11243.5 175.437   4 
  -2  -1   5 11154.9 202.809   2 
  -2  -1   5 10926.8 209.526   7 
  -2  -1   6 4245.80 123.735   4 
  -2  -1   6 4237.20 137.950   2 
  -2  -1   6 4018.89 137.368   7 
  -2  -1   7 2362.32 104.068   4 
  -2  -1   7 2460.64 115.057   2 
  -2  -1   7 2542.64 119.922   7 
  -2  -1   8 610.251 65.4532   2 
  -2  -1   8 459.655 39.6063   5 
  -2  -1   9 750.571 43.5738   5 
  -2  -1   9 817.800 82.0853   2 
  -2  -1  10 2335.62 143.643   2 
  -2  -1  11 73.6617 40.2484   2 
  -2  -1  12 8.32747 42.9050   2 
  -2  -1  13 21.7776 55.4544   2 
  -2  -1  14 48.3611 49.0340   2 
  -2  -1  14 108.396 58.4016   7 
  -2  -1  15 310.843 75.7371   2 
  -2  -1  15 313.195 83.7545   7 
  -2   0 -12 151.659 52.5116   8 
  -2   0 -11 78.4495 42.9977   4 
  -2   0 -11 76.5422 44.4740   8 
  -2   0 -10 537.368 94.0565   8 
  -2   0 -10 585.865 92.1963   4 
  -2   0  -9 42.1851 34.7391   8 
  -2   0  -9 6.41794 42.4400   4 
  -2   0  -8-41.0051 36.3236   8 
  -2   0  -8-13.9498 38.9382   4 
  -2   0  -7 414.261 63.5941   8 
  -2   0  -7 312.315 26.9068   5 
  -2   0  -7 431.392 69.1427   4 
  -2   0  -6 507.823 66.6398   4 
  -2   0  -6 484.844 61.5495   8 
  -2   0  -5 17915.4 327.373   8 
  -2   0  -5 17837.9 347.748   4 
  -2   0  -4 10619.9 227.875   8 
  -2   0  -4 11122.8 247.849   4 
  -2   0  -4 10740.3 223.172   1 
  -2   0  -4 11062.6 239.072   3 
  -2   0  -3 61.1996 25.3122   3 
  -2   0  -3 53.1201 29.4522   4 
  -2   0  -3-5.82687 22.0531   8 
  -2   0  -3 46.0220 21.6184   1 
  -2   0  -2 5736.83 145.050   8 
  -2   0  -2 5809.67 139.528   1 
  -2   0  -2 5994.42 147.112   4 
  -2   0  -1 21390.9 256.807   8 
  -2   0  -1 21721.1 238.195   4 
  -2   0  -1 22351.3 252.293   1 
  -2   0  -1 22520.9 271.533   7 
  -2   0   0 24635.0 269.999   7 
  -2   0   0 24618.1 199.101   4 
  -2   0   0 24855.4 256.144   1 
  -2   0   1 26718.2 272.276   7 
  -2   0   2 62.5927 14.8811   2 
  -2   0   2 89.2836 25.6156   7 
  -2   0   3 14020.3 157.086   2 
  -2   0   3 14092.7 113.034   4 
  -2   0   3 14022.8 212.457   7 
  -2   0   4 43532.3 327.246   2 
  -2   0   4 43307.7 279.560   4 
  -2   0   5 47625.5 462.491   7 
  -2   0   5 47735.3 360.868   4 
  -2   0   5 46563.2 400.740   2 
  -2   0   6 528.664 46.3413   4 
  -2   0   6 545.224 52.1741   2 
  -2   0   7 90.9136 25.6180   2 
  -2   0   7 124.222 24.2470   4 
  -2   0   8 816.107 73.2159   2 
  -2   0   9 528.358 30.4188   5 
  -2   0   9 806.425 80.8864   2 
  -2   0  10 267.156 55.4612   2 
  -2   0  11 93.4413 47.2045   2 
  -2   0  12 145.738 53.9853   2 
  -2   0  13-4.30877 41.7978   2 
  -2   0  14 161.310 67.7438   2 
  -2   1 -13 122.648 72.8375   8 
  -2   1 -12-11.1648 64.8175   4 
  -2   1 -12 26.9206 53.9908   8 
  -2   1 -11 14.0071 37.5712   4 
  -2   1 -11-29.5701 47.5329   8 
  -2   1 -10 49.6300 39.6926   8 
  -2   1 -10-12.3704 44.4520   4 
  -2   1  -9 30.3843 42.1339   4 
  -2   1  -9 17.4412 32.1276   8 
  -2   1  -8 1696.29 128.105   4 
  -2   1  -8 1774.69 126.664   8 
  -2   1  -7 218.452 57.4456   4 
  -2   1  -7 110.479 34.1264   8 
  -2   1  -6 96.8872 33.2918   8 
  -2   1  -6 100.440 40.3074   4 
  -2   1  -5 419.997 49.3483   8 
  -2   1  -5 375.002 45.3480   3 
  -2   1  -5 367.548 50.8538   4 
  -2   1  -4 191.584 33.0283   8 
  -2   1  -4 189.588 33.4074   3 
  -2   1  -4 272.128 41.2138   4 
  -2   1  -4 202.862 36.7829   1 
  -2   1  -3 209.336 30.7643   8 
  -2   1  -3 246.915 36.5604   4 
  -2   1  -2 5267.61 123.158   8 
  -2   1  -2 5721.95 133.631   4 
  -2   1  -2 5406.00 135.921   7 
  -2   1  -1 194.389 22.2445   4 
  -2   1  -1 110.192 22.1757   8 
  -2   1  -1 175.975 29.3981   7 
  -2   1   0 23665.4 233.943   8 
  -2   1   0 23460.7 180.096   4 
  -2   1   0 23822.0 257.466   7 
  -2   1   1 18912.1 114.868   4 
  -2   1   1 18551.9 229.387   7 
  -2   1   2 33151.5 156.666   4 
  -2   1   2 31951.9 148.782   2 
  -2   1   3 58998.1 293.581   4 
  -2   1   3 59438.9 293.935   2 
  -2   1   3 59006.7 463.991   7 
  -2   1   4 592.623 53.0346   7 
  -2   1   4 561.338 37.1912   4 
  -2   1   4 583.971 37.7429   2 
  -2   1   5 538.702 42.9043   4 
  -2   1   6 1368.19 74.9401   4 
  -2   1   7 46.2726 30.7311   3 
  -2   1   8 46.0862 30.8478   3 
  -2   1   9 367.869 54.5983   2 
  -2   1   9 399.087 64.0477   3 
  -2   1  10 750.465 85.8761   2 
  -2   1  11 44.8053 30.3610   2 
  -2   1  12 118.243 53.1858   2 
  -2   1  13 959.689 115.986   2 
  -2   1  14 150.597 58.1980   2 
  -2   2 -13-2.49668 46.2407   4 
  -2   2 -13 79.2844 60.3510   8 
  -2   2 -12 399.332 80.3093   8 
  -2   2 -12 404.635 88.1356   4 
  -2   2 -11 198.309 54.7081   8 
  -2   2 -11 352.546 83.0799   4 
  -2   2 -10 113.184 54.9541   4 
  -2   2 -10 142.541 50.5719   8 
  -2   2  -9 7.16958 40.2519   4 
  -2   2  -9 47.8750 35.8474   8 
  -2   2  -8 1016.48 90.7459   8 
  -2   2  -8 1017.50 102.300   4 
  -2   2  -7 3200.57 141.748   8 
  -2   2  -7 2982.06 159.250   4 
  -2   2  -6 1026.23 87.1236   4 
  -2   2  -6 1002.82 73.4454   8 
  -2   2  -6 950.560 72.6854   3 
  -2   2  -5 3756.82 148.550   4 
  -2   2  -5 3550.96 122.682   8 
  -2   2  -5 3448.38 126.036   3 
  -2   2  -4 4761.42 126.320   8 
  -2   2  -4 4805.16 153.969   4 
  -2   2  -3 1417.22 62.4808   8 
  -2   2  -3 1414.24 76.0586   4 
  -2   2  -3 1434.68 72.3333   7 
  -2   2  -2 43035.4 371.733   7 
  -2   2  -2 43504.5 301.253   8 
  -2   2  -2 43247.3 366.689   4 
  -2   2  -1 17577.1 205.803   4 
  -2   2  -1 17883.6 179.620   8 
  -2   2  -1 17972.7 227.686   7 
  -2   2   0 54717.6 319.535   4 
  -2   2   0 55924.3 394.426   7 
  -2   2   1 2814.55 70.3387   4 
  -2   2   1 2810.04 94.8355   7 
  -2   2   2 35146.4 350.239   7 
  -2   2   3 179.690 33.2802   7 
  -2   2   3 158.584 21.8687   4 
  -2   2   3 194.147 33.0545   1 
  -2   2   4 13843.9 212.091   4 
  -2   2   5 13.6758 16.9235   4 
  -2   2   5 38.4497 28.2526   3 
  -2   2   6 3139.10 125.287   4 
  -2   2   6 3083.05 147.179   3 
  -2   2   7 126.058 33.6349   3 
  -2   2   8 9088.04 287.131   3 
  -2   2   9 346.581 68.1674   3 
  -2   2  10 494.737 76.1369   3 
  -2   2  11 1.14276 31.1653   2 
  -2   2  11-6.49221 33.5176   3 
  -2   2  12 29.9145 38.8688   2 
  -2   2  13 4.17414 51.5727   2 
  -2   3 -14 109.534 58.3988   8 
  -2   3 -13-12.2643 54.7528   4 
  -2   3 -13 32.9109 57.7154   8 
  -2   3 -12 379.606 88.0826   4 
  -2   3 -12 389.289 69.4678   8 
  -2   3 -11 117.513 51.5495   4 
  -2   3 -11 75.3962 34.1896   8 
  -2   3 -10 110.154 59.5306   4 
  -2   3 -10 20.3229 35.5133   8 
  -2   3  -9 40.4500 40.0054   4 
  -2   3  -9 60.1388 35.7555   8 
  -2   3  -8 303.038 66.8642   4 
  -2   3  -8 208.109 43.3080   8 
  -2   3  -7-12.2372 31.8844   8 
  -2   3  -7 55.8140 22.8552   3 
  -2   3  -7-2.47761 35.3417   4 
  -2   3  -6 184.755 43.5241   4 
  -2   3  -6 194.252 35.1378   8 
  -2   3  -5 2740.57 99.4737   8 
  -2   3  -5 2577.82 123.051   4 
  -2   3  -4 1367.19 83.8113   4 
  -2   3  -4 1494.37 64.5021   8 
  -2   3  -3 208.793 22.5232   8 
  -2   3  -3 187.995 30.1873   7 
  -2   3  -2 2345.24 83.8778   7 
  -2   3  -2 2324.37 92.1387   4 
  -2   3  -2 2397.07 56.7978   8 
  -2   3  -1 14.9193 18.2975   1 
  -2   3  -1 14.9914 16.5749   4 
  -2   3  -1 5.98581 16.1389   7 
  -2   3   0 1815.26 74.4752   7 
  -2   3   0 1746.54 77.7299   1 
  -2   3   0 1748.93 47.4517   2 
  -2   3   1 14819.6 222.384   7 
  -2   3   1 14215.5 124.187   2 
  -2   3   1 14458.1 222.916   1 
  -2   3   2 41.9939 16.8338   1 
  -2   3   2 59.8033 23.0965   7 
  -2   3   3 2176.22 104.793   3 
  -2   3   3 2059.45 94.9058   1 
  -2   3   3 2223.48 104.418   7 
  -2   3   4-3.02349 15.7180   4 
  -2   3   4-14.9915 19.0832   3 
  -2   3   5 14314.6 271.924   4 
  -2   3   5 14074.6 306.423   3 
  -2   3   6 8384.43 255.104   3 
  -2   3   7 5698.06 224.418   3 
  -2   3   8 1077.40 105.402   3 
  -2   3   9 67.9881 45.7432   3 
  -2   3  10 170.365 46.8298   3 
  -2   3  11 817.952 113.551   3 
  -2   3  12-103.569 73.7136   3 
  -2   3  13 28.1498 40.5680   2 
  -2   4 -14 204.160 58.1278   8 
  -2   4 -13 153.420 76.4112   4 
  -2   4 -13 98.2051 45.7520   8 
  -2   4 -12 133.553 56.3901   4 
  -2   4 -12 192.800 60.3590   8 
  -2   4 -11-33.2067 37.7585   8 
  -2   4 -11 11.7838 40.8145   4 
  -2   4 -10 127.011 52.8450   4 
  -2   4 -10 90.8068 35.3752   8 
  -2   4  -9-26.2870 36.3969   8 
  -2   4  -9-4.28940 41.7543   4 
  -2   4  -8 57.3988 30.4523   8 
  -2   4  -8 109.065 48.9860   4 
  -2   4  -7 41.3839 31.0882   4 
  -2   4  -7 76.8354 28.4979   8 
  -2   4  -6 1536.65 76.9331   8 
  -2   4  -6 1597.23 107.916   4 
  -2   4  -5 9506.88 242.841   4 
  -2   4  -5 9283.52 162.226   8 
  -2   4  -4 139484. 850.036   4 
  -2   4  -4 139470. 507.108   8 
  -2   4  -3 5094.01 154.707   4 
  -2   4  -3 4988.81 70.4800   8 
  -2   4  -3 5076.12 125.545   7 
  -2   4  -2 11250.0 181.239   7 
  -2   4  -2 11251.2 217.658   4 
  -2   4  -1 2223.57 97.7502   4 
  -2   4  -1 2247.48 84.2918   7 
  -2   4  -1 2359.75 96.1419   1 
  -2   4  -1 2572.44 78.8085   2 
  -2   4   0 552.078 47.8145   1 
  -2   4   0 498.956 48.9743   4 
  -2   4   0 605.231 36.0421   2 
  -2   4   0 588.384 45.4447   7 
  -2   4   1 332.417 27.2416   2 
  -2   4   1 312.295 37.0569   1 
  -2   4   1 384.247 41.5389   7 
  -2   4   2 10578.3 220.065   7 
  -2   4   2 10487.1 158.253   2 
  -2   4   2 10054.6 221.514   3 
  -2   4   2 10668.6 206.532   1 
  -2   4   3 1102.98 79.7604   3 
  -2   4   4 154.899 29.4056   3 
  -2   4   5 24778.3 434.491   3 
  -2   4   6 48336.8 646.359   3 
  -2   4   7 3236.43 176.385   3 
  -2   4   8 633.643 85.5875   3 
  -2   4   9 45.3070 44.3042   3 
  -2   4  10 44.2854 41.3188   3 
  -2   4  11 9.92458 38.8198   3 
  -2   4  12 35.8190 48.2678   3 
  -2   5 -13-106.284 71.7340   4 
  -2   5 -13 62.6539 39.0946   8 
  -2   5 -12 185.575 68.8417   4 
  -2   5 -12 13.9349 33.6323   8 
  -2   5 -11 136.506 48.9166   8 
  -2   5 -11 31.8011 40.6544   4 
  -2   5 -10 144.996 46.0733   8 
  -2   5 -10 44.5192 40.1340   4 
  -2   5  -9 76.5138 28.0361   8 
  -2   5  -9 144.892 55.1208   4 
  -2   5  -8 17.5481 42.6101   4 
  -2   5  -8-18.4815 19.2751   8 
  -2   5  -7 1465.17 113.108   4 
  -2   5  -7 1379.72 77.1129   8 
  -2   5  -6 49.7449 15.3586   8 
  -2   5  -6 35.6938 31.3216   4 
  -2   5  -5 505.951 62.4224   4 
  -2   5  -5 443.886 30.5488   8 
  -2   5  -4 650.025 64.6885   4 
  -2   5  -4 524.546 21.5409   8 
  -2   5  -4 644.173 47.4515   7 
  -2   5  -3 5161.62 166.290   4 
  -2   5  -3 5134.33 157.788   1 
  -2   5  -3 5193.00 144.847   2 
  -2   5  -3 4879.51 119.715   7 
  -2   5  -2 398.802 48.1231   4 
  -2   5  -2 301.668 38.5978   1 
  -2   5  -2 377.120 37.8131   2 
  -2   5  -2 284.773 33.5751   7 
  -2   5  -1 31.4477 19.3192   4 
  -2   5  -1 11.2194 14.6466   7 
  -2   5  -1 19.6632 13.3883   2 
  -2   5  -1 27.5524 23.3108   1 
  -2   5   0 671.757 61.1219   4 
  -2   5   0 681.135 45.9613   2 
  -2   5   0 733.601 56.1187   1 
  -2   5   0 763.500 53.2326   7 
  -2   5   1 33.2550 17.0305   1 
  -2   5   1 37.1142 19.8741   3 
  -2   5   1 45.2042 16.3269   2 
  -2   5   1 55.9555 21.6591   7 
  -2   5   2 21.7071 23.9631   7 
  -2   5   2 21.2941 19.2332   3 
  -2   5   2 56.2287 22.3256   1 
  -2   5   2 62.1819 21.4233   2 
  -2   5   3 1090.05 84.0988   3 
  -2   5   4 18128.1 368.528   3 
  -2   5   5 698.826 78.6288   3 
  -2   5   6 437.133 75.3935   3 
  -2   5   7 227.431 63.5353   3 
  -2   5   8 12.8796 35.8470   3 
  -2   5   9 751.875 101.061   3 
  -2   5  10 96.7480 35.5422   3 
  -2   5  11 77.2593 51.3703   3 
  -2   6 -13-33.8603 50.1453   4 
  -2   6 -12 71.0066 38.3040   8 
  -2   6 -12-63.5163 54.3369   4 
  -2   6 -11 175.834 53.1931   4 
  -2   6 -11 220.040 48.5132   8 
  -2   6 -10 11.5304 28.8770   8 
  -2   6 -10 75.5557 53.6549   4 
  -2   6  -9-29.7666 54.1823   4 
  -2   6  -9 13.0630 22.2474   8 
  -2   6  -8 99.9126 49.9343   4 
  -2   6  -8 94.3363 25.9908   8 
  -2   6  -7 3663.94 180.698   4 
  -2   6  -7 3767.74 108.790   8 
  -2   6  -6 6535.24 114.861   8 
  -2   6  -6 7110.48 236.099   4 
  -2   6  -5 1484.78 107.750   4 
  -2   6  -4 445.111 38.3673   7 
  -2   6  -4 496.349 62.7198   4 
  -2   6  -3 4475.86 170.810   4 
  -2   6  -3 4681.70 149.048   2 
  -2   6  -3 4310.90 111.855   7 
  -2   6  -2 483.936 59.3452   4 
  -2   6  -2 477.592 51.0783   1 
  -2   6  -2 426.013 40.6531   7 
  -2   6  -2 466.123 47.5449   2 
  -2   6  -1 9360.92 186.210   7 
  -2   6  -1 9491.45 237.550   4 
  -2   6  -1 9644.25 195.813   2 
  -2   6  -1 9518.24 200.587   1 
  -2   6   0 4839.01 136.066   2 
  -2   6   0 4675.62 139.570   1 
  -2   6   0 4715.08 140.525   7 
  -2   6   1 1415.63 76.6633   2 
  -2   6   1 1448.07 79.0149   1 
  -2   6   1 1388.64 87.3824   3 
  -2   6   1 1453.87 86.1511   7 
  -2   6   2 2744.18 109.869   2 
  -2   6   2 2579.12 124.731   7 
  -2   6   2 2751.72 110.565   1 
  -2   6   2 2678.19 129.347   3 
  -2   6   3 4765.50 186.432   3 
  -2   6   4 3298.92 165.867   3 
  -2   6   5 3495.90 183.646   3 
  -2   6   6 456.636 73.7810   3 
  -2   6   7 580.557 87.5306   3 
  -2   6   8 15.2715 38.6626   3 
  -2   6   9 1447.50 152.148   3 
  -2   6  10 17.2650 39.6900   3 
  -2   7 -13 18.3314 47.8910   4 
  -2   7 -12 89.1261 52.1040   4 
  -2   7 -11 153.145 64.0281   4 
  -2   7 -10-12.2341 29.7283   8 
  -2   7 -10 6.97082 41.4153   4 
  -2   7  -9 5.33550 20.8453   8 
  -2   7  -9 8.23518 34.7117   4 
  -2   7  -8 16.6004 14.8444   8 
  -2   7  -8 22.9158 31.5443   4 
  -2   7  -7 81.0561 15.0090   8 
  -2   7  -7 47.5819 41.4292   4 
  -2   7  -7 53.8663 14.3407   8 
  -2   7  -6-9.04149 38.3372   4 
  -2   7  -5-42.9983 34.8391   4 
  -2   7  -4 45.4124 32.9645   4 
  -2   7  -4 43.3282 14.5018   7 
  -2   7  -3 21.3302 26.9793   4 
  -2   7  -3 21.6034 17.2629   7 
  -2   7  -2 90.4188 23.0536   7 
  -2   7  -2 136.492 34.7198   4 
  -2   7  -2 118.685 26.2075   1 
  -2   7  -1 591.903 66.6146   4 
  -2   7  -1 601.725 52.5522   7 
  -2   7  -1 611.349 55.5893   1 
  -2   7   0 2459.17 105.242   1 
  -2   7   0 2444.36 109.688   7 
  -2   7   0 2344.19 112.821   3 
  -2   7   1 24.5106 20.8757   1 
  -2   7   1-19.6681 28.6416   7 
  -2   7   1 26.8143 21.4946   3 
  -2   7   2 110.937 35.5161   7 
  -2   7   2 133.216 38.5984   3 
  -2   7   3 18.4750 30.9319   3 
  -2   7   4-22.3273 36.0649   3 
  -2   7   5 114.497 39.6358   3 
  -2   7   6 32.5610 29.1869   3 
  -2   7   7 224.904 53.4214   3 
  -2   7   8 721.003 106.616   3 
  -2   7   9 21.5888 45.1813   3 
  -2   8 -13 86.8608 51.9935   4 
  -2   8 -12-11.4760 65.3838   4 
  -2   8 -11 42.7734 50.2930   4 
  -2   8 -10 39.2767 42.3462   4 
  -2   8  -9 213.881 60.8033   4 
  -2   8  -8 267.086 62.2944   4 
  -2   8  -7 52.8532 31.0027   4 
  -2   8  -6 133.668 49.2425   4 
  -2   8  -5 201.322 51.1995   4 
  -2   8  -4 1784.27 67.4192   7 
  -2   8  -4 1905.67 129.330   4 
  -2   8  -3 7107.92 244.338   4 
  -2   8  -3 6800.93 146.172   7 
  -2   8  -2 26.3094 21.0603   7 
  -2   8  -2-2.60021 24.2942   4 
  -2   8  -1 1314.31 105.874   4 
  -2   8  -1 1340.79 78.0506   7 
  -2   8  -1 1429.20 81.4589   1 
  -2   8   0 100.569 24.2238   1 
  -2   8   0 185.427 39.7210   7 
  -2   8   0 125.546 34.6055   3 
  -2   8   1 304.459 42.5625   1 
  -2   8   1 293.426 53.6290   3 
  -2   8   1 371.122 50.5544   7 
  -2   8   2 2372.47 142.731   3 
  -2   8   2 2809.23 145.739   7 
  -2   8   3 369.547 65.8007   3 
  -2   8   4 390.293 69.4670   3 
  -2   8   5 540.001 87.3235   3 
  -2   8   6 1449.54 139.621   3 
  -2   8   7 1396.87 144.726   3 
  -2   8   8 229.107 66.0549   3 
  -2   9 -12-24.2307 44.6592   4 
  -2   9 -11-1.55238 49.3426   4 
  -2   9 -10-46.1163 46.0704   4 
  -2   9  -9 109.025 57.4520   4 
  -2   9  -8 263.642 66.5510   4 
  -2   9  -7 82.6129 42.6339   4 
  -2   9  -6 53.9828 44.5829   4 
  -2   9  -5 244.879 57.2787   4 
  -2   9  -4 404.893 32.4345   7 
  -2   9  -4 315.486 64.8821   4 
  -2   9  -3 37.8495 42.6727   4 
  -2   9  -3 32.2997 15.8059   7 
  -2   9  -2 746.036 88.7102   4 
  -2   9  -2 748.021 59.0226   7 
  -2   9  -1 49.2046 33.6564   4 
  -2   9  -1-30.3574 24.8907   7 
  -2   9   0 71.1507 23.7840   3 
  -2   9   0 88.1024 33.0981   4 
  -2   9   0 56.7877 27.3083   7 
  -2   9   1 714.234 74.0810   7 
  -2   9   1 685.501 77.0046   3 
  -2   9   2 1023.75 93.1419   7 
  -2   9   2 1002.80 98.0054   3 
  -2   9   3 61.5859 44.0566   7 
  -2   9   3 22.2776 29.1485   3 
  -2   9   4 165.776 46.7252   3 
  -2   9   5 41.9518 39.8432   3 
  -2   9   6-3.34131 37.8951   3 
  -2   9   7 42.2775 46.6972   3 
  -2  10 -12-19.6518 49.6020   4 
  -2  10 -11 8.44485 48.8509   4 
  -2  10 -10 83.5694 43.7746   4 
  -2  10  -9 27.1671 41.5427   4 
  -2  10  -8 15.5190 45.4854   4 
  -2  10  -7 16.1002 43.6860   4 
  -2  10  -6 302.652 68.5805   4 
  -2  10  -5 145.078 52.8753   4 
  -2  10  -4 28.6846 34.5285   4 
  -2  10  -3 107.642 21.9974   7 
  -2  10  -3 149.461 45.1261   4 
  -2  10  -2 24.1823 31.3241   4 
  -2  10  -2 54.0237 24.8668   7 
  -2  10  -1 6.08575 32.6464   4 
  -2  10  -1 26.7388 21.6339   7 
  -2  10   0 1310.05 123.150   4 
  -2  10   0 1405.48 98.8169   7 
  -2  10   0 1174.81 101.350   3 
  -2  10   1 29.5831 32.2734   3 
  -2  10   1 2.05940 37.4144   7 
  -2  10   2-9.14804 40.9022   7 
  -2  10   2-5.53652 30.5913   3 
  -2  10   3 206.314 57.8869   3 
  -2  10   3 73.6700 38.4013   7 
  -2  10   4 261.536 59.1846   3 
  -2  10   4 303.770 72.4311   7 
  -2  10   5-74.3393 64.0450   7 
  -2  10   5 31.4652 34.1578   3 
  -2  10   6 77.7033 65.6267   3 
  -2  10   6-1.58146 51.6187   7 
  -2  11 -11 56.1128 61.4890   4 
  -2  11 -10 125.249 71.5375   4 
  -2  11  -9 105.150 61.8082   4 
  -2  11  -8-22.5575 46.4270   4 
  -2  11  -7-29.4567 35.7646   4 
  -2  11  -6 270.110 68.4192   4 
  -2  11  -5-1.35597 35.9287   4 
  -2  11  -4-76.8045 57.8831   4 
  -2  11  -3 116.732 52.2633   4 
  -2  11  -2-31.7104 35.0001   4 
  -2  11  -1 1205.52 137.482   4 
  -2  11  -1 1347.28 92.5159   7 
  -2  11   0 159.100 57.7558   4 
  -2  11   0 202.503 44.0604   3 
  -2  11   0 159.713 42.8963   7 
  -2  11   1 325.149 64.3510   3 
  -2  11   1 376.900 58.5741   7 
  -2  11   2-28.1303 48.5113   7 
  -2  11   2 16.0205 33.0042   3 
  -2  11   3-31.8328 50.6394   7 
  -2  11   3 62.0276 47.6888   3 
  -2  11   4 55.4729 56.3363   7 
  -2  11   4 116.036 64.7814   3 
  -2  11   5 68.3085 40.4814   7 
  -2  11   5-59.2015 69.5606   3 
  -2  12 -10 95.4664 59.5018   4 
  -2  12  -9 35.3934 50.0341   4 
  -2  12  -8-20.6547 41.1719   4 
  -2  12  -7 157.261 65.9301   4 
  -2  12  -6-6.39043 37.0424   4 
  -2  12  -5 107.289 61.9740   4 
  -2  12  -4-17.5901 58.9265   4 
  -2  12  -3-35.8927 50.5818   4 
  -2  12  -2 449.336 85.6923   4 
  -2  12  -1-33.8940 54.0151   4 
  -2  12   0 7.47014 37.6772   4 
  -2  12   1-20.4875 44.7579   4 
  -2  12   1 33.9222 37.4910   3 
  -2  12   2-41.9585 29.1844   3 
  -2  12   3 326.432 72.2708   3 
  -2  12   4-5.73755 64.4110   3 
  -2  13  -8 243.137 78.3448   4 
  -2  13  -7 462.751 95.5063   4 
  -2  13  -6 27.5902 39.2796   4 
  -2  13  -5-53.9366 46.3101   4 
  -2  13  -4 53.7637 42.1843   4 
  -2  13  -3-53.3537 56.1202   4 
  -2  13  -2 29.0342 54.1347   4 
  -2  13  -1 67.5391 51.4764   4 
  -2  13   0 44.6417 58.2418   4 
  -2  13   1 133.364 75.1352   4 
  -1 -13   2 59.5201 53.5688   6 
  -1 -13   3 146.554 58.6578   6 
  -1 -13   4 93.2040 61.9918   6 
  -1 -13   5 49.8299 60.9764   6 
  -1 -13   6 101.112 62.7085   6 
  -1 -13   7 47.1339 51.4525   6 
  -1 -13   8 107.708 58.5791   6 
  -1 -12  -2 38.0453 36.9537   6 
  -1 -12  -1 371.602 83.7187   6 
  -1 -12   0 218.789 70.1971   6 
  -1 -12   1 63.4238 60.1925   6 
  -1 -12   2 121.125 55.8718   6 
  -1 -12   3 42.1717 45.8939   6 
  -1 -12   4 23.7130 45.7607   6 
  -1 -12   5 96.6726 38.0878   6 
  -1 -12   6 53.0366 36.1891   6 
  -1 -12   7 17.9025 44.9434   6 
  -1 -12   8-44.7960 56.9707   6 
  -1 -12   8 62.7512 51.7849   2 
  -1 -12   9-11.3428 47.6198   6 
  -1 -12   9-35.5739 65.1791   2 
  -1 -12  10 66.2726 56.6140   6 
  -1 -12  10-54.0965 69.6099   2 
  -1 -12  11 52.1738 46.3825   6 
  -1 -12  12 98.5279 55.5634   6 
  -1 -11  -4 80.4009 60.5512   8 
  -1 -11  -3 168.075 63.0273   8 
  -1 -11  -3 202.061 60.4369   6 
  -1 -11  -2 114.408 57.5538   6 
  -1 -11  -2 14.5436 44.1282   8 
  -1 -11  -1 40.6517 38.0428   6 
  -1 -11  -1 115.394 53.8254   8 
  -1 -11   0 1507.78 132.537   8 
  -1 -11   0 1486.93 147.778   6 
  -1 -11   1 329.814 74.5603   6 
  -1 -11   1 423.772 73.3442   8 
  -1 -11   2 88.2741 42.0531   6 
  -1 -11   2 65.8389 31.2221   8 
  -1 -11   3-32.6678 50.3778   6 
  -1 -11   3 27.5705 29.5624   8 
  -1 -11   4-40.0725 33.5868   8 
  -1 -11   4-51.8907 35.9064   6 
  -1 -11   5 121.874 54.9293   6 
  -1 -11   6 487.205 91.4074   6 
  -1 -11   7 248.274 57.2658   6 
  -1 -11   7 306.057 82.1580   2 
  -1 -11   8-41.7273 42.1701   6 
  -1 -11   8-73.1068 54.2296   2 
  -1 -11   9 6.07907 35.9572   6 
  -1 -11   9 115.159 64.9546   2 
  -1 -11  10 256.437 73.2160   6 
  -1 -11  10 173.110 77.9980   2 
  -1 -11  11 20.6269 46.0985   6 
  -1 -11  11-151.249 56.2723   2 
  -1 -11  12 18.3005 44.4572   6 
  -1 -10  -5 163.498 56.4564   8 
  -1 -10  -4 285.857 80.5510   8 
  -1 -10  -3 520.033 88.6909   6 
  -1 -10  -3 636.173 95.8684   8 
  -1 -10  -2 51.3852 41.9318   8 
  -1 -10  -2 28.7858 45.5923   6 
  -1 -10  -1 15.9372 38.1572   6 
  -1 -10  -1-22.9504 40.9567   8 
  -1 -10   0-23.9923 26.8182   8 
  -1 -10   0-65.7546 51.2580   6 
  -1 -10   1 123.150 39.8430   6 
  -1 -10   1 105.690 37.1485   8 
  -1 -10   2 62.9522 32.0841   8 
  -1 -10   2 83.1797 42.0716   6 
  -1 -10   3 296.479 73.3563   6 
  -1 -10   3 529.608 67.7363   8 
  -1 -10   4 68.7467 40.3952   6 
  -1 -10   4 73.7862 33.6572   8 
  -1 -10   5 23.4933 39.3387   6 
  -1 -10   6 108.066 57.9989   6 
  -1 -10   6 104.104 47.6125   2 
  -1 -10   7 49.7797 38.0537   6 
  -1 -10   7 96.4332 47.3176   2 
  -1 -10   8 62.7720 49.5140   6 
  -1 -10   8 60.3681 50.9540   2 
  -1 -10   9 43.7244 42.4916   6 
  -1 -10   9-67.6482 65.3969   2 
  -1 -10  10 54.9776 41.3677   6 
  -1 -10  10 68.4737 52.4606   2 
  -1 -10  11 34.8256 46.9080   2 
  -1 -10  11-82.6671 47.7365   6 
  -1 -10  12-75.3293 73.9273   2 
  -1 -10  12 29.9083 33.5426   6 
  -1  -9  -6 2298.08 198.103   8 
  -1  -9  -5 1136.44 128.075   8 
  -1  -9  -4-57.1132 33.7310   6 
  -1  -9  -4 5.18452 36.1348   8 
  -1  -9  -3 3.14500 39.3413   6 
  -1  -9  -3 58.9629 52.0091   8 
  -1  -9  -2-4.76652 34.9914   6 
  -1  -9  -2 71.0403 46.9270   8 
  -1  -9  -1 187.650 49.8703   6 
  -1  -9  -1 190.281 49.8810   8 
  -1  -9   0 20.4993 37.6098   6 
  -1  -9   0 55.6338 29.7485   8 
  -1  -9   1 1021.75 95.5750   8 
  -1  -9   1 1052.38 106.068   6 
  -1  -9   2 2658.33 173.450   6 
  -1  -9   2 2587.61 141.762   8 
  -1  -9   3 8010.58 238.221   8 
  -1  -9   3 8205.41 298.773   6 
  -1  -9   4 9658.35 252.960   8 
  -1  -9   4 10153.8 335.808   6 
  -1  -9   5 946.054 109.349   2 
  -1  -9   5 860.604 98.1193   6 
  -1  -9   6-2.32189 35.2943   6 
  -1  -9   6-7.92285 37.2378   2 
  -1  -9   7 26.2434 33.8998   6 
  -1  -9   7 46.9368 34.6775   2 
  -1  -9   8 59.0983 43.2327   6 
  -1  -9   8-26.1244 35.2300   2 
  -1  -9   9-26.2031 30.3539   6 
  -1  -9   9-63.9520 48.3915   2 
  -1  -9  10 80.4226 45.1497   2 
  -1  -9  10 97.8774 44.0562   6 
  -1  -9  11 34.5028 29.8807   6 
  -1  -9  11-59.4335 58.4581   2 
  -1  -9  12-75.1059 41.9864   6 
  -1  -9  12 45.3561 55.4585   2 
  -1  -9  13 360.522 104.749   2 
  -1  -8  -7 1101.18 141.962   8 
  -1  -8  -6-12.2805 51.5408   8 
  -1  -8  -5 147.790 50.0416   8 
  -1  -8  -5 219.264 46.4684   6 
  -1  -8  -4 191.775 54.3025   6 
  -1  -8  -4 242.824 63.0201   8 
  -1  -8  -3 172.245 42.6543   6 
  -1  -8  -3 197.750 58.9443   8 
  -1  -8  -2 589.015 78.9104   6 
  -1  -8  -2 580.080 82.2598   8 
  -1  -8  -1 96.0928 42.8500   6 
  -1  -8  -1 79.1971 30.0760   8 
  -1  -8   0 5786.22 233.085   6 
  -1  -8   0 6297.87 223.262   8 
  -1  -8   1 355.043 59.1302   8 
  -1  -8   1 267.601 57.3242   6 
  -1  -8   2 1364.22 96.2219   8 
  -1  -8   2 1281.07 112.032   6 
  -1  -8   3 140.857 51.8003   6 
  -1  -8   3 103.168 37.0356   8 
  -1  -8   4 371.290 66.9980   6 
  -1  -8   4 479.055 72.7741   2 
  -1  -8   4 378.474 53.2716   8 
  -1  -8   5 300.928 62.2636   2 
  -1  -8   5 310.822 56.7842   6 
  -1  -8   6 309.438 61.8610   6 
  -1  -8   6 379.002 65.8268   2 
  -1  -8   7 329.403 65.0298   6 
  -1  -8   7 392.766 61.4205   2 
  -1  -8   8-32.7661 39.1776   6 
  -1  -8   8 52.7008 41.2098   2 
  -1  -8   9 155.307 47.2181   6 
  -1  -8   9 68.1991 40.9161   2 
  -1  -8  10 627.756 98.0186   2 
  -1  -8  10 695.531 84.2314   6 
  -1  -8  11 261.879 54.2542   6 
  -1  -8  11 314.154 78.0450   2 
  -1  -8  12 532.788 96.9900   2 
  -1  -8  13 63.5651 42.4851   2 
  -1  -8  14-112.526 73.1087   2 
  -1  -7  -8 1915.01 182.471   8 
  -1  -7  -7 112.824 46.7909   8 
  -1  -7  -6 521.527 81.9825   8 
  -1  -7  -5 163.306 56.1644   8 
  -1  -7  -5 232.106 48.4133   6 
  -1  -7  -4 23.1952 29.4015   6 
  -1  -7  -4 23.1452 36.2401   8 
  -1  -7  -3 372.153 61.6030   6 
  -1  -7  -3 426.521 69.8734   8 
  -1  -7  -2-1.63705 38.4892   8 
  -1  -7  -2 19.7872 25.2977   6 
  -1  -7  -1 462.221 68.7267   8 
  -1  -7  -1 330.419 59.7092   6 
  -1  -7   0 645.824 70.5909   8 
  -1  -7   0 562.913 71.8472   6 
  -1  -7   1 43167.8 591.024   6 
  -1  -7   1 43336.0 513.418   8 
  -1  -7   2 2922.46 130.447   8 
  -1  -7   2 2989.29 154.834   6 
  -1  -7   3 4597.89 159.303   8 
  -1  -7   3 4753.58 195.063   6 
  -1  -7   4 83.7415 37.6576   2 
  -1  -7   4 78.8097 34.9542   6 
  -1  -7   4 44.7599 22.9222   8 
  -1  -7   5 735.798 78.1839   2 
  -1  -7   5 822.935 85.8717   6 
  -1  -7   6 74.8501 31.4300   6 
  -1  -7   6 82.2052 38.5123   2 
  -1  -7   7 435.997 63.9063   6 
  -1  -7   7 448.947 74.0879   2 
  -1  -7   8 425.140 66.6008   6 
  -1  -7   8 402.949 69.2171   2 
  -1  -7   9 71.6715 31.7180   6 
  -1  -7   9-71.8756 47.3880   2 
  -1  -7  10 140.731 40.5751   6 
  -1  -7  10 238.868 67.2810   2 
  -1  -7  11 2498.16 142.909   6 
  -1  -7  11 2727.56 188.089   2 
  -1  -7  12 167.074 66.1750   2 
  -1  -7  13 18.2658 43.1002   2 
  -1  -7  14-22.6629 45.8666   2 
  -1  -6  -9 451.303 100.139   8 
  -1  -6  -8 117.089 58.2547   8 
  -1  -6  -7-16.9963 50.0946   8 
  -1  -6  -6 291.811 67.1267   8 
  -1  -6  -5 171.688 36.2155   1 
  -1  -6  -5 170.816 49.5592   8 
  -1  -6  -5 164.194 37.9569   6 
  -1  -6  -4 4012.18 191.848   8 
  -1  -6  -4 3953.22 113.573   1 
  -1  -6  -4 3841.74 163.497   6 
  -1  -6  -3 290.632 25.7187   1 
  -1  -6  -3 261.686 49.3306   8 
  -1  -6  -3 259.780 23.7052   1 
  -1  -6  -3 282.609 52.0946   6 
  -1  -6  -2 164.501 38.9447   6 
  -1  -6  -2 150.404 41.9874   8 
  -1  -6  -1 991.299 83.8569   8 
  -1  -6  -1 911.735 83.3933   6 
  -1  -6   0 536.334 63.3362   6 
  -1  -6   0 491.589 56.5926   8 
  -1  -6   1 6046.77 178.280   8 
  -1  -6   1 6128.78 179.903   3 
  -1  -6   1 5890.23 200.009   6 
  -1  -6   2 76.1920 30.8918   6 
  -1  -6   2 50.8940 25.8774   8 
  -1  -6   3 308.294 48.0216   6 
  -1  -6   3 282.214 47.0881   2 
  -1  -6   3 279.620 40.9272   8 
  -1  -6   4 1662.21 106.024   6 
  -1  -6   4 1671.77 109.495   2 
  -1  -6   5 320.483 49.8717   6 
  -1  -6   5 327.456 50.7652   2 
  -1  -6   6 415.836 58.0364   6 
  -1  -6   6 260.262 52.7879   2 
  -1  -6   7 1116.85 101.298   2 
  -1  -6   7 1096.21 87.0935   6 
  -1  -6   8 45.8423 11.5559   7 
  -1  -6   8 66.2183 28.7200   6 
  -1  -6   9 312.912 49.0423   6 
  -1  -6   9 327.990 31.7500   7 
  -1  -6   9 334.440 67.1808   2 
  -1  -6  10 41.9690 42.4040   2 
  -1  -6  10 100.545 32.4672   6 
  -1  -6  10 105.855 24.3715   7 
  -1  -6  11 256.656 72.5247   2 
  -1  -6  12-12.1889 41.6539   2 
  -1  -6  13 78.5649 56.6181   2 
  -1  -6  14 74.1991 50.3401   2 
  -1  -5 -10 147.690 57.0981   8 
  -1  -5  -9-79.5193 57.2289   8 
  -1  -5  -8-37.1366 59.0604   8 
  -1  -5  -7 979.985 112.569   8 
  -1  -5  -6 1021.02 107.756   8 
  -1  -5  -5 6742.95 247.941   8 
  -1  -5  -4 1105.42 82.2503   6 
  -1  -5  -4 1207.47 100.505   8 
  -1  -5  -3 77.2520 25.5692   6 
  -1  -5  -3 139.974 40.1363   8 
  -1  -5  -2 682.271 32.4040   1 
  -1  -5  -2 749.997 72.0319   8 
  -1  -5  -2 685.531 32.3351   1 
  -1  -5  -2 709.683 63.9496   6 
  -1  -5  -1 1612.33 96.6192   8 
  -1  -5  -1 1714.31 99.8976   6 
  -1  -5   0 28.1952 15.1703   3 
  -1  -5   0 56.3037 26.4077   8 
  -1  -5   0 64.6217 28.8946   6 
  -1  -5   1 5166.54 169.648   5 
  -1  -5   1 5157.73 153.530   8 
  -1  -5   1 5277.91 152.652   3 
  -1  -5   1 5172.20 171.605   6 
  -1  -5   2 1377.64 88.1759   5 
  -1  -5   2 1180.63 73.8786   8 
  -1  -5   2 1492.56 91.5104   6 
  -1  -5   3 4736.40 161.988   5 
  -1  -5   3 4958.65 165.450   2 
  -1  -5   3 4888.26 165.876   6 
  -1  -5   4 30461.0 410.787   5 
  -1  -5   4 31164.7 414.698   2 
  -1  -5   4 30409.0 412.512   6 
  -1  -5   5 20662.0 340.227   6 
  -1  -5   5 20196.5 347.804   2 
  -1  -5   6 110.085 14.0227   7 
  -1  -5   6 168.453 39.9205   6 
  -1  -5   6 117.589 35.5193   2 
  -1  -5   7 100.264 28.4149   6 
  -1  -5   7 104.629 18.5865   7 
  -1  -5   7 84.4873 34.3478   2 
  -1  -5   8-4.76186 21.3189   6 
  -1  -5   8 9.47084 12.7511   7 
  -1  -5   8 11.6413 35.2692   2 
  -1  -5   9 807.185 58.1072   7 
  -1  -5   9 859.310 90.7338   2 
  -1  -5   9 764.848 69.1929   6 
  -1  -5  10 369.338 70.1827   2 
  -1  -5  10 287.942 40.7503   7 
  -1  -5  11-49.3929 42.5628   2 
  -1  -5  11-0.13272 20.3998   7 
  -1  -5  12 188.931 64.0190   2 
  -1  -5  12 260.364 55.5372   7 
  -1  -5  13-21.3260 44.4864   2 
  -1  -5  14 462.161 94.1638   2 
  -1  -4 -10 116.156 62.6895   8 
  -1  -4  -9 301.429 62.7605   8 
  -1  -4  -8 192.440 58.9582   8 
  -1  -4  -7 27.5114 31.9457   8 
  -1  -4  -6 3084.99 173.876   8 
  -1  -4  -5 63.9511 37.4113   8 
  -1  -4  -4 18.7262 18.7352   6 
  -1  -4  -4 53.5450 36.2389   8 
  -1  -4  -3 1263.89 76.4497   6 
  -1  -4  -3 1274.75 89.8890   8 
  -1  -4  -2 1726.87 95.3090   8 
  -1  -4  -2 1552.92 86.4301   6 
  -1  -4  -1 1495.71 82.2278   5 
  -1  -4  -1 1361.37 81.4105   8 
  -1  -4  -1 1327.96 83.5584   3 
  -1  -4  -1 1361.60 34.8915   1 
  -1  -4  -1 1457.62 83.1175   6 
  -1  -4   0 1101.29 70.9318   5 
  -1  -4   0 1153.65 71.4913   3 
  -1  -4   0 1137.71 69.5318   8 
  -1  -4   0 1178.77 75.9262   6 
  -1  -4   1 951.179 68.0926   5 
  -1  -4   1 978.356 61.5075   8 
  -1  -4   1 1069.24 71.5110   6 
  -1  -4   1 955.572 60.8092   3 
  -1  -4   2 431.336 48.0117   5 
  -1  -4   2 365.996 42.0349   8 
  -1  -4   2 375.918 47.2607   2 
  -1  -4   2 409.066 46.8965   6 
  -1  -4   3 14831.0 259.116   5 
  -1  -4   3 15089.4 260.649   6 
  -1  -4   3 15007.2 258.099   2 
  -1  -4   4 11824.6 232.965   6 
  -1  -4   4 11847.7 232.056   5 
  -1  -4   4 11749.9 237.422   2 
  -1  -4   4 11608.2 115.036   7 
  -1  -4   5 587.947 58.4737   4 
  -1  -4   5 657.335 59.9574   2 
  -1  -4   5 685.761 57.2580   6 
  -1  -4   5 671.538 33.0313   7 
  -1  -4   5 705.958 58.3677   5 
  -1  -4   6 621.716 62.8604   2 
  -1  -4   6 494.211 35.9063   7 
  -1  -4   6 587.612 53.3320   6 
  -1  -4   7 326.453 51.3430   2 
  -1  -4   7 346.312 41.4323   6 
  -1  -4   7 324.110 34.0442   7 
  -1  -4   8 211.652 34.3502   6 
  -1  -4   8 279.000 52.2898   2 
  -1  -4   8 244.811 35.5337   7 
  -1  -4   9 273.654 55.3390   2 
  -1  -4  10 72.1284 41.6398   2 
  -1  -4  11 14.2683 33.0593   2 
  -1  -4  12 171.044 52.5199   2 
  -1  -4  13 95.2822 52.9178   2 
  -1  -4  14 62.6110 57.9357   2 
  -1  -3 -11 75.5251 57.4737   8 
  -1  -3 -10 189.457 60.7468   8 
  -1  -3  -9-53.5211 36.9858   8 
  -1  -3  -8 1679.07 138.124   8 
  -1  -3  -7 586.601 87.5119   8 
  -1  -3  -6 1801.25 125.706   8 
  -1  -3  -5 17.1944 31.6578   8 
  -1  -3  -4 1278.18 90.7550   8 
  -1  -3  -3 3081.06 104.980   5 
  -1  -3  -3 3185.31 105.999   6 
  -1  -3  -2 4633.66 128.511   6 
  -1  -3  -2 4525.25 127.398   5 
  -1  -3  -1 991.137 60.6995   6 
  -1  -3  -1 980.029 60.9547   5 
  -1  -3  -1 1049.15 35.3345   1 
  -1  -3  -1 1063.34 65.6636   8 
  -1  -3  -1 991.448 65.7603   3 
  -1  -3   0 31135.1 329.872   5 
  -1  -3   0 31409.3 322.238   8 
  -1  -3   0 30305.8 330.157   6 
  -1  -3   0 30710.6 327.605   3 
  -1  -3   1 2330.71 90.5147   5 
  -1  -3   1 2528.84 94.2377   6 
  -1  -3   2 49843.7 418.550   5 
  -1  -3   2 50046.5 413.953   2 
  -1  -3   2 49898.0 267.694   7 
  -1  -3   2 50701.8 422.978   6 
  -1  -3   3 3282.02 108.147   5 
  -1  -3   3 3343.93 65.5895   7 
  -1  -3   3 3550.77 113.215   2 
  -1  -3   3 3524.54 113.092   6 
  -1  -3   4 3962.30 125.531   2 
  -1  -3   4 4073.73 122.129   4 
  -1  -3   4 3838.67 79.0874   7 
  -1  -3   4 4060.69 119.924   5 
  -1  -3   4 4034.38 120.226   6 
  -1  -3   5 437.229 41.4931   5 
  -1  -3   5 389.828 42.3794   4 
  -1  -3   5 438.815 50.8130   2 
  -1  -3   5 370.959 29.8033   7 
  -1  -3   5 387.138 38.4091   6 
  -1  -3   6 3936.65 117.897   5 
  -1  -3   6 4072.51 141.127   4 
  -1  -3   6 4044.48 148.017   2 
  -1  -3   6 4075.75 119.707   6 
  -1  -3   7 3678.55 153.353   2 
  -1  -3   8 3228.15 152.834   2 
  -1  -3   9 1086.66 98.6355   2 
  -1  -3  10-25.7574 30.8362   2 
  -1  -3  11 445.020 73.5978   2 
  -1  -3  12 797.190 103.864   2 
  -1  -3  13-71.1822 49.9050   2 
  -1  -3  14-61.8157 48.5804   2 
  -1  -2 -12 408.061 79.2111   8 
  -1  -2 -11-37.1419 57.1000   8 
  -1  -2 -10 198.889 64.1101   8 
  -1  -2  -9 360.342 69.9646   8 
  -1  -2  -8 2364.07 155.384   8 
  -1  -2  -7 276.950 54.2409   8 
  -1  -2  -6 130.294 37.9802   8 
  -1  -2  -5 3635.65 152.717   8 
  -1  -2  -4 722.427 44.4375   5 
  -1  -2  -3 72353.1 434.133   5 
  -1  -2  -2 36557.8 309.267   5 
  -1  -2  -2 36316.9 310.249   6 
  -1  -2  -1 4636.01 111.117   5 
  -1  -2  -1 4713.85 79.3191   1 
  -1  -2  -1 4697.07 111.373   6 
  -1  -2   0 16533.1 207.839   5 
  -1  -2   0 16280.8 116.479   1 
  -1  -2   0 16334.9 208.058   6 
  -1  -2   1 38218.1 244.478   7 
  -1  -2   1 38625.1 318.121   6 
  -1  -2   2 26955.8 258.362   2 
  -1  -2   2 27316.9 190.257   7 
  -1  -2   3 14935.2 151.425   7 
  -1  -2   3 15266.9 202.927   5 
  -1  -2   3 15312.8 201.545   6 
  -1  -2   3 15577.4 191.481   4 
  -1  -2   3 15134.1 205.650   2 
  -1  -2   4 154.343 22.1370   5 
  -1  -2   4 139.955 23.1567   4 
  -1  -2   4 147.640 22.6656   6 
  -1  -2   4 126.392 24.4125   2 
  -1  -2   4 163.250 20.7497   7 
  -1  -2   5 6136.14 126.409   5 
  -1  -2   5 6080.35 150.703   4 
  -1  -2   5 6023.92 158.167   2 
  -1  -2   6 13061.1 182.336   5 
  -1  -2   6 13281.9 243.971   4 
  -1  -2   6 13330.7 260.165   2 
  -1  -2   7 20232.8 347.364   2 
  -1  -2   8 150.423 40.2429   2 
  -1  -2   9 70.6029 35.3054   2 
  -1  -2  10 119.860 44.0940   2 
  -1  -2  11 206.202 48.9406   2 
  -1  -2  12 148.719 63.9430   2 
  -1  -2  13-97.9592 56.9210   2 
  -1  -2  14 2.11759 49.7226   2 
  -1  -1 -12-48.8669 54.5996   8 
  -1  -1 -11 177.206 63.6576   8 
  -1  -1 -10 287.885 75.5927   8 
  -1  -1  -9 138.472 43.9794   8 
  -1  -1  -8 56.0776 38.7433   4 
  -1  -1  -8 26.7183 32.4838   8 
  -1  -1  -7-55.7463 40.5016   4 
  -1  -1  -7 10.9406 26.2848   8 
  -1  -1  -6 8979.09 252.132   8 
  -1  -1  -6 9218.35 257.810   4 
  -1  -1  -5 679.943 33.8575   5 
  -1  -1  -5 744.670 69.0744   4 
  -1  -1  -5 718.631 65.5335   8 
  -1  -1  -4 2349.94 65.2361   5 
  -1  -1  -4 2414.98 111.038   4 
  -1  -1  -4 2397.73 108.023   3 
  -1  -1  -3 110.982 30.1720   4 
  -1  -1  -2 2682.35 90.7743   4 
  -1  -1  -1 1828.83 51.9916   1 
  -1  -1   0 1498.58 41.3236   1 
  -1  -1   0 1601.43 53.4208   7 
  -1  -1   1 98.8749 18.1567   2 
  -1  -1   1 63.9739 15.0964   7 
  -1  -1   1 63.7071 15.2503   1 
  -1  -1   2 30789.0 227.716   2 
  -1  -1   2 31004.8 195.087   4 
  -1  -1   2 30227.1 211.193   7 
  -1  -1   3 14392.7 169.988   7 
  -1  -1   3 15059.1 164.207   4 
  -1  -1   3 14903.8 182.447   2 
  -1  -1   4 20454.5 230.110   4 
  -1  -1   4 20902.1 252.856   2 
  -1  -1   5 40166.9 273.185   5 
  -1  -1   5 39914.4 370.892   4 
  -1  -1   5 39737.5 391.522   2 
  -1  -1   5 39790.7 385.220   3 
  -1  -1   6 814.940 37.7969   5 
  -1  -1   6 877.878 62.5432   4 
  -1  -1   6 768.056 60.0339   2 
  -1  -1   6 792.563 60.6883   3 
  -1  -1   7 94.5196 27.1649   2 
  -1  -1   7 90.2229 23.0555   3 
  -1  -1   8 872.452 79.1921   2 
  -1  -1   8 860.744 76.7990   3 
  -1  -1   9-4.66927 33.8228   2 
  -1  -1   9-50.3894 29.3292   3 
  -1  -1  10-2.62319 33.2588   2 
  -1  -1  10 37.5416 30.0999   3 
  -1  -1  11 515.255 79.0960   2 
  -1  -1  11 345.803 63.0864   3 
  -1  -1  12 281.195 62.8932   2 
  -1  -1  12 248.066 56.8538   3 
  -1  -1  13 2.84750 40.0167   2 
  -1  -1  14-129.162 75.1035   2 
  -1   0 -13 10.7832 42.4538   8 
  -1   0 -12 40.7884 42.2300   8 
  -1   0 -11 75.6341 54.5631   8 
  -1   0 -11 77.2761 53.2927   4 
  -1   0 -10 1201.25 118.545   4 
  -1   0 -10 1220.69 122.350   8 
  -1   0  -9 1057.60 102.394   4 
  -1   0  -9 949.633 98.3757   8 
  -1   0  -8 1021.01 96.0264   4 
  -1   0  -8 993.831 91.2453   8 
  -1   0  -7 78.0663 35.0916   8 
  -1   0  -7 43.2872 41.1965   4 
  -1   0  -6 7835.57 229.002   4 
  -1   0  -6 8162.19 222.740   8 
  -1   0  -5 15085.6 290.952   4 
  -1   0  -5 14923.1 274.099   8 
  -1   0  -5 15203.7 274.446   3 
  -1   0  -4 11317.6 214.350   8 
  -1   0  -4 11434.1 230.731   4 
  -1   0  -4 11837.5 217.297   3 
  -1   0  -3 14940.0 231.269   4 
  -1   0  -3 14520.7 215.200   3 
  -1   0  -2 13029.6 185.896   4 
  -1   0  -1 18514.7 179.828   4 
  -1   0  -1 18438.4 183.098   7 
  -1   0   0 136635. 336.275   4 
  -1   0   0 141041. 447.511   7 
  -1   0   1 65966.7 211.432   2 
  -1   0   1 63327.9 298.575   7 
  -1   0   2 85272.1 276.277   4 
  -1   0   2 86107.4 322.827   2 
  -1   0   2 85774.2 397.707   7 
  -1   0   3 6688.00 108.944   4 
  -1   0   3 6634.85 134.995   3 
  -1   0   4 27553.0 271.925   4 
  -1   0   4 27414.5 306.970   3 
  -1   0   5 707.552 51.2451   4 
  -1   0   5 698.562 57.8595   3 
  -1   0   6 7829.58 190.346   4 
  -1   0   6 7804.01 201.748   3 
  -1   0   7 86.5154 30.7613   3 
  -1   0   8 1089.68 89.7293   3 
  -1   0   9 82.7055 39.0253   3 
  -1   0  10 4782.75 216.782   3 
  -1   0  11 290.615 65.1359   2 
  -1   0  11 222.434 54.2544   3 
  -1   0  12 55.5921 53.3105   2 
  -1   0  12 23.6203 33.3951   3 
  -1   0  13 17.0650 39.8987   2 
  -1   0  13-51.3731 43.9360   3 
  -1   0  14-56.2045 57.5261   2 
  -1   1 -13-18.1270 57.0957   4 
  -1   1 -13-22.2249 55.1939   8 
  -1   1 -12 14.7432 43.0668   4 
  -1   1 -12 98.0466 52.2625   8 
  -1   1 -11 313.644 68.2630   8 
  -1   1 -11 79.1481 45.5136   4 
  -1   1 -10 1748.90 141.043   4 
  -1   1 -10 1964.67 143.897   8 
  -1   1  -9 291.971 53.0562   8 
  -1   1  -9 306.720 63.9568   4 
  -1   1  -8 69.6001 28.2169   8 
  -1   1  -8 111.047 48.6528   4 
  -1   1  -7 55.5252 27.6391   4 
  -1   1  -7 30.5743 26.2760   8 
  -1   1  -6 1103.77 78.6255   8 
  -1   1  -6 915.801 77.2508   4 
  -1   1  -6 1070.01 75.9757   3 
  -1   1  -5 1162.22 76.6544   4 
  -1   1  -5 1090.07 69.1286   8 
  -1   1  -5 1034.13 66.1734   3 
  -1   1  -4 6712.41 167.083   4 
  -1   1  -4 6427.14 147.291   8 
  -1   1  -4 6672.68 145.942   3 
  -1   1  -3 21725.7 230.628   8 
  -1   1  -3 21424.3 260.816   4 
  -1   1  -3 22185.5 230.494   3 
  -1   1  -2 2313.86 65.8727   3 
  -1   1  -2 2432.14 64.0814   8 
  -1   1  -1 258.082 19.2689   8 
  -1   1  -1 228.572 23.7315   4 
  -1   1  -1 201.841 22.0746   7 
  -1   1   0 10023.0 96.5800   4 
  -1   1   0 9837.31 116.584   7 
  -1   1   1 28711.1 221.494   7 
  -1   1   2 11046.4 128.429   4 
  -1   1   2 10820.3 161.854   3 
  -1   1   3 12895.1 174.893   4 
  -1   1   3 12956.5 203.231   3 
  -1   1   4 25.6189 20.2347   3 
  -1   1   4 22.7844 16.5044   4 
  -1   1   5 2450.55 101.720   4 
  -1   1   5 2355.55 109.741   3 
  -1   1   6 227.912 42.3674   3 
  -1   1   7 9001.04 249.908   3 
  -1   1   8 5467.20 207.783   3 
  -1   1   9 4134.76 197.335   3 
  -1   1  10 683.325 87.6785   3 
  -1   1  11 73.1343 42.5752   3 
  -1   1  12 129.953 49.9208   3 
  -1   1  13 386.099 84.8808   2 
  -1   1  13 264.875 72.1445   3 
  -1   1  14-190.638 78.4226   2 
  -1   1  14-118.803 48.7579   3 
  -1   2 -14 76.9526 46.9395   4 
  -1   2 -14 114.747 50.4337   8 
  -1   2 -13-45.0100 56.9334   8 
  -1   2 -13-88.0996 66.8376   4 
  -1   2 -12 2417.38 175.706   8 
  -1   2 -12 2030.29 166.696   4 
  -1   2 -11 1187.51 128.468   4 
  -1   2 -11 1139.39 116.437   8 
  -1   2 -10 383.051 72.3394   4 
  -1   2 -10 503.222 70.7159   8 
  -1   2  -9 0.29147 28.1196   8 
  -1   2  -9-52.7780 34.7980   4 
  -1   2  -8-17.6163 35.8107   4 
  -1   2  -8 48.7682 30.7999   8 
  -1   2  -7 370.576 24.3618   5 
  -1   2  -7 383.933 50.6237   4 
  -1   2  -7 374.821 47.2845   3 
  -1   2  -6 1121.75 83.8272   4 
  -1   2  -6 1067.09 68.2458   3 
  -1   2  -5 2079.63 102.170   4 
  -1   2  -5 2059.01 83.0460   3 
  -1   2  -4 12898.7 225.840   4 
  -1   2  -4 12715.4 173.466   3 
  -1   2  -3 33191.1 246.320   8 
  -1   2  -3 33357.9 325.062   4 
  -1   2  -3 33448.3 238.079   3 
  -1   2  -2 999999. 1581.10   4 
  -1   2  -1 24968.7 225.838   4 
  -1   2  -1 25029.8 190.388   2 
  -1   2   0 58179.8 242.794   2 
  -1   2   0 58863.4 317.187   1 
  -1   2   0 57746.2 304.027   7 
  -1   2   1 6520.23 112.971   1 
  -1   2   1 6324.24 118.777   3 
  -1   2   2 9034.09 164.424   3 
  -1   2   3 2772.06 94.9287   4 
  -1   2   3 2711.51 102.510   3 
  -1   2   4 10003.9 202.141   4 
  -1   2   4 9889.71 218.196   3 
  -1   2   5 1515.54 88.6724   4 
  -1   2   5 1348.34 90.3670   3 
  -1   2   6-3.49265 28.9284   3 
  -1   2   6 7.19166 8.69361   5 
  -1   2   7 16233.8 356.925   3 
  -1   2   8 34342.9 548.954   3 
  -1   2   9 1207.63 113.237   3 
  -1   2  10 318.815 66.2535   3 
  -1   2  11 28.8514 36.5312   3 
  -1   2  12 7.26990 36.4912   3 
  -1   2  13-63.5184 52.9403   3 
  -1   3 -14-31.1062 51.2901   4 
  -1   3 -14-27.8786 49.9818   8 
  -1   3 -13 310.511 83.8308   4 
  -1   3 -13 397.117 80.9463   8 
  -1   3 -12 663.097 96.7610   8 
  -1   3 -12 738.183 108.279   4 
  -1   3 -11 391.744 80.2297   4 
  -1   3 -11 323.236 66.6918   8 
  -1   3 -10 206.879 55.1109   4 
  -1   3 -10 275.897 56.1250   8 
  -1   3  -9 385.034 67.4003   4 
  -1   3  -8 266.045 26.4928   5 
  -1   3  -8 294.768 45.4648   3 
  -1   3  -8 232.012 50.5307   4 
  -1   3  -7 378.899 33.3928   5 
  -1   3  -7 410.969 57.6010   4 
  -1   3  -7 378.827 44.2879   3 
  -1   3  -6 587.595 62.7542   4 
  -1   3  -6 578.011 44.6042   3 
  -1   3  -5 11000.6 233.621   4 
  -1   3  -5 10791.7 159.396   3 
  -1   3  -4 293.416 42.0308   4 
  -1   3  -4 335.793 24.3627   3 
  -1   3  -3 626.410 50.5385   4 
  -1   3  -2 1995.37 71.9339   1 
  -1   3  -2 1900.62 80.0803   4 
  -1   3  -2 1941.15 70.9981   2 
  -1   3  -2 1887.90 52.5468   7 
  -1   3  -1 38593.8 332.635   4 
  -1   3  -1 38976.7 285.135   1 
  -1   3  -1 38886.3 280.515   2 
  -1   3  -1 38365.8 241.062   7 
  -1   3   0 12454.0 158.699   7 
  -1   3   0 12779.9 155.365   2 
  -1   3   0 12665.5 157.252   1 
  -1   3   0 12558.4 160.235   3 
  -1   3   1 1614.09 59.7789   1 
  -1   3   1 1643.76 68.3237   3 
  -1   3   2 849.589 57.7760   3 
  -1   3   3 1216.83 75.6623   3 
  -1   3   4 751.711 64.6455   4 
  -1   3   4 810.651 67.7841   3 
  -1   3   5 22.6696 23.7344   3 
  -1   3   6 15835.8 200.660   5 
  -1   3   6 16236.6 350.507   3 
  -1   3   7 726.519 81.6069   3 
  -1   3   8 296.312 62.6656   3 
  -1   3   9 167.066 48.0241   3 
  -1   3  10-15.7317 32.9740   3 
  -1   3  11 269.268 68.4189   3 
  -1   3  12 42.0823 44.3267   3 
  -1   4 -15-14.8006 50.1225   8 
  -1   4 -14 315.944 70.1154   8 
  -1   4 -14 318.991 89.4654   4 
  -1   4 -13 79.7030 36.5519   8 
  -1   4 -13-5.12491 47.9704   4 
  -1   4 -12 113.021 37.2646   8 
  -1   4 -12 9.77922 49.6030   4 
  -1   4 -11 149.577 54.0804   4 
  -1   4 -11 87.2052 34.1911   8 
  -1   4 -10 85.0382 50.6595   4 
  -1   4  -9 506.023 40.4587   5 
  -1   4  -9 565.789 57.3112   3 
  -1   4  -8 434.182 42.7803   5 
  -1   4  -8 446.799 62.5513   4 
  -1   4  -8 401.725 42.5442   3 
  -1   4  -7 194.528 29.4079   5 
  -1   4  -7 209.019 46.1916   4 
  -1   4  -7 191.341 30.2094   3 
  -1   4  -6 1950.09 66.1167   3 
  -1   4  -6 1950.96 111.893   4 
  -1   4  -5 17792.4 308.263   4 
  -1   4  -4 40490.1 435.753   4 
  -1   4  -4 40245.2 410.950   2 
  -1   4  -3 17542.6 239.909   1 
  -1   4  -3 16753.9 271.088   4 
  -1   4  -3 16548.8 116.084   8 
  -1   4  -3 17223.1 251.991   2 
  -1   4  -3 17003.1 153.454   7 
  -1   4  -2 2388.47 59.7168   7 
  -1   4  -2 2493.09 83.8956   1 
  -1   4  -2 2263.88 97.5212   4 
  -1   4  -2 2392.52 87.6168   2 
  -1   4  -1 17776.9 224.565   2 
  -1   4  -1 18098.5 204.548   1 
  -1   4  -1 18520.1 266.765   4 
  -1   4  -1 17516.6 182.187   7 
  -1   4  -1 18095.5 185.148   3 
  -1   4   0 12868.7 188.568   2 
  -1   4   0 12653.3 166.688   1 
  -1   4   0 12730.3 185.465   3 
  -1   4   1 32270.5 273.518   1 
  -1   4   1 31776.3 338.190   3 
  -1   4   2 27351.2 355.190   3 
  -1   4   3 774.862 66.5576   3 
  -1   4   4 5664.17 188.961   3 
  -1   4   5 3172.20 109.780   5 
  -1   4   5 3383.47 158.391   3 
  -1   4   6 4092.70 120.591   5 
  -1   4   6 4181.17 187.927   3 
  -1   4   7 2268.09 150.514   3 
  -1   4   8 89.9447 46.6531   3 
  -1   4   9 391.913 76.8234   3 
  -1   4  10 17.4910 42.9505   3 
  -1   4  11 729.596 110.365   3 
  -1   4  12-13.9612 43.3791   3 
  -1   5 -15 199.439 75.8445   8 
  -1   5 -14-30.1503 51.1788   8 
  -1   5 -14 88.5328 69.2877   4 
  -1   5 -13-16.7046 36.0826   8 
  -1   5 -13-58.2529 51.2811   4 
  -1   5 -12 40.4186 44.5636   4 
  -1   5 -12 16.3080 38.9913   8 
  -1   5 -11 15.7194 39.9700   4 
  -1   5 -10 462.087 71.3024   4 
  -1   5  -9 993.657 64.7909   3 
  -1   5  -9 1036.42 70.8452   5 
  -1   5  -9 1151.38 106.347   4 
  -1   5  -8 29.2080 16.6033   5 
  -1   5  -8 30.1288 11.6205   3 
  -1   5  -7 36.9965 20.3373   5 
  -1   5  -7-58.2877 34.4618   4 
  -1   5  -6 42.5955 25.8600   4 
  -1   5  -5 156.908 34.6459   4 
  -1   5  -4 15.9518 8.98711   8 
  -1   5  -4 24.4033 23.5982   4 
  -1   5  -4 55.8276 23.0056   1 
  -1   5  -3 334.111 36.8624   1 
  -1   5  -3 255.470 37.0375   2 
  -1   5  -3 279.432 43.3885   4 
  -1   5  -3 263.625 18.9819   7 
  -1   5  -2 62.9122 14.6714   7 
  -1   5  -2 95.1294 27.9381   2 
  -1   5  -2 70.5753 19.6428   1 
  -1   5  -2 67.5614 26.0153   4 
  -1   5  -2 79.2895 14.3894   3 
  -1   5  -1 1294.22 57.8664   1 
  -1   5  -1 1282.19 70.5604   2 
  -1   5  -1 1257.67 55.0052   7 
  -1   5  -1 1445.21 61.8893   3 
  -1   5   0 868.974 58.6834   2 
  -1   5   0 889.886 47.2693   1 
  -1   5   0 851.702 54.3797   3 
  -1   5   1 2145.26 93.5163   2 
  -1   5   1 2201.81 99.3980   3 
  -1   5   1 2094.00 73.0423   1 
  -1   5   2 14261.2 278.353   3 
  -1   5   3 148.235 35.1477   3 
  -1   5   4 106.608 29.1409   5 
  -1   5   4 12.6262 28.7006   3 
  -1   5   5 12.4418 19.6880   5 
  -1   5   5 27.8626 30.6775   3 
  -1   5   6 9.65149 30.2371   3 
  -1   5   7 356.235 65.5957   3 
  -1   5   8 51.9804 38.5229   3 
  -1   5   9 268.185 67.0797   3 
  -1   5  10 348.828 79.5567   3 
  -1   5  11-66.9085 68.7127   3 
  -1   6 -14 20.5866 52.5105   4 
  -1   6 -13-30.7080 30.8379   8 
  -1   6 -13 4.20183 45.1722   4 
  -1   6 -12 19.5279 30.4407   8 
  -1   6 -12 71.0273 47.7761   4 
  -1   6 -11 343.319 74.8340   4 
  -1   6 -10 156.968 56.2182   4 
  -1   6  -9 137.339 45.0586   4 
  -1   6  -8 46.1931 33.7948   4 
  -1   6  -7 226.846 48.0089   4 
  -1   6  -6 1459.71 107.401   4 
  -1   6  -6 1528.29 64.0456   8 
  -1   6  -5 1340.46 101.056   4 
  -1   6  -5 1393.92 50.6247   8 
  -1   6  -4 1398.84 80.3179   1 
  -1   6  -4 1235.00 93.5444   4 
  -1   6  -4 1256.47 37.7509   8 
  -1   6  -3 1583.94 39.7269   8 
  -1   6  -3 1588.28 102.176   4 
  -1   6  -3 1815.15 81.2619   1 
  -1   6  -3 1666.66 48.5598   7 
  -1   6  -2 9242.30 139.405   7 
  -1   6  -2 9721.11 243.740   4 
  -1   6  -2 9762.14 172.387   1 
  -1   6  -2 9591.78 213.585   2 
  -1   6  -2 9721.97 151.966   3 
  -1   6  -1 41551.4 440.312   2 
  -1   6  -1 41834.0 332.600   1 
  -1   6  -1 41507.2 348.255   7 
  -1   6   0 200.837 32.2335   3 
  -1   6   0 232.908 25.9593   1 
  -1   6   0 175.566 29.1221   2 
  -1   6   1 6879.48 189.509   3 
  -1   6   2 230.214 38.9361   3 
  -1   6   3 46.5453 29.0195   3 
  -1   6   4 6931.28 238.177   3 
  -1   6   5 485.036 71.4259   3 
  -1   6   6 446.920 72.6390   3 
  -1   6   7 358.311 68.5827   3 
  -1   6   8 1397.36 137.229   3 
  -1   6   9 1289.11 144.596   3 
  -1   6  10 202.020 73.9467   3 
  -1   7 -14 0.49553 57.5412   4 
  -1   7 -13 45.5957 47.7644   4 
  -1   7 -12 224.665 53.7446   8 
  -1   7 -12 119.013 58.3264   4 
  -1   7 -11 87.8081 47.9989   4 
  -1   7 -10 127.461 53.7809   4 
  -1   7  -9 12.8983 34.5542   4 
  -1   7  -8-29.3046 34.2773   4 
  -1   7  -8 3.61721 19.2048   8 
  -1   7  -7 478.097 40.5838   8 
  -1   7  -7 560.551 75.4227   4 
  -1   7  -6 2651.04 152.642   4 
  -1   7  -6 2523.15 76.5962   8 
  -1   7  -5 858.626 86.9015   4 
  -1   7  -5 874.766 37.4704   8 
  -1   7  -4-19.2631 22.7181   1 
  -1   7  -4 9.83631 5.59019   8 
  -1   7  -3 755.835 79.8827   4 
  -1   7  -3 811.781 57.6618   1 
  -1   7  -3 778.526 36.2208   7 
  -1   7  -2 867.421 83.7422   4 
  -1   7  -2 971.262 55.7238   1 
  -1   7  -2 914.605 49.6098   7 
  -1   7  -2 954.160 56.0800   3 
  -1   7  -1 873.815 49.8270   1 
  -1   7  -1 880.933 61.4673   3 
  -1   7  -1 898.167 57.9641   7 
  -1   7   0 2700.50 119.586   3 
  -1   7   0 2826.98 84.3117   1 
  -1   7   1 244.065 41.6134   3 
  -1   7   2 1214.59 98.6100   3 
  -1   7   3 876.005 88.1626   3 
  -1   7   4 2301.74 146.725   3 
  -1   7   5 16.0192 28.4030   3 
  -1   7   6 705.917 91.5879   3 
  -1   7   7-4.72043 38.8869   3 
  -1   7   8-39.1877 64.7324   3 
  -1   7   9 105.411 52.4736   3 
  -1   8 -13 56.6685 41.5402   4 
  -1   8 -12 88.7504 57.2336   4 
  -1   8 -11 18.4640 37.3566   4 
  -1   8 -10 100.638 46.8114   4 
  -1   8  -9 46.7640 44.3158   4 
  -1   8  -8 306.598 63.3354   4 
  -1   8  -7 21.2210 14.6295   8 
  -1   8  -7 24.4040 29.3299   4 
  -1   8  -6 228.848 52.7036   4 
  -1   8  -6 107.675 15.5080   8 
  -1   8  -5 49.6024 8.75277   8 
  -1   8  -5 89.9593 40.7586   4 
  -1   8  -4 488.860 49.6728   1 
  -1   8  -4 384.615 64.2783   4 
  -1   8  -3 248.523 34.7002   1 
  -1   8  -3 217.937 22.4295   7 
  -1   8  -3 249.878 53.3535   4 
  -1   8  -3 229.484 27.4746   3 
  -1   8  -2 4.65425 19.8589   3 
  -1   8  -2 30.5392 15.8480   7 
  -1   8  -2 18.5361 15.1847   1 
  -1   8  -2 4.82495 27.8438   4 
  -1   8  -1 780.442 47.2714   1 
  -1   8  -1 801.111 57.5360   7 
  -1   8  -1 850.013 66.3763   3 
  -1   8   0 14.3633 21.9603   3 
  -1   8   1 45.5376 29.2940   3 
  -1   8   2 3111.41 162.206   3 
  -1   8   3 263.110 59.7795   3 
  -1   8   4 284.479 60.6649   3 
  -1   8   5 450.287 77.0953   3 
  -1   8   6 302.269 70.5359   3 
  -1   8   7 57.0062 48.5022   3 
  -1   8   8-31.6242 36.1135   3 
  -1   9 -13 39.0536 47.2484   4 
  -1   9 -12-155.868 68.0419   4 
  -1   9 -11 96.5798 51.9359   4 
  -1   9 -10 3.46446 37.1758   4 
  -1   9  -9 586.532 90.3095   4 
  -1   9  -8 853.553 103.130   4 
  -1   9  -7 202.222 53.5751   4 
  -1   9  -6 154.664 46.0867   4 
  -1   9  -5-2.47885 38.2144   4 
  -1   9  -4 425.453 45.1604   1 
  -1   9  -4 440.441 76.3168   4 
  -1   9  -3 190.958 28.0943   3 
  -1   9  -3 134.417 24.5266   1 
  -1   9  -3 232.298 25.1371   7 
  -1   9  -3 274.008 58.1368   4 
  -1   9  -2 1.35577 16.4024   3 
  -1   9  -2-1.55431 14.4489   1 
  -1   9  -2 17.2408 36.1761   4 
  -1   9  -2 13.3380 17.7021   7 
  -1   9  -1 376.579 46.7281   3 
  -1   9  -1 477.641 49.4278   7 
  -1   9   0 81.9002 36.1374   3 
  -1   9   1 5366.62 211.588   3 
  -1   9   2 414.136 65.2966   3 
  -1   9   3 1003.09 106.021   3 
  -1   9   4 4.68045 32.9267   3 
  -1   9   5 118.731 61.1228   3 
  -1   9   6 39.1365 43.9149   3 
  -1   9   7 108.550 50.8143   3 
  -1  10 -12-55.9498 57.1998   4 
  -1  10 -11-41.3370 60.8470   4 
  -1  10 -10 45.6658 36.5132   4 
  -1  10  -9-80.4605 52.0605   4 
  -1  10  -8 12.9147 36.4505   4 
  -1  10  -7 98.4685 51.3854   4 
  -1  10  -6 0.74325 31.2455   4 
  -1  10  -5 311.583 69.4359   4 
  -1  10  -4 49.3241 42.3902   4 
  -1  10  -3-1.92551 12.7965   7 
  -1  10  -3 1.25414 36.1717   4 
  -1  10  -3 1.87520 19.7528   3 
  -1  10  -2 124.441 31.2753   3 
  -1  10  -2 181.140 53.5806   4 
  -1  10  -2 158.634 29.1980   7 
  -1  10  -1 11.6672 21.1098   3 
  -1  10  -1-43.0353 35.0029   4 
  -1  10  -1 5.99064 23.4771   7 
  -1  10   0 1847.46 113.535   7 
  -1  10   0 1815.06 123.353   3 
  -1  10   1 11.2263 32.5201   3 
  -1  10   2 59.3453 43.3199   3 
  -1  10   3 4.85071 39.8565   3 
  -1  10   4-5.47548 36.6979   3 
  -1  10   5 575.901 102.074   3 
  -1  10   6 251.124 71.6655   3 
  -1  11 -12 53.3085 62.1423   4 
  -1  11 -11 19.1996 45.5278   4 
  -1  11 -10 64.7597 55.0705   4 
  -1  11  -9 23.2329 43.6778   4 
  -1  11  -8 5.25906 33.0241   4 
  -1  11  -7 31.3528 35.8540   4 
  -1  11  -6 1042.17 123.842   4 
  -1  11  -5 3229.21 205.025   4 
  -1  11  -4 44.4237 37.5903   4 
  -1  11  -3 4.28571 36.4100   4 
  -1  11  -2 55.9058 40.0759   4 
  -1  11  -2 67.1789 23.9337   3 
  -1  11  -1 31.9820 21.7935   3 
  -1  11  -1-23.8260 43.6285   4 
  -1  11   0 4.14121 26.7315   3 
  -1  11   0 33.9298 33.0552   7 
  -1  11   1 29.5996 37.2226   3 
  -1  11   1 56.5403 40.0074   7 
  -1  11   2 218.940 64.1309   3 
  -1  11   3 83.7769 46.6743   3 
  -1  11   4 1990.12 173.472   3 
  -1  11   5 1697.48 161.884   3 
  -1  12 -10 34.7920 44.9609   4 
  -1  12  -9 9.13345 42.0561   4 
  -1  12  -8 91.3713 46.8479   4 
  -1  12  -7 133.210 64.8121   4 
  -1  12  -6 142.795 62.8949   4 
  -1  12  -5 77.9690 45.3629   4 
  -1  12  -4 304.420 74.7568   4 
  -1  12  -3 68.6401 58.2041   4 
  -1  12  -2 76.5435 46.0178   4 
  -1  12  -1-18.2026 39.5637   4 
  -1  12   0 30.3320 42.3672   3 
  -1  12   0 96.7971 66.0479   4 
  -1  12   1 115.866 51.4565   3 
  -1  12   2-10.8229 44.1474   3 
  -1  12   3 964.192 124.271   3 
  -1  12   4 89.1621 46.0538   3 
  -1  13  -9 155.709 68.9198   4 
  -1  13  -8 593.229 106.180   4 
  -1  13  -7 419.389 98.8759   4 
  -1  13  -6 126.302 67.5828   4 
  -1  13  -5 40.5725 39.7348   4 
  -1  13  -4 123.959 59.0600   4 
  -1  13  -3 56.3082 49.0604   4 
  -1  13  -2-27.0714 41.4150   4 
  -1  13  -1 88.0849 51.1218   4 
  -1  13   0 53.0414 55.6787   4 
   0 -13   0-8.34619 52.2251   6 
   0 -13   1 42.5743 53.9834   6 
   0 -13   2 448.301 96.2901   6 
   0 -13   3 221.594 81.2935   6 
   0 -13   4 5.03856 45.3399   6 
   0 -13   5-23.9560 47.6582   6 
   0 -13   6-72.7994 70.2225   6 
   0 -13   7 64.7379 49.0073   6 
   0 -13   8 258.156 79.5078   6 
   0 -13   8 260.224 89.8976   2 
   0 -13   9 120.389 48.3476   6 
   0 -13   9 194.141 71.4483   2 
   0 -13  10 109.768 56.4552   6 
   0 -12  -2 164.867 59.3832   6 
   0 -12  -1 209.112 51.9858   6 
   0 -12   0-14.3803 41.8633   6 
   0 -12   1-1.58327 50.1733   6 
   0 -12   2 3.48389 40.3252   6 
   0 -12   3 35.0893 37.0462   6 
   0 -12   4 38.2315 35.0550   6 
   0 -12   5 127.958 63.4792   6 
   0 -12   6-27.8704 42.8580   6 
   0 -12   7-62.3511 47.5142   6 
   0 -12   7-132.690 76.3569   2 
   0 -12   8-14.0927 46.3205   6 
   0 -12   8 14.4764 50.1493   2 
   0 -12   9-17.3077 37.9397   6 
   0 -12   9 41.0686 54.4854   2 
   0 -12  10 34.4798 46.9935   6 
   0 -12  10 69.8843 56.9590   2 
   0 -12  11-52.4808 44.9144   6 
   0 -12  12 38.1423 46.1855   6 
   0 -11  -5 32.8999 56.6614   8 
   0 -11  -4 2086.59 172.688   8 
   0 -11  -3 1263.03 132.570   8 
   0 -11  -3 1156.11 124.459   6 
   0 -11  -2-39.6888 49.8890   6 
   0 -11  -2-21.8003 30.2571   8 
   0 -11  -1 28.1769 36.2583   6 
   0 -11  -1-12.3915 37.8485   8 
   0 -11   0 14.0745 43.9258   6 
   0 -11   0 15.1828 30.8644   8 
   0 -11   1 29.5021 36.9056   6 
   0 -11   1 34.3386 23.3408   8 
   0 -11   2 183.063 53.3876   6 
   0 -11   3 170.282 53.5855   6 
   0 -11   4 753.597 111.118   6 
   0 -11   5 1954.12 162.814   6 
   0 -11   6 2891.94 199.392   2 
   0 -11   6 2834.93 197.355   6 
   0 -11   7 154.620 54.4811   6 
   0 -11   7 179.629 57.5517   2 
   0 -11   8-18.4083 47.5715   6 
   0 -11   8-29.8528 47.0765   2 
   0 -11   9-46.1949 43.6271   6 
   0 -11   9 34.7805 58.7560   2 
   0 -11  10 12.0896 41.6018   6 
   0 -11  10 3.87429 48.8955   2 
   0 -11  11 2.94173 38.0220   6 
   0 -11  11-133.363 56.5883   2 
   0 -11  12 72.4899 39.1541   6 
   0 -11  12-82.4482 74.2421   2 
   0 -10  -6 140.091 52.4860   8 
   0 -10  -5 1554.05 154.667   8 
   0 -10  -4-22.4997 49.1359   6 
   0 -10  -4-27.4888 38.7781   8 
   0 -10  -3 188.210 62.6676   6 
   0 -10  -3 175.287 51.4156   8 
   0 -10  -2 138.925 50.0606   8 
   0 -10  -2 139.169 39.3830   6 
   0 -10  -1 6.39668 33.9124   8 
   0 -10  -1 55.1757 47.4579   6 
   0 -10   0 326.990 71.0229   6 
   0 -10   0 283.933 49.7280   8 
   0 -10   1-12.2936 30.8118   6 
   0 -10   1-18.0474 28.0197   8 
   0 -10   2 2243.72 121.294   8 
   0 -10   2 2167.77 157.288   6 
   0 -10   3-42.1399 54.9525   6 
   0 -10   3-10.9689 29.0620   8 
   0 -10   4 431.795 79.2846   6 
   0 -10   5 192.473 69.2753   6 
   0 -10   5 148.803 55.2027   2 
   0 -10   6 75.4360 42.3659   6 
   0 -10   6 122.480 53.0430   2 
   0 -10   7-43.5447 48.0984   2 
   0 -10   7-9.96257 40.3219   6 
   0 -10   8 64.3719 45.8904   6 
   0 -10   8 63.2330 52.7181   2 
   0 -10   9 0.57613 34.6563   6 
   0 -10   9 18.2410 38.2270   2 
   0 -10  10 51.7304 37.8265   6 
   0 -10  10 45.3483 44.1613   2 
   0 -10  11-1.66827 33.7463   6 
   0 -10  11 6.61804 52.4174   2 
   0 -10  12 10.2902 45.2935   6 
   0 -10  12 70.8253 45.5677   2 
   0  -9  -7 2490.90 206.161   8 
   0  -9  -6 2578.20 192.697   8 
   0  -9  -5 96.6378 53.5228   8 
   0  -9  -4 607.892 92.6069   8 
   0  -9  -4 668.717 85.3068   6 
   0  -9  -3 73.5400 38.0462   6 
   0  -9  -3 109.529 46.1325   8 
   0  -9  -2-4.95772 34.4393   6 
   0  -9  -2 16.6563 32.9122   8 
   0  -9  -1-6.95990 31.7543   6 
   0  -9  -1-12.9054 36.7495   8 
   0  -9   0 54.8365 30.3225   8 
   0  -9   0 27.6260 28.6869   6 
   0  -9   1 14.3675 42.6142   6 
   0  -9   1 24.1093 21.6999   8 
   0  -9   2 16.8298 41.2184   6 
   0  -9   2 66.7237 29.3614   8 
   0  -9   3 14320.5 273.214   8 
   0  -9   3 15081.0 391.957   6 
   0  -9   4 2884.98 168.348   2 
   0  -9   4 2735.61 164.697   6 
   0  -9   5 772.912 92.1872   2 
   0  -9   5 772.003 90.6988   6 
   0  -9   6-7.61560 41.3380   2 
   0  -9   6-47.0896 40.6488   6 
   0  -9   7 68.4808 32.8369   6 
   0  -9   7 31.7814 44.4961   2 
   0  -9   8 59.8886 36.7350   6 
   0  -9   8 13.2827 38.0590   2 
   0  -9   9 207.766 50.3038   6 
   0  -9   9 196.982 67.6587   2 
   0  -9  10 73.7706 42.7732   6 
   0  -9  10 161.450 59.1105   2 
   0  -9  11 42.9729 32.4997   6 
   0  -9  11 170.388 68.5911   2 
   0  -9  12 26.7767 53.2902   2 
   0  -9  13 539.611 107.897   2 
   0  -8  -8 398.516 89.1600   8 
   0  -8  -7 633.130 110.964   8 
   0  -8  -6 24.6851 41.8088   8 
   0  -8  -5 3.64818 21.4722   6 
   0  -8  -5 19.6728 43.8366   8 
   0  -8  -4 50.2956 37.7751   6 
   0  -8  -4 33.2106 30.6189   8 
   0  -8  -3 56.1129 32.1169   6 
   0  -8  -3 97.8381 38.5530   8 
   0  -8  -2 4053.33 182.755   8 
   0  -8  -2 3786.74 181.009   6 
   0  -8  -1 60.0622 34.1126   8 
   0  -8  -1 23.8164 28.8089   6 
   0  -8   0 104.286 39.3494   6 
   0  -8   0 94.5106 33.1777   8 
   0  -8   1 126.692 41.4068   6 
   0  -8   1 152.380 32.9575   8 
   0  -8   2 61.9509 25.1449   3 
   0  -8   2 32.8259 26.3771   6 
   0  -8   2 56.0547 26.5433   8 
   0  -8   3 1847.51 91.3012   8 
   0  -8   3 1860.47 127.640   6 
   0  -8   4 116.971 44.6499   6 
   0  -8   4 77.5246 37.6878   2 
   0  -8   5 170.644 46.5226   6 
   0  -8   5 174.825 42.6873   2 
   0  -8   6 86.5475 40.4465   6 
   0  -8   6 80.1244 40.7395   2 
   0  -8   7 30.9697 35.9787   2 
   0  -8   7-11.4276 27.3164   6 
   0  -8   8 254.544 56.5371   6 
   0  -8   8 182.420 55.8832   2 
   0  -8   9 96.0116 39.5854   6 
   0  -8   9 103.590 45.7611   2 
   0  -8  10 64.0555 38.0973   6 
   0  -8  10-14.2683 47.5291   2 
   0  -8  11 5.75126 37.5328   6 
   0  -8  11 75.2318 42.9525   2 
   0  -8  12-15.0746 64.7693   2 
   0  -8  13 23.2538 42.1223   2 
   0  -8  14-11.0200 61.3490   2 
   0  -7  -9 129.305 58.8005   8 
   0  -7  -8 49.7315 43.5734   8 
   0  -7  -7 63.4173 50.4432   8 
   0  -7  -6 3.18003 22.7040   6 
   0  -7  -6 10.5576 34.9953   8 
   0  -7  -5 1570.94 129.387   8 
   0  -7  -5 1328.11 100.567   6 
   0  -7  -4 742.835 86.3866   8 
   0  -7  -4 747.282 52.3252   1 
   0  -7  -4 773.497 78.4710   6 
   0  -7  -3 8665.71 252.812   6 
   0  -7  -3 9015.16 268.064   8 
   0  -7  -3 8681.90 143.775   1 
   0  -7  -2 434.039 56.3533   6 
   0  -7  -2 393.606 24.3559   1 
   0  -7  -1 488.596 55.6541   8 
   0  -7  -1 421.537 56.9160   6 
   0  -7   0 264.537 47.0884   6 
   0  -7   0 217.469 37.5996   8 
   0  -7   1 575.580 67.2817   6 
   0  -7   1 604.046 57.2883   8 
   0  -7   1 544.299 53.7900   3 
   0  -7   2 515.397 64.8128   6 
   0  -7   2 452.329 46.3559   8 
   0  -7   2 495.231 48.4546   3 
   0  -7   3 431.588 61.9713   6 
   0  -7   3 404.926 43.5662   8 
   0  -7   3 448.688 63.0112   2 
   0  -7   4 516.514 65.7148   6 
   0  -7   4 508.318 67.0765   2 
   0  -7   5 1221.87 98.3480   2 
   0  -7   5 1094.05 93.2047   6 
   0  -7   6 5313.04 197.384   6 
   0  -7   6 5734.46 215.612   2 
   0  -7   7 3960.93 186.218   2 
   0  -7   7 4012.91 170.735   6 
   0  -7   8 18.4011 25.5500   6 
   0  -7   8 31.6029 40.9810   2 
   0  -7   9 37.8894 24.3111   6 
   0  -7   9 52.0956 35.7919   2 
   0  -7  10 7.05728 22.0383   6 
   0  -7  10-24.3086 41.8344   2 
   0  -7  11 166.800 42.0292   6 
   0  -7  11 194.527 62.2643   2 
   0  -7  12 207.942 65.9691   2 
   0  -7  13-36.3232 47.8765   2 
   0  -7  14 179.479 72.0791   2 
   0  -6 -10 0.85326 67.6927   8 
   0  -6  -9 30.6796 53.9472   8 
   0  -6  -8 328.566 74.6675   8 
   0  -6  -7 569.800 90.4573   8 
   0  -6  -7 341.796 51.3531   1 
   0  -6  -6 368.267 48.6193   6 
   0  -6  -6 548.881 79.3373   8 
   0  -6  -6 425.745 56.3368   1 
   0  -6  -5 116.692 33.9147   6 
   0  -6  -5 115.977 29.0994   1 
   0  -6  -5 152.752 43.8971   8 
   0  -6  -4 4016.80 178.815   8 
   0  -6  -4 3774.47 120.342   1 
   0  -6  -4 3613.28 151.399   6 
   0  -6  -3 132.762 34.5727   8 
   0  -6  -3 141.315 32.1596   6 
   0  -6  -3 100.349 20.5179   1 
   0  -6  -2 28.3824 32.6171   8 
   0  -6  -2 4.61354 18.4865   6 
   0  -6  -2 19.7020 9.77639   1 
   0  -6  -1 1912.86 43.6173   1 
   0  -6  -1 2192.92 108.022   8 
   0  -6  -1 2056.36 113.218   6 
   0  -6   0 112.801 23.9563   3 
   0  -6   0 136.883 34.1971   6 
   0  -6   0 132.952 30.8896   8 
   0  -6   1 18.2871 24.1242   6 
   0  -6   1 29.1732 20.2173   3 
   0  -6   1 2.42103 17.5231   8 
   0  -6   2 398.049 51.1701   6 
   0  -6   2 471.456 56.8357   2 
   0  -6   2 466.035 40.6980   8 
   0  -6   2 458.242 40.5597   3 
   0  -6   3 681.332 68.1563   2 
   0  -6   3 713.244 49.2932   8 
   0  -6   3 749.820 71.3455   6 
   0  -6   4 470.578 56.5965   6 
   0  -6   4 373.605 51.2189   2 
   0  -6   5 1373.59 96.1022   2 
   0  -6   5 1370.82 91.8105   6 
   0  -6   6 2131.16 117.320   6 
   0  -6   6 2178.24 127.713   2 
   0  -6   7 137.760 30.3187   6 
   0  -6   7 139.719 41.2610   2 
   0  -6   8 48.7043 22.4102   6 
   0  -6   8-13.2925 36.1986   2 
   0  -6   8-14.5929 10.2831   7 
   0  -6   8 17.7213 10.7904   7 
   0  -6   9 99.1861 41.0555   2 
   0  -6   9 74.6499 26.5404   6 
   0  -6  10-14.9741 32.6746   2 
   0  -6  10 84.9912 26.9133   6 
   0  -6  11 112.330 30.5287   6 
   0  -6  11 146.330 52.1978   2 
   0  -6  12 152.186 63.8958   2 
   0  -6  13-95.9285 56.4659   2 
   0  -6  14-63.1514 74.6301   2 
   0  -5 -10 112.547 51.1042   8 
   0  -5  -9-8.49836 36.8087   1 
   0  -5  -9 241.956 78.8488   8 
   0  -5  -8 600.452 75.4581   1 
   0  -5  -8 711.633 102.654   8 
   0  -5  -7-14.5108 25.0066   1 
   0  -5  -7 34.4409 41.1834   8 
   0  -5  -6 2610.67 160.327   8 
   0  -5  -6 2568.25 126.377   1 
   0  -5  -6 2354.81 103.604   6 
   0  -5  -5 787.618 81.5971   8 
   0  -5  -5 784.724 63.7388   1 
   0  -5  -5 731.358 60.5913   6 
   0  -5  -4 3157.67 149.271   8 
   0  -5  -4 2903.68 121.896   6 
   0  -5  -4 2963.93 107.538   1 
   0  -5  -3 502.269 56.3783   8 
   0  -5  -3 447.750 37.9615   1 
   0  -5  -3 357.805 45.9367   6 
   0  -5  -2 3231.51 129.806   8 
   0  -5  -2 3243.31 80.7853   1 
   0  -5  -2 3284.31 127.735   6 
   0  -5  -1 3219.69 119.884   8 
   0  -5  -1 3086.52 60.9441   1 
   0  -5  -1 3266.62 127.312   3 
   0  -5  -1 3040.21 123.050   6 
   0  -5   0 2752.52 102.238   8 
   0  -5   0 2767.50 105.751   3 
   0  -5   0 2710.44 116.693   6 
   0  -5   1 1206.73 61.4963   8 
   0  -5   1 1323.97 81.8886   6 
   0  -5   1 1354.57 65.2838   3 
   0  -5   2 3957.06 96.5333   3 
   0  -5   2 3768.76 133.357   2 
   0  -5   2 3830.74 137.942   6 
   0  -5   3 2786.68 116.060   2 
   0  -5   3 2925.25 120.598   6 
   0  -5   4 14067.3 271.204   2 
   0  -5   4 14235.1 264.335   6 
   0  -5   5 1591.66 96.1946   2 
   0  -5   5 1515.82 88.7612   6 
   0  -5   6 313.058 44.4265   6 
   0  -5   6 289.041 50.1444   2 
   0  -5   6 309.195 21.2119   7 
   0  -5   7-12.5334 25.9450   2 
   0  -5   7 27.1384 20.4989   6 
   0  -5   8 1113.85 99.7616   2 
   0  -5   8 1089.63 73.4123   6 
   0  -5   9 685.371 85.9552   2 
   0  -5   9 712.566 60.1206   6 
   0  -5  10 1206.60 114.384   2 
   0  -5  10 1044.64 69.9186   6 
   0  -5  11 174.489 56.0497   2 
   0  -5  12 26.4870 41.5560   2 
   0  -5  13 57.9562 52.4177   2 
   0  -5  14 185.684 74.4899   2 
   0  -4 -11 852.623 121.101   8 
   0  -4 -11 628.074 94.1637   1 
   0  -4 -10 928.677 121.842   8 
   0  -4 -10 1098.19 112.792   1 
   0  -4  -9-11.5631 44.4355   8 
   0  -4  -8 354.461 74.7499   8 
   0  -4  -7 564.047 78.3709   8 
   0  -4  -6 6586.29 238.804   8 
   0  -4  -6 6308.01 144.825   6 
   0  -4  -5 81.6924 21.4702   6 
   0  -4  -5 113.597 35.5459   8 
   0  -4  -4 145.865 26.5898   6 
   0  -4  -4 196.383 37.7938   8 
   0  -4  -3 9055.29 216.072   8 
   0  -4  -3 8793.10 161.110   1 
   0  -4  -3 9103.31 187.208   6 
   0  -4  -2 514.312 48.8650   8 
   0  -4  -2 486.158 32.2787   1 
   0  -4  -2 454.794 49.2645   3 
   0  -4  -2 496.430 44.9553   6 
   0  -4  -1 102669. 602.386   8 
   0  -4  -1 102086. 351.599   1 
   0  -4  -1 103543. 643.170   3 
   0  -4   0 30091.1 343.199   6 
   0  -4   0 29941.6 146.834   1 
   0  -4   0 31178.1 299.369   8 
   0  -4   0 31108.4 310.719   3 
   0  -4   1 8318.03 173.507   2 
   0  -4   1 8382.86 139.327   3 
   0  -4   1 8274.55 178.868   6 
   0  -4   2 10244.7 143.378   8 
   0  -4   2 10150.4 194.929   2 
   0  -4   2 9928.00 126.560   3 
   0  -4   2 10435.4 200.650   6 
   0  -4   3 12266.5 218.018   6 
   0  -4   3 12693.7 224.981   2 
   0  -4   4 10213.0 211.242   2 
   0  -4   4 10598.0 203.689   6 
   0  -4   5 896.609 71.3404   4 
   0  -4   5 949.962 71.1053   2 
   0  -4   5 928.223 62.1854   6 
   0  -4   6 31.9877 21.8049   2 
   0  -4   6-12.0662 15.1993   6 
   0  -4   7 794.346 74.9555   2 
   0  -4   7 750.858 55.4153   6 
   0  -4   8 1445.89 106.449   2 
   0  -4   8 1410.84 72.4821   6 
   0  -4   9 3732.96 184.670   2 
   0  -4   9 3573.15 111.199   6 
   0  -4  10 127.984 48.6437   2 
   0  -4  11-17.6506 44.2063   2 
   0  -4  12-20.4806 49.5409   2 
   0  -4  13-33.3373 49.7994   2 
   0  -4  14-68.3075 64.3346   2 
   0  -3 -12 114.167 63.8523   8 
   0  -3 -12-46.2029 57.3042   1 
   0  -3 -11 191.166 57.4999   8 
   0  -3 -10-34.5418 56.3629   8 
   0  -3  -9 188.980 61.7461   8 
   0  -3  -8 234.510 52.5578   8 
   0  -3  -7 210.862 49.9532   8 
   0  -3  -6 176.456 42.0866   8 
   0  -3  -6 162.477 21.2935   6 
   0  -3  -5 136.568 19.7572   6 
   0  -3  -5 161.497 35.9599   8 
   0  -3  -4 22184.4 349.820   8 
   0  -3  -4 21963.0 247.458   6 
   0  -3  -3 2704.83 108.118   8 
   0  -3  -3 2648.61 87.1622   6 
   0  -3  -2 6549.72 151.767   8 
   0  -3  -2 6564.07 136.654   6 
   0  -3  -1 4009.56 104.966   8 
   0  -3  -1 3858.19 66.4023   1 
   0  -3  -1 3871.19 111.287   3 
   0  -3  -1 3906.87 105.889   6 
   0  -3   0 1346.40 63.1783   6 
   0  -3   0 1363.85 54.0589   8 
   0  -3   0 1380.26 56.9041   3 
   0  -3   1 3328.72 95.5344   2 
   0  -3   1 3210.37 70.9890   8 
   0  -3   1 3251.46 71.1759   3 
   0  -3   2 82.9831 23.0538   6 
   0  -3   2 8.21380 17.8053   2 
   0  -3   3 247.990 32.4659   2 
   0  -3   3 236.561 28.7889   6 
   0  -3   4 2979.44 109.616   2 
   0  -3   4 3130.50 94.4984   6 
   0  -3   5 616.459 55.5442   4 
   0  -3   5 663.228 59.0347   2 
   0  -3   5 640.449 44.3495   6 
   0  -3   6 2358.00 114.081   2 
   0  -3   6 2333.23 81.4473   3 
   0  -3   6 2333.70 80.7816   6 
   0  -3   7 8417.72 233.772   2 
   0  -3   7 8665.14 180.613   3 
   0  -3   7 8849.76 154.814   6 
   0  -3   8 799.730 82.7436   2 
   0  -3   8 725.166 59.1236   3 
   0  -3   8 838.179 46.1379   6 
   0  -3   9-17.8859 37.1363   2 
   0  -3   9 13.8496 22.9686   3 
   0  -3  10 181.313 53.4051   2 
   0  -3  10 180.527 40.5262   3 
   0  -3  11 18.6202 35.7651   2 
   0  -3  11 61.4494 31.2909   3 
   0  -3  12 16.3614 41.0834   2 
   0  -3  12-0.51349 24.4049   3 
   0  -3  13 90.9721 56.3952   2 
   0  -3  14 130.993 70.7074   2 
   0  -2 -12 66.6875 46.0250   8 
   0  -2 -11 343.572 83.2433   8 
   0  -2 -10 3.53272 40.2634   8 
   0  -2  -9 655.904 86.4298   8 
   0  -2  -8 2962.25 168.007   8 
   0  -2  -7 2069.59 129.412   8 
   0  -2  -6 3722.63 161.250   8 
   0  -2  -5 27.5335 9.35728   6 
   0  -2  -4 31530.1 234.877   6 
   0  -2  -3 42810.7 279.165   6 
   0  -2  -2 38903.6 269.720   6 
   0  -2  -1 21671.8 200.390   6 
   0  -2   0 9632.70 114.801   8 
   0  -2   0 9591.81 134.639   6 
   0  -2   0 9547.03 120.357   3 
   0  -2   1 47105.0 213.072   8 
   0  -2   1 47579.5 286.417   2 
   0  -2   1 47458.4 190.845   3 
   0  -2   1 46567.7 293.292   6 
   0  -2   2 140705. 539.817   2 
   0  -2   2 141509. 514.896   6 
   0  -2   3 56708.6 323.947   6 
   0  -2   3 56752.5 392.175   2 
   0  -2   4 24897.1 214.128   6 
   0  -2   4 24780.1 291.268   4 
   0  -2   4 24775.6 295.071   2 
   0  -2   4 25299.1 217.098   3 
   0  -2   5 2164.64 96.8800   4 
   0  -2   5 2217.97 98.1193   2 
   0  -2   5 2271.17 79.3597   3 
   0  -2   5 2218.52 62.9782   6 
   0  -2   6 5830.90 173.716   2 
   0  -2   6 5760.05 144.972   3 
   0  -2   6 6112.59 101.740   6 
   0  -2   7 1043.40 83.2255   2 
   0  -2   7 993.192 66.8039   3 
   0  -2   8 1219.49 96.0518   2 
   0  -2   8 1223.37 83.2435   3 
   0  -2   9 79.1921 27.5714   3 
   0  -2   9 61.6000 35.6545   2 
   0  -2  10 344.662 62.6266   2 
   0  -2  10 345.397 54.0326   3 
   0  -2  11 131.485 38.2509   3 
   0  -2  11 45.8849 39.0828   2 
   0  -2  12 1538.21 146.162   2 
   0  -2  12 1419.73 121.720   3 
   0  -2  13 102.041 58.3808   2 
   0  -2  13 164.196 52.1454   3 
   0  -2  14 134.102 61.4725   2 
   0  -1 -13 5.45421 56.7098   8 
   0  -1 -12 10.7101 50.1131   8 
   0  -1 -11 43.1760 35.3548   8 
   0  -1 -10 45.5238 35.0226   8 
   0  -1  -9 446.721 71.8338   4 
   0  -1  -9 435.881 63.6055   8 
   0  -1  -8 7364.34 245.835   4 
   0  -1  -7 180.156 44.8016   4 
   0  -1  -6 770.932 69.0639   4 
   0  -1  -5 848.316 66.4575   4 
   0  -1  -4 1130.48 69.0765   4 
   0  -1  -3 5772.40 134.517   4 
   0  -1  -3 5273.17 68.1804   6 
   0  -1  -2 26813.8 156.839   6 
   0  -1  -1 76040.2 264.429   6 
   0  -1   2 6373.12 76.5968   6 
   0  -1   2 6320.31 103.212   2 
   0  -1   2 6474.70 76.2418   3 
   0  -1   3 48204.0 288.446   3 
   0  -1   3 47902.9 207.429   6 
   0  -1   4 6655.55 149.086   4 
   0  -1   4 6676.16 131.773   3 
   0  -1   5 3652.56 124.042   4 
   0  -1   5 3620.49 111.361   3 
   0  -1   6 103.818 26.0162   3 
   0  -1   7 1019.08 75.4898   3 
   0  -1   8 476.092 58.3942   3 
   0  -1   9 2348.59 132.083   3 
   0  -1  10 2534.35 148.530   3 
   0  -1  11 1464.87 131.677   2 
   0  -1  11 1363.97 117.150   3 
   0  -1  12 176.336 47.1382   3 
   0  -1  12 163.032 58.9376   2 
   0  -1  13 18.4800 40.1023   3 
   0  -1  13 19.6112 46.4763   2 
   0  -1  14-48.2691 66.6902   2 
   0  -1  14 3.83169 40.1811   3 
   0   0 -13 34.9241 49.1398   8 
   0   0 -12 199.992 62.6756   8 
   0   0 -11 134.583 50.2056   8 
   0   0 -11 80.4290 48.5906   4 
   0   0 -10 11545.4 347.003   4 
   0   0  -9 5956.80 229.991   4 
   0   0  -8 540.287 68.7900   4 
   0   0  -7 245.716 44.3230   4 
   0   0  -6 1207.51 82.2357   4 
   0   0  -5 2651.58 112.452   4 
   0   0  -5 2615.73 106.138   3 
   0   0  -4 7334.74 163.110   4 
   0   0  -4 6992.41 154.874   3 
   0   0  -3 7742.95 143.822   4 
   0   0  -3 7847.76 139.171   3 
   0   0  -2 59225.2 328.548   4 
   0   0   2 59927.9 313.819   3 
   0   0   3 7870.38 139.125   3 
   0   0   4 7036.80 159.068   4 
   0   0   4 6974.93 152.623   3 
   0   0   5 2541.79 109.007   4 
   0   0   5 2507.43 102.436   3 
   0   0   6 1055.83 75.9204   3 
   0   0   7 282.883 39.3281   3 
   0   0   8 568.515 67.8096   3 
   0   0   9 5855.64 220.894   3 
   0   0  10 11785.7 335.590   3 
   0   0  11 102.525 41.1822   3 
   0   0  12 163.985 50.1529   3 
   0   0  13 119.533 55.5028   2 
   0   0  13 60.9802 43.3764   3 
   0   0  14 13.4504 41.0515   3 
   0   1 -14 27.3304 37.5737   8 
   0   1 -13 117.747 38.7480   4 
   0   1 -13 127.961 65.0209   8 
   0   1 -12 172.191 61.7199   4 
   0   1 -12 198.031 52.9281   8 
   0   1 -11 1443.44 133.555   4 
   0   1 -10 2481.59 161.059   4 
   0   1  -9 2402.86 145.009   4 
   0   1  -8 412.808 61.1259   4 
   0   1  -7 1056.00 83.4624   4 
   0   1  -6 124.386 24.7598   3 
   0   1  -6 125.113 34.8854   4 
   0   1  -5 3712.01 124.283   4 
   0   1  -5 3413.52 109.485   3 
   0   1  -4 6622.08 145.742   4 
   0   1  -4 6504.43 131.442   3 
   0   1  -3 47984.0 206.368   6 
   0   1  -3 48914.3 209.315   5 
   0   1  -3 48129.1 336.506   4 
   0   1  -3 48025.6 292.343   3 
   0   1  -2 6244.89 76.2839   5 
   0   1  -2 6232.45 100.372   4 
   0   1  -2 6346.35 76.6639   6 
   0   1  -2 6269.78 76.6940   3 
   0   1   1 75451.0 263.621   5 
   0   1   1 76454.7 263.915   6 
   0   1   1 75548.6 340.303   3 
   0   1   2 27023.7 156.896   5 
   0   1   2 26941.5 155.157   6 
   0   1   2 27342.1 254.506   3 
   0   1   3 5596.07 134.660   3 
   0   1   4 1163.03 72.1732   4 
   0   1   4 1168.93 70.2890   3 
   0   1   5 712.859 63.1908   4 
   0   1   5 797.334 63.8574   3 
   0   1   6 676.617 67.8025   3 
   0   1   7 215.296 43.4183   3 
   0   1   8 7128.47 241.405   3 
   0   1   9 412.772 69.0395   3 
   0   1  10 128.953 46.2017   3 
   0   1  11-2.40019 38.3478   3 
   0   1  12 15.1080 39.0934   3 
   0   1  13-75.7905 58.6296   3 
   0   2 -14-293.126 77.5821   4 
   0   2 -14-52.0344 61.8299   8 
   0   2 -13 255.829 81.5206   4 
   0   2 -13 171.727 63.0169   8 
   0   2 -12 1441.22 136.029   4 
   0   2 -11 16.2477 48.3342   4 
   0   2 -10 331.858 67.3674   4 
   0   2  -9 50.8650 41.2285   4 
   0   2  -8 1229.45 97.0306   4 
   0   2  -7 1135.80 83.8871   4 
   0   2  -7 1074.22 72.0937   3 
   0   2  -6 5957.33 172.406   4 
   0   2  -6 5888.71 149.367   3 
   0   2  -5 2173.35 62.3947   6 
   0   2  -5 2192.12 64.1953   5 
   0   2  -5 2251.00 96.2080   4 
   0   2  -5 2232.53 79.7897   3 
   0   2  -4 25135.4 218.130   5 
   0   2  -4 24835.4 285.708   4 
   0   2  -4 24975.9 214.521   6 
   0   2  -4 25367.7 220.018   3 
   0   2  -3 56362.8 323.672   5 
   0   2  -3 56451.8 385.663   4 
   0   2  -3 56451.6 246.766   3 
   0   2  -3 55744.2 325.283   6 
   0   2  -2 145407. 555.251   4 
   0   2  -1 47169.3 212.274   8 
   0   2  -1 47994.8 189.102   3 
   0   2   0 9587.70 113.556   8 
   0   2   0 9620.64 119.313   3 
   0   2   1 21500.7 199.881   6 
   0   2   1 21993.5 201.624   5 
   0   2   1 21784.1 223.306   3 
   0   2   2 38990.4 267.912   6 
   0   2   2 38743.3 267.936   5 
   0   2   2 39201.1 352.999   3 
   0   2   3 42603.0 276.998   6 
   0   2   3 42411.8 279.381   5 
   0   2   3 42244.5 416.198   3 
   0   2   4 32368.9 401.323   4 
   0   2   4 31870.9 398.017   3 
   0   2   5 59.7370 21.0182   3 
   0   2   6 3705.22 161.387   3 
   0   2   7 1924.23 124.864   3 
   0   2   8 3145.76 168.952   3 
   0   2   9 653.095 85.2139   3 
   0   2  10 61.9210 37.3874   3 
   0   2  11 188.774 52.0703   3 
   0   2  12 41.1229 50.3024   3 
   0   2  13 263.542 71.3376   3 
   0   3 -14-34.6676 64.7188   4 
   0   3 -14 84.4526 52.0818   8 
   0   3 -13 170.252 64.3880   4 
   0   3 -12 16.2534 45.7422   4 
   0   3 -11 48.7289 43.2757   4 
   0   3 -10 150.318 49.9406   4 
   0   3  -9 25.8149 36.7354   4 
   0   3  -8 867.664 80.9018   4 
   0   3  -8 780.510 64.1613   3 
   0   3  -7 9170.99 231.271   4 
   0   3  -7 8631.53 183.031   3 
   0   3  -6 2243.63 79.5003   6 
   0   3  -6 2263.11 80.9280   5 
   0   3  -6 2371.63 108.811   4 
   0   3  -6 2251.70 81.8223   3 
   0   3  -5 800.103 49.2531   5 
   0   3  -5 630.388 53.9933   4 
   0   3  -5 688.312 38.0953   3 
   0   3  -5 846.594 50.0957   6 
   0   3  -4 3047.00 94.5762   5 
   0   3  -4 3205.63 109.686   4 
   0   3  -4 3050.89 61.1684   3 
   0   3  -4 3007.13 93.5869   6 
   0   3  -3 252.766 28.6099   5 
   0   3  -3 227.923 33.6064   4 
   0   3  -3 298.950 31.1374   6 
   0   3  -2 14.1949 6.72101   3 
   0   3  -2 32.0169 12.0252   8 
   0   3  -2 39.0793 19.6678   4 
   0   3  -1 3464.13 56.5686   1 
   0   3  -1 3289.16 70.7725   8 
   0   3  -1 3373.90 70.7568   3 
   0   3   0 1394.54 54.1600   8 
   0   3   0 1430.23 57.1374   3 
   0   3   1 3905.12 105.709   6 
   0   3   1 4026.83 106.538   5 
   0   3   1 3924.46 109.940   3 
   0   3   2 6610.09 136.495   5 
   0   3   2 6668.01 137.241   6 
   0   3   2 6529.79 163.663   3 
   0   3   3 2589.74 85.1765   6 
   0   3   3 2681.52 87.2073   5 
   0   3   3 2651.73 113.637   3 
   0   3   4 21858.9 244.658   6 
   0   3   4 22131.4 248.666   5 
   0   3   4 22022.1 358.449   3 
   0   3   5 178.378 38.8983   3 
   0   3   6 173.457 37.0606   3 
   0   3   7 120.016 42.4506   3 
   0   3   8 163.707 46.5553   3 
   0   3   9 260.660 67.9834   3 
   0   3  10 104.743 50.3938   3 
   0   3  11 313.385 80.4391   3 
   0   3  12 89.5805 54.1738   3 
   0   4 -15-43.5176 50.4077   8 
   0   4 -14 90.5855 48.2102   4 
   0   4 -13 57.9404 46.1537   4 
   0   4 -12-20.2827 39.7598   4 
   0   4 -11-22.1891 47.4130   4 
   0   4 -10 88.1418 43.6735   4 
   0   4  -9 3488.04 173.206   4 
   0   4  -9 3409.55 132.313   3 
   0   4  -8 1417.90 75.5225   3 
   0   4  -8 1515.50 109.615   4 
   0   4  -7 779.563 55.9422   6 
   0   4  -7 774.328 57.6235   5 
   0   4  -7 735.333 70.3162   4 
   0   4  -7 839.561 50.9963   3 
   0   4  -6 6.94807 16.7292   6 
   0   4  -6 11.2954 10.6514   3 
   0   4  -6 12.6962 16.9459   5 
   0   4  -6 42.9625 24.6970   4 
   0   4  -5 910.184 61.5621   6 
   0   4  -5 878.387 61.0169   5 
   0   4  -5 1033.62 71.6492   4 
   0   4  -5 854.852 33.6439   3 
   0   4  -4 10708.7 205.968   6 
   0   4  -4 10610.5 202.486   5 
   0   4  -4 10511.2 217.202   4 
   0   4  -4 10685.7 162.280   8 
   0   4  -3 12546.9 221.303   6 
   0   4  -3 12774.3 158.821   8 
   0   4  -3 12548.0 218.953   5 
   0   4  -3 12471.5 227.589   4 
   0   4  -3 12135.4 99.7309   3 
   0   4  -2 10454.3 131.217   1 
   0   4  -2 10571.4 207.799   4 
   0   4  -2 10348.5 139.801   8 
   0   4  -2 10333.8 123.323   3 
   0   4  -1 8359.24 90.2706   1 
   0   4  -1 8159.15 133.315   8 
   0   4  -1 8295.99 169.831   2 
   0   4  -1 8232.64 136.560   3 
   0   4   0 31768.4 348.286   6 
   0   4   0 31132.0 336.110   2 
   0   4   0 31422.0 347.768   5 
   0   4   0 31026.7 293.709   8 
   0   4   0 31094.9 308.892   3 
   0   4   1 101705. 626.564   6 
   0   4   1 102988. 628.478   5 
   0   4   1 101044. 636.223   3 
   0   4   2 595.180 49.5589   6 
   0   4   2 514.191 45.5780   5 
   0   4   2 528.336 54.2715   3 
   0   4   3 9319.43 188.211   6 
   0   4   3 9191.13 187.572   5 
   0   4   3 9074.33 228.300   3 
   0   4   4 212.727 36.6790   3 
   0   4   4 134.479 24.5394   6 
   0   4   4 196.401 29.7243   5 
   0   4   5 121.999 39.8465   3 
   0   4   6 6155.49 234.561   3 
   0   4   7 373.997 64.4097   3 
   0   4   8 417.415 74.2142   3 
   0   4   9-0.91378 36.8785   3 
   0   4  10 868.155 118.550   3 
   0   4  11 519.605 91.5541   3 
   0   5 -15 96.8743 61.5345   4 
   0   5 -15 0.73223 53.8125   8 
   0   5 -14 144.694 72.8690   4 
   0   5 -13 79.7623 43.0745   4 
   0   5 -12-65.8412 43.7606   4 
   0   5 -11 260.010 69.8416   4 
   0   5 -10 1122.51 112.209   4 
   0   5  -9 795.940 86.4255   4 
   0   5  -9 674.326 52.2243   3 
   0   5  -8 1206.82 101.077   4 
   0   5  -8 1028.21 55.4534   3 
   0   5  -7-0.96479 14.3560   6 
   0   5  -7 4.74488 8.70441   3 
   0   5  -7 26.7785 23.4969   5 
   0   5  -7 9.60794 25.1632   4 
   0   5  -6 322.159 43.9248   6 
   0   5  -6 279.757 39.4003   5 
   0   5  -6 288.594 45.1000   4 
   0   5  -6 258.184 17.2958   3 
   0   5  -5 1500.83 87.4589   6 
   0   5  -5 1579.26 88.9307   5 
   0   5  -5 1558.75 95.2505   4 
   0   5  -5 1583.70 71.2492   8 
   0   5  -4 14149.6 266.755   6 
   0   5  -4 14355.9 264.884   5 
   0   5  -4 14516.6 278.193   4 
   0   5  -4 14277.0 191.263   8 
   0   5  -3 2899.33 123.047   4 
   0   5  -3 2910.93 83.3944   8 
   0   5  -3 2925.58 65.0186   3 
   0   5  -2 3868.15 81.1653   1 
   0   5  -2 3559.28 94.3380   8 
   0   5  -2 3846.29 131.548   2 
   0   5  -2 3758.55 91.5069   3 
   0   5  -1 1235.75 60.5443   8 
   0   5  -1 1253.80 76.4657   2 
   0   5  -1 1194.21 34.6707   1 
   0   5  -1 1313.39 64.3049   3 
   0   5   0 2803.77 118.217   6 
   0   5   0 2782.27 117.629   5 
   0   5   0 2855.85 115.027   2 
   0   5   0 2637.61 102.156   3 
   0   5   0 2659.26 98.0606   8 
   0   5   1 3167.13 124.604   6 
   0   5   1 3141.35 124.050   5 
   0   5   1 3171.91 124.596   3 
   0   5   2 3325.96 127.188   6 
   0   5   2 3478.04 131.257   5 
   0   5   2 3229.60 134.788   3 
   0   5   3 469.687 50.3854   6 
   0   5   3 456.336 57.0958   3 
   0   5   3 446.466 49.8876   5 
   0   5   4 3032.25 121.553   6 
   0   5   4 3039.29 122.372   5 
   0   5   4 3130.34 155.178   3 
   0   5   5 949.501 96.1084   3 
   0   5   6 2894.46 171.377   3 
   0   5   7-5.64412 33.7671   3 
   0   5   8 684.791 96.4130   3 
   0   5   9 67.6366 36.7704   3 
   0   5  10 126.537 56.3413   3 
   0   6 -15 94.6233 46.6073   8 
   0   6 -14 55.1424 65.5397   4 
   0   6 -13 77.5511 55.8181   4 
   0   6 -12-17.2719 46.4084   4 
   0   6 -11 144.656 58.6740   4 
   0   6 -10 36.3567 32.5078   4 
   0   6  -9 56.8229 14.3203   3 
   0   6  -9 81.7400 42.4482   4 
   0   6  -8 2.98831 5.19109   3 
   0   6  -8-0.46939 33.2089   4 
   0   6  -7 151.364 40.4411   4 
   0   6  -7 188.847 34.4117   8 
   0   6  -6 2104.95 124.210   4 
   0   6  -6 2242.47 94.0818   8 
   0   6  -5 1345.22 65.0623   8 
   0   6  -5 1304.77 95.6380   4 
   0   6  -4 477.313 60.4143   4 
   0   6  -4 464.725 38.0003   8 
   0   6  -4 461.034 24.4118   3 
   0   6  -3 761.808 44.4986   1 
   0   6  -3 714.343 71.3720   4 
   0   6  -3 689.081 44.7773   8 
   0   6  -3 768.414 40.8589   3 
   0   6  -2 442.319 36.9882   8 
   0   6  -2 460.161 28.3657   1 
   0   6  -1 30.6068 20.1545   3 
   0   6  -1 5.70173 13.3839   8 
   0   6  -1 11.3244 4.21572   1 
   0   6   0 144.619 32.2496   3 
   0   6   0 156.276 29.6923   8 
   0   6   1 2170.77 111.618   3 
   0   6   2 4.99515 21.0356   3 
   0   6   3 138.986 40.1800   3 
   0   6   4 3602.58 179.686   3 
   0   6   5 166.073 48.1402   3 
   0   6   6 338.703 61.9029   3 
   0   6   7 364.181 72.8796   3 
   0   6   8 318.181 71.1368   3 
   0   6   9-6.20809 41.6656   3 
   0   6  10 48.2160 41.0616   3 
   0   7 -14-47.2838 45.6953   4 
   0   7 -13-17.7483 54.0396   4 
   0   7 -12 284.658 76.1163   4 
   0   7 -11 218.365 54.7286   4 
   0   7 -10 3.11153 40.3470   4 
   0   7  -9 56.4645 31.3007   4 
   0   7  -8 59.0932 36.3009   4 
   0   7  -7 3872.47 188.044   4 
   0   7  -7 4097.87 136.376   8 
   0   7  -6 5345.37 210.781   4 
   0   7  -6 5269.29 142.642   8 
   0   7  -5 1149.47 96.6747   4 
   0   7  -5 1190.96 65.9898   8 
   0   7  -4 505.154 42.0526   8 
   0   7  -4 520.007 44.0759   1 
   0   7  -4 449.983 59.8724   4 
   0   7  -4 455.302 29.5635   3 
   0   7  -3 421.191 41.5984   8 
   0   7  -3 488.491 66.1239   4 
   0   7  -3 459.270 34.9820   1 
   0   7  -3 403.176 22.7466   7 
   0   7  -3 406.005 22.5074   7 
   0   7  -3 466.788 37.7071   3 
   0   7  -2 456.899 43.8303   8 
   0   7  -2 445.107 25.9203   1 
   0   7  -2 493.576 44.2989   3 
   0   7  -1 575.148 50.9227   8 
   0   7  -1 598.164 53.8928   3 
   0   7   0 266.047 43.5729   3 
   0   7   1 361.126 52.1883   3 
   0   7   2 502.720 66.3159   3 
   0   7   3 8708.10 276.208   3 
   0   7   4 652.630 82.8502   3 
   0   7   5 1230.06 121.362   3 
   0   7   6-26.4415 33.2036   3 
   0   7   7 81.9742 48.6469   3 
   0   7   8 17.4786 44.3841   3 
   0   7   9 185.669 63.1083   3 
   0   8 -14-4.03591 51.4526   4 
   0   8 -13 40.4695 46.1136   4 
   0   8 -12 33.6583 42.5271   4 
   0   8 -11 56.3354 42.1029   4 
   0   8 -10 23.2686 39.1110   4 
   0   8  -9 68.4586 46.9704   4 
   0   8  -8 174.854 42.9865   4 
   0   8  -7 38.5701 16.9820   8 
   0   8  -7 23.8254 32.6227   4 
   0   8  -6 49.7355 17.1078   8 
   0   8  -6 88.1530 39.0779   4 
   0   8  -5 187.585 36.0624   1 
   0   8  -5 128.446 25.3392   8 
   0   8  -5 129.045 40.9067   4 
   0   8  -5 91.9545 10.4688   3 
   0   8  -4 34.1789 16.8040   8 
   0   8  -4 28.5366 28.4776   4 
   0   8  -4 58.9138 21.8405   1 
   0   8  -4 61.8853 15.3110   3 
   0   8  -3 1835.29 128.694   4 
   0   8  -3 1886.91 90.5571   8 
   0   8  -3 1815.84 61.5313   1 
   0   8  -3 1798.92 54.4216   7 
   0   8  -3 1865.33 57.7247   7 
   0   8  -3 1974.65 87.4370   3 
   0   8  -2 92.5223 24.9166   3 
   0   8  -2 76.6818 26.9079   8 
   0   8  -1 124.389 28.4034   3 
   0   8   0 95.1407 33.1698   3 
   0   8   1 35.6404 26.3311   3 
   0   8   2 3779.26 183.014   3 
   0   8   3 92.0517 40.3722   3 
   0   8   4 80.4562 49.0892   3 
   0   8   5 13.3121 45.8804   3 
   0   8   6 11.5330 42.3372   3 
   0   8   7 621.758 102.554   3 
   0   8   8 350.177 87.0602   3 
   0   9 -14 48.4531 62.1200   4 
   0   9 -13 349.859 85.7347   4 
   0   9 -12-7.96268 59.9290   4 
   0   9 -11 92.9331 51.0428   4 
   0   9 -10 18.8286 39.8201   4 
   0   9  -9 212.537 60.8323   4 
   0   9  -8 62.5583 40.6758   4 
   0   9  -7 101.489 40.4094   4 
   0   9  -6-19.1235 28.0325   4 
   0   9  -5 786.763 93.8954   4 
   0   9  -5 671.979 34.7342   3 
   0   9  -4 2803.68 89.2099   1 
   0   9  -4 2887.81 171.483   4 
   0   9  -4 2933.84 113.919   8 
   0   9  -4 2831.61 97.4547   3 
   0   9  -3 15041.5 386.805   4 
   0   9  -3 14479.9 172.523   7 
   0   9  -3 14589.5 260.861   3 
   0   9  -2 76.3947 32.0983   3 
   0   9  -1 17.7378 23.8833   3 
   0   9   0 51.0040 29.4333   3 
   0   9   1 5.65916 29.9334   3 
   0   9   2 16.8538 36.1289   3 
   0   9   3 100.415 39.8870   3 
   0   9   4 570.565 87.7445   3 
   0   9   5 120.153 51.0800   3 
   0   9   6 2465.11 194.806   3 
   0   9   7 2490.60 206.825   3 
   0  10 -13 29.9885 52.0481   4 
   0  10 -12 65.6018 50.6453   4 
   0  10 -11 17.2186 54.7659   4 
   0  10 -10-101.632 57.2467   4 
   0  10  -9 58.6492 49.7444   4 
   0  10  -8 49.8614 39.9321   4 
   0  10  -7-17.5573 35.5180   4 
   0  10  -6 82.6416 42.1294   4 
   0  10  -5 154.236 52.4305   4 
   0  10  -4 516.786 78.2251   4 
   0  10  -4 454.280 45.1995   3 
   0  10  -3-6.21782 40.3665   4 
   0  10  -3 39.4284 23.1739   3 
   0  10  -2 2193.43 161.651   4 
   0  10  -2 2097.87 120.665   3 
   0  10  -1-38.6007 31.6497   3 
   0  10   0 279.931 58.6350   3 
   0  10   1 26.9638 33.1673   3 
   0  10   2 205.490 56.8000   3 
   0  10   3 100.802 43.8794   3 
   0  10   4 32.4577 37.7907   3 
   0  10   5 1252.63 142.453   3 
   0  11 -12 86.5434 55.7005   4 
   0  11 -11-36.6215 39.5653   4 
   0  11 -10 171.394 67.8223   4 
   0  11  -9-26.9792 36.3311   4 
   0  11  -8 84.9980 49.7553   4 
   0  11  -7 108.283 50.5563   4 
   0  11  -6 2946.20 199.837   4 
   0  11  -5 1985.77 164.014   4 
   0  11  -4 927.405 113.605   4 
   0  11  -3 178.291 40.9651   3 
   0  11  -3 56.3915 42.9444   4 
   0  11  -2 94.8679 34.4740   3 
   0  11  -2 74.5897 38.3933   4 
   0  11  -1 43.7090 34.1959   3 
   0  11   0 14.5264 34.9386   3 
   0  11   1 3.25611 28.4469   3 
   0  11   2 41.7692 39.4873   3 
   0  11   3 989.510 119.400   3 
   0  11   4 2248.55 191.835   3 
   0  12 -11-12.9158 61.2465   4 
   0  12 -10 26.4227 47.2862   4 
   0  12  -9-26.5663 58.6212   4 
   0  12  -8-44.9213 49.4697   4 
   0  12  -7-22.4787 40.1220   4 
   0  12  -6 19.1382 40.3679   4 
   0  12  -5 101.286 59.6177   4 
   0  12  -4 58.5959 47.5929   4 
   0  12  -3-26.0957 43.9315   4 
   0  12  -2 44.6941 34.1632   4 
   0  12  -1-96.3458 52.8496   4 
   0  12   0 91.5465 45.1034   3 
   0  12   1 113.057 34.2267   3 
   0  12   2 90.9841 50.7644   3 
   0  12   3 145.138 42.7026   3 
   0  13  -9 44.6343 54.5746   4 
   0  13  -8 249.522 76.3499   4 
   0  13  -7 4.29748 43.4959   4 
   0  13  -6 67.7627 38.7413   4 
   0  13  -5-0.22699 47.0823   4 
   0  13  -4-54.6501 47.1535   4 
   0  13  -3 85.3096 55.9929   4 
   0  13  -2 378.015 84.9625   4 
   0  13  -1-67.4079 61.1202   4 
   1 -13  -2 1273.15 149.067   6 
   1 -13  -1 526.199 104.436   6 
   1 -13   0-9.03034 39.3966   6 
   1 -13   1 18.5463 37.3868   6 
   1 -13   2 32.6643 37.7772   6 
   1 -13   3-8.88549 36.5854   6 
   1 -13   4 102.016 51.6889   6 
   1 -13   5-21.9708 54.1875   6 
   1 -13   6 147.628 58.3469   6 
   1 -13   7 253.673 74.2959   6 
   1 -13   7 403.307 92.6184   2 
   1 -13   8 450.680 94.7111   6 
   1 -13   8 666.444 114.630   2 
   1 -13   9-33.1327 63.8350   6 
   1 -13   9 39.5116 52.5301   2 
   1 -13  10-111.032 60.1482   6 
   1 -12  -3 826.233 116.554   6 
   1 -12  -2-24.6699 38.2060   6 
   1 -12  -1 151.605 71.2628   6 
   1 -12   0 8.36067 47.9658   6 
   1 -12   1 11.7253 36.2557   6 
   1 -12   2 67.4893 48.8202   6 
   1 -12   3 1.02765 43.7341   6 
   1 -12   4 383.685 86.8014   6 
   1 -12   5-29.4127 52.0538   6 
   1 -12   6 82.7067 53.8703   6 
   1 -12   6 135.536 53.3145   2 
   1 -12   7 105.989 52.7934   6 
   1 -12   7 2.45770 46.9597   2 
   1 -12   8 22.6746 37.5938   6 
   1 -12   8-46.9654 43.6203   2 
   1 -12   9-7.11286 35.2502   6 
   1 -12   9-79.3646 66.4534   2 
   1 -12  10 14.8419 38.3200   6 
   1 -12  10 24.5380 46.2917   2 
   1 -12  11 28.6553 36.2621   6 
   1 -12  11 56.9399 44.7699   2 
   1 -11  -4 2101.99 166.414   6 
   1 -11  -3 12.4412 39.8383   6 
   1 -11  -2 303.938 73.7933   6 
   1 -11  -1-17.7268 36.4515   6 
   1 -11   0 1.44147 35.0372   6 
   1 -11   1-46.2007 53.3751   6 
   1 -11   2 123.539 55.6326   6 
   1 -11   3 25.4700 39.3870   6 
   1 -11   4-24.4199 41.6903   6 
   1 -11   5 3218.24 199.383   2 
   1 -11   5 2891.53 200.688   6 
   1 -11   6 1320.42 130.297   2 
   1 -11   6 1118.36 126.162   6 
   1 -11   7 97.2241 53.6173   6 
   1 -11   7 91.4093 38.7985   2 
   1 -11   8-20.8500 37.2382   6 
   1 -11   8 19.2154 40.9801   2 
   1 -11   9 23.4845 40.7937   6 
   1 -11   9 59.0284 53.0854   2 
   1 -11  10-7.21659 37.8765   6 
   1 -11  10 71.1659 46.9265   2 
   1 -11  11 152.592 51.7768   6 
   1 -11  11-301.338 80.9508   2 
   1 -11  12 30.0869 50.3960   2 
   1 -10  -7-11.6118 57.2732   8 
   1 -10  -6 285.099 77.0077   8 
   1 -10  -5 761.414 108.050   8 
   1 -10  -4 50.6945 33.0612   6 
   1 -10  -4-10.4819 39.6551   8 
   1 -10  -3-15.9600 37.5201   6 
   1 -10  -3 72.1206 30.5983   8 
   1 -10  -2 2.44660 36.8227   6 
   1 -10  -2 67.5357 37.8565   8 
   1 -10  -1 2.84167 29.3855   6 
   1 -10  -1 28.9821 28.1526   8 
   1 -10   0 1768.86 108.485   8 
   1 -10   0 1665.06 136.712   6 
   1 -10   1 3.00508 33.3875   6 
   1 -10   1 14.2819 19.2705   8 
   1 -10   2 137.385 48.6403   6 
   1 -10   2 95.7883 20.3001   8 
   1 -10   3 19.4475 31.4236   6 
   1 -10   4-43.0484 52.2425   6 
   1 -10   4-42.2406 44.0667   2 
   1 -10   5 377.508 71.9510   6 
   1 -10   5 310.982 57.6524   2 
   1 -10   6 122.935 44.7889   6 
   1 -10   6 48.9964 53.7830   2 
   1 -10   7 40.9341 29.5071   6 
   1 -10   7 26.2560 39.1704   2 
   1 -10   8 40.2666 38.9601   6 
   1 -10   8 4.67997 50.5882   2 
   1 -10   9-18.5126 30.0987   6 
   1 -10   9-5.51605 38.3735   2 
   1 -10  10 45.3442 33.1125   6 
   1 -10  10 34.1782 45.2203   2 
   1 -10  11-37.5790 35.4091   6 
   1 -10  11-41.7528 44.8974   2 
   1 -10  12 83.8006 70.5749   2 
   1  -9  -8-96.6256 51.8508   8 
   1  -9  -7 76.4001 50.8584   8 
   1  -9  -6-13.7048 44.2789   8 
   1  -9  -5 27.5084 23.1467   6 
   1  -9  -5 47.5798 40.9626   8 
   1  -9  -4 48.1389 42.1249   6 
   1  -9  -4-7.21009 35.9012   8 
   1  -9  -3 962.487 94.5922   8 
   1  -9  -3 808.137 92.2569   6 
   1  -9  -2 353.638 64.2760   6 
   1  -9  -2 383.997 58.7628   8 
   1  -9  -1 5306.13 190.467   8 
   1  -9  -1 5050.61 222.308   6 
   1  -9   0 74.6212 27.1261   8 
   1  -9   0 100.518 38.8343   6 
   1  -9   1 428.509 69.9195   6 
   1  -9   1 394.795 46.3483   8 
   1  -9   2 42.4939 43.6768   6 
   1  -9   2 2.65948 14.0950   8 
   1  -9   3 206.877 56.9979   6 
   1  -9   3 171.029 22.5202   8 
   1  -9   4 383.026 65.9028   6 
   1  -9   4 460.795 67.2928   2 
   1  -9   5 22.4662 32.6267   6 
   1  -9   5-11.0061 29.0846   2 
   1  -9   6 110.043 37.7191   6 
   1  -9   6 183.657 53.6013   2 
   1  -9   7 225.046 58.3065   6 
   1  -9   7 216.648 58.7194   2 
   1  -9   8 936.329 107.765   2 
   1  -9   8 946.434 99.9863   6 
   1  -9   9 495.361 72.7120   6 
   1  -9   9 518.614 79.7701   2 
   1  -9  10-7.47332 34.9495   6 
   1  -9  10 12.0112 40.6019   2 
   1  -9  11-23.3274 41.2716   6 
   1  -9  11-70.2670 56.8462   2 
   1  -9  12 29.1888 53.1455   2 
   1  -9  13-105.998 65.6611   2 
   1  -8  -8-276.838 74.0737   8 
   1  -8  -7 14.4683 41.2651   8 
   1  -8  -6 282.850 69.0885   8 
   1  -8  -5 320.339 59.4219   6 
   1  -8  -5 386.542 66.1727   8 
   1  -8  -4 258.387 54.0156   6 
   1  -8  -4 195.851 44.8578   8 
   1  -8  -3 210.062 47.7577   6 
   1  -8  -3 196.031 28.8470   1 
   1  -8  -3 160.797 32.2186   8 
   1  -8  -2 3060.84 96.8789   1 
   1  -8  -2 3119.62 146.225   8 
   1  -8  -2 2896.72 155.918   6 
   1  -8  -1 47.4448 14.2193   1 
   1  -8  -1 60.9401 29.8845   6 
   1  -8  -1 52.3037 31.8746   8 
   1  -8   0 58.6329 38.0574   6 
   1  -8   0 14.1246 19.8986   8 
   1  -8   1 798.750 57.7464   8 
   1  -8   1 840.536 66.6867   3 
   1  -8   1 788.442 83.2116   6 
   1  -8   2 5.10938 24.7699   6 
   1  -8   2 28.9454 19.1927   3 
   1  -8   2 35.6971 15.3047   8 
   1  -8   3 222.614 27.0420   3 
   1  -8   3 320.705 55.1968   2 
   1  -8   4 456.400 64.0028   6 
   1  -8   4 458.923 67.9518   2 
   1  -8   5 65.2541 32.5629   6 
   1  -8   5 83.0256 40.2754   2 
   1  -8   6 131.431 45.0510   6 
   1  -8   6 141.167 48.2756   2 
   1  -8   7-10.8686 26.3719   6 
   1  -8   7-29.3091 31.9982   2 
   1  -8   8 425.327 67.8637   6 
   1  -8   8 345.055 70.7944   2 
   1  -8   9-20.7956 27.2955   6 
   1  -8   9-1.23358 43.5624   2 
   1  -8  10 12.0982 24.1144   6 
   1  -8  10-37.2357 56.5060   2 
   1  -8  11 11.6998 31.4456   6 
   1  -8  11 24.7154 40.9814   2 
   1  -8  12-41.3700 43.0345   2 
   1  -8  13-32.7221 51.3054   2 
   1  -7  -9-2.91026 61.4701   8 
   1  -7  -8 54.1750 43.2509   8 
   1  -7  -7 34.4184 34.9566   8 
   1  -7  -6 719.662 71.7226   1 
   1  -7  -6 602.427 66.6425   6 
   1  -7  -5 75.0504 30.3913   6 
   1  -7  -5 19.9329 22.1117   1 
   1  -7  -5-19.3148 43.1298   8 
   1  -7  -4 2442.66 140.154   8 
   1  -7  -4 2107.70 100.709   1 
   1  -7  -4 2211.03 125.817   6 
   1  -7  -3 924.465 80.4244   8 
   1  -7  -3 804.431 58.6618   1 
   1  -7  -3 814.351 79.7120   6 
   1  -7  -2 1199.51 83.3487   8 
   1  -7  -2 1189.98 63.7439   1 
   1  -7  -2 1160.11 94.6572   6 
   1  -7  -1 204.577 42.6623   6 
   1  -7  -1 219.888 27.9503   1 
   1  -7  -1 234.267 37.3633   8 
   1  -7   0 2774.91 86.0606   1 
   1  -7   0 2769.30 107.185   8 
   1  -7   0 2694.15 141.264   6 
   1  -7   1 829.070 52.2751   8 
   1  -7   1 881.444 63.0914   3 
   1  -7   1 1024.53 89.4447   6 
   1  -7   2 943.961 87.0012   6 
   1  -7   2 877.927 78.1378   2 
   1  -7   2 889.792 45.7773   8 
   1  -7   2 952.656 56.1076   3 
   1  -7   3 761.132 72.3449   2 
   1  -7   3 752.794 40.0570   3 
   1  -7   3 747.708 77.1197   6 
   1  -7   4-7.13988 26.8467   6 
   1  -7   4-8.70146 27.7890   2 
   1  -7   5 933.702 89.2148   2 
   1  -7   5 883.310 81.2748   6 
   1  -7   6 2862.15 148.914   2 
   1  -7   6 2809.28 142.314   6 
   1  -7   7 466.499 62.4347   6 
   1  -7   7 448.334 67.6239   2 
   1  -7   8-51.1824 27.5604   6 
   1  -7   8 22.0215 33.2022   2 
   1  -7   9 10.5508 25.6657   6 
   1  -7   9 14.5527 40.8346   2 
   1  -7  10 27.2383 35.3129   2 
   1  -7  10 114.666 32.3204   6 
   1  -7  11 237.974 69.4654   2 
   1  -7  11 108.155 31.6807   6 
   1  -7  12 215.630 71.0034   2 
   1  -7  13 22.0802 46.5004   2 
   1  -7  14 52.8464 43.1064   2 
   1  -6 -10 131.352 60.4744   8 
   1  -6  -9 1343.78 138.131   8 
   1  -6  -8 1643.27 146.288   8 
   1  -6  -8 1722.67 126.217   1 
   1  -6  -7 340.670 58.7043   1 
   1  -6  -7 285.555 55.1081   8 
   1  -6  -6 474.692 59.0134   1 
   1  -6  -6 503.394 81.3519   8 
   1  -6  -6 423.853 51.4703   6 
   1  -6  -5 586.932 77.5633   8 
   1  -6  -5 524.416 56.0225   1 
   1  -6  -5 461.217 53.5520   6 
   1  -6  -4 6898.14 223.363   8 
   1  -6  -4 6569.60 174.533   1 
   1  -6  -4 6391.89 195.028   6 
   1  -6  -3 22.2989 18.6544   6 
   1  -6  -3 12.4371 15.3882   1 
   1  -6  -3 45.8720 33.0656   8 
   1  -6  -2 238.522 40.7481   6 
   1  -6  -2 236.386 37.4541   8 
   1  -6  -2 198.165 27.2132   1 
   1  -6  -1 7131.38 139.671   1 
   1  -6  -1 6976.33 172.956   8 
   1  -6  -1 6881.30 204.417   6 
   1  -6   0 189.994 36.6263   6 
   1  -6   0 235.880 28.2647   1 
   1  -6   0 197.353 30.5370   3 
   1  -6   0 207.017 29.2715   8 
   1  -6   1 40768.3 332.460   1 
   1  -6   1 40862.8 313.854   8 
   1  -6   1 40116.1 500.620   6 
   1  -6   2 9192.24 215.788   2 
   1  -6   2 9583.13 123.904   8 
   1  -6   2 9665.83 151.730   3 
   1  -6   2 9790.48 244.618   6 
   1  -6   3 1609.70 94.7355   2 
   1  -6   3 1651.11 46.0967   3 
   1  -6   3 1686.09 102.869   6 
   1  -6   4 1155.53 86.1470   2 
   1  -6   4 1324.88 91.6375   6 
   1  -6   5 1460.40 97.9273   2 
   1  -6   5 1366.50 94.8572   6 
   1  -6   6 1571.30 106.253   2 
   1  -6   6 1398.40 45.7078   7 
   1  -6   6 1574.42 98.4736   6 
   1  -6   7 252.993 52.4819   2 
   1  -6   7 233.870 39.1388   6 
   1  -6   7 234.464 23.8902   7 
   1  -6   8 36.6550 40.3761   2 
   1  -6   8 30.7673 21.9484   6 
   1  -6   8 18.3606 13.5421   7 
   1  -6   9 97.1920 47.8722   2 
   1  -6   9 105.292 29.3866   6 
   1  -6  10 47.7933 21.6556   6 
   1  -6  10 40.6052 42.3288   2 
   1  -6  11 333.629 70.2021   2 
   1  -6  12 40.2130 51.1122   2 
   1  -6  13-3.76559 40.1955   2 
   1  -6  14-25.9509 62.1601   2 
   1  -5 -11 15.2152 55.4350   8 
   1  -5 -10 554.646 101.521   8 
   1  -5 -10 553.267 86.4595   1 
   1  -5  -9 196.536 61.4577   8 
   1  -5  -9 220.503 51.8531   1 
   1  -5  -8-37.3425 43.7917   8 
   1  -5  -8 25.1189 28.9807   1 
   1  -5  -7 271.243 34.9401   6 
   1  -5  -7 256.784 48.7334   1 
   1  -5  -7 260.464 53.8378   8 
   1  -5  -6 36.6162 18.4790   6 
   1  -5  -6 79.9496 37.1912   8 
   1  -5  -6 52.0527 27.2735   1 
   1  -5  -5 33.1037 19.2964   6 
   1  -5  -5 6.81670 21.3238   1 
   1  -5  -5 0.45270 30.4621   8 
   1  -5  -4 50.4130 21.4074   1 
   1  -5  -4 43.4807 20.3684   6 
   1  -5  -4 52.1247 28.2518   8 
   1  -5  -3 72.6685 19.7209   6 
   1  -5  -3 122.710 27.4656   1 
   1  -5  -3 153.296 31.5494   8 
   1  -5  -2 13990.9 247.061   8 
   1  -5  -2 13794.0 206.334   1 
   1  -5  -2 13965.9 262.009   6 
   1  -5  -1 2056.39 84.9133   8 
   1  -5  -1 2046.46 73.3683   1 
   1  -5  -1 2072.75 97.4716   3 
   1  -5  -1 2082.69 101.824   6 
   1  -5   0 882.603 66.2996   6 
   1  -5   0 835.852 47.2185   8 
   1  -5   0 873.270 47.4799   1 
   1  -5   0 902.833 58.5985   3 
   1  -5   1 1419.81 85.2518   6 
   1  -5   1 1343.78 58.9182   1 
   1  -5   1 1273.90 72.9974   2 
   1  -5   1 1318.51 47.8802   8 
   1  -5   1 1375.33 60.0071   3 
   1  -5   2 77.9659 28.2066   6 
   1  -5   2 74.5742 12.8496   3 
   1  -5   2 50.5233 8.01134   8 
   1  -5   2 105.744 28.9665   2 
   1  -5   3 303.150 41.6539   6 
   1  -5   3 222.522 37.9902   2 
   1  -5   4-4.17663 23.6428   6 
   1  -5   4 18.0418 7.40393   7 
   1  -5   4 14.4527 22.6907   2 
   1  -5   5 131.646 35.4049   2 
   1  -5   5 104.148 25.8861   6 
   1  -5   5 114.929 16.6003   7 
   1  -5   6 94.8965 32.1728   2 
   1  -5   6 102.859 28.1358   6 
   1  -5   6 69.6632 13.5105   7 
   1  -5   7 34.6759 22.8408   6 
   1  -5   7 2.84019 13.3588   7 
   1  -5   8 49.1752 25.6435   6 
   1  -5   8 33.1166 38.2531   2 
   1  -5   8 21.3192 16.8610   7 
   1  -5   9 1110.17 104.574   2 
   1  -5   9 1016.63 63.5450   3 
   1  -5   9 1090.04 72.7504   6 
   1  -5  10 392.557 46.0754   3 
   1  -5  10 410.473 43.6302   6 
   1  -5  11 19.2600 45.5189   2 
   1  -5  12-21.2838 51.5206   2 
   1  -5  13-234.741 82.5431   2 
   1  -5  14 167.639 72.9900   2 
   1  -4 -12 60.3202 47.2202   1 
   1  -4 -11 798.050 106.668   1 
   1  -4 -11 1053.96 132.733   8 
   1  -4 -10-67.5417 38.6296   8 
   1  -4 -10 124.820 55.7499   1 
   1  -4  -9 366.009 73.9011   8 
   1  -4  -9 399.345 72.6204   1 
   1  -4  -8 38.8921 37.3284   8 
   1  -4  -8 59.6136 31.2061   1 
   1  -4  -7 2334.67 132.502   1 
   1  -4  -7 2126.61 79.6989   6 
   1  -4  -6 4193.80 162.150   1 
   1  -4  -6 4052.31 118.236   6 
   1  -4  -5 3426.52 135.452   1 
   1  -4  -5 3180.52 108.601   6 
   1  -4  -4 5498.28 154.209   1 
   1  -4  -4 5301.74 142.549   6 
   1  -4  -3 748.782 54.3310   1 
   1  -4  -3 704.672 52.3558   6 
   1  -4  -2 27602.1 326.974   6 
   1  -4  -2 27245.8 280.056   1 
   1  -4  -2 27451.0 358.283   3 
   1  -4  -1 32188.9 353.144   6 
   1  -4  -1 31327.5 296.285   8 
   1  -4  -1 31431.4 274.575   1 
   1  -4  -1 31717.1 344.808   3 
   1  -4   0 12659.9 223.320   6 
   1  -4   0 12378.5 164.438   1 
   1  -4   0 12418.2 153.223   8 
   1  -4   0 12602.6 190.500   3 
   1  -4   1 17966.7 268.005   6 
   1  -4   1 17523.8 132.781   8 
   1  -4   1 18033.0 206.289   1 
   1  -4   1 18073.0 228.257   2 
   1  -4   1 18007.9 189.200   3 
   1  -4   2 2370.37 97.6359   6 
   1  -4   2 2298.82 85.6366   2 
   1  -4   2 2289.97 49.9150   3 
   1  -4   3 17239.3 261.339   6 
   1  -4   3 16678.7 151.656   7 
   1  -4   3 17369.3 250.883   2 
   1  -4   4 38967.2 390.102   6 
   1  -4   4 38479.0 413.927   2 
   1  -4   4 39381.7 264.016   7 
   1  -4   5 17295.5 261.691   6 
   1  -4   5 17857.3 304.109   2 
   1  -4   5 17375.5 206.380   7 
   1  -4   5 16811.0 143.941   3 
   1  -4   6 2039.73 114.992   2 
   1  -4   6 1921.62 81.5134   7 
   1  -4   6 1954.48 64.4765   3 
   1  -4   6 1938.58 87.9311   6 
   1  -4   7 214.643 25.5194   3 
   1  -4   7 188.979 30.7407   6 
   1  -4   7 227.089 48.1463   2 
   1  -4   7 164.533 31.2272   7 
   1  -4   8 408.756 60.3063   2 
   1  -4   8 408.496 40.3364   6 
   1  -4   9 533.597 78.6784   2 
   1  -4   9 596.522 56.1205   3 
   1  -4   9 588.268 46.6120   6 
   1  -4  10 34.6924 22.1786   3 
   1  -4  10 54.7536 15.9896   6 
   1  -4  10 72.2840 44.6727   2 
   1  -4  11 110.470 36.3769   3 
   1  -4  11 117.506 48.9733   2 
   1  -4  12 82.4619 51.8253   2 
   1  -4  12 125.524 41.9402   3 
   1  -4  13-47.0689 65.1296   2 
   1  -4  14 484.448 105.010   2 
   1  -3 -13 168.587 72.4665   1 
   1  -3 -12 50.5387 48.7772   1 
   1  -3 -12 48.9348 48.9091   8 
   1  -3 -11 350.252 77.6261   8 
   1  -3 -11 332.229 79.6279   1 
   1  -3 -10 12.8964 36.1409   1 
   1  -3 -10-2.23560 51.9458   8 
   1  -3  -9 76.2802 38.2743   1 
   1  -3  -8 237.611 51.0749   1 
   1  -3  -7 721.260 75.3257   1 
   1  -3  -7 586.338 33.8880   6 
   1  -3  -6 15856.8 314.030   1 
   1  -3  -6 16033.9 198.662   6 
   1  -3  -5 41.2056 14.9984   6 
   1  -3  -5 34.6897 21.5785   1 
   1  -3  -4 786.901 48.2351   6 
   1  -3  -4 770.558 59.4010   1 
   1  -3  -3 1220.72 61.1568   6 
   1  -3  -3 1175.51 63.4668   1 
   1  -3  -2 920.061 53.2833   6 
   1  -3  -2 822.677 48.6027   1 
   1  -3  -2 822.668 59.0674   3 
   1  -3  -1 1605.37 70.0976   6 
   1  -3  -1 1518.03 58.3228   1 
   1  -3  -1 1560.93 68.5151   3 
   1  -3   0 12681.5 196.322   6 
   1  -3   0 12305.8 154.053   2 
   1  -3   0 12133.0 153.574   1 
   1  -3   0 12244.4 161.564   3 
   1  -3   1 38174.0 342.644   6 
   1  -3   1 38737.5 289.830   1 
   1  -3   1 38472.4 284.656   2 
   1  -3   1 38454.9 244.854   7 
   1  -3   1 38613.4 227.940   3 
   1  -3   2 1843.36 76.6058   6 
   1  -3   2 1862.03 69.2943   2 
   1  -3   2 1789.86 50.8645   7 
   1  -3   3 649.341 45.7475   6 
   1  -3   3 556.093 43.6631   2 
   1  -3   3 595.021 33.0937   7 
   1  -3   3 590.367 22.8992   3 
   1  -3   4 338.601 34.4020   6 
   1  -3   4 342.212 42.5241   2 
   1  -3   4 359.637 31.3617   7 
   1  -3   4 307.517 22.1767   3 
   1  -3   5 10586.5 177.798   6 
   1  -3   5 10664.4 227.454   2 
   1  -3   5 11013.3 187.297   7 
   1  -3   5 10491.1 154.571   3 
   1  -3   6 626.481 62.9534   2 
   1  -3   6 554.631 42.0706   3 
   1  -3   6 550.099 41.7447   6 
   1  -3   7 477.602 61.5237   2 
   1  -3   7 384.573 40.0498   3 
   1  -3   7 390.560 34.0719   6 
   1  -3   8 246.315 35.8668   3 
   1  -3   8 259.359 52.2324   2 
   1  -3   8 272.919 27.2990   6 
   1  -3   9 323.397 46.9824   3 
   1  -3   9 306.427 62.6968   2 
   1  -3   9 303.756 22.5528   6 
   1  -3  10 291.308 50.2563   3 
   1  -3  10 177.163 55.5026   2 
   1  -3  11 238.903 47.3578   3 
   1  -3  11 266.951 66.2406   2 
   1  -3  12 619.119 80.3637   3 
   1  -3  12 575.313 99.3245   2 
   1  -3  13 314.365 79.5858   2 
   1  -3  14 135.873 70.1458   2 
   1  -2 -13 78.9220 46.7839   8 
   1  -2 -13 158.890 73.0068   1 
   1  -2 -12 36.4587 45.9588   8 
   1  -2 -12-12.3718 54.6136   1 
   1  -2 -11 63.2222 52.8825   1 
   1  -2 -11 97.7989 54.0348   8 
   1  -2  -6 3.62223 6.56233   6 
   1  -2  -5 1352.78 50.6627   6 
   1  -2  -4 9667.38 140.597   6 
   1  -2  -4 9460.37 194.938   1 
   1  -2  -3 2830.04 78.0402   6 
   1  -2  -3 2909.26 96.5708   1 
   1  -2  -2 8954.74 148.352   1 
   1  -2  -1 6543.64 112.510   1 
   1  -2   0 57912.5 316.487   1 
   1  -2   0 57581.9 246.054   2 
   1  -2   0 57873.1 311.105   7 
   1  -2   0 57778.2 304.911   3 
   1  -2   1 25199.3 220.936   1 
   1  -2   1 24929.6 189.528   2 
   1  -2   1 24638.7 185.978   7 
   1  -2   3 33577.3 269.906   7 
   1  -2   3 32991.5 230.069   3 
   1  -2   4 12593.3 165.822   6 
   1  -2   4 12764.4 197.075   7 
   1  -2   4 12469.4 171.230   3 
   1  -2   5 1999.23 65.2207   6 
   1  -2   5 2030.60 80.5338   3 
   1  -2   6 1055.99 45.6291   6 
   1  -2   6 1171.77 68.5743   3 
   1  -2   7 332.224 40.8916   3 
   1  -2   7 392.291 26.5308   6 
   1  -2   8 25.6996 18.2026   3 
   1  -2   9-30.6054 23.4897   3 
   1  -2  10 521.990 68.5331   3 
   1  -2  11 1025.61 116.789   2 
   1  -2  11 1101.57 102.517   3 
   1  -2  12 2107.90 177.786   2 
   1  -2  12 2374.63 160.660   3 
   1  -2  13-19.2975 34.4406   3 
   1  -2  13-31.4148 39.9026   2 
   1  -1 -13 256.212 80.1311   1 
   1  -1 -13 336.842 79.5363   8 
   1  -1  -8 5680.33 202.937   4 
   1  -1  -7 9153.39 238.837   4 
   1  -1  -6 134.351 30.2405   4 
   1  -1  -6 119.575 11.2797   6 
   1  -1  -5 2529.22 100.794   4 
   1  -1  -5 2500.52 112.413   3 
   1  -1  -4 15.4326 15.5414   4 
   1  -1  -3 13046.6 196.955   1 
   1  -1  -2 10502.6 153.490   1 
   1  -1  -1 28632.9 219.619   1 
   1  -1   0 10358.2 98.6607   4 
   1  -1   0 9947.39 122.494   1 
   1  -1   0 10203.4 97.3125   8 
   1  -1   1 240.849 17.4570   8 
   1  -1   1 229.896 23.4733   1 
   1  -1   2 2281.16 63.2477   3 
   1  -1   3 22006.9 227.479   3 
   1  -1   4 6603.71 144.801   3 
   1  -1   5 990.816 63.3503   3 
   1  -1   6 873.276 29.8492   6 
   1  -1   6 957.620 69.5325   3 
   1  -1   7 101.164 29.2243   3 
   1  -1   8 73.2405 29.5017   3 
   1  -1   9 310.343 55.4341   3 
   1  -1  10 1850.58 130.373   3 
   1  -1  11 152.744 35.4203   3 
   1  -1  12-191.792 55.0108   3 
   1  -1  13 51.6963 43.0349   3 
   1  -1  13 105.493 54.0306   2 
   1  -1  14-105.396 51.6382   3 
   1   0 -11 325.669 66.6682   4 
   1   0 -10 5228.20 219.139   4 
   1   0  -9 79.9764 38.5964   4 
   1   0  -8 1191.48 93.6452   4 
   1   0  -7 7.55256 29.6526   4 
   1   0  -6 7731.04 189.722   4 
   1   0  -6 6179.16 78.4027   6 
   1   0  -5 744.336 54.3834   4 
   1   0  -5 684.999 56.6202   3 
   1   0  -5 666.524 30.1639   6 
   1   0  -4 26859.5 272.694   4 
   1   0  -4 26991.1 304.575   3 
   1   0  -3 6585.99 110.412   4 
   1   0  -2 85229.2 283.060   4 
   1   0  -2 85808.3 417.575   1 
   1   0  -1 64014.5 308.166   8 
   1   0  -1 63658.0 207.222   2 
   1   0  -1 63245.3 303.163   1 
   1   0   0 140733. 434.698   8 
   1   0   0 141260. 421.396   1 
   1   0   1 18399.8 170.594   1 
   1   0   1 18400.3 176.309   8 
   1   0   1 18402.1 184.253   3 
   1   0   2 12697.4 173.744   8 
   1   0   2 12724.4 174.929   3 
   1   0   3 14432.5 213.693   3 
   1   0   4 11393.6 211.656   3 
   1   0   5 15325.5 271.280   3 
   1   0   5 14028.1 130.029   6 
   1   0   6 8061.60 214.566   3 
   1   0   7 55.3434 26.0188   3 
   1   0   8 864.610 84.8902   3 
   1   0   9 941.802 94.3184   3 
   1   0  10 1157.40 113.722   3 
   1   0  11 76.6345 47.9624   3 
   1   0  12 11.6797 34.3805   3 
   1   0  13 165.578 50.3486   3 
   1   0  14 43.9947 36.2410   3 
   1   1 -13-24.5935 40.5401   4 
   1   1 -12 267.033 59.5580   4 
   1   1 -11 395.459 66.7144   4 
   1   1 -10 14.4234 30.5748   4 
   1   1  -9 15.9834 35.3605   4 
   1   1  -8 891.277 81.0698   4 
   1   1  -7 129.804 35.4922   4 
   1   1  -7 101.138 12.8950   6 
   1   1  -6 896.853 64.8122   4 
   1   1  -6 853.886 64.1705   3 
   1   1  -6 856.488 38.1045   6 
   1   1  -5 40433.8 367.161   4 
   1   1  -5 40853.1 387.193   3 
   1   1  -5 40476.5 270.690   6 
   1   1  -4 20273.9 222.443   4 
   1   1  -4 20525.6 244.081   3 
   1   1  -4 20463.2 198.018   6 
   1   1  -3 14656.1 158.433   4 
   1   1  -3 14642.2 178.458   2 
   1   1  -3 14577.7 184.712   3 
   1   1  -3 14332.1 166.891   6 
   1   1  -2 31416.6 194.474   4 
   1   1  -2 30781.4 214.231   7 
   1   1  -2 31534.7 242.809   1 
   1   1  -1 61.1528 16.7024   8 
   1   1  -1 68.5802 15.5557   1 
   1   1  -1 90.5264 16.0677   7 
   1   1   0 1560.37 42.6218   1 
   1   1   0 1484.24 55.2081   8 
   1   1   0 1528.81 56.4005   3 
   1   1   1 1773.24 65.9538   8 
   1   1   1 1952.10 70.6325   3 
   1   1   1 1838.34 59.7827   6 
   1   1   2 2789.05 93.7349   8 
   1   1   2 2751.64 95.4029   3 
   1   1   2 2755.29 73.4632   6 
   1   1   3 125.028 18.0588   6 
   1   1   3 83.4080 24.4415   3 
   1   1   4 2352.01 105.870   3 
   1   1   4 2399.85 64.9362   6 
   1   1   5 821.342 70.7766   3 
   1   1   5 735.568 33.7681   6 
   1   1   6 7690.63 84.5585   6 
   1   1   6 9636.91 254.616   3 
   1   1   7-20.5208 28.6349   3 
   1   1   8 28.9203 32.0465   3 
   1   1   9 131.783 48.0248   3 
   1   1  10 184.427 48.3201   3 
   1   1  11 77.7035 35.7743   3 
   1   1  12 3.56784 46.3158   3 
   1   1  13 30.8770 40.1150   3 
   1   2 -15 5.18837 46.3412   4 
   1   2 -14 101.534 60.0331   4 
   1   2 -13-36.0143 46.5615   4 
   1   2 -12 205.837 59.4017   4 
   1   2 -11 321.592 71.7806   4 
   1   2 -10 59.6982 30.9431   4 
   1   2  -9 93.9536 36.1414   4 
   1   2  -8 197.301 21.0004   6 
   1   2  -8 252.725 50.0013   4 
   1   2  -7 19901.5 321.944   4 
   1   2  -7 20355.5 316.275   3 
   1   2  -7 20027.6 219.475   6 
   1   2  -6 13426.2 237.372   4 
   1   2  -6 13168.7 226.710   3 
   1   2  -6 13475.1 186.126   6 
   1   2  -5 6104.23 126.887   6 
   1   2  -5 6172.34 144.807   4 
   1   2  -5 6189.32 139.534   3 
   1   2  -4 117.822 19.8688   6 
   1   2  -4 159.100 25.6766   2 
   1   2  -4 125.469 21.7718   4 
   1   2  -4 134.798 21.7674   3 
   1   2  -3 15631.3 189.775   4 
   1   2  -3 15411.5 201.665   6 
   1   2  -2 28048.2 242.637   4 
   1   2  -2 27238.9 253.790   8 
   1   2  -2 27879.3 189.569   7 
   1   2  -2 27502.0 215.459   1 
   1   2  -1 38242.9 296.796   8 
   1   2  -1 38498.0 198.678   1 
   1   2  -1 38678.1 244.397   7 
   1   2  -1 38460.5 289.124   3 
   1   2   0 16414.5 116.800   1 
   1   2   0 16531.2 207.108   8 
   1   2   0 16596.7 188.238   7 
   1   2   0 16582.0 207.067   3 
   1   2   1 4665.50 121.142   8 
   1   2   1 4613.84 122.219   3 
   1   2   1 4774.48 112.576   6 
   1   2   2 36950.7 377.212   8 
   1   2   2 37184.1 311.329   6 
   1   2   2 36704.2 381.492   3 
   1   2   3 72389.6 586.810   3 
   1   2   3 72976.5 436.782   6 
   1   2   4 817.311 70.6912   3 
   1   2   4 796.523 44.8267   6 
   1   2   5 3429.46 152.837   3 
   1   2   5 3681.01 90.9233   6 
   1   2   6 39.2309 32.1171   3 
   1   2   6 98.1067 15.0151   6 
   1   2   7 179.036 49.3625   3 
   1   2   8 2213.50 150.222   3 
   1   2   9 277.468 60.6843   3 
   1   2  10 78.1441 31.5637   3 
   1   2  11-145.922 55.5537   3 
   1   2  12 336.282 80.8739   3 
   1   3 -15-10.8049 52.3368   4 
   1   3 -14-26.6103 45.7612   4 
   1   3 -13-5.45979 41.5455   4 
   1   3 -12 720.669 96.2398   4 
   1   3 -11 444.471 69.8875   4 
   1   3 -10-1.74626 39.3645   4 
   1   3  -9 876.251 50.3837   6 
   1   3  -9 859.648 85.5029   4 
   1   3  -8 3394.12 105.214   6 
   1   3  -8 3478.24 150.354   4 
   1   3  -8 3337.88 131.970   3 
   1   3  -7 3666.18 141.421   4 
   1   3  -7 3772.00 126.147   3 
   1   3  -7 3915.18 117.359   6 
   1   3  -6 4110.05 136.176   4 
   1   3  -6 3953.01 115.968   3 
   1   3  -6 4001.42 119.046   6 
   1   3  -5 435.383 42.8957   4 
   1   3  -5 472.244 49.3153   2 
   1   3  -5 428.038 34.1986   3 
   1   3  -5 445.884 39.6695   6 
   1   3  -4 3912.77 117.514   4 
   1   3  -4 4056.10 118.258   8 
   1   3  -4 3990.94 120.121   6 
   1   3  -3 3539.94 106.248   4 
   1   3  -3 3393.26 101.012   8 
   1   3  -3 3530.86 66.7499   7 
   1   3  -3 3428.96 110.767   6 
   1   3  -2 50516.0 373.995   8 
   1   3  -2 50333.1 264.352   7 
   1   3  -2 49901.3 275.019   1 
   1   3  -2 51141.2 348.395   3 
   1   3  -1 2217.51 81.2385   8 
   1   3  -1 2019.32 39.9232   1 
   1   3  -1 2131.66 64.5050   7 
   1   3  -1 2211.98 78.5392   3 
   1   3   0 30922.1 317.451   8 
   1   3   0 31612.1 322.929   3 
   1   3   0 31459.2 329.720   6 
   1   3   1 955.183 61.5108   8 
   1   3   1 988.766 66.0899   3 
   1   3   1 1025.06 60.3328   6 
   1   3   2 4660.29 146.915   8 
   1   3   2 4600.98 148.495   3 
   1   3   2 4879.93 130.500   6 
   1   3   3 3337.25 137.342   3 
   1   3   3 3182.70 104.983   6 
   1   3   4 1134.21 88.5320   3 
   1   3   4 1222.80 65.2031   6 
   1   3   5 16.9986 14.8614   6 
   1   3   5 15.6363 26.0998   3 
   1   3   6 1626.84 67.9017   6 
   1   3   6 1501.47 115.890   3 
   1   3   7 497.365 76.9124   3 
   1   3   8 1633.85 138.270   3 
   1   3   9-10.8379 41.0955   3 
   1   3  10 236.047 65.9976   3 
   1   3  11 39.5592 41.0729   3 
   1   4 -15-85.5132 71.1913   4 
   1   4 -14-4.28151 49.4551   4 
   1   4 -13-22.9904 42.8398   4 
   1   4 -12 245.624 65.4854   4 
   1   4 -11-36.0874 36.1559   4 
   1   4 -10 76.9799 36.3848   4 
   1   4  -9 205.593 32.3970   6 
   1   4  -9 296.199 55.4832   4 
   1   4  -8 261.971 38.0966   3 
   1   4  -8 271.671 38.4827   6 
   1   4  -8 311.813 49.8101   4 
   1   4  -7 317.380 34.0371   3 
   1   4  -7 295.955 40.1511   6 
   1   4  -7 311.727 46.6559   4 
   1   4  -6 529.186 54.5062   4 
   1   4  -6 553.375 40.5186   3 
   1   4  -6 576.352 53.6780   6 
   1   4  -5 753.373 61.0892   4 
   1   4  -5 726.651 55.9702   8 
   1   4  -5 681.846 56.6387   6 
   1   4  -4 11901.0 208.013   8 
   1   4  -4 11802.9 225.298   4 
   1   4  -4 11746.6 229.545   6 
   1   4  -3 15003.7 251.869   4 
   1   4  -3 14608.8 221.557   8 
   1   4  -3 14654.4 132.972   7 
   1   4  -3 14414.1 199.447   3 
   1   4  -2 428.319 40.3774   8 
   1   4  -2 405.351 27.2774   7 
   1   4  -2 431.107 24.3453   1 
   1   4  -2 363.845 34.5416   3 
   1   4  -1 1046.37 62.4921   8 
   1   4  -1 1000.33 50.0522   7 
   1   4  -1 1065.23 61.4273   3 
   1   4   0 1173.94 69.4326   8 
   1   4   0 1084.76 69.1265   3 
   1   4   0 1196.06 72.6566   6 
   1   4   1 1360.87 80.2942   8 
   1   4   1 1377.53 84.0537   3 
   1   4   1 1535.27 83.1934   6 
   1   4   2 1588.65 96.0247   3 
   1   4   2 1691.17 88.2884   6 
   1   4   3 1180.82 89.5860   3 
   1   4   3 1249.34 75.5089   6 
   1   4   4-3.61184 15.2020   6 
   1   4   4 16.7757 26.9102   3 
   1   4   5 26.1972 29.7237   3 
   1   4   5 4.53406 18.3652   6 
   1   4   6 3142.11 110.129   6 
   1   4   6 2916.47 173.794   3 
   1   4   7-65.3292 41.7630   3 
   1   4   8 226.311 63.0560   3 
   1   4   9 186.436 64.1039   3 
   1   4  10 226.729 69.2629   3 
   1   4  11 83.6648 52.5786   3 
   1   5 -15-5.89897 50.7489   4 
   1   5 -14 453.371 96.4240   4 
   1   5 -13-5.38775 43.9346   4 
   1   5 -12 153.817 50.4145   4 
   1   5 -11-13.1757 34.8767   4 
   1   5 -10 278.227 58.1312   4 
   1   5  -9 833.494 86.9554   4 
   1   5  -9 874.042 66.7319   3 
   1   5  -8-9.25712 17.7192   3 
   1   5  -8-32.2426 32.9422   4 
   1   5  -7 120.314 22.1510   3 
   1   5  -7 144.504 36.4734   4 
   1   5  -6 169.517 23.8369   3 
   1   5  -6 96.4290 25.5306   4 
   1   5  -6 133.123 24.6610   8 
   1   5  -5 21191.2 341.030   4 
   1   5  -5 21139.5 302.228   8 
   1   5  -4 30526.5 400.679   4 
   1   5  -4 30008.9 344.518   8 
   1   5  -4 30236.3 293.735   3 
   1   5  -3 4594.94 134.214   8 
   1   5  -3 4450.66 78.9427   7 
   1   5  -3 4730.29 120.707   3 
   1   5  -2 1357.54 74.7134   8 
   1   5  -2 1438.50 56.2875   7 
   1   5  -2 1269.03 35.3516   1 
   1   5  -2 1430.30 72.2790   3 
   1   5  -1 5386.90 127.580   7 
   1   5  -1 5194.54 148.825   8 
   1   5  -1 5249.73 150.598   3 
   1   5   0 53.2630 26.1138   3 
   1   5   0 74.9834 25.4337   8 
   1   5   1 1711.83 99.4723   3 
   1   5   2 697.324 69.7894   3 
   1   5   3 82.2610 33.5437   3 
   1   5   4 1133.40 101.373   3 
   1   5   5 6673.41 257.593   3 
   1   5   6 894.757 104.048   3 
   1   5   7 712.662 96.5547   3 
   1   5   8 41.8809 43.1295   3 
   1   5   9 31.3403 44.9397   3 
   1   5  10 11.2668 42.0410   3 
   1   6 -15-123.977 60.3820   4 
   1   6 -14-116.604 58.7356   4 
   1   6 -13 83.5482 40.5840   4 
   1   6 -12-43.0032 42.3961   4 
   1   6 -11 291.289 67.9392   4 
   1   6 -10 162.583 45.5479   4 
   1   6  -9 408.761 65.4399   4 
   1   6  -8 21.9583 15.3079   3 
   1   6  -8 14.3366 25.6108   4 
   1   6  -7 1010.13 93.0328   4 
   1   6  -7 998.017 51.1759   3 
   1   6  -6 265.313 44.6541   4 
   1   6  -6 347.147 31.8672   3 
   1   6  -5 312.683 41.2871   8 
   1   6  -5 337.314 53.4867   4 
   1   6  -5 366.025 34.3458   3 
   1   6  -4 1803.16 108.479   4 
   1   6  -4 1698.14 87.6439   8 
   1   6  -4 1738.10 74.4855   3 
   1   6  -3 272.193 34.1861   3 
   1   6  -3 301.561 39.3614   8 
   1   6  -3 276.479 23.0480   7 
   1   6  -3 243.269 43.5917   4 
   1   6  -3 290.362 24.5694   1 
   1   6  -2 53.9662 21.8642   3 
   1   6  -2 75.5392 25.5259   8 
   1   6  -2 69.2758 17.7785   7 
   1   6  -1 5768.81 145.407   7 
   1   6  -1 5991.25 174.068   3 
   1   6   0 466.568 57.6853   3 
   1   6   1 885.566 79.4055   3 
   1   6   2 180.544 41.8757   3 
   1   6   3 264.202 54.0197   3 
   1   6   4 4236.09 205.448   3 
   1   6   5 146.712 39.8406   3 
   1   6   6 196.122 59.6915   3 
   1   6   7 45.7676 38.6423   3 
   1   6   8 96.9495 49.4947   3 
   1   6   9 542.365 102.317   3 
   1   7 -15-80.2833 60.3329   4 
   1   7 -14-34.1697 51.8015   4 
   1   7 -13 30.3160 53.4001   4 
   1   7 -12 156.892 53.9252   4 
   1   7 -11 2495.89 174.319   4 
   1   7 -10 202.984 50.7226   4 
   1   7  -9 50.4429 40.3997   4 
   1   7  -8 307.699 62.5013   4 
   1   7  -8 342.902 26.8527   3 
   1   7  -8 350.021 30.8649   3 
   1   7  -7 338.435 61.4881   4 
   1   7  -7 450.222 32.8024   3 
   1   7  -7 377.171 30.7593   3 
   1   7  -6 66.9069 17.2295   3 
   1   7  -6 39.1834 25.6738   4 
   1   7  -5 773.604 83.3890   4 
   1   7  -5 875.526 52.2562   3 
   1   7  -4 94.8400 24.5582   3 
   1   7  -4 49.8245 34.1760   4 
   1   7  -3 4439.32 71.3459   1 
   1   7  -3 4840.18 193.384   4 
   1   7  -3 4727.57 101.842   7 
   1   7  -3 4770.99 145.166   3 
   1   7  -2 2917.31 98.5124   7 
   1   7  -2 3030.49 125.698   3 
   1   7  -1 43033.5 433.639   7 
   1   7  -1 42155.4 502.084   3 
   1   7   0 507.014 61.4457   3 
   1   7   1 453.215 59.9626   3 
   1   7   2 40.5061 37.7146   3 
   1   7   3 373.891 65.6199   3 
   1   7   4-8.03453 36.8800   3 
   1   7   5 232.756 67.1314   3 
   1   7   6 537.212 84.7157   3 
   1   7   7 232.310 70.7147   3 
   1   7   8 1851.64 182.406   3 
   1   8 -14 101.150 59.2181   4 
   1   8 -13 79.0538 47.6334   4 
   1   8 -12 351.589 76.3706   4 
   1   8 -11 331.317 72.9494   4 
   1   8 -10 695.415 96.8170   4 
   1   8  -9 89.1975 51.5507   4 
   1   8  -8-5.46735 26.2580   4 
   1   8  -7 196.920 51.3678   4 
   1   8  -7 199.242 20.9602   3 
   1   8  -6 294.334 54.3860   4 
   1   8  -6 353.091 32.4741   3 
   1   8  -5 270.672 32.2833   3 
   1   8  -5 307.448 62.6909   4 
   1   8  -4 379.631 41.5376   3 
   1   8  -4 355.102 28.0690   1 
   1   8  -4 407.292 64.8739   4 
   1   8  -4 273.892 16.0356   7 
   1   8  -4 388.283 28.1522   1 
   1   8  -3 125.824 33.0662   3 
   1   8  -3 99.8545 31.9090   4 
   1   8  -3 145.231 24.5929   7 
   1   8  -2 1324.48 72.8093   7 
   1   8  -2 1369.54 92.0707   3 
   1   8  -1 408.197 56.9799   3 
   1   8   0 5875.32 214.765   3 
   1   8   1 128.680 33.3236   3 
   1   8   2 698.553 89.1416   3 
   1   8   3 64.0117 32.1877   3 
   1   8   4 176.343 59.4251   3 
   1   8   5 167.390 68.4539   3 
   1   8   6 12.3228 40.1646   3 
   1   8   7 1262.17 154.561   3 
   1   9 -14 145.062 71.7198   4 
   1   9 -13 399.383 81.0776   4 
   1   9 -12 20.9891 49.7561   4 
   1   9 -11-36.0279 45.3864   4 
   1   9 -10 36.1288 33.9476   4 
   1   9  -9 11.4628 34.4277   4 
   1   9  -8 32.6004 38.5056   4 
   1   9  -7 5.59032 29.0628   4 
   1   9  -6 13.1152 12.0590   3 
   1   9  -6 21.1098 29.1541   4 
   1   9  -5 733.750 91.1422   4 
   1   9  -5 897.557 50.9049   1 
   1   9  -5 791.678 58.4404   3 
   1   9  -4 9640.25 317.285   4 
   1   9  -4 9309.61 217.839   3 
   1   9  -3 7878.12 286.273   4 
   1   9  -3 7623.83 214.918   3 
   1   9  -2 2669.58 138.846   3 
   1   9  -1 1069.29 98.3694   3 
   1   9   0 33.1234 32.8007   3 
   1   9   1 136.278 51.8202   3 
   1   9   2 20.2669 35.9618   3 
   1   9   3-26.5540 39.1635   3 
   1   9   4 28.8819 44.1596   3 
   1   9   5 1329.56 140.243   3 
   1   9   6 2140.97 192.362   3 
   1  10 -13-83.1187 58.7840   4 
   1  10 -12 95.3123 56.2049   4 
   1  10 -11 22.8392 44.5810   4 
   1  10 -10 34.7490 38.7571   4 
   1  10  -9 37.6740 40.6688   4 
   1  10  -8 77.0896 41.2245   4 
   1  10  -7 23.0520 34.0924   4 
   1  10  -6-2.38718 32.6225   4 
   1  10  -5 11.0170 16.8004   3 
   1  10  -5 3.41228 37.0362   4 
   1  10  -4 86.1326 31.3668   3 
   1  10  -4 131.386 46.0538   4 
   1  10  -3 423.643 60.0596   3 
   1  10  -3 371.974 69.3691   4 
   1  10  -2 65.9609 31.3227   3 
   1  10  -1 200.516 48.2297   3 
   1  10   0 41.8274 30.5953   3 
   1  10   1 43.7260 43.5446   3 
   1  10   2-17.9962 35.5271   3 
   1  10   3 591.441 95.9285   3 
   1  10   4 261.849 66.2049   3 
   1  10   5 172.772 62.4108   3 
   1  11 -12 105.507 72.6552   4 
   1  11 -11 10.1109 57.4788   4 
   1  11 -10 167.110 62.5986   4 
   1  11  -9-30.2517 39.3690   4 
   1  11  -8 1.91923 38.0054   4 
   1  11  -7 279.090 58.6314   4 
   1  11  -6 482.253 90.8842   4 
   1  11  -5 17.9822 33.8571   4 
   1  11  -4 21.7958 37.6427   4 
   1  11  -3 7.88560 34.6716   3 
   1  11  -3 124.790 55.1181   4 
   1  11  -2 45.4681 31.5834   3 
   1  11  -1 325.909 61.6896   3 
   1  11   0 1515.03 129.359   3 
   1  11   1 23.1282 36.6706   3 
   1  11   2 63.3763 54.6666   3 
   1  11   3 292.849 77.9655   3 
   1  12 -11-64.7404 42.8808   4 
   1  12 -10 18.2339 39.0684   4 
   1  12  -9-5.97320 36.9709   4 
   1  12  -8 39.4673 46.9474   4 
   1  12  -7-31.9011 42.7967   4 
   1  12  -6-56.0352 49.8328   4 
   1  12  -5 15.8338 52.3727   4 
   1  12  -4 31.4066 39.7875   4 
   1  12  -3 25.8894 44.6260   4 
   1  12  -2 79.0739 48.4208   4 
   1  12   0 70.0814 37.7099   3 
   1  12   1 358.720 70.2203   3 
   1  12   2 194.869 71.6371   3 
   1  13  -8 57.0773 49.9594   4 
   1  13  -7 85.8187 58.5886   4 
   1  13  -6-13.2124 62.6140   4 
   1  13  -5-15.4398 38.5087   4 
   1  13  -4 81.2433 54.9822   4 
   1  13  -3 267.930 78.1890   4 
   2 -14   8-43.5270 69.9186   2 
   2 -13  -2 835.969 128.252   6 
   2 -13  -1 81.8941 41.7270   6 
   2 -13   0 26.7047 39.5724   6 
   2 -13   1 12.3188 36.4776   6 
   2 -13   2-10.9343 43.2882   6 
   2 -13   3 127.606 74.1140   6 
   2 -13   4-44.2929 39.5807   6 
   2 -13   5-22.9619 56.8319   6 
   2 -13   6 39.8862 53.1082   6 
   2 -13   7 330.603 80.5499   6 
   2 -13   7 500.198 99.3240   2 
   2 -13   8 178.437 67.0054   6 
   2 -13   8 291.918 79.3126   2 
   2 -13   9-28.8020 38.8218   6 
   2 -13   9 109.863 78.2726   2 
   2 -13  10 80.1743 65.1981   6 
   2 -12  -3 233.935 57.6674   6 
   2 -12  -2-20.3516 51.3211   6 
   2 -12  -1-29.5196 47.9100   6 
   2 -12   0 71.4598 35.3074   6 
   2 -12   1-28.8072 45.4280   6 
   2 -12   2 408.354 85.4203   6 
   2 -12   3-4.90151 47.8019   6 
   2 -12   4 35.3814 39.4487   6 
   2 -12   5-43.2129 55.9873   6 
   2 -12   6 59.0390 49.4151   6 
   2 -12   6-60.6584 59.5150   2 
   2 -12   7-13.5616 43.5893   6 
   2 -12   7 7.76853 45.2801   2 
   2 -12   8-1.44250 53.4425   6 
   2 -12   8-34.1679 42.8038   2 
   2 -12   9-39.8245 42.8255   6 
   2 -12   9 17.4423 40.6494   2 
   2 -12  10-52.9784 52.2887   6 
   2 -12  10-25.4746 46.2488   2 
   2 -12  11 83.5423 57.5663   6 
   2 -12  11-5.05001 52.7755   2 
   2 -11  -4 9.13919 33.8110   6 
   2 -11  -3 8.32584 35.5332   6 
   2 -11  -2-23.4042 49.8270   6 
   2 -11  -1 265.225 74.7351   6 
   2 -11   0 87.4188 43.3440   6 
   2 -11   1 1293.77 134.103   6 
   2 -11   2 5.89501 40.8596   6 
   2 -11   3 86.4010 39.8029   6 
   2 -11   4 34.4119 44.4216   6 
   2 -11   5 18.8912 33.3051   6 
   2 -11   5 107.920 50.2674   2 
   2 -11   6 162.740 51.1998   6 
   2 -11   6 149.296 51.4581   2 
   2 -11   7-31.7681 42.0798   6 
   2 -11   7-7.60676 38.8434   2 
   2 -11   8 62.8070 39.8320   6 
   2 -11   8 64.4218 40.7893   2 
   2 -11   9 13.2666 43.3903   6 
   2 -11   9 38.7507 44.1743   2 
   2 -11  10 122.947 47.2790   6 
   2 -11  10 59.9714 46.7786   2 
   2 -11  11 40.2688 43.0630   6 
   2 -11  11 153.891 59.0354   2 
   2 -10  -7 47.8799 37.9237   8 
   2 -10  -6 60.9181 54.5113   8 
   2 -10  -5 39.6110 41.9772   6 
   2 -10  -5 26.6222 43.8605   8 
   2 -10  -4 216.129 50.7374   6 
   2 -10  -4 225.844 56.9183   8 
   2 -10  -3 211.482 52.9167   6 
   2 -10  -3 211.069 47.6419   8 
   2 -10  -2 12.0855 41.6495   6 
   2 -10  -2 6.33016 24.9405   8 
   2 -10  -1-19.1289 29.5505   6 
   2 -10  -1-1.85710 21.0568   8 
   2 -10   0 1227.84 123.152   6 
   2 -10   1 34.7678 30.6339   6 
   2 -10   2 95.6028 46.9537   6 
   2 -10   3 183.830 53.1064   6 
   2 -10   4 71.0082 38.0570   6 
   2 -10   4 51.2054 38.8520   2 
   2 -10   5 134.995 47.9775   6 
   2 -10   5 262.200 64.6894   2 
   2 -10   6 204.617 60.5256   6 
   2 -10   6 180.735 53.6189   2 
   2 -10   7 17.5284 34.0308   6 
   2 -10   7 75.9716 43.9295   2 
   2 -10   8 73.2721 47.5390   6 
   2 -10   8 85.6992 36.8714   2 
   2 -10   9-3.33750 31.6795   6 
   2 -10   9-3.61576 41.1985   2 
   2 -10  10 65.1943 39.5766   6 
   2 -10  10 110.917 56.0717   2 
   2 -10  11-34.0296 32.4565   6 
   2 -10  11 63.9099 58.0313   2 
   2 -10  12-74.6280 66.7427   2 
   2  -9  -8 57.2018 55.0041   8 
   2  -9  -7-7.76134 47.2662   8 
   2  -9  -6 65.3197 48.6161   8 
   2  -9  -5-12.6184 29.8823   6 
   2  -9  -5-21.5121 39.9195   8 
   2  -9  -4 189.709 47.2178   6 
   2  -9  -4 238.421 53.9600   8 
   2  -9  -3 16.4533 26.5397   6 
   2  -9  -3 32.1323 24.3418   8 
   2  -9  -2 1030.21 74.2808   1 
   2  -9  -2 1105.53 87.4915   8 
   2  -9  -1 586.913 53.8398   1 
   2  -9  -1 703.442 63.7289   8 
   2  -9  -1 714.540 92.3664   6 
   2  -9   0 114.208 45.4099   6 
   2  -9   0 115.297 24.6224   8 
   2  -9   0 111.601 26.7296   1 
   2  -9   1-3.77350 40.0381   6 
   2  -9   1-12.2881 13.0675   8 
   2  -9   2 521.634 24.6681   8 
   2  -9   2 765.486 92.0390   6 
   2  -9   3 129.775 50.8690   6 
   2  -9   3 52.7959 37.0737   2 
   2  -9   4 391.283 66.6701   6 
   2  -9   4 476.964 67.2611   2 
   2  -9   5 185.112 51.7816   6 
   2  -9   5 126.378 36.9029   2 
   2  -9   6 23.6060 33.7516   6 
   2  -9   6 34.2692 32.1521   2 
   2  -9   7 94.0726 37.5917   6 
   2  -9   7 57.3339 41.6931   2 
   2  -9   8 402.346 66.4578   6 
   2  -9   8 459.341 77.3236   2 
   2  -9   9 44.6984 30.8151   6 
   2  -9   9 35.9125 40.6879   2 
   2  -9  10-20.7027 33.8160   6 
   2  -9  10 7.52515 45.6901   2 
   2  -9  11-20.2426 28.4006   6 
   2  -9  11-75.6236 57.8233   2 
   2  -9  12 57.9077 60.8956   2 
   2  -9  13 85.9649 49.3057   2 
   2  -8  -9 144.510 61.2810   8 
   2  -8  -8 172.904 38.6168   8 
   2  -8  -7 1685.97 151.052   8 
   2  -8  -6 1564.91 135.193   8 
   2  -8  -6 1302.38 107.259   6 
   2  -8  -5 551.952 73.2344   6 
   2  -8  -5 650.542 89.2242   8 
   2  -8  -5 554.876 63.7610   1 
   2  -8  -4 379.332 62.6112   6 
   2  -8  -4 304.412 54.9572   8 
   2  -8  -4 249.421 42.9500   1 
   2  -8  -3 483.935 70.2714   6 
   2  -8  -3 385.289 51.4625   1 
   2  -8  -3 434.463 57.9289   8 
   2  -8  -2 2514.32 112.245   1 
   2  -8  -2 2500.08 121.274   8 
   2  -8  -2 2233.66 141.885   6 
   2  -8  -1 325.809 57.7167   6 
   2  -8  -1 309.914 40.3189   1 
   2  -8  -1 359.455 43.7697   8 
   2  -8   0 129.330 27.3116   1 
   2  -8   0 88.3197 37.4031   6 
   2  -8   0 151.888 25.6343   8 
   2  -8   1 1558.86 121.336   6 
   2  -8   1 1388.89 83.0411   1 
   2  -8   1 1337.95 57.1167   8 
   2  -8   1 1350.72 83.3489   3 
   2  -8   2 29.3406 31.3589   6 
   2  -8   2 24.5063 15.7613   3 
   2  -8   2 22.7214 23.1498   2 
   2  -8   3 7085.25 258.393   6 
   2  -8   3 6998.24 217.535   2 
   2  -8   3 6713.74 131.326   3 
   2  -8   4 2039.00 123.353   2 
   2  -8   4 2014.45 134.841   6 
   2  -8   5 89.1179 39.4406   6 
   2  -8   5 133.296 40.6773   2 
   2  -8   6 73.0278 36.5062   6 
   2  -8   6 92.0999 43.3729   2 
   2  -8   7 83.5730 36.7058   6 
   2  -8   7 27.8203 30.5113   2 
   2  -8   8 198.986 50.0082   6 
   2  -8   8 200.391 51.2447   2 
   2  -8   9 249.641 50.2990   6 
   2  -8   9 270.381 63.1287   2 
   2  -8  10 7.49563 51.4411   2 
   2  -8  10-25.3048 37.9223   6 
   2  -8  11-66.7451 55.6576   2 
   2  -8  11 46.1267 25.2382   6 
   2  -8  12-76.6998 58.7022   2 
   2  -8  13-52.0537 48.7075   2 
   2  -7 -10 218.744 60.1014   8 
   2  -7  -9-54.0558 46.0162   8 
   2  -7  -8 757.131 87.6884   1 
   2  -7  -8 782.809 108.267   8 
   2  -7  -7 187.625 54.7974   1 
   2  -7  -7 253.412 63.1140   8 
   2  -7  -6 30.7170 18.7285   6 
   2  -7  -6 32.5700 27.2120   1 
   2  -7  -5 102.287 34.7094   6 
   2  -7  -5 111.996 33.1589   1 
   2  -7  -5 100.536 37.3759   8 
   2  -7  -4-2.77943 21.0925   1 
   2  -7  -4 44.7591 31.7668   6 
   2  -7  -4 20.4995 33.0541   8 
   2  -7  -3 64.1616 35.0786   6 
   2  -7  -3-9.33793 25.2237   8 
   2  -7  -3 24.8681 21.0472   1 
   2  -7  -2 95.2851 37.1801   6 
   2  -7  -2 101.297 25.0471   8 
   2  -7  -2 109.647 28.1129   1 
   2  -7  -1-17.0856 29.4278   6 
   2  -7  -1 32.9248 19.2361   1 
   2  -7  -1 25.3138 18.0835   8 
   2  -7   0 2377.39 138.123   6 
   2  -7   0 2357.08 104.299   1 
   2  -7   0 2585.53 89.9455   8 
   2  -7   1 600.687 72.2889   6 
   2  -7   1 668.527 56.9890   1 
   2  -7   1 638.106 35.3354   8 
   2  -7   1 559.795 48.9114   3 
   2  -7   2 70.2603 33.9828   6 
   2  -7   2 110.055 20.9749   3 
   2  -7   2 85.1014 36.6928   2 
   2  -7   3 27.6023 24.1150   6 
   2  -7   3 15.7866 9.00895   3 
   2  -7   3 18.7287 22.4124   2 
   2  -7   4 2.47664 33.1473   6 
   2  -7   4 14.8021 25.1737   2 
   2  -7   5 53.4761 28.1545   6 
   2  -7   5 18.3848 11.0888   7 
   2  -7   5 61.6154 36.2068   2 
   2  -7   6 4.56220 28.0872   6 
   2  -7   6-0.82002 12.3058   7 
   2  -7   6 44.7648 34.8836   2 
   2  -7   7 126.049 50.8923   2 
   2  -7   7 88.7275 38.7110   6 
   2  -7   8-58.6728 33.2784   2 
   2  -7   8-25.6057 23.5767   6 
   2  -7   9-35.1087 47.3730   2 
   2  -7   9 5.30688 29.3353   6 
   2  -7  10-47.9946 56.1775   2 
   2  -7  10 10.1984 25.7633   6 
   2  -7  11 101.161 52.6164   2 
   2  -7  12 278.642 80.2773   2 
   2  -7  13-120.495 61.4139   2 
   2  -6 -10 161.470 72.8766   8 
   2  -6 -10 57.7638 51.1956   1 
   2  -6  -9 1519.49 133.577   1 
   2  -6  -9 1314.11 137.743   8 
   2  -6  -8 1.78529 50.3942   8 
   2  -6  -8 28.9446 30.9852   1 
   2  -6  -7 552.699 86.5632   8 
   2  -6  -7 494.292 72.8704   1 
   2  -6  -7 413.543 52.4380   6 
   2  -6  -6 359.437 49.5511   6 
   2  -6  -6 412.175 68.5259   8 
   2  -6  -6 356.298 59.3410   1 
   2  -6  -5 3703.15 173.141   8 
   2  -6  -5 3506.89 151.575   1 
   2  -6  -5 3448.96 148.298   6 
   2  -6  -4 3262.39 144.293   6 
   2  -6  -4 3372.38 155.933   8 
   2  -6  -4 3319.82 138.410   1 
   2  -6  -3 4699.26 173.829   6 
   2  -6  -3 4494.86 160.830   8 
   2  -6  -3 4659.56 154.987   1 
   2  -6  -2 2592.40 130.385   6 
   2  -6  -2 2789.23 114.470   8 
   2  -6  -2 2712.86 113.335   1 
   2  -6  -1 1372.25 97.9051   6 
   2  -6  -1 1365.23 77.8377   1 
   2  -6  -1 1259.95 67.2385   8 
   2  -6   0 4846.38 177.614   6 
   2  -6   0 4540.80 139.099   1 
   2  -6   0 4671.13 107.935   8 
   2  -6   0 4638.16 147.391   3 
   2  -6   1 9473.07 252.020   6 
   2  -6   1 9652.43 206.967   1 
   2  -6   1 9497.20 199.744   2 
   2  -6   1 9030.43 110.947   8 
   2  -6   1 9520.93 189.519   3 
   2  -6   2 418.911 56.9426   6 
   2  -6   2 444.840 47.5909   1 
   2  -6   2 481.465 49.1582   2 
   2  -6   2 443.453 37.2009   3 
   2  -6   3 4513.91 175.263   6 
   2  -6   3 4419.18 114.599   7 
   2  -6   3 4216.35 89.4567   3 
   2  -6   4 458.612 59.3494   6 
   2  -6   4 478.274 56.6519   2 
   2  -6   4 462.787 37.7916   7 
   2  -6   5 1539.59 104.993   6 
   2  -6   5 1550.09 102.981   2 
   2  -6   5 1559.02 67.6105   7 
   2  -6   6 6785.55 210.463   6 
   2  -6   6 7237.23 227.099   2 
   2  -6   6 6689.18 150.717   7 
   2  -6   7 3709.06 155.868   6 
   2  -6   7 4016.00 179.965   2 
   2  -6   7 3547.87 119.030   7 
   2  -6   8 59.0630 10.6709   3 
   2  -6   8 16.2518 37.0496   2 
   2  -6   8 86.8382 31.4515   6 
   2  -6   9 31.3574 35.9677   2 
   2  -6   9 30.2063 28.6083   6 
   2  -6  10-1.79200 24.0867   6 
   2  -6  10-6.60742 38.9910   2 
   2  -6  11 160.010 68.4106   2 
   2  -6  12 28.1004 48.8445   2 
   2  -6  13-29.2391 47.6178   2 
   2  -5 -11 113.857 58.3887   1 
   2  -5 -11 86.7427 55.8798   8 
   2  -5 -10 81.1129 51.0597   1 
   2  -5 -10 148.612 56.7035   8 
   2  -5  -9 729.356 90.3830   1 
   2  -5  -9 731.382 99.2236   8 
   2  -5  -8 78.5091 50.2332   1 
   2  -5  -7 199.216 33.4399   6 
   2  -5  -7 178.760 49.2863   1 
   2  -5  -6 315.182 42.8730   6 
   2  -5  -6 349.020 55.0841   1 
   2  -5  -5 702.911 64.9810   6 
   2  -5  -5 715.357 70.0326   1 
   2  -5  -4 17379.6 308.336   6 
   2  -5  -4 17501.2 310.218   1 
   2  -5  -3 1032.93 76.2574   6 
   2  -5  -3 1050.28 75.2333   1 
   2  -5  -2 59.7884 25.3543   6 
   2  -5  -2 54.0346 21.7379   1 
   2  -5  -1 55.1288 17.9435   3 
   2  -5  -1 61.1172 22.2368   6 
   2  -5  -1 77.8759 23.1471   1 
   2  -5   0 801.603 69.0565   6 
   2  -5   0 646.190 52.1856   1 
   2  -5   0 747.704 55.6112   3 
   2  -5   1 5.47113 12.9907   3 
   2  -5   1-4.08647 20.6245   1 
   2  -5   1 23.1175 20.1966   6 
   2  -5   1 8.25160 4.83391   8 
   2  -5   1 27.4558 18.9553   2 
   2  -5   2 314.075 45.3494   6 
   2  -5   2 342.829 33.7984   7 
   2  -5   2 359.953 30.5255   3 
   2  -5   2 253.027 34.9578   2 
   2  -5   2 328.284 41.3596   1 
   2  -5   3 4931.59 170.346   6 
   2  -5   3 4926.86 144.418   2 
   2  -5   3 4925.26 119.266   7 
   2  -5   3 4767.72 92.8168   3 
   2  -5   4 674.023 66.9688   6 
   2  -5   4 729.743 65.0564   2 
   2  -5   4 749.888 49.9455   7 
   2  -5   4 628.104 32.6907   3 
   2  -5   5 437.217 55.0924   2 
   2  -5   5 398.300 49.2365   6 
   2  -5   5 404.361 37.0508   7 
   2  -5   5 422.015 27.2716   3 
   2  -5   6 104.648 42.1209   2 
   2  -5   6 44.6215 12.2328   3 
   2  -5   6 56.9085 23.8932   6 
   2  -5   6 38.8846 18.1314   7 
   2  -5   7 1362.99 87.8645   6 
   2  -5   7 1376.44 106.269   2 
   2  -5   7 1504.40 85.3764   7 
   2  -5   7 1435.35 62.6320   3 
   2  -5   8-6.51563 12.4588   3 
   2  -5   8 35.1482 22.9994   6 
   2  -5   8-21.4530 34.8229   2 
   2  -5   9 63.7434 21.6317   3 
   2  -5   9 67.2594 20.7514   6 
   2  -5   9 16.0937 39.7562   2 
   2  -5  10 92.9577 21.9911   3 
   2  -5  10 119.045 29.9801   6 
   2  -5  10 103.522 45.2728   2 
   2  -5  11 2.55787 42.4049   2 
   2  -5  12 129.284 54.1742   2 
   2  -5  13-3.94288 60.9866   2 
   2  -4 -12-137.282 60.4210   1 
   2  -4 -12 17.8122 63.0704   8 
   2  -4 -11-61.6037 59.2305   8 
   2  -4 -11 35.9297 47.3929   1 
   2  -4 -10 60.5902 47.6669   1 
   2  -4  -9 17.9695 33.1831   1 
   2  -4  -8 779.473 88.9956   1 
   2  -4  -7 3291.61 165.035   1 
   2  -4  -7 3177.94 112.375   6 
   2  -4  -6 47566.2 451.083   6 
   2  -4  -6 48304.4 582.851   1 
   2  -4  -5 25155.5 334.145   6 
   2  -4  -5 25069.1 389.798   1 
   2  -4  -4 205.810 33.1386   6 
   2  -4  -4 144.912 38.8502   1 
   2  -4  -3 1160.04 73.2365   6 
   2  -4  -3 1092.87 71.9752   1 
   2  -4  -2 9967.87 201.842   1 
   2  -4  -2 10319.1 228.544   3 
   2  -4  -1 334.477 39.6792   1 
   2  -4  -1 338.813 40.2202   3 
   2  -4   0 602.431 49.0720   1 
   2  -4   0 584.133 36.7526   2 
   2  -4   0 554.597 46.3252   3 
   2  -4   1 2393.28 96.7845   1 
   2  -4   1 2107.57 43.9118   8 
   2  -4   1 2448.78 78.6963   2 
   2  -4   1 2265.94 84.8021   7 
   2  -4   1 2368.19 81.1173   3 
   2  -4   2 11683.1 218.839   1 
   2  -4   2 11713.8 231.246   4 
   2  -4   2 11367.3 184.596   2 
   2  -4   2 11294.9 182.889   7 
   2  -4   3 5663.14 165.378   4 
   2  -4   3 5470.76 142.704   2 
   2  -4   3 5303.98 125.312   7 
   2  -4   4 137940. 801.825   6 
   2  -4   4 136703. 804.585   2 
   2  -4   5 9495.06 211.278   6 
   2  -4   5 9722.51 195.173   7 
   2  -4   5 9443.80 228.440   2 
   2  -4   5 9353.03 156.090   3 
   2  -4   6 1597.75 87.4599   6 
   2  -4   6 1645.08 107.347   2 
   2  -4   6 1581.35 86.6584   7 
   2  -4   6 1531.93 69.7634   3 
   2  -4   7 105.024 23.8809   3 
   2  -4   7 56.2294 25.6283   6 
   2  -4   7 100.501 34.2193   2 
   2  -4   8 58.3595 19.2890   3 
   2  -4   8 98.1502 25.5480   6 
   2  -4   8 34.7388 37.7968   2 
   2  -4   9 35.7399 25.3461   3 
   2  -4   9 10.1379 15.1689   6 
   2  -4   9 76.6301 34.7063   2 
   2  -4  10 92.5881 31.2035   3 
   2  -4  10 107.735 49.4563   2 
   2  -4  11-28.3657 20.2726   3 
   2  -4  11-13.1095 45.5526   2 
   2  -4  12 16.9659 53.1287   2 
   2  -4  13 224.931 82.7625   2 
   2  -3 -13 57.5392 53.7658   1 
   2  -3 -12-14.2291 51.8301   1 
   2  -3 -11 788.978 105.445   1 
   2  -3 -10 241.382 65.3190   1 
   2  -3  -9 100.021 42.3574   1 
   2  -3  -8 985.520 97.8422   1 
   2  -3  -8 1043.62 51.9123   6 
   2  -3  -7 5995.65 138.353   6 
   2  -3  -7 6221.58 220.280   1 
   2  -3  -6 8136.39 169.847   6 
   2  -3  -6 8108.89 232.569   1 
   2  -3  -5 14703.7 233.869   6 
   2  -3  -5 14269.9 287.922   1 
   2  -3  -4-2.77782 23.1261   1 
   2  -3  -3 2157.60 98.5741   1 
   2  -3  -2 56.1010 24.5272   3 
   2  -3  -2 48.3407 18.8266   1 
   2  -3  -1 14107.6 221.026   1 
   2  -3  -1 14149.6 228.706   3 
   2  -3   0 1568.53 74.0856   1 
   2  -3   0 1653.56 72.1177   7 
   2  -3   0 1667.45 47.2654   2 
   2  -3   1-0.78419 10.6028   2 
   2  -3   1-5.95556 23.7180   1 
   2  -3   1 2.85351 7.58477   8 
   2  -3   1 0.08732 16.3955   4 
   2  -3   1-18.2841 15.8863   7 
   2  -3   2 2235.74 93.4441   1 
   2  -3   2 2289.53 94.6391   4 
   2  -3   2 2367.72 55.9790   8 
   2  -3   2 2367.63 79.9648   2 
   2  -3   2 2327.32 83.9169   7 
   2  -3   3 207.444 32.8815   2 
   2  -3   3 180.405 25.4249   3 
   2  -3   3 244.898 35.7734   4 
   2  -3   3 218.099 33.5598   7 
   2  -3   4 1388.65 86.0814   4 
   2  -3   4 1388.47 78.7361   2 
   2  -3   4 1378.74 73.6178   7 
   2  -3   4 1286.54 62.2631   3 
   2  -3   5 2819.77 112.609   7 
   2  -3   5 2728.15 97.1963   3 
   2  -3   6 146.712 24.2202   6 
   2  -3   6 125.361 24.0140   3 
   2  -3   7 4.74636 15.5149   3 
   2  -3   7-20.1765 19.0527   6 
   2  -3   8 231.621 38.5334   3 
   2  -3   8 168.526 24.9590   6 
   2  -3   9 39.8929 27.4716   3 
   2  -3   9 12.1048 9.96832   6 
   2  -3  10-3.18763 28.9357   3 
   2  -3  10-3.60410 35.4569   2 
   2  -3  11 66.3774 30.6644   3 
   2  -3  11 184.080 68.4241   2 
   2  -3  12 391.549 68.5732   3 
   2  -3  12 447.863 93.1026   2 
   2  -3  13 39.0270 45.0368   2 
   2  -2 -13-75.8299 53.5921   1 
   2  -2 -12 64.0737 45.8495   1 
   2  -2 -11-67.9899 38.1743   1 
   2  -2 -10 594.543 83.1181   1 
   2  -2  -9 406.157 72.4576   1 
   2  -2  -8 8551.83 133.858   6 
   2  -2  -8 9270.61 284.596   1 
   2  -2  -7 178.705 24.8875   6 
   2  -2  -7 123.972 36.9341   1 
   2  -2  -6 2973.06 137.485   1 
   2  -2  -5 38.6681 23.3497   1 
   2  -2  -4 13758.3 255.909   1 
   2  -2  -3 151.291 28.8224   1 
   2  -2  -2 35112.2 349.559   1 
   2  -2  -1 2937.56 99.0384   1 
   2  -2   0 55477.5 321.120   8 
   2  -2   0 55021.9 336.363   4 
   2  -2   0 55590.3 410.813   1 
   2  -2   1 18266.2 177.434   8 
   2  -2   1 18183.6 213.323   4 
   2  -2   1 17660.0 242.251   1 
   2  -2   1 17709.2 225.843   7 
   2  -2   2 43411.1 397.039   1 
   2  -2   2 43145.3 372.544   4 
   2  -2   2 43921.3 302.717   8 
   2  -2   2 44355.6 368.125   7 
   2  -2   3 1524.24 79.1975   4 
   2  -2   3 1460.84 63.7630   8 
   2  -2   3 1401.56 72.3457   7 
   2  -2   3 1350.13 67.2240   3 
   2  -2   4 4883.21 154.257   4 
   2  -2   4 4792.24 143.352   7 
   2  -2   4 4570.98 129.249   3 
   2  -2   5 3344.59 119.299   3 
   2  -2   6 871.755 66.5694   3 
   2  -2   7 2711.16 90.0500   6 
   2  -2   7 2912.15 132.735   3 
   2  -2   8 792.177 42.7235   6 
   2  -2   8 845.022 79.1874   3 
   2  -2   9 23.2155 23.3855   3 
   2  -2  10 50.7869 28.1554   3 
   2  -2  11 222.334 52.8074   3 
   2  -2  12 405.480 72.1186   3 
   2  -2  12 557.745 105.837   2 
   2  -2  13 7.21776 57.0127   2 
   2  -1 -13 961.876 135.598   1 
   2  -1 -12 60.7789 65.0180   1 
   2  -1 -11 66.8049 43.6396   1 
   2  -1 -10 842.942 99.6840   1 
   2  -1  -9 411.560 71.0191   1 
   2  -1  -8 22.4101 10.7571   6 
   2  -1  -8-0.64966 32.3146   1 
   2  -1  -8 25.7205 11.1593   6 
   2  -1  -7 57.7912 39.1733   1 
   2  -1  -6 1491.77 97.9323   1 
   2  -1  -5 524.732 55.6994   1 
   2  -1  -4 556.706 52.0545   1 
   2  -1  -3 58005.9 468.992   1 
   2  -1  -2 34518.3 333.018   1 
   2  -1  -1 19097.2 216.181   8 
   2  -1  -1 18597.5 233.219   1 
   2  -1   0 24304.0 184.544   4 
   2  -1   0 23605.7 258.833   1 
   2  -1   0 23871.3 230.111   8 
   2  -1   1 145.353 28.1214   1 
   2  -1   1 197.836 23.1916   4 
   2  -1   1 143.111 22.4908   8 
   2  -1   2 5585.09 131.564   4 
   2  -1   2 5342.31 121.890   8 
   2  -1   2 5414.15 133.133   3 
   2  -1   3 206.456 31.5237   3 
   2  -1   3 262.683 32.1214   8 
   2  -1   3 203.233 31.0876   4 
   2  -1   3 240.738 36.4542   7 
   2  -1   4 181.924 35.5024   3 
   2  -1   4 263.151 42.1248   4 
   2  -1   4 272.533 40.3441   7 
   2  -1   5 422.013 49.6697   3 
   2  -1   6 107.273 33.7186   3 
   2  -1   7 171.398 40.0324   3 
   2  -1   8 1335.31 43.2714   6 
   2  -1   8 1390.15 45.0248   6 
   2  -1   9 65.2149 32.2921   3 
   2  -1  10 55.4965 35.8984   3 
   2  -1  11 15.1620 38.1229   3 
   2  -1  12 11.1048 39.5823   3 
   2  -1  13 37.3367 34.8980   3 
   2   0 -14 47.1847 60.8771   1 
   2   0 -13-70.3669 51.2359   1 
   2   0 -12 95.3732 63.3255   1 
   2   0 -11 47.7703 51.0808   1 
   2   0 -10 237.145 49.8854   4 
   2   0 -10 258.027 60.5739   1 
   2   0  -9 999.361 83.5984   4 
   2   0  -8 847.165 73.3904   4 
   2   0  -8 772.599 80.2010   1 
   2   0  -8 864.441 44.6328   6 
   2   0  -7 114.246 20.3269   6 
   2   0  -7 136.933 26.2926   4 
   2   0  -7 65.1767 28.1858   1 
   2   0  -6 506.780 47.9684   4 
   2   0  -6 499.119 59.2865   1 
   2   0  -5 46772.6 365.095   4 
   2   0  -5 47046.2 486.637   1 
   2   0  -4 43073.9 286.130   4 
   2   0  -4 43916.9 429.006   3 
   2   0  -4 43072.0 426.718   1 
   2   0  -3 13962.4 113.490   4 
   2   0  -3 13838.8 153.672   2 
   2   0  -3 14427.9 225.308   1 
   2   0  -3 14347.4 218.547   7 
   2   0  -2 60.4526 10.5539   2 
   2   0  -2 54.5575 22.7060   1 
   2   0  -2 71.2679 19.4377   8 
   2   0  -1 26766.4 137.878   4 
   2   0  -1 26214.7 195.693   2 
   2   0  -1 26876.7 269.831   1 
   2   0   0 25037.5 203.449   4 
   2   0   0 25272.5 263.123   8 
   2   0   1 22133.7 239.005   4 
   2   0   1 21918.7 252.919   1 
   2   0   1 21874.6 256.493   8 
   2   0   1 21706.9 271.347   3 
   2   0   2 5975.05 144.674   4 
   2   0   2 5765.62 142.045   8 
   2   0   2 5840.35 149.411   3 
   2   0   3 10.5687 19.7057   3 
   2   0   3 22.6991 17.2804   8 
   2   0   3 42.1010 22.0895   4 
   2   0   4 10567.6 233.688   3 
   2   0   5 18655.3 329.503   3 
   2   0   5 18439.9 232.610   6 
   2   0   6 507.488 64.7194   3 
   2   0   6 523.489 38.6461   6 
   2   0   7 397.853 60.1062   3 
   2   0   7 362.243 28.7580   6 
   2   0   8 28.2411 29.9226   3 
   2   0   9 44.3691 29.0651   3 
   2   0  10 431.892 78.9930   3 
   2   0  11 163.480 58.3336   3 
   2   0  12-37.4190 56.8997   3 
   2   0  13 27.7251 41.7405   3 
   2   1 -14-33.2486 71.4151   1 
   2   1 -13 45.9795 37.9451   4 
   2   1 -13 81.7232 58.0441   1 
   2   1 -12-10.6057 40.5900   4 
   2   1 -12 31.3877 42.5340   1 
   2   1 -11 73.3374 44.0853   4 
   2   1 -10 2187.97 131.397   4 
   2   1  -9 764.422 74.7196   4 
   2   1  -8 560.323 56.2766   4 
   2   1  -8 490.904 38.9537   6 
   2   1  -7 2548.66 109.311   4 
   2   1  -7 2550.43 91.6263   6 
   2   1  -6 4055.09 121.736   4 
   2   1  -6 4204.32 154.744   1 
   2   1  -6 4243.24 118.272   6 
   2   1  -5 11231.5 170.099   4 
   2   1  -5 11014.1 223.002   3 
   2   1  -5 11087.7 231.194   1 
   2   1  -5 11399.0 194.865   6 
   2   1  -4 3199.06 75.7971   4 
   2   1  -4 3114.49 94.6897   2 
   2   1  -4 3176.98 113.983   1 
   2   1  -4 3213.00 105.100   6 
   2   1  -3 1223.97 40.1552   4 
   2   1  -3 1312.66 69.6507   8 
   2   1  -3 1300.89 57.2614   2 
   2   1  -3 1219.46 61.9929   7 
   2   1  -3 1301.58 66.6613   1 
   2   1  -2 12090.3 200.988   8 
   2   1  -2 11971.2 164.611   2 
   2   1  -2 11708.0 179.703   1 
   2   1  -2 11659.7 182.033   7 
   2   1  -1 1445.90 59.6036   2 
   2   1  -1 1452.22 69.7155   8 
   2   1  -1 1424.32 61.6503   1 
   2   1  -1 1579.86 68.6998   7 
   2   1   0 58485.1 369.293   4 
   2   1   0 57732.3 374.645   1 
   2   1   0 58035.3 440.309   8 
   2   1   1 2773.30 94.3442   4 
   2   1   1 2649.75 85.1942   1 
   2   1   1 2593.30 98.5280   8 
   2   1   1 2707.83 105.236   3 
   2   1   2 23365.3 313.172   4 
   2   1   2 23643.5 316.267   8 
   2   1   2 23554.1 324.893   3 
   2   1   2 23468.1 280.254   6 
   2   1   3 449.905 50.7379   4 
   2   1   3 414.746 49.8450   3 
   2   1   3 526.835 43.6798   6 
   2   1   4 1945.53 108.761   3 
   2   1   4 1964.58 82.1361   6 
   2   1   5 1194.41 91.7439   3 
   2   1   5 1226.37 64.9325   6 
   2   1   6 236.939 28.0753   6 
   2   1   6 170.869 43.6342   3 
   2   1   7 22.6140 12.2085   6 
   2   1   7 44.3445 34.8909   3 
   2   1   8 369.224 69.4933   3 
   2   1   9 182.415 50.9939   3 
   2   1  10 392.117 74.4068   3 
   2   1  11-8.65464 43.8265   3 
   2   1  12 20.8635 35.1597   3 
   2   2 -14-120.712 78.5958   1 
   2   2 -14-11.6017 43.5171   4 
   2   2 -13 2.26553 38.6866   4 
   2   2 -12 163.341 52.1900   4 
   2   2 -11 315.788 60.4167   4 
   2   2 -10 879.569 84.9976   4 
   2   2  -9 73.6614 22.1250   6 
   2   2  -9 113.388 36.3727   4 
   2   2  -8 216.754 31.4320   6 
   2   2  -8 202.286 37.9411   4 
   2   2  -7 5.86238 15.3035   6 
   2   2  -7-5.15114 19.8984   4 
   2   2  -6 420.728 41.1480   4 
   2   2  -6 509.549 52.3589   3 
   2   2  -6 457.727 43.9116   6 
   2   2  -5 537.883 40.3781   4 
   2   2  -5 597.391 49.9924   2 
   2   2  -5 635.049 53.8412   1 
   2   2  -5 615.046 52.7627   6 
   2   2  -4 3510.90 92.9974   4 
   2   2  -4 3557.61 126.182   8 
   2   2  -4 3726.77 114.419   2 
   2   2  -4 3661.55 106.158   7 
   2   2  -4 3581.98 116.901   1 
   2   2  -4 3577.26 120.979   6 
   2   2  -3 1518.56 78.3894   8 
   2   2  -3 1314.00 57.1111   4 
   2   2  -3 1411.06 68.7445   2 
   2   2  -3 1435.68 64.2133   7 
   2   2  -3 1438.26 68.0851   1 
   2   2  -3 1465.99 76.7884   6 
   2   2  -2 26410.5 311.890   8 
   2   2  -2 26486.0 286.905   2 
   2   2  -2 26073.4 258.236   1 
   2   2  -2 26906.1 270.160   7 
   2   2  -1 26935.7 296.979   2 
   2   2  -1 27405.9 320.579   8 
   2   2  -1 26601.7 243.649   1 
   2   2  -1 26908.2 280.492   7 
   2   2   0 62.5788 23.6011   6 
   2   2   0 32.5811 14.4666   1 
   2   2   0-5.77943 19.3836   3 
   2   2   0 12.5691 16.2993   8 
   2   2   0 52.2962 21.5848   7 
   2   2   1 796.597 58.6077   4 
   2   2   1 808.266 61.7928   8 
   2   2   1 824.539 60.5483   7 
   2   2   1 765.116 63.5633   3 
   2   2   1 857.892 59.5047   6 
   2   2   2 1229.81 80.2889   4 
   2   2   2 1168.46 82.0189   3 
   2   2   2 1278.76 72.7480   6 
   2   2   3 772.315 71.2355   3 
   2   2   3 928.106 62.5307   6 
   2   2   4 1372.00 98.6293   3 
   2   2   4 1370.58 74.0564   6 
   2   2   5 155.451 27.8532   6 
   2   2   5 175.098 42.2680   3 
   2   2   6 21.4906 13.1344   6 
   2   2   6 35.6530 26.7433   3 
   2   2   7 60.9585 40.2570   3 
   2   2   8 1497.31 133.780   3 
   2   2   9 201.659 57.7466   3 
   2   2  10-30.1064 38.2434   3 
   2   2  11 38.4410 44.3649   3 
   2   2  12 140.912 64.7962   3 
   2   3 -15 5.25012 48.4294   4 
   2   3 -14-16.5935 46.8197   1 
   2   3 -14 78.2685 52.7714   4 
   2   3 -13 126.434 54.1875   4 
   2   3 -12 1505.24 126.280   4 
   2   3 -11 74.2134 46.8029   4 
   2   3 -10 237.339 51.8530   4 
   2   3  -9 123.441 27.3137   6 
   2   3  -9 131.558 35.5187   4 
   2   3  -8 356.027 47.5676   4 
   2   3  -8 383.028 44.2640   6 
   2   3  -7 3132.62 120.189   4 
   2   3  -7 3022.48 119.886   6 
   2   3  -6 50.5737 21.9625   6 
   2   3  -6 36.7550 14.4020   4 
   2   3  -6 59.4128 23.6249   3 
   2   3  -5 46.5232 21.5579   6 
   2   3  -5 43.2200 22.6363   2 
   2   3  -5 36.4038 23.0984   1 
   2   3  -5 48.2791 22.5039   4 
   2   3  -4 906.687 57.6050   4 
   2   3  -4 987.706 69.8162   8 
   2   3  -4 899.982 62.7529   2 
   2   3  -4 905.149 50.8206   7 
   2   3  -4 958.202 60.7361   1 
   2   3  -4 941.464 69.3401   6 
   2   3  -3 52030.7 470.935   8 
   2   3  -3 51126.3 371.879   7 
   2   3  -3 51384.3 384.975   1 
   2   3  -2 86431.8 604.583   8 
   2   3  -2 87104.5 590.542   2 
   2   3  -2 84945.0 444.026   1 
   2   3  -2 86141.8 497.650   7 
   2   3  -1 7497.07 121.154   1 
   2   3  -1 7519.82 177.418   2 
   2   3  -1 7707.34 185.018   8 
   2   3  -1 7739.17 158.441   7 
   2   3  -1 7562.86 184.666   3 
   2   3   0 3363.75 79.6419   1 
   2   3   0 3312.68 125.921   8 
   2   3   0 3466.84 116.260   7 
   2   3   0 3266.77 128.063   3 
   2   3   0 3721.82 133.384   6 
   2   3   1 8525.86 205.727   4 
   2   3   1 8616.03 200.368   7 
   2   3   1 8281.22 212.786   3 
   2   3   1 8840.47 203.642   6 
   2   3   2 53.4257 18.5519   6 
   2   3   2 73.6603 30.3966   3 
   2   3   3 1926.64 118.190   3 
   2   3   3 2018.36 97.8768   6 
   2   3   4 77.8057 26.2111   6 
   2   3   4 89.8652 38.6923   3 
   2   3   5-13.7320 16.6410   6 
   2   3   5 51.1127 34.0870   3 
   2   3   6 609.922 83.0487   3 
   2   3   7 2270.50 158.752   3 
   2   3   8 612.419 90.6438   3 
   2   3   9 142.870 57.6991   3 
   2   3  10 130.032 51.8780   3 
   2   3  11 1.06759 40.4000   3 
   2   4 -15 2.80589 45.8938   4 
   2   4 -14 31.3799 44.8215   4 
   2   4 -13 82.6437 48.8394   4 
   2   4 -12 15.2386 33.8764   4 
   2   4 -11 263.801 56.5148   4 
   2   4 -10 35.0654 30.7433   4 
   2   4  -9 892.739 79.9300   4 
   2   4  -8 35.2777 24.1307   4 
   2   4  -7 1047.96 76.4331   4 
   2   4  -7 1133.00 75.1069   3 
   2   4  -6 30.7584 22.0295   4 
   2   4  -5 7398.95 185.253   4 
   2   4  -5 7526.59 180.739   1 
   2   4  -4 650.831 54.0346   4 
   2   4  -4 719.546 45.1649   7 
   2   4  -4 761.131 52.4248   1 
   2   4  -3 2547.05 110.743   8 
   2   4  -3 2615.90 84.2906   1 
   2   4  -3 2558.18 84.3311   7 
   2   4  -2 4911.33 153.975   8 
   2   4  -2 4901.61 98.9083   1 
   2   4  -2 4908.52 123.164   7 
   2   4  -2 4630.49 150.652   3 
   2   4  -1 227.105 43.4922   3 
   2   4  -1 266.073 21.0192   1 
   2   4  -1 257.454 34.8927   7 
   2   4   0 38.7709 23.8175   3 
   2   4   0 24.4236 19.4393   7 
   2   4   1 7106.50 210.574   3 
   2   4   2 374.081 55.8767   3 
   2   4   3 551.335 67.3078   3 
   2   4   4 925.351 96.4811   3 
   2   4   5 91.6016 41.7783   3 
   2   4   6 2005.56 150.421   3 
   2   4   7 117.376 48.4974   3 
   2   4   8 192.315 56.4750   3 
   2   4   9 10.9445 41.8554   3 
   2   4  10-41.8775 60.7452   3 
   2   5 -15 36.6672 57.8209   4 
   2   5 -14 77.4966 57.2040   4 
   2   5 -13 96.4212 52.6857   4 
   2   5 -12-70.7257 53.1413   4 
   2   5 -11 222.055 47.8528   4 
   2   5 -10 125.897 38.6185   4 
   2   5  -9 10859.7 283.415   4 
   2   5  -8 841.281 78.2655   4 
   2   5  -8 879.033 65.6023   3 
   2   5  -7 72.2541 21.9025   4 
   2   5  -7 88.2162 24.7394   3 
   2   5  -6 2056.83 110.011   4 
   2   5  -5 276.246 38.4824   1 
   2   5  -5 330.745 46.9063   4 
   2   5  -5 282.661 28.8202   7 
   2   5  -4 14.2315 22.2944   3 
   2   5  -4 1.54572 17.4611   1 
   2   5  -4 5.71475 21.4546   4 
   2   5  -4 9.10534 14.3032   7 
   2   5  -3 4394.34 101.686   1 
   2   5  -3 4255.47 112.726   7 
   2   5  -3 4139.09 145.399   3 
   2   5  -2 57.1273 25.0051   3 
   2   5  -2 92.7430 15.2762   1 
   2   5  -2 91.3059 24.2351   7 
   2   5  -1 13201.6 235.724   7 
   2   5  -1 12868.8 275.596   3 
   2   5   0 1766.11 106.819   3 
   2   5   1 59429.6 650.224   3 
   2   5   2 1103.98 95.0412   3 
   2   5   3 342.604 61.3419   3 
   2   5   4 32.0929 32.3004   3 
   2   5   5 355.595 71.1080   3 
   2   5   6 55.4182 34.5290   3 
   2   5   7 221.277 64.7098   3 
   2   5   8 171.499 48.3252   3 
   2   5   9 279.831 82.7940   3 
   2   6 -15-19.9983 66.8052   4 
   2   6 -14 39.2520 45.9439   4 
   2   6 -13 74.0418 43.5916   4 
   2   6 -12-31.4566 40.5591   4 
   2   6 -11 67.4218 38.0021   4 
   2   6 -10 2198.01 140.538   4 
   2   6  -9 1330.49 107.910   4 
   2   6  -8 3497.72 164.290   4 
   2   6  -8 3690.76 132.095   3 
   2   6  -7 171.230 43.7137   4 
   2   6  -6 250.948 47.5928   4 
   2   6  -6 375.372 45.8181   1 
   2   6  -5 340.164 55.4539   4 
   2   6  -5 366.580 30.3736   7 
   2   6  -5 408.931 44.6407   1 
   2   6  -5 393.093 46.7292   3 
   2   6  -4 1270.17 95.3380   4 
   2   6  -4 1256.93 57.4115   7 
   2   6  -4 1315.90 62.8569   1 
   2   6  -4 1286.11 84.1548   3 
   2   6  -3 1536.67 53.3017   1 
   2   6  -3 1593.07 72.2690   7 
   2   6  -3 1590.97 94.9254   3 
   2   6  -2 627.233 54.3470   7 
   2   6  -2 666.037 66.6509   3 
   2   6  -1 6.67175 26.8838   3 
   2   6   0 1419.79 104.201   3 
   2   6   1 903.009 86.1702   3 
   2   6   2 7812.46 265.750   3 
   2   6   3 226.305 55.1444   3 
   2   6   4 490.781 78.8100   3 
   2   6   5 103.954 51.8972   3 
   2   6   6 47.4415 51.8306   3 
   2   6   7 190.751 68.3053   3 
   2   6   8 157.765 65.8404   3 
   2   7 -15 125.728 57.4318   4 
   2   7 -14 55.9705 48.8098   4 
   2   7 -13-13.7371 55.9577   4 
   2   7 -12 630.876 89.7085   4 
   2   7 -11 2408.54 161.861   4 
   2   7 -10-45.8751 46.2317   4 
   2   7  -9 198.500 51.3420   4 
   2   7  -8 2.56059 32.6494   4 
   2   7  -7 1.38217 18.2090   3 
   2   7  -7 22.3940 38.8486   1 
   2   7  -7 45.5211 34.4795   4 
   2   7  -6-4.57999 24.6066   3 
   2   7  -6 46.4994 25.1522   1 
   2   7  -6 13.8601 28.6947   4 
   2   7  -5 175.642 35.3141   3 
   2   7  -5 205.509 31.4078   1 
   2   7  -5 131.108 39.2756   4 
   2   7  -5 171.695 19.9755   7 
   2   7  -4 205.948 37.5636   3 
   2   7  -4 225.313 25.4754   1 
   2   7  -4 147.053 43.8967   4 
   2   7  -4 197.003 26.2391   7 
   2   7  -3 3292.07 109.604   7 
   2   7  -3 3326.66 145.181   3 
   2   7  -2 20298.3 308.329   7 
   2   7  -2 20086.0 373.926   3 
   2   7  -1 16219.3 350.927   3 
   2   7   0 4626.28 196.121   3 
   2   7   1 2822.11 164.843   3 
   2   7   2-12.6755 35.4126   3 
   2   7   3 359.586 66.0515   3 
   2   7   4 44.7057 34.5123   3 
   2   7   5 63.6081 53.5634   3 
   2   7   6 52.3685 49.7197   3 
   2   7   7 967.647 141.498   3 
   2   8 -14-88.8989 72.2452   4 
   2   8 -13 163.148 62.8158   4 
   2   8 -12 127.241 48.3215   4 
   2   8 -11 78.2980 43.0040   4 
   2   8 -10 317.008 65.3223   4 
   2   8  -9 57.2128 40.0656   4 
   2   8  -8 89.5222 31.6664   1 
   2   8  -8 84.0063 24.2327   3 
   2   8  -8 151.335 49.9387   4 
   2   8  -7 9.72413 16.3291   3 
   2   8  -7 19.5195 27.1158   4 
   2   8  -7 52.8774 23.0432   1 
   2   8  -6 305.654 43.1114   3 
   2   8  -6 279.131 58.3339   4 
   2   8  -6 356.186 40.3348   1 
   2   8  -5 262.298 44.0026   3 
   2   8  -5 241.603 48.4329   4 
   2   8  -5 329.601 33.2432   1 
   2   8  -4 8.33277 6.26185   1 
   2   8  -4 14.6303 25.6637   3 
   2   8  -4 16.8751 6.63900   1 
   2   8  -4 47.2634 27.7710   4 
   2   8  -3 47.4749 37.0536   3 
   2   8  -2 645.095 73.7732   3 
   2   8  -1 523.595 70.5632   3 
   2   8   0 114.333 39.0411   3 
   2   8   1 255.011 59.2949   3 
   2   8   2-16.1078 33.2160   3 
   2   8   3 26.9581 35.8056   3 
   2   8   4 1.48869 38.4334   3 
   2   8   5 808.610 117.971   3 
   2   8   6 233.696 66.4534   3 
   2   9 -14 18.8759 47.0777   1 
   2   9 -14-28.7606 63.5075   4 
   2   9 -13 59.4126 44.0489   1 
   2   9 -13 4.98134 53.7058   4 
   2   9 -12 7.79084 38.3261   4 
   2   9 -12-23.3384 47.9010   1 
   2   9 -11 114.162 55.4963   4 
   2   9 -11-6.82667 36.5279   1 
   2   9 -10-5.06670 33.5213   4 
   2   9 -10-95.2064 48.3835   1 
   2   9  -9 25.6538 31.8601   4 
   2   9  -9 34.1249 33.4495   1 
   2   9  -8 535.726 84.3155   4 
   2   9  -8 778.488 70.3403   1 
   2   9  -7 174.791 34.3843   3 
   2   9  -7 152.982 49.2316   4 
   2   9  -7 175.982 31.2468   1 
   2   9  -6 6.65751 18.7750   3 
   2   9  -6 17.9882 32.8916   4 
   2   9  -6-10.5828 16.3702   1 
   2   9  -5 829.777 102.989   4 
   2   9  -5 911.289 76.8586   3 
   2   9  -4 113.860 34.5225   3 
   2   9  -4 191.578 56.4663   4 
   2   9  -3 279.186 48.7774   3 
   2   9  -2 8.28049 27.5737   3 
   2   9  -1 170.442 44.8999   3 
   2   9   0 288.968 64.4518   3 
   2   9   1 671.710 91.0028   3 
   2   9   2 2443.31 182.953   3 
   2   9   3 22.7445 42.4416   3 
   2   9   4 50.7925 37.0712   3 
   2   9   5 200.296 67.4783   3 
   2  10 -13-113.016 80.5088   1 
   2  10 -13-0.20803 40.6191   4 
   2  10 -12-60.6890 52.2718   4 
   2  10 -12 30.2009 59.6307   1 
   2  10 -11-0.93905 32.0913   4 
   2  10 -10 121.035 52.8777   4 
   2  10  -9 241.742 61.4230   4 
   2  10  -8 5.97858 39.2690   4 
   2  10  -7 338.971 76.6817   4 
   2  10  -6-27.4351 35.3954   4 
   2  10  -5 35.0596 30.1133   3 
   2  10  -5-26.1894 32.1935   4 
   2  10  -4 129.806 33.1758   3 
   2  10  -4 121.274 50.2892   4 
   2  10  -3 467.534 66.4391   3 
   2  10  -2 31.3591 34.6927   3 
   2  10  -1-20.8397 43.7072   3 
   2  10   0 101.747 45.9242   3 
   2  10   1 64.0905 43.2305   3 
   2  10   2 305.671 75.7011   3 
   2  10   3 394.256 87.7689   3 
   2  10   4 105.728 61.0669   3 
   2  11 -12-20.9800 38.5183   4 
   2  11 -11 29.9147 45.7792   4 
   2  11 -10-17.0217 36.8235   4 
   2  11  -9 0.58373 33.9000   4 
   2  11  -8-24.5379 38.9895   4 
   2  11  -7 36.2137 49.6961   4 
   2  11  -6 33.2659 36.3331   4 
   2  11  -5 285.113 66.5126   4 
   2  11  -4 51.9666 42.9402   4 
   2  11  -3-13.9381 28.9850   3 
   2  11  -3 12.7404 37.3508   4 
   2  11  -2 187.504 50.3791   3 
   2  11  -1 672.623 98.6082   3 
   2  11   0-20.4436 61.2212   3 
   2  11   1-75.8252 72.8885   3 
   2  11   2-88.7712 54.1024   3 
   2  12 -11 102.756 57.4575   4 
   2  12 -10-56.9964 61.2452   4 
   2  12  -9 95.4412 53.6951   4 
   2  12  -8-2.35366 39.7994   4 
   2  12  -7 10.6503 38.1443   4 
   2  12  -6 560.820 102.255   4 
   2  12  -5 223.226 71.1750   4 
   2  12  -4 121.991 59.2418   4 
   2  12  -3-37.4586 54.4414   4 
   2  12   0 71.1490 54.9145   3 
   2  12   1-100.996 54.4767   3 
   3 -14   8 166.043 65.9399   2 
   3 -13  -1 42.7247 49.0299   6 
   3 -13   0-4.06956 36.5603   6 
   3 -13   1 162.557 70.1342   6 
   3 -13   2 6.81652 55.2045   6 
   3 -13   3 270.488 84.4343   6 
   3 -13   4 8.99024 44.5263   6 
   3 -13   5 91.0437 59.0512   6 
   3 -13   6-51.7952 41.7945   6 
   3 -13   6-69.9492 52.2749   2 
   3 -13   7-14.9750 41.5543   6 
   3 -13   7 176.911 64.1061   2 
   3 -13   8-62.0085 54.2247   6 
   3 -13   8 30.1435 51.6234   2 
   3 -13   9 10.4834 46.1135   6 
   3 -13   9-107.012 86.1481   2 
   3 -12  -3 4.59721 32.3772   6 
   3 -12  -2 143.125 53.4525   6 
   3 -12  -1 4.73517 47.2831   6 
   3 -12   0-39.1813 47.9088   6 
   3 -12   1 72.8507 46.4838   6 
   3 -12   2 251.824 73.7148   6 
   3 -12   3-25.1883 60.8572   6 
   3 -12   4 19.7210 43.9165   6 
   3 -12   5-10.0982 41.0954   6 
   3 -12   5-5.93871 40.5851   2 
   3 -12   6-14.9388 40.2006   6 
   3 -12   6-37.6795 43.3447   2 
   3 -12   7 52.0323 34.8096   6 
   3 -12   7 161.344 61.2961   2 
   3 -12   8 47.9013 45.3741   6 
   3 -12   8 16.8099 47.2772   2 
   3 -12   9 44.9220 54.3777   6 
   3 -12   9 111.850 48.2378   2 
   3 -12  10-28.1204 65.1750   6 
   3 -12  10-7.76564 44.8817   2 
   3 -12  11-82.5324 42.1257   6 
   3 -11  -4 112.870 64.2954   6 
   3 -11  -3 21.6890 38.6097   6 
   3 -11  -2 38.1596 32.2722   6 
   3 -11  -1 22.5303 35.0172   6 
   3 -11   0 237.291 63.5228   6 
   3 -11   1 303.096 72.6723   6 
   3 -11   2-0.86631 40.6138   6 
   3 -11   3-12.0622 58.9273   6 
   3 -11   4 89.0408 37.3547   6 
   3 -11   4 97.3974 43.0359   2 
   3 -11   5-24.3303 46.8459   6 
   3 -11   5 42.0554 37.8969   2 
   3 -11   6 82.6528 38.5128   6 
   3 -11   6 204.800 55.6890   2 
   3 -11   7-2.19557 51.1935   6 
   3 -11   7 60.9714 38.5561   2 
   3 -11   8-45.7141 50.4564   6 
   3 -11   8-24.9049 41.7045   2 
   3 -11   9-0.28949 41.3206   6 
   3 -11   9-77.9489 53.8767   2 
   3 -11  10 122.835 51.0465   6 
   3 -11  10 143.198 62.1196   2 
   3 -11  11-24.4540 53.7290   6 
   3 -11  11-86.9856 71.8135   2 
   3 -10  -5 950.930 111.325   6 
   3 -10  -4 909.397 108.183   6 
   3 -10  -3 337.115 76.7471   6 
   3 -10  -2 67.3213 33.6101   6 
   3 -10  -1 147.638 37.2021   1 
   3 -10  -1 167.666 54.9677   6 
   3 -10   0 590.317 91.5477   6 
   3 -10   0 580.631 66.7456   1 
   3 -10   1 248.052 60.6630   6 
   3 -10   2 31.0107 32.5953   6 
   3 -10   3 4.53484 35.9185   6 
   3 -10   3 54.8125 29.7772   2 
   3 -10   4 7.04087 33.1346   6 
   3 -10   4-51.7331 43.0071   2 
   3 -10   5 658.440 95.3925   6 
   3 -10   5 672.156 79.1421   2 
   3 -10   6 345.608 67.6132   6 
   3 -10   6 254.125 56.9096   2 
   3 -10   7-18.5672 31.5661   6 
   3 -10   7 23.3975 33.5963   2 
   3 -10   8-6.01612 36.6318   6 
   3 -10   8 35.0843 37.1033   2 
   3 -10   9 8.54258 37.0842   6 
   3 -10   9-17.1048 43.4759   2 
   3 -10  10 38.2679 44.1502   6 
   3 -10  10 123.306 58.2336   2 
   3 -10  11 87.9908 45.5602   6 
   3 -10  11 102.519 54.9185   2 
   3 -10  12-29.7927 51.2513   2 
   3  -9  -8 129.716 41.7144   8 
   3  -9  -7-28.4672 60.0612   8 
   3  -9  -6 433.533 74.4266   8 
   3  -9  -5 64.6513 43.0863   6 
   3  -9  -5 73.9042 32.7295   8 
   3  -9  -4 25.0986 39.8806   6 
   3  -9  -4 2.31231 24.4522   1 
   3  -9  -4 88.7167 36.9549   8 
   3  -9  -3-20.4148 31.6957   6 
   3  -9  -3-12.6158 28.1468   1 
   3  -9  -3 22.0956 25.7798   8 
   3  -9  -2-13.5483 28.1205   1 
   3  -9  -2 6.69439 24.0322   8 
   3  -9  -1 77.0004 44.7259   6 
   3  -9  -1 10.4131 26.2666   1 
   3  -9  -1 16.3408 19.1323   8 
   3  -9   0 298.153 51.9851   1 
   3  -9   0 302.578 60.5789   6 
   3  -9   0 313.355 33.4291   8 
   3  -9   1 56.8758 30.3800   6 
   3  -9   1 116.008 35.1464   1 
   3  -9   2 111.356 42.5818   6 
   3  -9   3 159.767 50.0358   6 
   3  -9   3 154.379 39.8467   2 
   3  -9   4 198.897 52.9143   6 
   3  -9   4 215.800 48.3932   2 
   3  -9   5 8.74695 30.4280   6 
   3  -9   5 2.81837 33.4138   2 
   3  -9   6 13.8261 30.9675   6 
   3  -9   6-21.2817 28.9328   2 
   3  -9   7-8.42149 31.7313   6 
   3  -9   7 87.9893 43.0024   2 
   3  -9   8 11.2628 35.8157   6 
   3  -9   8 69.2395 34.6423   2 
   3  -9   9 23.3859 31.4178   6 
   3  -9   9 113.135 50.9269   2 
   3  -9  10-26.7621 34.9726   6 
   3  -9  10-20.6389 53.2489   2 
   3  -9  11-53.1018 59.7699   2 
   3  -9  12 97.3087 68.4388   2 
   3  -8  -9-42.8843 60.1624   8 
   3  -8  -8-22.6150 35.6646   8 
   3  -8  -7 1460.12 138.885   8 
   3  -8  -6 6.71442 34.1378   6 
   3  -8  -6 120.049 51.5926   8 
   3  -8  -6 75.1707 31.9692   1 
   3  -8  -5 272.352 53.4454   6 
   3  -8  -5 375.052 71.9312   8 
   3  -8  -5 363.515 59.6757   1 
   3  -8  -4 229.316 50.3791   6 
   3  -8  -4 245.777 46.1956   8 
   3  -8  -4 268.087 53.9142   1 
   3  -8  -3 1773.27 130.524   6 
   3  -8  -3 1976.78 114.891   8 
   3  -8  -3 1954.53 119.126   1 
   3  -8  -2 1751.21 133.932   6 
   3  -8  -2 1653.37 107.032   1 
   3  -8  -2 1785.07 97.4963   8 
   3  -8  -1 3611.83 190.733   6 
   3  -8  -1 3723.01 157.376   1 
   3  -8  -1 3641.13 124.519   8 
   3  -8   0 698.843 82.9656   6 
   3  -8   0 740.883 75.4909   1 
   3  -8   0 654.124 43.2895   8 
   3  -8   1 301.036 50.1261   1 
   3  -8   1 326.267 61.5606   6 
   3  -8   1 205.518 14.7135   8 
   3  -8   1 213.464 14.0853   8 
   3  -8   2 320.571 63.2936   6 
   3  -8   2 269.233 46.8578   1 
   3  -8   2 344.969 49.1397   2 
   3  -8   2 366.419 43.9682   3 
   3  -8   3 1817.48 138.330   6 
   3  -8   3 1917.47 112.864   2 
   3  -8   3 1734.89 78.5634   3 
   3  -8   4-23.4463 30.2180   6 
   3  -8   4 4.62387 27.1423   2 
   3  -8   5 664.907 80.8107   6 
   3  -8   5 673.173 79.3950   2 
   3  -8   6 151.504 50.3944   6 
   3  -8   6 61.6959 28.4488   2 
   3  -8   7 37.8946 27.8929   6 
   3  -8   7 94.6092 39.1631   2 
   3  -8   8 963.600 105.916   2 
   3  -8   8 1018.79 100.508   6 
   3  -8   9 612.150 90.3642   2 
   3  -8   9 626.782 84.3711   6 
   3  -8  10-75.2511 62.1588   2 
   3  -8  10-26.5052 34.4077   6 
   3  -8  11-106.672 61.8812   2 
   3  -8  12 30.7366 48.3084   2 
   3  -7 -10-33.8916 53.0146   8 
   3  -7  -9 82.4168 46.2954   1 
   3  -7  -9 63.4024 47.7996   8 
   3  -7  -8 79.1262 35.8384   1 
   3  -7  -8 13.6452 37.5084   8 
   3  -7  -7 629.529 82.1312   1 
   3  -7  -7 567.783 81.4093   8 
   3  -7  -6 14.6449 23.9363   6 
   3  -7  -6 22.9898 37.9055   1 
   3  -7  -6 43.9258 45.1136   8 
   3  -7  -5 180.098 53.4887   1 
   3  -7  -5 71.6900 31.6185   6 
   3  -7  -4 176.484 42.4986   6 
   3  -7  -4 171.416 37.2517   1 
   3  -7  -3 264.721 51.7861   6 
   3  -7  -3 283.931 53.8597   1 
   3  -7  -2 9594.05 283.636   6 
   3  -7  -2 8947.95 239.317   1 
   3  -7  -1 876.826 88.8677   6 
   3  -7  -1 906.728 77.0134   1 
   3  -7  -1 907.654 58.6157   8 
   3  -7   0 113.693 42.6507   6 
   3  -7   0 68.8069 29.2345   1 
   3  -7   0 135.594 23.2648   8 
   3  -7   1 25.3260 33.3183   1 
   3  -7   1 3.49786 14.9476   3 
   3  -7   1 22.5339 34.4520   6 
   3  -7   1 10.5204 22.8839   2 
   3  -7   1 11.7699 5.53331   8 
   3  -7   1 4.35204 4.94543   8 
   3  -7   2 225.235 53.2676   6 
   3  -7   2 246.108 38.2244   2 
   3  -7   2 262.983 37.0676   3 
   3  -7   2 201.370 43.7675   1 
   3  -7   3 48.9399 15.6815   3 
   3  -7   3 55.5021 29.7418   6 
   3  -7   3 83.9692 25.6993   2 
   3  -7   3 28.1876 19.7244   7 
   3  -7   4 36.1081 14.0902   3 
   3  -7   4 28.3409 30.3159   6 
   3  -7   4 42.4719 20.8403   7 
   3  -7   4 38.8629 27.9212   2 
   3  -7   5 545.548 74.0520   6 
   3  -7   5 523.762 66.3703   2 
   3  -7   5 561.450 51.3824   7 
   3  -7   5 466.749 30.2848   3 
   3  -7   5 477.415 30.4333   3 
   3  -7   6 392.939 60.8493   2 
   3  -7   6 350.284 59.9826   6 
   3  -7   6 253.480 18.0348   3 
   3  -7   7 73.6519 35.7632   2 
   3  -7   7 183.219 49.3848   6 
   3  -7   8 110.478 52.9596   2 
   3  -7   8 27.0515 34.9675   6 
   3  -7   9 96.8585 49.8341   2 
   3  -7   9 152.764 38.7143   6 
   3  -7  10 19.3839 40.0868   2 
   3  -7  10 57.1251 32.9593   6 
   3  -7  11 54.6904 62.0269   2 
   3  -7  12-3.75238 56.0289   2 
   3  -6 -11-26.1797 56.0410   1 
   3  -6 -10-85.5350 78.7663   8 
   3  -6 -10 95.8724 65.7331   1 
   3  -6  -9-5.43722 39.4556   1 
   3  -6  -8 16.7968 40.3024   1 
   3  -6  -7 9.63640 24.1614   6 
   3  -6  -7 26.9405 31.3962   1 
   3  -6  -6 717.923 72.8061   6 
   3  -6  -6 730.973 81.8968   1 
   3  -6  -5 2539.06 136.336   6 
   3  -6  -5 2668.84 147.147   1 
   3  -6  -4 32121.0 487.217   6 
   3  -6  -4 32262.0 474.501   1 
   3  -6  -3 18654.1 374.861   6 
   3  -6  -3 18097.3 345.833   1 
   3  -6  -2 80.4979 35.4839   6 
   3  -6  -2 99.0534 34.7112   1 
   3  -6  -1 138.218 39.0895   6 
   3  -6  -1 69.5770 22.5218   1 
   3  -6   0 2105.39 127.052   6 
   3  -6   0 1890.99 108.744   1 
   3  -6   0 1915.49 101.924   3 
   3  -6   1 14.1000 15.5333   3 
   3  -6   1-20.3623 30.6575   1 
   3  -6   1 10.2795 23.6811   6 
   3  -6   1 1.12320 5.87215   8 
   3  -6   1 8.86195 17.0259   2 
   3  -6   2 32.3515 15.2446   3 
   3  -6   2 15.5986 29.4061   6 
   3  -6   2 41.5452 24.8386   2 
   3  -6   2 15.8725 16.5424   7 
   3  -6   2 3.72886 25.3675   1 
   3  -6   3 24.6674 29.1557   6 
   3  -6   3 27.1529 18.5219   7 
   3  -6   3 38.8650 19.3017   2 
   3  -6   3 22.2312 15.9181   3 
   3  -6   4 1845.99 121.023   6 
   3  -6   4 1813.44 100.265   2 
   3  -6   4 1782.02 92.9447   7 
   3  -6   4 1638.38 71.3885   3 
   3  -6   5 496.348 61.5802   2 
   3  -6   5 536.601 63.6674   6 
   3  -6   5 507.141 52.9844   7 
   3  -6   5 524.882 39.8859   3 
   3  -6   6 15010.3 335.846   6 
   3  -6   6 14629.5 200.862   3 
   3  -6   7 1615.12 114.761   6 
   3  -6   7 1736.70 128.043   2 
   3  -6   7 1779.00 73.6069   3 
   3  -6   8 159.347 24.6549   3 
   3  -6   8 171.935 49.3660   2 
   3  -6   8 50.4450 23.8078   6 
   3  -6   9-20.0582 43.5069   2 
   3  -6   9-9.63152 23.7482   6 
   3  -6  10-13.5818 29.1037   6 
   3  -6  10-38.6630 44.4921   2 
   3  -6  11-26.9438 54.8478   2 
   3  -6  12-42.9109 52.9639   2 
   3  -6  13 24.0226 56.9267   2 
   3  -5 -12 74.1499 62.1573   1 
   3  -5 -11-2.63198 50.6552   1 
   3  -5 -10 2.56983 65.8084   1 
   3  -5  -9 1323.34 128.111   1 
   3  -5  -8 152.785 56.3908   1 
   3  -5  -7 4.57355 18.1365   6 
   3  -5  -7-17.7221 35.1982   1 
   3  -5  -6 870.968 75.8436   6 
   3  -5  -6 916.438 94.7296   1 
   3  -5  -5 3688.98 153.626   6 
   3  -5  -5 3725.14 167.771   1 
   3  -5  -4 6436.27 202.787   6 
   3  -5  -4 6027.15 202.497   1 
   3  -5  -3 6302.25 200.984   1 
   3  -5  -2 110.708 35.3005   1 
   3  -5  -1 746.320 68.3505   1 
   3  -5   0-17.3566 15.5384   3 
   3  -5   0-17.4228 21.8065   1 
   3  -5   0-2.20238 9.36743   8 
   3  -5   1 4611.25 162.002   1 
   3  -5   1 4590.41 87.0318   8 
   3  -5   1 4703.86 117.239   2 
   3  -5   1 4719.37 150.192   7 
   3  -5   1 4494.37 143.531   3 
   3  -5   2-3.49289 25.7713   1 
   3  -5   2 44.1099 7.70053   8 
   3  -5   2 58.5691 21.2167   7 
   3  -5   2 40.1999 21.2260   2 
   3  -5   3 594.210 53.0816   2 
   3  -5   3 550.657 55.2318   7 
   3  -5   4 531.309 57.5443   2 
   3  -5   4 622.938 59.7189   7 
   3  -5   4 587.705 48.1332   3 
   3  -5   5 92.5645 36.1382   2 
   3  -5   5 27.6405 13.9859   3 
   3  -5   6 378.449 61.3529   2 
   3  -5   6 348.863 51.9957   6 
   3  -5   6 338.367 39.4348   3 
   3  -5   7 232.092 47.0211   6 
   3  -5   7 255.678 36.5267   3 
   3  -5   7 234.064 53.4767   2 
   3  -5   8 20.5213 16.9057   3 
   3  -5   8 29.8066 21.2274   6 
   3  -5   8 26.8819 35.4184   2 
   3  -5   9 21.1229 16.9277   3 
   3  -5   9-19.5343 30.1777   6 
   3  -5   9 32.4036 33.2509   2 
   3  -5  10 124.393 58.1041   2 
   3  -5  11 81.2356 50.7900   2 
   3  -5  12 34.2018 39.5161   2 
   3  -5  13 49.9697 63.3811   2 
   3  -4 -12 14.0729 46.2171   1 
   3  -4 -11-266.645 72.7259   1 
   3  -4 -10 110.869 58.3735   1 
   3  -4  -9 48.8656 44.7869   1 
   3  -4  -8 1624.11 89.8654   6 
   3  -4  -8 1858.68 140.222   1 
   3  -4  -7 448.231 50.6140   6 
   3  -4  -7 273.234 58.3910   1 
   3  -4  -6 8561.88 218.438   6 
   3  -4  -6 8379.12 264.394   1 
   3  -4  -5 592.725 70.6216   1 
   3  -4  -4 2718.59 133.384   1 
   3  -4  -3 95.1959 32.9997   1 
   3  -4  -2 7115.15 198.732   1 
   3  -4  -1 159.103 33.1003   3 
   3  -4  -1 155.721 35.9114   1 
   3  -4   0 10174.7 226.532   1 
   3  -4   0 9933.41 124.749   2 
   3  -4   0 10250.6 163.884   8 
   3  -4   0 10236.3 218.618   7 
   3  -4   1 335.429 48.4449   1 
   3  -4   1 293.000 40.9796   4 
   3  -4   1 336.398 27.0554   8 
   3  -4   1 334.212 29.6777   2 
   3  -4   1 288.057 37.0065   7 
   3  -4   2 8871.69 221.125   1 
   3  -4   2 8382.83 204.034   4 
   3  -4   2 8636.58 130.459   8 
   3  -4   2 8630.81 164.505   2 
   3  -4   2 8794.74 199.878   7 
   3  -4   3 3769.97 93.4936   8 
   3  -4   3 3663.44 121.052   2 
   3  -4   3 3784.22 132.254   7 
   3  -4   4 8702.77 210.975   2 
   3  -4   4 8094.46 181.818   3 
   3  -4   5 19.0657 23.5322   2 
   3  -4   5 52.5013 18.8093   3 
   3  -4   6 1258.41 95.9597   2 
   3  -4   6 1066.47 72.1540   3 
   3  -4   7 296.179 43.0057   6 
   3  -4   7 354.225 47.4526   3 
   3  -4   7 357.118 60.7200   2 
   3  -4   8 46.3036 23.8576   3 
   3  -4   8 67.8925 27.8123   6 
   3  -4   8 126.029 50.9755   2 
   3  -4   9 533.577 62.0305   3 
   3  -4   9 380.860 47.9909   6 
   3  -4   9 494.591 80.7254   2 
   3  -4  10 60.0631 37.0670   3 
   3  -4  10 62.2153 47.5190   2 
   3  -4  11-12.9785 49.2278   2 
   3  -4  12 10.8632 52.4542   2 
   3  -3 -13 22.6929 56.5985   1 
   3  -3 -12 90.1272 73.6226   1 
   3  -3 -11 2307.14 181.758   1 
   3  -3 -10 47.2736 55.3633   1 
   3  -3  -9 443.481 75.8923   1 
   3  -3  -8 980.412 65.9565   6 
   3  -3  -8 1151.58 112.639   1 
   3  -3  -7 197.378 48.3042   1 
   3  -3  -6 405.944 58.3955   1 
   3  -3  -5 1.98849 27.7559   1 
   3  -3  -4 707.847 68.7551   1 
   3  -3  -3 213.534 39.5594   1 
   3  -3  -2 382.748 52.2934   1 
   3  -3  -1 20758.0 316.934   1 
   3  -3  -1 20725.4 261.241   8 
   3  -3  -1 20478.8 312.488   7 
   3  -3   0 11884.1 241.784   1 
   3  -3   0 12205.9 186.195   8 
   3  -3   0 11573.3 118.172   2 
   3  -3   0 12261.6 232.402   7 
   3  -3   1 3494.42 114.076   4 
   3  -3   1 3594.59 136.082   1 
   3  -3   1 3618.20 97.6692   8 
   3  -3   1 3438.02 85.9671   2 
   3  -3   1 3438.82 125.461   7 
   3  -3   2 2851.86 126.860   1 
   3  -3   2 2938.25 113.930   4 
   3  -3   2 3001.62 90.2484   8 
   3  -3   2 3060.37 117.422   7 
   3  -3   3 60.2250 23.6957   3 
   3  -3   3 70.2302 18.2003   8 
   3  -3   3 68.0653 22.8865   4 
   3  -3   3 68.0183 27.5187   7 
   3  -3   4 1398.88 81.4756   3 
   3  -3   5-5.33036 17.9867   3 
   3  -3   6 26.8650 21.3892   3 
   3  -3   7 290.456 45.4814   3 
   3  -3   8-18.5392 20.7659   3 
   3  -3   8 6.33480 16.9242   6 
   3  -3   9 30.6779 25.7766   3 
   3  -3   9 23.3345 18.3068   6 
   3  -3  10 226.113 51.4756   3 
   3  -3  11 26.0100 31.1199   3 
   3  -3  11 81.6903 42.3143   2 
   3  -3  12-23.8385 52.0584   2 
   3  -2 -13 142.411 66.0290   1 
   3  -2 -12 247.963 74.5177   1 
   3  -2 -11 11.8744 41.3458   1 
   3  -2 -10 454.526 80.6866   1 
   3  -2  -9 771.147 53.8455   6 
   3  -2  -9 932.444 106.653   1 
   3  -2  -8 184.240 56.7577   1 
   3  -2  -7 1532.34 113.018   1 
   3  -2  -6 1742.63 115.395   1 
   3  -2  -5 70.4469 31.2724   1 
   3  -2  -4 952.044 76.0769   1 
   3  -2  -3 33839.6 422.701   1 
   3  -2  -2 28470.2 333.538   8 
   3  -2  -2 26936.2 359.246   1 
   3  -2  -1 2818.21 115.661   1 
   3  -2  -1 2709.60 98.0417   8 
   3  -2   0-32.6688 24.7779   1 
   3  -2   0 15.9081 16.6208   8 
   3  -2   0 4.81572 12.3593   4 
   3  -2   1 7946.85 157.522   4 
   3  -2   1 8041.35 196.564   1 
   3  -2   1 7879.71 159.717   8 
   3  -2   1 7968.04 189.577   7 
   3  -2   2 5527.15 169.297   1 
   3  -2   2 5363.29 147.200   4 
   3  -2   2 5350.40 135.989   8 
   3  -2   2 5605.50 162.093   7 
   3  -2   3 4275.51 143.344   4 
   3  -2   3 4220.28 129.005   8 
   3  -2   3 3990.07 139.891   3 
   3  -2   4 898.115 66.9628   8 
   3  -2   4 699.170 61.7906   3 
   3  -2   5 281.138 43.0020   3 
   3  -2   6 1380.56 96.3800   3 
   3  -2   7 2854.85 145.231   3 
   3  -2   8 109.505 35.0351   3 
   3  -2   9-58.0676 33.5741   3 
   3  -2  10-22.5323 28.3994   3 
   3  -2  11 19.5923 34.3414   3 
   3  -2  12 64.9946 32.0145   3 
   3  -1 -13 745.763 109.684   1 
   3  -1 -12 15.8127 62.6599   1 
   3  -1 -11 210.022 68.6733   1 
   3  -1 -10 150.012 56.6072   1 
   3  -1  -9-82.3766 58.3028   1 
   3  -1  -8 3667.55 181.146   1 
   3  -1  -7 693.738 81.7455   1 
   3  -1  -6 2449.97 134.460   1 
   3  -1  -5 2381.20 125.455   1 
   3  -1  -4 2733.43 124.028   1 
   3  -1  -3 11097.8 234.245   1 
   3  -1  -2 219.946 40.2224   1 
   3  -1  -2 243.976 16.5985   2 
   3  -1  -2 258.134 35.4317   8 
   3  -1  -1 541.842 26.3912   4 
   3  -1  -1 556.049 29.6484   2 
   3  -1  -1 563.707 55.0815   1 
   3  -1  -1 551.349 46.5967   8 
   3  -1   0 5646.70 108.397   4 
   3  -1   0 5676.27 157.544   1 
   3  -1   0 5549.43 143.877   8 
   3  -1   1-23.0491 22.2041   1 
   3  -1   1 16.0806 12.6930   4 
   3  -1   1-0.68716 16.5422   8 
   3  -1   2 18633.9 298.408   1 
   3  -1   2 18435.3 273.890   4 
   3  -1   2 18813.1 277.862   8 
   3  -1   2 18344.3 302.966   3 
   3  -1   3 3051.47 123.369   4 
   3  -1   3 2870.18 116.732   8 
   3  -1   3 2893.95 124.813   3 
   3  -1   4 3133.88 135.004   3 
   3  -1   5 171.503 40.7232   3 
   3  -1   6 537.097 66.7501   3 
   3  -1   7 74.7738 37.0567   3 
   3  -1   8 23.4312 30.6488   3 
   3  -1   9-37.8741 39.7457   3 
   3  -1  10 25.3587 33.8206   3 
   3  -1  11 61.3414 43.4470   3 
   3  -1  12 29.4891 36.1083   3 
   3   0 -13 5.04871 49.8104   1 
   3   0 -12-24.3112 49.7141   1 
   3   0 -11 132.474 54.7586   1 
   3   0 -10 601.011 89.6816   1 
   3   0  -9 1115.33 111.294   1 
   3   0  -8 1405.36 111.852   1 
   3   0  -8 1402.63 80.7782   6 
   3   0  -7 911.830 58.1096   4 
   3   0  -7 940.016 89.1640   1 
   3   0  -6 431.461 53.1813   1 
   3   0  -5 699.650 67.6274   1 
   3   0  -4 126.859 19.6593   2 
   3   0  -4 88.9148 30.1197   1 
   3   0  -3 306.010 41.2814   1 
   3   0  -3 305.993 26.7202   2 
   3   0  -3 346.335 43.3894   8 
   3   0  -3 330.463 41.7050   7 
   3   0  -2 3409.14 121.630   8 
   3   0  -2 3309.41 81.8688   2 
   3   0  -2 3182.11 118.804   1 
   3   0  -1 446.345 26.9084   4 
   3   0  -1 407.730 33.1168   2 
   3   0  -1 428.805 46.2615   8 
   3   0  -1 333.898 43.2925   1 
   3   0   0 10578.3 160.731   4 
   3   0   0 10576.1 207.545   1 
   3   0   0 10480.9 212.226   8 
   3   0   1 4035.29 118.859   4 
   3   0   1 4007.32 132.117   1 
   3   0   1 4127.25 136.448   8 
   3   0   1 3920.83 141.385   3 
   3   0   2 104.492 25.8308   1 
   3   0   2 117.889 35.4790   3 
   3   0   2 135.071 30.6347   4 
   3   0   2 89.9442 22.0528   8 
   3   0   3 321.729 48.1434   3 
   3   0   4 791.402 76.6775   3 
   3   0   5 22.7303 26.3429   3 
   3   0   6 235.853 35.5117   6 
   3   0   6 254.053 53.1442   3 
   3   0   7-22.8357 29.0676   3 
   3   0   8-34.0004 30.2466   3 
   3   0   9 52.1402 37.5297   3 
   3   0  10 414.347 77.8302   3 
   3   0  11 101.689 51.7334   3 
   3   0  12 59.0321 63.6784   3 
   3   1 -14-12.0998 65.3879   1 
   3   1 -13-72.5733 45.9465   1 
   3   1 -12-30.1470 57.4071   1 
   3   1 -11 451.645 63.6253   4 
   3   1 -11 500.666 89.8225   1 
   3   1 -10 4122.66 164.992   4 
   3   1 -10 4182.37 215.335   1 
   3   1  -9-24.6038 41.8339   1 
   3   1  -9-43.6999 32.8513   4 
   3   1  -8 21.2392 18.6129   6 
   3   1  -8 15.3938 30.0864   1 
   3   1  -8 35.5039 21.6115   4 
   3   1  -7 1126.53 64.7680   4 
   3   1  -7 957.157 89.0044   1 
   3   1  -7 999.919 71.6710   6 
   3   1  -6 528.571 39.0380   4 
   3   1  -6 521.243 59.9900   1 
   3   1  -6 549.503 55.3628   6 
   3   1  -5 5587.03 98.3094   4 
   3   1  -5 5419.30 138.628   2 
   3   1  -5 5686.61 178.682   1 
   3   1  -4 107.562 19.6010   2 
   3   1  -4 121.997 12.2625   4 
   3   1  -4 128.770 36.4964   1 
   3   1  -4 174.589 31.7948   7 
   3   1  -3 121.018 12.9157   4 
   3   1  -3 107.639 29.8999   1 
   3   1  -3 152.531 29.3842   7 
   3   1  -3 97.9641 20.6557   2 
   3   1  -2 703.325 33.4066   4 
   3   1  -2 581.319 45.0876   2 
   3   1  -2 560.858 53.8518   8 
   3   1  -2 613.142 52.3678   1 
   3   1  -2 545.919 51.1136   7 
   3   1  -1 42126.0 320.075   4 
   3   1  -1 43201.6 376.159   2 
   3   1  -1 41873.2 398.375   1 
   3   1  -1 43343.1 450.369   8 
   3   1  -1 42743.4 430.987   7 
   3   1   0 63832.1 454.887   4 
   3   1   0 63470.8 494.423   1 
   3   1   0 62745.0 557.569   8 
   3   1   0 64245.0 542.283   7 
   3   1   1 2277.70 100.190   4 
   3   1   1 2100.71 93.8651   1 
   3   1   1 2088.83 111.409   3 
   3   1   2 3407.60 132.921   4 
   3   1   2 2910.22 136.025   3 
   3   1   3 2175.03 123.667   3 
   3   1   3 2078.80 101.698   6 
   3   1   4 42.1761 24.4191   6 
   3   1   4 18.1278 27.1382   3 
   3   1   5 1070.65 97.9914   3 
   3   1   5 1198.20 78.9824   6 
   3   1   6 128.454 33.1370   6 
   3   1   6 156.113 45.4063   3 
   3   1   7 9.06902 36.8984   3 
   3   1   8-11.9010 37.8182   3 
   3   1   9 311.338 68.3065   3 
   3   1  10 104.331 42.4802   3 
   3   1  11 47.4428 51.4534   3 
   3   2 -14-90.1734 63.3195   1 
   3   2 -13-39.7977 41.0803   4 
   3   2 -13 58.0975 48.5978   1 
   3   2 -12 142.663 39.7944   4 
   3   2 -12 214.213 59.7919   1 
   3   2 -11 178.018 48.8610   4 
   3   2 -11 145.501 65.9749   1 
   3   2 -10 122.026 31.2044   4 
   3   2 -10 80.4353 48.3132   1 
   3   2  -9 610.905 62.1664   4 
   3   2  -9 665.907 79.2585   1 
   3   2  -8 315.750 58.6488   1 
   3   2  -8 330.710 45.4731   4 
   3   2  -7 2315.94 90.9699   4 
   3   2  -7 2404.33 131.997   1 
   3   2  -6 286.240 38.7258   2 
   3   2  -6 298.553 29.1119   4 
   3   2  -6 277.436 46.9162   1 
   3   2  -5 2710.37 79.1143   4 
   3   2  -5 2690.37 109.022   2 
   3   2  -5 2730.29 122.113   1 
   3   2  -5 2840.95 118.148   7 
   3   2  -4 870.808 44.8202   4 
   3   2  -4 833.896 58.9457   2 
   3   2  -4 842.417 64.4733   1 
   3   2  -4 860.310 63.9792   7 
   3   2  -3 11991.9 216.512   2 
   3   2  -3 11679.4 219.765   1 
   3   2  -3 11788.5 224.511   7 
   3   2  -2 843.383 58.5859   2 
   3   2  -2 826.236 58.9916   1 
   3   2  -2 792.388 59.5707   7 
   3   2  -1 4240.33 119.710   4 
   3   2  -1 4156.06 122.325   1 
   3   2  -1 4139.18 134.672   2 
   3   2  -1 4399.58 140.323   7 
   3   2   0 2304.76 98.6722   4 
   3   2   0 2261.03 91.4192   1 
   3   2   0 2145.96 115.278   3 
   3   2   1 239.162 43.9475   3 
   3   2   1 299.411 40.8380   4 
   3   2   1 268.802 37.1413   1 
   3   2   2-4.06187 27.2868   3 
   3   2   3 2499.17 140.642   3 
   3   2   4 39.4130 32.3054   3 
   3   2   5 37.2976 31.2991   3 
   3   2   6 731.469 91.6167   3 
   3   2   7 2.81756 37.0311   3 
   3   2   8 633.587 92.7511   3 
   3   2   9 65.7182 44.7250   3 
   3   2  10 13.9478 48.6674   3 
   3   2  11-147.137 82.3798   3 
   3   3 -14 90.8046 57.1183   1 
   3   3 -13 60.3592 31.8447   4 
   3   3 -13 132.566 66.0092   1 
   3   3 -12 100.318 51.7725   1 
   3   3 -12 137.176 40.3678   4 
   3   3 -11-24.0164 52.4417   1 
   3   3 -11 53.5847 43.4438   4 
   3   3 -10 46.9802 40.4822   1 
   3   3 -10 55.4709 26.0661   4 
   3   3  -9 819.384 70.4633   4 
   3   3  -9 898.755 95.6989   1 
   3   3  -8 199.062 49.1628   1 
   3   3  -8 116.518 27.3834   4 
   3   3  -7 25536.7 320.313   4 
   3   3  -7 25582.7 421.356   1 
   3   3  -6 2542.50 95.4099   4 
   3   3  -6 2527.86 125.346   1 
   3   3  -5 1157.08 62.9811   4 
   3   3  -5 1240.81 82.4933   1 
   3   3  -5 1130.24 72.0914   7 
   3   3  -4 6367.06 147.412   4 
   3   3  -4 6698.70 175.092   1 
   3   3  -4 6885.21 169.678   7 
   3   3  -3 21.1109 20.6783   1 
   3   3  -3 60.6531 25.3965   2 
   3   3  -3 9.64450 15.4361   7 
   3   3  -2 11.2898 14.9834   1 
   3   3  -2 13.2821 21.7478   7 
   3   3  -1 6641.42 148.922   1 
   3   3  -1 6757.17 203.692   3 
   3   3   0 43.7373 18.4001   1 
   3   3   0 21.2462 23.2420   4 
   3   3   1 13651.3 310.057   3 
   3   3   2 1517.30 110.019   3 
   3   3   3 36621.1 554.476   3 
   3   3   4 906.291 100.161   3 
   3   3   5-26.4055 40.5671   3 
   3   3   6 3.38872 33.5737   3 
   3   3   7 99.6357 49.5289   3 
   3   3   8 66.6785 40.8982   3 
   3   3   9 84.4118 52.2743   3 
   3   3  10-35.4516 51.4241   3 
   3   4 -14 152.127 87.3985   1 
   3   4 -13 187.496 70.7471   1 
   3   4 -13 68.9030 43.9132   4 
   3   4 -12 73.6067 43.1250   1 
   3   4 -12 77.7156 41.4294   4 
   3   4 -11 339.377 71.1461   1 
   3   4 -11 287.580 49.9921   4 
   3   4 -10-23.0032 45.4756   1 
   3   4 -10 7.55918 26.5977   4 
   3   4  -9 64.8562 29.1097   4 
   3   4  -9 103.675 46.1742   1 
   3   4  -8 6500.87 186.720   4 
   3   4  -8 6288.52 223.461   1 
   3   4  -7 4491.75 148.705   4 
   3   4  -7 4315.21 174.262   1 
   3   4  -6 11666.7 234.195   4 
   3   4  -6 11855.6 266.438   1 
   3   4  -5 588.236 53.1513   4 
   3   4  -5 649.834 60.6267   1 
   3   4  -5 631.417 54.4789   7 
   3   4  -4 760.309 60.3955   4 
   3   4  -4 845.302 61.2528   1 
   3   4  -4 817.176 61.3429   7 
   3   4  -3 302.499 37.3479   1 
   3   4  -3 245.361 35.4215   7 
   3   4  -2 2236.49 85.5279   1 
   3   4  -2 2203.79 119.323   3 
   3   4  -1 1390.89 66.3949   1 
   3   4  -1 1424.16 98.7612   3 
   3   4   0 186.342 48.1113   3 
   3   4   1 37.5872 29.1715   3 
   3   4   2 576.821 78.7089   3 
   3   4   3 966.965 101.572   3 
   3   4   4 4191.19 209.186   3 
   3   4   5 4.36361 32.6611   3 
   3   4   6 155.046 54.6381   3 
   3   4   7 60.1339 45.2035   3 
   3   4   8 40.6739 53.0971   3 
   3   4   9-2.73643 41.9792   3 
   3   5 -14 68.8102 45.5439   1 
   3   5 -13 2.56309 53.4480   1 
   3   5 -13-108.169 53.6926   4 
   3   5 -12-44.0662 51.2946   1 
   3   5 -12 25.1759 30.5476   4 
   3   5 -11 7.21177 50.3890   1 
   3   5 -11 63.4265 29.8515   4 
   3   5 -10 1569.76 108.524   4 
   3   5 -10 1400.94 124.891   1 
   3   5  -9 8701.91 242.696   4 
   3   5  -9 8650.44 282.222   1 
   3   5  -8 120.375 39.3957   1 
   3   5  -8 151.224 37.3984   4 
   3   5  -7 844.791 74.6785   4 
   3   5  -7 840.765 75.8311   1 
   3   5  -6 43.0619 24.3221   1 
   3   5  -6 77.5366 28.8946   4 
   3   5  -5-0.38304 23.3689   4 
   3   5  -5 4.99256 24.1487   1 
   3   5  -5 20.4953 20.5162   7 
   3   5  -4 667.749 63.7931   4 
   3   5  -4 637.749 54.0479   1 
   3   5  -4 644.000 53.3815   7 
   3   5  -4 572.816 67.3044   3 
   3   5  -3 442.965 41.5189   1 
   3   5  -3 551.290 52.6451   7 
   3   5  -3 595.363 68.5556   3 
   3   5  -2 894.139 50.5690   1 
   3   5  -2 913.429 80.8228   3 
   3   5  -1 6177.18 119.000   1 
   3   5  -1 6299.18 216.082   3 
   3   5   0 22594.0 423.651   3 
   3   5   1 14633.0 359.696   3 
   3   5   2 2756.18 162.942   3 
   3   5   3 2903.56 177.858   3 
   3   5   4 59.4368 42.5657   3 
   3   5   5 185.109 57.5508   3 
   3   5   6-32.6121 43.0587   3 
   3   5   7-102.528 60.3289   3 
   3   5   8-21.3331 59.5657   3 
   3   6 -14 112.823 64.1393   1 
   3   6 -13 0.20313 50.7853   1 
   3   6 -13-8.22968 44.4108   4 
   3   6 -12-106.053 53.4017   1 
   3   6 -12 21.9163 33.1352   4 
   3   6 -11 794.303 104.154   1 
   3   6 -11 723.328 84.4821   4 
   3   6 -10 317.171 52.6253   4 
   3   6 -10 460.414 70.3826   1 
   3   6  -9 347.672 64.5740   1 
   3   6  -9 331.258 54.5150   4 
   3   6  -8 1399.90 103.686   4 
   3   6  -8 1301.11 102.530   1 
   3   6  -7 149.365 40.7250   1 
   3   6  -7 77.2322 30.6514   4 
   3   6  -6 461.011 51.9714   1 
   3   6  -6 371.539 56.2663   4 
   3   6  -6 436.116 43.7877   7 
   3   6  -5 63.1400 25.9974   3 
   3   6  -5 50.9657 24.7567   1 
   3   6  -5 46.1785 29.9801   4 
   3   6  -5 26.5946 19.0662   7 
   3   6  -4 1153.96 91.9403   4 
   3   6  -4 1232.56 67.3235   1 
   3   6  -4 1178.36 73.0139   7 
   3   6  -4 1233.79 93.7905   3 
   3   6  -3 822.836 49.0284   1 
   3   6  -3 797.756 81.1980   3 
   3   6  -2 69.1452 26.6060   3 
   3   6  -2 52.0454 13.0774   1 
   3   6  -1 117.887 37.4203   3 
   3   6   0 1229.53 109.845   3 
   3   6   1 161.945 44.1453   3 
   3   6   2 203.142 54.4483   3 
   3   6   3 121.902 45.4128   3 
   3   6   4 61.0265 47.3130   3 
   3   6   5 98.6789 54.8104   3 
   3   6   6 68.6118 44.4109   3 
   3   6   7 457.425 95.0110   3 
   3   7 -14-73.1045 50.3119   1 
   3   7 -13 53.3264 45.5525   4 
   3   7 -13 126.373 61.3001   1 
   3   7 -12 139.427 45.0489   4 
   3   7 -12 120.611 59.4548   1 
   3   7 -11 235.784 63.3442   1 
   3   7 -11 273.245 49.1084   4 
   3   7 -10 27.8169 32.7075   1 
   3   7 -10 13.3044 34.5629   4 
   3   7  -9-81.4647 41.0240   1 
   3   7  -9-31.0593 25.3580   4 
   3   7  -8 36.1864 28.6411   4 
   3   7  -8 7.89583 26.9216   1 
   3   7  -7-9.70812 22.9289   1 
   3   7  -7 1.02186 21.7442   3 
   3   7  -7-30.7716 25.6529   4 
   3   7  -6 1617.08 116.797   4 
   3   7  -6 1729.93 95.8553   1 
   3   7  -6 1649.92 109.961   3 
   3   7  -5 1346.48 108.198   4 
   3   7  -5 1388.68 75.9576   1 
   3   7  -5 1363.58 101.429   3 
   3   7  -4 135.574 39.1340   3 
   3   7  -4 136.134 22.2229   1 
   3   7  -4 100.126 34.5282   4 
   3   7  -3 1438.45 44.9772   1 
   3   7  -3 1635.33 117.870   3 
   3   7  -2 13.5271 26.2488   3 
   3   7  -1 402.117 67.4989   3 
   3   7   0 34.2849 34.2559   3 
   3   7   1 291.772 65.1525   3 
   3   7   2 808.532 102.767   3 
   3   7   3 709.766 103.446   3 
   3   7   4 1482.66 147.786   3 
   3   7   5 21.9178 36.8037   3 
   3   7   6-39.1894 55.3966   3 
   3   8 -14 180.655 67.0260   1 
   3   8 -13 41.1290 50.3669   1 
   3   8 -12 18.1307 55.4088   1 
   3   8 -12 74.2442 41.4562   4 
   3   8 -11 57.1479 40.2241   1 
   3   8 -11 130.897 51.9086   4 
   3   8 -10 65.5670 32.8670   4 
   3   8 -10 93.9909 51.2262   1 
   3   8  -9 10.9389 20.5597   3 
   3   8  -9 41.4252 33.4991   4 
   3   8  -9-22.0879 35.4529   1 
   3   8  -8 239.661 41.2842   1 
   3   8  -8 297.170 50.7525   3 
   3   8  -8 165.695 50.4294   4 
   3   8  -7 432.402 67.6193   4 
   3   8  -7 467.090 52.3104   1 
   3   8  -7 525.145 66.7902   3 
   3   8  -6 0.89289 19.8542   1 
   3   8  -6 9.61370 24.8056   3 
   3   8  -6-7.05056 28.9717   4 
   3   8  -5 1362.13 116.883   4 
   3   8  -5 1354.68 63.8716   1 
   3   8  -5 1323.45 103.921   3 
   3   8  -4 71.7269 30.1475   3 
   3   8  -4 77.2566 39.7224   4 
   3   8  -3-8.96784 34.4322   3 
   3   8  -2 103.383 47.7255   3 
   3   8  -1 939.471 103.568   3 
   3   8   0-39.5653 32.0180   3 
   3   8   1 73.4939 42.2416   3 
   3   8   2 72.0746 51.5594   3 
   3   8   3-68.9397 57.5226   3 
   3   8   4 296.205 70.4425   3 
   3   8   5 203.690 77.3741   3 
   3   9 -13 90.0154 46.7109   1 
   3   9 -12-57.7927 48.6566   1 
   3   9 -12 60.1623 49.9732   4 
   3   9 -11 35.6646 41.6714   4 
   3   9 -11-27.2231 37.3688   1 
   3   9 -10 105.091 50.1686   1 
   3   9 -10 11.6850 30.3420   4 
   3   9  -9 262.820 53.6262   1 
   3   9  -9 236.321 54.1405   4 
   3   9  -8 31.6609 27.8997   4 
   3   9  -7 7.63938 24.0175   3 
   3   9  -7 21.9232 34.6058   4 
   3   9  -6-38.8007 30.5147   3 
   3   9  -6 68.6913 37.1940   4 
   3   9  -5 22.1327 39.8306   3 
   3   9  -5-5.20352 25.4760   4 
   3   9  -4 212.674 55.4355   3 
   3   9  -4 224.472 58.0059   4 
   3   9  -3 1433.37 122.760   3 
   3   9  -2 22.3545 40.8022   3 
   3   9  -1 9.74033 27.9451   3 
   3   9   0 436.167 78.0220   3 
   3   9   1 778.541 103.324   3 
   3   9   2-8.80375 53.7744   3 
   3   9   3-11.5183 49.5237   3 
   3   9   4 65.6808 42.1156   3 
   3  10 -12-59.1969 46.3798   4 
   3  10 -11-103.600 66.5401   4 
   3  10 -10 55.1319 42.1595   4 
   3  10  -9 115.945 42.2142   4 
   3  10  -8-29.5366 27.2559   4 
   3  10  -7 23.2336 31.2827   4 
   3  10  -6 17.3112 40.3563   4 
   3  10  -5 11.5059 33.6989   3 
   3  10  -5 14.7025 35.6481   4 
   3  10  -4 1161.19 126.009   4 
   3  10  -4 1210.78 114.152   3 
   3  10  -3 752.310 95.5335   3 
   3  10  -2 117.691 43.8855   3 
   3  10  -1 25.4990 41.1445   3 
   3  10   0 282.094 73.3185   3 
   3  10   1 12.5888 34.2065   3 
   3  10   2-36.0826 56.5607   3 
   3  11 -11 8.86560 43.0938   4 
   3  11 -10 71.5495 53.3807   4 
   3  11  -9 125.330 49.2797   4 
   3  11  -8 37.0372 30.1289   4 
   3  11  -7 37.6284 33.0560   4 
   3  11  -6 15.7898 44.0171   4 
   3  11  -5-109.522 49.7081   4 
   3  11  -4 64.3432 44.0288   4 
   3  11  -3 109.894 48.5749   3 
   3  11  -3 51.5126 41.4582   4 
   3  11  -2 70.9476 34.4533   3 
   3  11  -1 34.5488 45.1802   3 
   3  11   0 106.862 54.6631   3 
   3  11   1 25.8787 44.4433   3 
   3  12 -10 144.858 70.5276   4 
   3  12  -9-91.2994 66.6160   4 
   3  12  -8-49.6023 50.4632   4 
   3  12  -7 124.834 60.2971   4 
   3  12  -6 196.702 68.7123   4 
   3  12  -5-38.4878 54.3877   4 
   3  12  -4 49.7662 36.9965   4 
   3  12  -3-255.407 72.1798   4 
   4 -13   1-20.6850 60.7247   6 
   4 -13   2 8.87890 46.8714   6 
   4 -13   3 20.2903 56.2852   6 
   4 -13   4 72.9929 42.8647   6 
   4 -13   5 23.5108 58.5182   6 
   4 -13   6 130.678 65.6297   6 
   4 -12  -3 269.250 74.8333   6 
   4 -12  -2 427.244 87.5917   6 
   4 -12  -1 48.8055 39.3881   6 
   4 -12   0 90.6568 64.5893   6 
   4 -12   1 86.8813 53.3443   6 
   4 -12   2 40.0228 48.5534   6 
   4 -12   3 209.145 81.1634   6 
   4 -12   4 64.5622 45.2966   6 
   4 -12   5 19.3730 52.1937   6 
   4 -12   6 35.5234 50.1180   6 
   4 -12   6 16.6828 43.1053   2 
   4 -12   7 20.4362 45.1899   6 
   4 -12   7 73.4895 48.5049   2 
   4 -12   8 169.176 78.5354   6 
   4 -12   8-11.2399 55.5453   2 
   4 -12   9 32.5428 40.5503   6 
   4 -12   9 176.034 68.7259   2 
   4 -12  10 24.6670 39.5330   6 
   4 -12  10-101.606 63.7564   2 
   4 -11  -4 44.5648 40.1168   6 
   4 -11  -3 82.1827 52.5465   6 
   4 -11  -2 76.2071 60.1119   6 
   4 -11  -1-77.7044 48.3195   6 
   4 -11   0-24.5445 44.7289   6 
   4 -11   1-64.7655 48.1294   6 
   4 -11   2 126.081 50.0292   6 
   4 -11   3 7.74584 40.0935   6 
   4 -11   4 55.7862 47.4393   6 
   4 -11   4 10.8596 36.0258   2 
   4 -11   5-4.12895 38.9021   6 
   4 -11   5 13.1226 33.4199   2 
   4 -11   6 95.8378 35.2020   6 
   4 -11   6 55.6567 43.8069   2 
   4 -11   7 6.52349 42.6390   6 
   4 -11   7 61.3154 52.9234   2 
   4 -11   8-76.6703 52.3260   6 
   4 -11   8-31.4491 43.9201   2 
   4 -11   9 39.4492 53.7441   6 
   4 -11   9 74.7546 58.1639   2 
   4 -11  10-4.56833 40.9373   6 
   4 -11  10-78.3202 51.8900   2 
   4 -11  11-46.6448 59.7611   2 
   4 -10  -5 525.621 85.8998   6 
   4 -10  -4 90.7040 34.1015   6 
   4 -10  -3 188.156 56.9528   6 
   4 -10  -2 98.9451 49.4240   6 
   4 -10  -2 45.4610 29.9352   1 
   4 -10  -1 487.406 70.2359   1 
   4 -10  -1 493.004 89.3563   6 
   4 -10   0 558.262 72.1594   1 
   4 -10   0 606.086 97.4643   6 
   4 -10   1 1787.65 159.235   6 
   4 -10   1 1590.12 121.507   1 
   4 -10   2 118.312 42.9359   6 
   4 -10   3-25.2875 42.6056   6 
   4 -10   3 3.86977 33.6775   2 
   4 -10   4 45.7227 49.9588   6 
   4 -10   4-17.8750 30.7168   2 
   4 -10   5 202.209 58.7029   6 
   4 -10   5 210.393 51.8325   2 
   4 -10   6-53.0272 53.2129   6 
   4 -10   6 51.5709 31.7113   2 
   4 -10   7 62.6979 41.0668   6 
   4 -10   7 32.5664 34.8233   2 
   4 -10   8 29.7514 40.2715   6 
   4 -10   8 15.8442 40.6920   2 
   4 -10   9-3.20265 47.4442   6 
   4 -10   9 103.502 56.9951   2 
   4 -10  10 31.8140 38.1012   6 
   4 -10  10 215.392 74.6179   2 
   4 -10  11 103.724 71.3127   2 
   4  -9  -7-96.5329 51.8602   8 
   4  -9  -6 74.3783 44.1318   6 
   4  -9  -6-39.3113 56.7953   8 
   4  -9  -5 62.5288 32.4129   6 
   4  -9  -5 28.3383 45.2895   1 
   4  -9  -4 54.0980 35.8824   6 
   4  -9  -4 25.6993 37.3198   1 
   4  -9  -4 25.9280 26.4274   8 
   4  -9  -3 68.1634 41.6015   6 
   4  -9  -3 148.313 50.5832   1 
   4  -9  -3 130.493 35.9486   8 
   4  -9  -2 118.375 49.2733   6 
   4  -9  -2 105.370 43.1497   1 
   4  -9  -1 33.5090 33.7326   6 
   4  -9  -1 60.4809 39.3912   1 
   4  -9   0 2450.00 170.768   6 
   4  -9   0 2287.75 145.943   1 
   4  -9   1 100.574 40.2651   1 
   4  -9   1 116.797 44.6237   6 
   4  -9   2 93.3880 49.3674   6 
   4  -9   2 172.775 48.2202   1 
   4  -9   3 31.0663 35.4908   6 
   4  -9   3 17.4038 29.5033   2 
   4  -9   4-1.13357 38.0484   6 
   4  -9   4 33.1550 25.7964   2 
   4  -9   5-27.7592 30.1392   6 
   4  -9   5-9.43708 30.8512   2 
   4  -9   6 82.5041 42.3139   6 
   4  -9   6 4.28431 32.0053   2 
   4  -9   7 160.183 62.8420   6 
   4  -9   7 58.4332 36.3951   2 
   4  -9   8 169.370 57.1785   6 
   4  -9   8 128.641 50.8922   2 
   4  -9   9 80.8191 44.2532   6 
   4  -9   9 41.2561 45.4144   2 
   4  -9  10 101.971 56.0744   2 
   4  -9  10 9.82751 31.4239   6 
   4  -9  11-95.2255 59.0590   2 
   4  -8  -9-15.6644 48.9726   8 
   4  -8  -8-18.0250 53.1414   8 
   4  -8  -7 21.6854 34.0690   8 
   4  -8  -7-18.0546 51.4077   1 
   4  -8  -6 7.31358 25.4970   6 
   4  -8  -6 9.12461 43.6747   8 
   4  -8  -6-80.3442 52.5206   1 
   4  -8  -5 19.6247 30.9977   6 
   4  -8  -5-34.8591 37.8589   1 
   4  -8  -4 284.707 56.8911   6 
   4  -8  -4 232.354 44.4489   1 
   4  -8  -3 684.451 87.5408   6 
   4  -8  -3 834.813 90.1247   1 
   4  -8  -2 10305.0 332.077   6 
   4  -8  -2 10192.9 297.488   1 
   4  -8  -1 6838.54 272.052   6 
   4  -8  -1 6986.94 242.197   1 
   4  -8  -1 7046.36 170.578   8 
   4  -8   0 53.5907 35.4096   1 
   4  -8   0 24.9597 29.8099   6 
   4  -8   0 58.7143 19.1265   8 
   4  -8   1-4.77000 34.6099   1 
   4  -8   1-9.45123 34.8190   6 
   4  -8   2 123.848 48.2321   6 
   4  -8   2 58.3605 25.9070   2 
   4  -8   2 94.3011 36.4022   1 
   4  -8   3-18.0676 40.7255   6 
   4  -8   3-16.6897 20.3052   2 
   4  -8   4 74.0611 48.6558   6 
   4  -8   4 47.6034 22.9489   2 
   4  -8   5 14.7015 30.5550   6 
   4  -8   5 8.25840 25.2958   2 
   4  -8   6 163.419 41.1839   6 
   4  -8   6 184.063 48.6346   2 
   4  -8   7 139.664 39.1532   2 
   4  -8   7 43.3671 34.4971   6 
   4  -8   8 1417.06 127.084   6 
   4  -8   8 1411.92 131.232   2 
   4  -8   9 175.383 51.1725   2 
   4  -8   9 148.751 52.6442   6 
   4  -8  10-67.7224 53.9582   2 
   4  -8  10 118.426 53.9200   6 
   4  -8  11-73.4431 60.3461   2 
   4  -8  12-92.7458 71.7767   2 
   4  -7 -10 150.907 64.5721   8 
   4  -7  -9-65.3637 46.8332   1 
   4  -7  -8 89.4221 54.9259   1 
   4  -7  -7 1061.96 100.803   6 
   4  -7  -7 1107.35 112.760   1 
   4  -7  -6-9.98164 26.8796   6 
   4  -7  -6 45.1176 48.0219   1 
   4  -7  -5 81.0130 40.6071   6 
   4  -7  -5 9.08710 48.9181   1 
   4  -7  -4 220.386 52.9518   6 
   4  -7  -4 238.782 46.6032   1 
   4  -7  -3 1167.75 108.614   6 
   4  -7  -3 1145.76 102.010   1 
   4  -7  -2 2531.28 157.831   6 
   4  -7  -2 2416.69 142.966   1 
   4  -7  -1 1107.87 109.481   6 
   4  -7  -1 1098.66 98.8021   1 
   4  -7   0 407.141 65.0222   6 
   4  -7   0 301.544 53.3234   1 
   4  -7   0 306.782 32.2718   8 
   4  -7   1 189.477 18.7452   8 
   4  -7   1 219.254 31.5357   2 
   4  -7   2 17.4344 32.8545   6 
   4  -7   2 7.92022 20.8944   2 
   4  -7   2 71.2705 45.0542   1 
   4  -7   3 739.283 91.3739   6 
   4  -7   3 783.880 67.7355   2 
   4  -7   3 650.075 60.0883   3 
   4  -7   4-7.83510 32.5172   6 
   4  -7   4 23.7029 24.8350   2 
   4  -7   5 122.981 39.0264   2 
   4  -7   5 170.588 47.5830   6 
   4  -7   5 168.053 31.1767   3 
   4  -7   6 179.586 50.7348   2 
   4  -7   6 153.268 51.5440   6 
   4  -7   6 196.532 29.6553   3 
   4  -7   7 46.1429 44.5902   2 
   4  -7   7 48.4718 42.1087   6 
   4  -7   8 44.2571 39.9289   2 
   4  -7   8 12.5881 30.4112   6 
   4  -7   9-200.678 59.3258   2 
   4  -7   9 61.9610 51.5202   6 
   4  -7  10 127.453 64.6283   2 
   4  -7  11 10.6216 54.7460   2 
   4  -7  12-28.5804 50.1256   2 
   4  -6 -11-130.905 89.2762   1 
   4  -6 -10-90.7150 55.8661   1 
   4  -6  -9-350.769 76.0076   1 
   4  -6  -8 144.710 54.2529   1 
   4  -6  -7-64.7133 42.3265   6 
   4  -6  -7 23.5073 36.1808   1 
   4  -6  -6 1806.92 124.330   6 
   4  -6  -6 2031.12 141.314   1 
   4  -6  -5 518.310 80.3657   1 
   4  -6  -5 511.298 70.9837   6 
   4  -6  -4 3667.94 179.316   1 
   4  -6  -3 1092.67 101.680   1 
   4  -6  -2 1049.18 97.5344   1 
   4  -6  -1 115.313 34.8265   1 
   4  -6  -1 0.17530 18.2425   8 
   4  -6   0 1148.21 99.7833   1 
   4  -6   0 1072.61 59.5402   8 
   4  -6   1 232.387 51.1164   1 
   4  -6   1 306.163 28.5018   8 
   4  -6   1 276.432 31.5501   2 
   4  -6   2 1001.55 95.4269   1 
   4  -6   2 1106.91 43.3547   8 
   4  -6   2 1054.47 65.9740   2 
   4  -6   3-38.7145 34.0345   1 
   4  -6   3-23.5487 22.0419   2 
   4  -6   4 831.432 71.4840   2 
   4  -6   4 625.564 58.3750   3 
   4  -6   5 768.090 75.3039   2 
   4  -6   5 755.247 62.9185   3 
   4  -6   6 1291.79 110.372   6 
   4  -6   6 1422.21 112.851   2 
   4  -6   6 1450.85 85.0883   3 
   4  -6   7 100.923 43.5496   2 
   4  -6   7 92.5540 37.2835   6 
   4  -6   7 96.6759 26.8274   3 
   4  -6   8 121.496 37.5980   2 
   4  -6   8 140.137 41.1821   6 
   4  -6   9-21.1865 31.2689   6 
   4  -6   9 146.866 56.0089   2 
   4  -6  10-59.4795 46.3471   2 
   4  -6  11 72.6717 42.8989   2 
   4  -6  12 58.7410 56.3598   2 
   4  -5 -11 85.2230 59.2442   1 
   4  -5 -10-56.2399 55.1311   1 
   4  -5  -9 3190.78 212.542   1 
   4  -5  -8 39.9239 26.3456   6 
   4  -5  -8 28.8339 36.5506   1 
   4  -5  -7 654.869 72.8079   6 
   4  -5  -7 670.225 85.2591   1 
   4  -5  -6 795.956 91.6265   1 
   4  -5  -5 7.11395 35.6531   1 
   4  -5  -4 355.462 62.5995   1 
   4  -5  -3 13.3982 34.4489   1 
   4  -5  -2 20.4837 32.0830   1 
   4  -5  -1 32.8552 33.4226   1 
   4  -5  -1 26.2269 17.7296   8 
   4  -5   0 230.216 45.3588   1 
   4  -5   0 206.333 18.7393   2 
   4  -5   0 284.142 35.6280   8 
   4  -5   1 3539.86 164.756   1 
   4  -5   1 3359.15 99.2373   8 
   4  -5   1 3321.62 94.4575   2 
   4  -5   2 1359.00 104.793   1 
   4  -5   2 1530.89 63.5591   8 
   4  -5   2 1357.80 70.7300   2 
   4  -5   3 577.625 41.3487   8 
   4  -5   3 628.781 55.8646   2 
   4  -5   3 613.301 76.1509   1 
   4  -5   4 237.658 42.0908   2 
   4  -5   4 145.524 31.7282   3 
   4  -5   5 24.3885 31.6102   2 
   4  -5   5 42.1277 24.4982   3 
   4  -5   6 194.588 46.5747   2 
   4  -5   6 244.207 43.8912   3 
   4  -5   7-30.4903 35.2625   2 
   4  -5   7 4.54543 18.2930   3 
   4  -5   8-51.0087 36.9472   6 
   4  -5   8 34.1798 28.5824   3 
   4  -5   8-5.42965 36.0412   2 
   4  -5   9 45.9759 23.2764   3 
   4  -5   9 65.6143 35.9778   6 
   4  -5   9 139.191 55.0687   2 
   4  -5  10-39.5426 48.9773   2 
   4  -5  11-7.21295 55.5915   2 
   4  -5  12-41.4774 56.5859   2 
   4  -4 -12 147.537 73.3657   1 
   4  -4 -11 89.5050 44.7004   1 
   4  -4 -10 830.250 116.078   1 
   4  -4  -9-36.4570 44.1782   1 
   4  -4  -8 501.978 60.8508   6 
   4  -4  -8 482.155 76.4034   1 
   4  -4  -7 1117.18 111.451   1 
   4  -4  -6 107.565 33.8385   1 
   4  -4  -5 1308.92 110.046   1 
   4  -4  -4 616.037 73.7570   1 
   4  -4  -3 79.9997 45.6389   1 
   4  -4  -2 712.860 75.0847   1 
   4  -4  -2 714.990 59.5832   8 
   4  -4  -1 8722.35 243.085   1 
   4  -4  -1 8698.08 194.254   8 
   4  -4   0 5207.50 189.157   1 
   4  -4   0 5351.62 143.200   8 
   4  -4   0 4869.34 80.0099   2 
   4  -4   1 5.25756 12.1063   2 
   4  -4   1 11.7145 30.2216   1 
   4  -4   1-23.0168 16.0303   8 
   4  -4   1 13.3697 19.2621   4 
   4  -4   2 46.6357 26.4149   1 
   4  -4   2 87.1804 21.7888   2 
   4  -4   2 64.8628 17.8484   8 
   4  -4   3 540.076 48.8064   8 
   4  -4   3 501.194 50.8043   2 
   4  -4   3 571.610 68.3793   1 
   4  -4   4 432.756 52.7322   2 
   4  -4   4 478.588 48.0277   8 
   4  -4   4 446.787 54.5082   3 
   4  -4   5 526.061 61.6336   2 
   4  -4   5 449.502 56.5795   3 
   4  -4   6 88.5840 33.2262   3 
   4  -4   7 118.020 33.8427   3 
   4  -4   8 209.046 46.9043   3 
   4  -4   8 169.740 53.4736   2 
   4  -4   9 360.760 63.7809   3 
   4  -4   9 249.113 41.6262   6 
   4  -4   9 408.755 75.2182   2 
   4  -4  10 24.2648 31.6341   3 
   4  -4  10 56.0812 48.9467   2 
   4  -4  11 4.27965 45.1545   2 
   4  -4  12 92.0328 50.8814   2 
   4  -3 -12 201.726 61.5046   1 
   4  -3 -11 1591.17 153.681   1 
   4  -3 -10 36.3427 47.6899   1 
   4  -3  -9 175.166 60.0833   1 
   4  -3  -8 349.949 70.3958   1 
   4  -3  -7 40.8335 48.8235   1 
   4  -3  -6 3343.06 172.111   1 
   4  -3  -5 449.463 63.6099   1 
   4  -3  -4 2647.95 142.513   1 
   4  -3  -3 464.672 63.5412   1 
   4  -3  -2 1978.06 115.744   1 
   4  -3  -2 2000.76 100.774   8 
   4  -3  -1 3007.89 142.320   1 
   4  -3  -1 3146.03 120.296   8 
   4  -3   0 31.7734 9.79834   2 
   4  -3   0-4.61961 27.6639   1 
   4  -3   0 25.2661 16.8222   8 
   4  -3   0 20.7673 11.7251   4 
   4  -3   1-11.6341 31.2445   1 
   4  -3   1-0.29603 13.8658   8 
   4  -3   1-22.0670 16.4074   4 
   4  -3   2 952.896 87.1959   1 
   4  -3   2 906.847 68.4381   4 
   4  -3   2 890.865 63.2571   8 
   4  -3   3-20.3713 38.3956   1 
   4  -3   3-4.69841 21.2578   3 
   4  -3   3-3.72223 18.9533   8 
   4  -3   4 3434.43 148.834   3 
   4  -3   5 779.160 75.9198   3 
   4  -3   6 196.609 44.3221   3 
   4  -3   7 69.0212 36.9267   3 
   4  -3   8-24.6931 35.0934   3 
   4  -3   9 59.5431 30.7794   3 
   4  -3  10 4.35519 28.0693   3 
   4  -2 -12 40.7285 53.7464   1 
   4  -2 -11 5.92337 44.6098   1 
   4  -2 -10 104.354 47.9035   1 
   4  -2  -9 246.992 58.5772   1 
   4  -2  -8 774.356 87.6068   1 
   4  -2  -7 1387.23 120.653   1 
   4  -2  -6 1394.64 112.952   1 
   4  -2  -5 763.924 80.1920   1 
   4  -2  -4 585.113 69.6410   1 
   4  -2  -3 570.925 65.7085   1 
   4  -2  -2 51.4918 33.1357   1 
   4  -2  -1 23.8851 36.8490   1 
   4  -2  -1-34.5798 21.8897   8 
   4  -2  -1 15.2428 7.86188   2 
   4  -2   0 344.139 53.6969   1 
   4  -2   0 310.087 31.6146   4 
   4  -2   0 350.877 43.3306   8 
   4  -2   1-7.78024 26.2233   1 
   4  -2   1 16.9877 20.6595   8 
   4  -2   1 17.8808 18.8990   4 
   4  -2   2 1766.32 110.811   1 
   4  -2   2 1761.28 92.9949   4 
   4  -2   2 1641.59 91.8180   8 
   4  -2   3 20.3179 27.8461   3 
   4  -2   4 29.8941 29.0375   3 
   4  -2   5 16.3516 24.9267   3 
   4  -2   6 245.645 45.6988   3 
   4  -2   7 41.0151 36.9621   3 
   4  -2   8 34.7770 35.4668   3 
   4  -2   9-44.3321 33.9521   3 
   4  -2  10-5.43749 29.7793   3 
   4  -2  11 70.8330 63.9268   3 
   4  -1 -13 432.580 90.3221   1 
   4  -1 -12-32.7918 70.1226   1 
   4  -1 -11 28.5199 48.6916   1 
   4  -1 -10 157.617 51.3006   1 
   4  -1  -9 584.599 88.5415   1 
   4  -1  -8 6753.62 262.510   1 
   4  -1  -7-14.3595 32.4276   1 
   4  -1  -6 20.9704 35.0680   1 
   4  -1  -5 1699.30 114.653   1 
   4  -1  -4 315.828 53.9565   1 
   4  -1  -3 4020.00 162.160   1 
   4  -1  -3 4073.43 72.4828   2 
   4  -1  -2 32.4241 32.9189   1 
   4  -1  -2 37.8511 11.0364   2 
   4  -1  -1 609.944 34.8176   4 
   4  -1  -1 617.626 39.5303   2 
   4  -1  -1 718.141 70.2061   1 
   4  -1   0-1.48502 24.1141   1 
   4  -1   0 25.2016 14.4049   4 
   4  -1   1 10850.8 207.082   4 
   4  -1   1 11325.6 263.816   1 
   4  -1   2 15791.0 319.485   1 
   4  -1   2 15704.8 279.662   4 
   4  -1   2 15344.8 324.830   3 
   4  -1   3 81.2454 34.4208   3 
   4  -1   4 970.194 94.0653   3 
   4  -1   5 112.484 44.1913   3 
   4  -1   6 45.4101 37.7397   3 
   4  -1   7 606.391 85.5601   3 
   4  -1   8 79.9859 42.9266   3 
   4  -1   9-69.8703 49.7823   3 
   4  -1  10-35.1688 48.5945   3 
   4  -1  11 107.763 46.3630   3 
   4  -1  12 217.064 69.8145   3 
   4   0 -13 638.845 115.432   1 
   4   0 -12 113.843 54.2977   1 
   4   0 -11 133.232 51.7436   1 
   4   0 -10 392.862 78.8918   1 
   4   0  -9 371.231 72.2269   1 
   4   0  -8 312.972 67.1546   1 
   4   0  -7 1292.91 109.467   1 
   4   0  -6 357.524 59.3445   1 
   4   0  -5 2698.15 140.225   1 
   4   0  -4 399.429 53.9355   1 
   4   0  -4 394.331 34.8487   2 
   4   0  -3 3880.14 100.311   2 
   4   0  -3 3813.33 152.268   1 
   4   0  -2 1261.73 33.8184   4 
   4   0  -2 1414.34 64.7161   2 
   4   0  -2 1417.93 90.9011   1 
   4   0  -1 2728.96 77.1434   4 
   4   0  -1 2559.35 121.336   1 
   4   0  -1 2657.69 96.9925   2 
   4   0   0 348.692 46.7085   1 
   4   0   0 434.463 41.2449   4 
   4   0   1 1573.82 83.7482   4 
   4   0   1 1513.09 96.8821   1 
   4   0   1 1406.21 102.353   3 
   4   0   2 68.8179 32.5811   3 
   4   0   2 50.3474 25.6808   1 
   4   0   3 310.197 57.8573   3 
   4   0   4-38.5694 30.2615   3 
   4   0   5 677.516 85.5266   3 
   4   0   6-3.10063 32.5616   3 
   4   0   7-12.8697 38.9510   3 
   4   0   8 288.596 65.2749   3 
   4   0   9-75.6199 48.1234   3 
   4   0  10 227.122 65.6298   3 
   4   0  11-75.2672 50.9871   3 
   4   1 -13 106.157 77.5034   1 
   4   1 -12 146.915 61.8320   1 
   4   1 -11 67.2586 51.2020   1 
   4   1 -10 295.410 62.7511   1 
   4   1  -9 40.7833 36.3581   1 
   4   1  -8 299.241 65.0795   1 
   4   1  -7 1669.43 120.623   1 
   4   1  -6 1033.13 96.9928   1 
   4   1  -5 30252.4 343.715   2 
   4   1  -5 29079.8 449.578   1 
   4   1  -4 4689.33 131.504   2 
   4   1  -4 4807.66 172.102   1 
   4   1  -3 1920.83 41.2792   4 
   4   1  -3 2054.35 88.2809   2 
   4   1  -3 2119.51 113.233   1 
   4   1  -2 5776.02 109.915   4 
   4   1  -2 5839.10 151.838   2 
   4   1  -2 5844.42 178.603   1 
   4   1  -1 472.506 40.3214   4 
   4   1  -1 413.341 52.2141   1 
   4   1  -1 494.068 51.0625   2 
   4   1   0 69.4927 32.3326   1 
   4   1   0 46.7911 18.5263   4 
   4   1   1 3400.40 132.813   4 
   4   1   1 3400.70 141.303   1 
   4   1   1 3296.53 158.487   3 
   4   1   2 28.8264 29.2148   3 
   4   1   3 4967.87 212.296   3 
   4   1   4 1183.98 109.323   3 
   4   1   5 11252.1 340.996   3 
   4   1   6 319.697 64.5948   3 
   4   1   7-22.6083 31.0534   3 
   4   1   8 58.6708 52.4386   3 
   4   1   9 29.6041 44.1140   3 
   4   1  10 30.3877 39.7228   3 
   4   2 -13 46.5642 49.6662   1 
   4   2 -12 118.499 47.2723   1 
   4   2 -11 242.418 70.0675   1 
   4   2 -10 148.289 33.3022   4 
   4   2 -10 276.499 65.1591   1 
   4   2  -9 724.111 57.0964   4 
   4   2  -9 836.782 100.333   1 
   4   2  -8 63.2125 45.6959   1 
   4   2  -8 97.9228 24.2781   4 
   4   2  -7 135.081 46.8277   1 
   4   2  -7 162.465 20.5301   4 
   4   2  -6 9191.18 127.963   4 
   4   2  -6 9696.67 267.619   1 
   4   2  -5 6402.67 99.5300   4 
   4   2  -5 6734.22 182.138   2 
   4   2  -4 16650.3 181.619   4 
   4   2  -4 16959.8 316.893   1 
   4   2  -3 928.799 49.5636   4 
   4   2  -3 814.805 64.1836   2 
   4   2  -3 794.673 70.8780   1 
   4   2  -2 468.524 40.1012   4 
   4   2  -2 509.500 57.2777   1 
   4   2  -1 156.762 33.9436   1 
   4   2  -1 100.370 24.7711   4 
   4   2   0 1028.09 73.3127   4 
   4   2   0 839.802 72.5211   1 
   4   2   0 918.947 90.0708   3 
   4   2   1 112.677 35.3913   3 
   4   2   1 151.492 36.2903   1 
   4   2   2 73.1087 36.3548   3 
   4   2   3 191.910 56.4200   3 
   4   2   4 109.008 45.8633   3 
   4   2   5 250.052 61.7529   3 
   4   2   6 1020.02 114.338   3 
   4   2   7 89.7851 55.1653   3 
   4   2   8 51.1713 37.2624   3 
   4   2   9-50.7389 51.0878   3 
   4   2  10-108.332 50.8417   3 
   4   3 -13-31.5979 41.7292   1 
   4   3 -12-88.5545 68.3170   1 
   4   3 -11 70.4727 38.5151   1 
   4   3 -10-2.13792 23.2272   4 
   4   3 -10-15.1194 50.6296   1 
   4   3  -9 253.153 55.8121   1 
   4   3  -9 279.066 35.9391   4 
   4   3  -8 2354.11 95.2067   4 
   4   3  -8 2543.33 154.598   1 
   4   3  -7 17763.3 237.757   4 
   4   3  -7 18507.3 384.678   1 
   4   3  -6 790.827 49.5174   4 
   4   3  -6 784.831 78.6734   1 
   4   3  -5 2142.45 82.1152   4 
   4   3  -5 2118.06 117.987   1 
   4   3  -4 666.788 51.0824   4 
   4   3  -4 709.211 69.1921   1 
   4   3  -3 29.5525 24.6132   1 
   4   3  -2 1041.74 70.1778   4 
   4   3  -2 1081.25 76.2406   1 
   4   3  -1 428.684 48.5749   1 
   4   3  -1 466.219 68.5961   3 
   4   3   0 782.201 61.7975   1 
   4   3   0 766.690 83.5303   3 
   4   3   1 4068.40 191.496   3 
   4   3   2 11572.7 331.206   3 
   4   3   3 6772.43 266.435   3 
   4   3   4 638.440 87.5261   3 
   4   3   5 1133.56 120.716   3 
   4   3   6-18.3408 46.1511   3 
   4   3   7-13.2502 37.0057   3 
   4   3   8 13.4398 45.2359   3 
   4   3   9-13.8892 43.2840   3 
   4   4 -13 53.2224 60.3811   1 
   4   4 -12 350.459 86.0720   1 
   4   4 -11 147.227 59.1333   1 
   4   4 -10-20.5298 45.3009   1 
   4   4 -10 18.2203 27.3549   4 
   4   4  -9 2093.72 104.456   4 
   4   4  -9 2154.39 148.292   1 
   4   4  -8 251.609 58.5826   1 
   4   4  -8 267.977 38.6712   4 
   4   4  -7 560.268 51.0557   4 
   4   4  -7 466.984 65.9773   1 
   4   4  -6 2314.44 101.750   4 
   4   4  -6 2647.21 136.855   1 
   4   4  -5 237.802 41.3883   1 
   4   4  -5 227.631 38.2755   4 
   4   4  -4 602.327 57.9401   4 
   4   4  -4 616.305 59.6924   1 
   4   4  -3 124.945 33.0425   1 
   4   4  -2 1587.60 86.3238   1 
   4   4  -2 1595.52 116.584   3 
   4   4  -1 1439.62 81.9778   1 
   4   4  -1 1488.70 111.641   3 
   4   4   0 274.237 55.6595   3 
   4   4   1 56.4709 37.0987   3 
   4   4   2 721.677 87.9104   3 
   4   4   3 91.0535 47.5449   3 
   4   4   4 194.600 51.6521   3 
   4   4   5 24.7138 45.4305   3 
   4   4   6 152.987 64.0257   3 
   4   4   7 9.37148 41.7434   3 
   4   4   8 55.5996 40.0921   3 
   4   5 -13 51.7412 44.7028   1 
   4   5 -12 106.434 72.2359   1 
   4   5 -11 482.195 84.2517   1 
   4   5 -10 98.2891 48.1937   1 
   4   5 -10 73.8070 31.8081   4 
   4   5  -9 351.988 60.9205   1 
   4   5  -9 433.711 53.8590   4 
   4   5  -8 198.010 46.3639   1 
   4   5  -8 174.956 35.2389   4 
   4   5  -7-18.7022 22.0478   4 
   4   5  -7 0.64368 31.8180   1 
   4   5  -6 271.661 49.0487   1 
   4   5  -6 220.123 37.5688   4 
   4   5  -5 60.2839 23.9478   1 
   4   5  -5 46.4326 20.9355   4 
   4   5  -4 2166.71 116.443   4 
   4   5  -4 2303.68 108.729   1 
   4   5  -4 2329.49 142.376   3 
   4   5  -3 2954.07 116.424   1 
   4   5  -3 2836.04 157.856   3 
   4   5  -2 308.561 37.9572   1 
   4   5  -2 354.427 58.6161   3 
   4   5  -1 1516.31 76.7176   1 
   4   5  -1 1327.37 112.442   3 
   4   5   0 314.249 63.5434   3 
   4   5   1 331.201 67.4655   3 
   4   5   2 51.0932 36.3133   3 
   4   5   3 34.7454 37.4416   3 
   4   5   4 538.397 95.1728   3 
   4   5   5 457.276 86.8533   3 
   4   5   6 757.001 120.415   3 
   4   5   7-66.1186 63.8423   3 
   4   6 -13 118.701 59.2390   1 
   4   6 -12 57.6666 42.0217   1 
   4   6 -11-6.74777 38.6261   1 
   4   6 -10 97.0540 43.3236   1 
   4   6 -10 91.1068 39.5580   4 
   4   6  -9 458.096 68.8461   1 
   4   6  -9 562.024 67.1857   4 
   4   6  -8 94.4588 30.5077   4 
   4   6  -8 144.420 47.3951   1 
   4   6  -7 18.7396 27.2149   1 
   4   6  -7 29.0233 22.0281   4 
   4   6  -6 495.030 62.0469   1 
   4   6  -6 480.267 61.4382   4 
   4   6  -5 598.058 67.7745   4 
   4   6  -5 710.814 64.3883   1 
   4   6  -5 688.536 80.8521   3 
   4   6  -4 76.6069 35.3705   3 
   4   6  -4 62.1507 26.9766   1 
   4   6  -4 47.6897 27.5326   4 
   4   6  -3 1984.84 87.4650   1 
   4   6  -3 2001.90 137.525   3 
   4   6  -2 59.2363 27.7967   3 
   4   6  -2 93.8181 21.1557   1 
   4   6  -1 29.2174 33.5737   3 
   4   6   0 113.158 48.2208   3 
   4   6   1 851.484 102.442   3 
   4   6   2 52.2076 47.6217   3 
   4   6   3 78.5690 38.4139   3 
   4   6   4-8.58761 45.5051   3 
   4   6   5-56.6079 65.0967   3 
   4   6   6 150.391 60.2217   3 
   4   7 -13 9.26053 50.3789   1 
   4   7 -12 0.55753 43.1090   1 
   4   7 -11 191.535 61.6363   1 
   4   7 -10 170.011 59.5132   1 
   4   7 -10 30.8315 34.3968   4 
   4   7  -9 40.8965 30.0335   4 
   4   7  -9 74.0756 30.3077   1 
   4   7  -8 53.2900 29.5166   1 
   4   7  -8 78.6208 31.5857   4 
   4   7  -7 658.889 73.4472   4 
   4   7  -7 825.297 79.1522   1 
   4   7  -7 688.024 79.5472   3 
   4   7  -6 19.1468 29.0402   1 
   4   7  -6 134.379 50.0048   3 
   4   7  -6 62.9752 36.0814   4 
   4   7  -5-37.6477 37.5239   3 
   4   7  -5-6.88348 21.3885   1 
   4   7  -5 4.98667 26.8182   4 
   4   7  -4 7.18936 16.3091   1 
   4   7  -4-8.58304 23.9929   4 
   4   7  -3 52.3827 43.0432   3 
   4   7  -2 360.283 71.7199   3 
   4   7  -1 1889.62 150.119   3 
   4   7   0 9.60807 35.1094   3 
   4   7   1-42.0061 51.8723   3 
   4   7   2 331.566 76.6146   3 
   4   7   3 462.348 89.5524   3 
   4   7   4-43.7141 61.4776   3 
   4   7   5-36.1594 54.4512   3 
   4   8 -13 28.1621 44.5791   1 
   4   8 -12 215.360 64.6976   1 
   4   8 -11 622.294 91.6622   1 
   4   8 -10 6.58275 27.6677   4 
   4   8 -10-109.477 61.5449   1 
   4   8  -9 1.96837 26.9373   3 
   4   8  -9-45.6010 41.2339   4 
   4   8  -8 268.860 50.7536   1 
   4   8  -8 222.767 56.4725   3 
   4   8  -8 227.807 55.6792   4 
   4   8  -7 144.555 38.8609   3 
   4   8  -7 130.748 44.4271   4 
   4   8  -6 7.39122 33.2026   3 
   4   8  -6 0.99413 28.3467   4 
   4   8  -5-6.09112 40.8093   3 
   4   8  -5 27.3152 32.4795   4 
   4   8  -4 11.3249 41.6285   3 
   4   8  -4 60.0182 39.4258   4 
   4   8  -3 40.5573 44.7737   3 
   4   8  -2 1670.39 142.175   3 
   4   8  -1 1263.15 126.942   3 
   4   8   0 48.2160 45.6853   3 
   4   8   1-11.0666 45.6935   3 
   4   8   2 222.901 79.2228   3 
   4   8   3-59.0260 38.4101   3 
   4   9  -9 12.5750 31.4074   4 
   4   9  -8 47.5261 26.2233   4 
   4   9  -7 9.56924 39.4056   3 
   4   9  -7 69.4699 38.0010   4 
   4   9  -6 9.18082 40.1054   3 
   4   9  -6 103.350 41.4947   4 
   4   9  -5 73.0822 36.3226   3 
   4   9  -5 83.5227 36.7668   4 
   4   9  -4 60.4157 32.9030   3 
   4   9  -4 20.1112 39.6155   4 
   4   9  -3-3.28771 42.0753   3 
   4   9  -2 10.7472 42.7364   3 
   4   9  -1 85.8943 47.3251   3 
   4   9   0 73.6881 37.9819   3 
   4   9   1 49.6115 53.9171   3 
   4   9   2 167.882 41.2177   3 
   4  10  -9 248.383 67.9402   4 
   4  10  -8 520.826 84.8143   4 
   4  10  -7 33.1852 27.4383   4 
   4  10  -6 6.89452 31.0294   4 
   4  10  -5 358.272 69.2440   3 
   4  10  -5 282.468 69.5386   4 
   4  10  -4 401.171 76.7445   3 
   4  10  -4 380.382 75.9865   4 
   4  10  -3 120.637 36.4652   3 
   4  10  -2 220.385 57.1953   3 
   4  10  -1 72.5967 53.5230   3 
   4  10   0 13.1455 46.4308   3 
   4  11  -8-32.4489 53.7608   4 
   4  11  -7 90.7647 38.3025   4 
   4  11  -6 9.18506 38.2012   4 
   4  11  -5 120.572 55.6762   4 
   4  11  -4 24.5271 35.6044   4 
   4  11  -3 46.6148 47.7876   4 
   4  11  -2-54.4373 45.6852   3 
   4  11  -1 224.213 79.7799   3 
   5 -12  -2 54.1739 42.6757   6 
   5 -12  -1-4.36736 38.7691   6 
   5 -12   0-17.5342 59.8158   6 
   5 -12   1-11.9569 40.0687   6 
   5 -12   2 162.374 55.5894   6 
   5 -12   3 281.978 77.2852   6 
   5 -12   4 247.334 82.5239   6 
   5 -12   5-60.8597 64.2659   6 
   5 -12   6-56.9954 63.3349   6 
   5 -12   7 39.7016 53.2858   6 
   5 -11  -4-63.3038 38.8517   6 
   5 -11  -3 19.2021 50.3270   6 
   5 -11  -2 66.2003 51.3375   6 
   5 -11  -1-28.4356 61.7042   6 
   5 -11   0 92.9559 59.4077   6 
   5 -11   0 73.0008 52.4700   1 
   5 -11   1 23.3862 53.8642   6 
   5 -11   1-56.7488 49.2943   1 
   5 -11   2 292.203 76.7391   6 
   5 -11   3-38.5466 42.0717   6 
   5 -11   4 58.6113 48.4848   6 
   5 -11   5 29.0873 47.0310   6 
   5 -11   6-10.2450 38.7373   6 
   5 -11   7 18.4116 48.7366   6 
   5 -11   8-31.7555 45.9966   6 
   5 -11   9-9.33809 41.8848   6 
   5 -10  -5-167.832 78.0345   6 
   5 -10  -4-14.4485 41.0229   6 
   5 -10  -4 5.26310 37.3231   1 
   5 -10  -3-1.11185 37.0869   6 
   5 -10  -3-21.4924 43.3096   1 
   5 -10  -2 111.393 55.4478   6 
   5 -10  -2 177.063 58.3521   1 
   5 -10  -1 54.5973 42.4736   1 
   5 -10  -1 32.8706 37.1968   6 
   5 -10   0 1697.04 160.648   6 
   5 -10   0 1811.02 146.197   1 
   5 -10   1 1341.57 150.846   6 
   5 -10   1 1511.33 133.576   1 
   5 -10   2 19.7425 40.8015   6 
   5 -10   3-18.8812 54.7744   6 
   5 -10   4 10.1827 40.1003   6 
   5 -10   5-51.8513 52.1428   6 
   5 -10   6 0.19923 31.9409   6 
   5 -10   6 37.6009 33.7339   2 
   5 -10   7-26.6149 43.3719   6 
   5 -10   7 69.9229 45.4508   2 
   5 -10   8-77.0046 59.7864   6 
   5 -10   8-53.3947 53.1794   2 
   5 -10   9-16.7118 61.1951   6 
   5 -10   9-59.6753 38.6964   2 
   5 -10  10-78.5401 60.4048   2 
   5  -9  -6 61.0372 37.3297   6 
   5  -9  -6 87.6873 50.9817   1 
   5  -9  -5 403.745 73.4698   6 
   5  -9  -5 430.035 76.0990   1 
   5  -9  -4 46.2347 38.6509   6 
   5  -9  -4 76.6739 51.0439   1 
   5  -9  -3 51.0927 43.0472   6 
   5  -9  -3 22.1623 38.4784   1 
   5  -9  -2 68.4694 41.4822   6 
   5  -9  -2 7.19095 33.8589   1 
   5  -9  -1 187.462 61.7313   6 
   5  -9  -1 180.516 51.7333   1 
   5  -9   0 648.589 89.6930   1 
   5  -9   0 611.683 96.0548   6 
   5  -9   1 82.9621 50.5439   1 
   5  -9   1 136.397 59.6904   6 
   5  -9   2 147.046 57.7791   6 
   5  -9   2 184.452 63.5900   1 
   5  -9   3 82.0643 49.9818   6 
   5  -9   4-42.7263 42.7930   6 
   5  -9   4 26.9344 27.7080   2 
   5  -9   5 22.4443 46.1150   6 
   5  -9   5 134.704 39.9259   2 
   5  -9   6-36.9774 49.2028   6 
   5  -9   6-10.9163 29.5124   2 
   5  -9   7 30.0424 43.0508   6 
   5  -9   7 2.49137 38.8876   2 
   5  -9   8 118.498 54.8389   6 
   5  -9   8-33.9662 50.6116   2 
   5  -9   9-53.4209 50.0690   2 
   5  -9   9-50.7198 53.5984   6 
   5  -9  10 37.0524 49.0168   2 
   5  -9  11-7.96239 53.6210   2 
   5  -8  -8-93.4234 47.9779   1 
   5  -8  -7 12.4637 55.5265   1 
   5  -8  -6 158.492 49.0654   6 
   5  -8  -6 66.5830 51.1264   1 
   5  -8  -5 25.7403 40.3042   6 
   5  -8  -5 71.4596 53.4865   1 
   5  -8  -4 753.733 99.0007   6 
   5  -8  -4 581.236 89.3468   1 
   5  -8  -3 272.004 59.3180   6 
   5  -8  -3 274.018 66.2011   1 
   5  -8  -2 903.223 104.597   6 
   5  -8  -2 1024.26 109.631   1 
   5  -8  -1 706.688 99.7141   6 
   5  -8  -1 858.066 98.8313   1 
   5  -8   0 219.634 48.0052   1 
   5  -8   0 243.516 66.2423   6 
   5  -8   1 29.1561 39.1485   1 
   5  -8   1 3.18381 41.8446   6 
   5  -8   2 101.548 45.9516   6 
   5  -8   2 94.3749 27.1896   2 
   5  -8   2 101.295 41.5867   1 
   5  -8   3 93.1936 52.8853   6 
   5  -8   3 160.272 35.6971   2 
   5  -8   4 126.781 45.6819   6 
   5  -8   4 32.6466 22.8553   2 
   5  -8   5-6.58460 37.7885   6 
   5  -8   5 5.66804 24.1186   2 
   5  -8   6 66.8166 50.4292   6 
   5  -8   6 30.8101 32.8390   2 
   5  -8   7 138.391 46.3079   2 
   5  -8   7 41.1509 35.9244   6 
   5  -8   8 194.841 58.0030   2 
   5  -8   8 231.050 55.6127   6 
   5  -8   9-81.8660 61.9227   2 
   5  -8   9 31.6534 40.3100   6 
   5  -8  10-63.5088 62.0411   2 
   5  -8  11-413.575 91.1588   2 
   5  -7  -9-83.3487 75.7274   1 
   5  -7  -8 50.5942 53.5943   1 
   5  -7  -7 1724.81 138.152   6 
   5  -7  -7 2170.74 174.879   1 
   5  -7  -6 32.1174 31.2317   6 
   5  -7  -6 45.3288 47.4502   1 
   5  -7  -5 439.845 75.3631   6 
   5  -7  -5 438.615 75.6474   1 
   5  -7  -4 236.374 61.4058   6 
   5  -7  -4 275.524 69.3401   1 
   5  -7  -3-48.0428 39.9975   1 
   5  -7  -2 161.441 45.3179   1 
   5  -7  -1-10.2302 39.3595   1 
   5  -7   0-34.8995 38.1767   1 
   5  -7   1 130.423 49.7288   1 
   5  -7   2 71.3121 17.2563   2 
   5  -7   2 64.7712 43.1693   1 
   5  -7   3 540.684 87.8603   1 
   5  -7   3 509.386 54.7246   2 
   5  -7   4 143.642 37.0368   3 
   5  -7   4 92.9503 35.0954   2 
   5  -7   5 36.8194 26.8100   2 
   5  -7   5 58.1993 25.5684   3 
   5  -7   6 7.06911 30.1519   2 
   5  -7   6 10.4180 33.0184   6 
   5  -7   7-6.50005 35.7148   2 
   5  -7   7 59.3705 41.7554   6 
   5  -7   8 35.6998 37.6171   2 
   5  -7   8 31.4798 36.6604   6 
   5  -7   9 80.9871 51.5877   2 
   5  -7   9-61.6235 42.4970   6 
   5  -7  10-33.2607 44.1626   2 
   5  -7  11 17.8018 52.5615   2 
   5  -6 -10-26.3165 66.4647   1 
   5  -6  -9 49.5381 50.2172   1 
   5  -6  -8 715.370 103.714   1 
   5  -6  -7 41.2971 43.4864   1 
   5  -6  -7 32.4199 31.4845   6 
   5  -6  -6 403.121 74.4959   1 
   5  -6  -5 339.436 68.4745   1 
   5  -6  -4-42.7052 49.9982   1 
   5  -6  -3 436.544 71.8927   1 
   5  -6  -2 103.602 45.9872   1 
   5  -6  -1 71.7953 33.9660   1 
   5  -6   0 118.439 44.5744   1 
   5  -6   1 1095.39 107.914   1 
   5  -6   1 1088.26 53.0103   2 
   5  -6   2 671.885 91.1692   1 
   5  -6   2 569.254 48.7945   2 
   5  -6   3 12.9805 19.5742   2 
   5  -6   3 44.2606 43.6964   1 
   5  -6   4 26.9494 21.7380   2 
   5  -6   4 50.7138 29.6742   3 
   5  -6   5 72.9503 35.4592   2 
   5  -6   5-19.5719 27.8963   3 
   5  -6   6 116.865 44.2746   2 
   5  -6   6 39.7312 26.4103   3 
   5  -6   7 47.4267 39.7787   2 
   5  -6   7 33.4852 20.1754   3 
   5  -6   8 20.4937 47.0690   2 
   5  -6   8 35.4960 37.0285   6 
   5  -6   9-33.1862 38.3880   6 
   5  -6   9-53.9649 48.1762   2 
   5  -6  10 100.722 59.8990   2 
   5  -6  11 92.2407 64.7595   2 
   5  -5 -11-47.3107 55.5247   1 
   5  -5 -10 268.424 84.0380   1 
   5  -5  -9 1291.85 143.727   1 
   5  -5  -8 31.6457 43.9033   1 
   5  -5  -8-9.26671 37.3252   6 
   5  -5  -7 150.593 53.5694   1 
   5  -5  -6 220.291 57.9215   1 
   5  -5  -5 41.0004 36.2842   1 
   5  -5  -4 2001.09 147.268   1 
   5  -5  -3 484.815 76.8605   1 
   5  -5  -2 902.948 93.2430   1 
   5  -5  -1 90.5835 42.0978   1 
   5  -5   0 591.457 77.5984   1 
   5  -5   0 802.217 62.7125   8 
   5  -5   1 382.351 68.9649   1 
   5  -5   1 480.807 49.5064   8 
   5  -5   1 468.879 35.9126   2 
   5  -5   2 62.1382 32.7017   1 
   5  -5   2 54.4462 21.7349   2 
   5  -5   2 29.2576 16.6633   8 
   5  -5   3 44.5969 25.9671   2 
   5  -5   3 14.8648 38.3542   1 
   5  -5   4 171.187 38.9080   2 
   5  -5   4 161.397 37.2597   3 
   5  -5   5-4.66568 28.5565   2 
   5  -5   5 33.0444 30.9454   3 
   5  -5   6 474.206 70.1004   2 
   5  -5   6 454.549 64.3908   3 
   5  -5   7 105.524 35.7533   2 
   5  -5   7 67.7704 28.2578   3 
   5  -5   8 5.15359 23.6358   3 
   5  -5   8 20.4799 33.7281   2 
   5  -5   9 55.8417 48.1370   2 
   5  -5  10 59.7450 51.2305   2 
   5  -5  11 52.1452 46.5376   2 
   5  -4 -11-143.511 65.7981   1 
   5  -4 -10-35.0070 46.6222   1 
   5  -4  -9 148.015 51.3148   1 
   5  -4  -8 72.9742 50.9653   1 
   5  -4  -7 70.4682 51.5117   1 
   5  -4  -6 456.703 78.9346   1 
   5  -4  -5 597.271 89.2264   1 
   5  -4  -4 687.124 88.2356   1 
   5  -4  -3 26.6202 29.8603   1 
   5  -4  -2 231.958 56.5830   1 
   5  -4  -1-41.1251 33.7914   1 
   5  -4   0 51.0142 30.7170   1 
   5  -4   0 68.7695 9.73501   2 
   5  -4   1 51.0930 15.9930   2 
   5  -4   1 12.1584 31.9295   1 
   5  -4   1 42.5101 22.3762   4 
   5  -4   2-57.9787 35.7527   1 
   5  -4   2 19.7655 17.0851   2 
   5  -4   3-6.50732 18.2995   2 
   5  -4   3 61.5841 38.0464   3 
   5  -4   3-12.4073 32.0898   1 
   5  -4   4 312.164 53.6976   3 
   5  -4   5 100.124 37.9507   3 
   5  -4   6 3.90820 24.4816   3 
   5  -4   7 17.2498 24.7919   3 
   5  -4   8 61.2465 34.7765   3 
   5  -4   9 52.2887 32.7303   3 
   5  -4   9 45.6781 52.7334   2 
   5  -4  10-11.0950 49.1661   2 
   5  -4  11-125.246 73.4286   2 
   5  -3 -11 700.688 106.960   1 
   5  -3 -10 53.5361 50.9824   1 
   5  -3  -9 85.3045 55.2141   1 
   5  -3  -8 117.489 49.6406   1 
   5  -3  -7 231.132 59.4486   1 
   5  -3  -6 6242.04 257.682   1 
   5  -3  -5 314.247 63.9978   1 
   5  -3  -4 111.038 46.2150   1 
   5  -3  -3 757.144 86.9157   1 
   5  -3  -2 79.6840 47.0983   1 
   5  -3  -1 1822.30 125.014   1 
   5  -3   0 293.263 37.4138   4 
   5  -3   0 325.727 28.2238   2 
   5  -3   1 191.540 54.0691   1 
   5  -3   1 126.331 25.0482   4 
   5  -3   2 58.8589 38.9408   1 
   5  -3   3 1378.32 117.133   1 
   5  -3   3 1229.69 105.157   3 
   5  -3   4 2287.84 140.345   3 
   5  -3   5-15.1646 28.2913   3 
   5  -3   6 220.180 53.6700   3 
   5  -3   7 6.82073 34.2822   3 
   5  -3   8 56.6185 36.2764   3 
   5  -3   9 248.034 66.6006   3 
   5  -3  10-119.386 59.9952   3 
   5  -2 -12-8.69888 68.0795   1 
   5  -2 -11 1228.29 141.000   1 
   5  -2 -10 115.012 53.1639   1 
   5  -2  -9 208.318 62.5608   1 
   5  -2  -8 475.257 79.9427   1 
   5  -2  -7 286.815 68.8422   1 
   5  -2  -6 93.3034 49.0562   1 
   5  -2  -5 1130.57 106.016   1 
   5  -2  -4 151.489 43.9326   1 
   5  -2  -3 1491.81 114.015   1 
   5  -2  -2 9.22035 34.2524   1 
   5  -2  -1 2089.02 69.4830   4 
   5  -2  -1 2268.96 137.195   1 
   5  -2  -1 2101.14 66.5565   2 
   5  -2   0 897.474 56.1605   4 
   5  -2   0 844.955 88.0743   1 
   5  -2   1 9.21842 37.9887   1 
   5  -2   1 37.3607 21.4426   4 
   5  -2   2 120.289 38.5780   3 
   5  -2   2 127.969 47.6263   1 
   5  -2   3 232.226 51.8823   3 
   5  -2   4 78.6403 34.5208   3 
   5  -2   5 88.1360 31.7884   3 
   5  -2   6-25.4060 32.0799   3 
   5  -2   7 240.805 57.7741   3 
   5  -2   8-62.0378 54.7427   3 
   5  -2   9 8.10324 36.0305   3 
   5  -2  10 142.605 54.0016   3 
   5  -1 -12 467.170 97.8234   1 
   5  -1 -11-10.9680 51.0224   1 
   5  -1 -10 538.160 88.7800   1 
   5  -1  -9-5.68157 43.8116   1 
   5  -1  -8 443.898 81.9377   1 
   5  -1  -7 15.5590 39.9767   1 
   5  -1  -6 336.715 64.2735   1 
   5  -1  -5 1741.23 125.969   1 
   5  -1  -4 876.939 90.5360   1 
   5  -1  -3 17390.0 370.250   1 
   5  -1  -3 16759.9 174.421   2 
   5  -1  -2 4139.10 178.301   1 
   5  -1  -2 4142.27 102.800   2 
   5  -1  -1 969.903 49.0382   4 
   5  -1  -1 1017.89 93.4664   1 
   5  -1  -1 975.798 59.2377   2 
   5  -1   0 1201.67 68.3569   4 
   5  -1   0 1151.45 100.707   1 
   5  -1   1 132.351 43.2016   1 
   5  -1   1 115.589 25.6435   4 
   5  -1   2 59.2676 35.6508   3 
   5  -1   2 66.0997 33.5204   1 
   5  -1   3 599.492 77.6817   3 
   5  -1   4 19.8712 31.5092   3 
   5  -1   5 1039.97 111.120   3 
   5  -1   6 502.660 86.0565   3 
   5  -1   7 1961.00 157.687   3 
   5  -1   8 60.1383 45.8900   3 
   5  -1   9 49.8355 50.2565   3 
   5  -1  10 61.2845 56.5919   3 
   5   0 -12 316.011 84.8699   1 
   5   0 -11 255.266 67.7569   1 
   5   0 -10-61.7597 49.1682   1 
   5   0  -9 382.251 74.4968   1 
   5   0  -8 212.242 63.9770   1 
   5   0  -7 870.090 99.0326   1 
   5   0  -6 355.866 64.8783   1 
   5   0  -5 147.987 42.0179   1 
   5   0  -5 153.853 21.0573   2 
   5   0  -4 6843.83 233.286   1 
   5   0  -4 6951.36 145.297   2 
   5   0  -3 3652.23 168.700   1 
   5   0  -3 3634.78 109.367   2 
   5   0  -2 9436.88 267.787   1 
   5   0  -2 9062.17 185.392   2 
   5   0  -1 589.405 41.9912   4 
   5   0  -1 499.294 68.1312   1 
   5   0  -1 564.927 54.1802   2 
   5   0   0 31.6562 28.1470   1 
   5   0   0 94.9860 23.3555   4 
   5   0   1 99.0754 34.4326   1 
   5   0   1 7.54074 29.0833   3 
   5   0   2 40.9821 28.7375   1 
   5   0   2 6.52713 36.2424   3 
   5   0   3-15.9338 28.7660   3 
   5   0   4 240.491 60.9962   3 
   5   0   5 175.378 56.7311   3 
   5   0   6 66.5188 34.9069   3 
   5   0   7 0.36812 40.1556   3 
   5   0   8 146.268 39.2327   3 
   5   0   9 47.5304 43.4823   3 
   5   0  10 121.254 48.0807   3 
   5   1 -12-58.9361 72.0332   1 
   5   1 -11 74.5052 59.2511   1 
   5   1 -10-73.4619 47.5844   1 
   5   1  -9 27.9866 46.7414   1 
   5   1  -8 190.935 51.1735   1 
   5   1  -7 605.421 87.6449   1 
   5   1  -6 2586.62 154.118   1 
   5   1  -5 17792.7 382.049   1 
   5   1  -5 17746.9 276.804   2 
   5   1  -4 1572.98 114.544   1 
   5   1  -4 1635.47 85.9430   2 
   5   1  -3 2067.98 126.492   1 
   5   1  -3 2028.76 99.5503   2 
   5   1  -2 512.752 35.1741   4 
   5   1  -2 451.221 63.7482   1 
   5   1  -1 51.5793 32.7383   1 
   5   1  -1 5.82060 19.3553   4 
   5   1   0 233.574 49.8627   1 
   5   1   0 221.904 54.1819   3 
   5   1   0 251.445 41.0894   4 
   5   1   1 106.538 43.6204   3 
   5   1   1 129.204 36.9998   1 
   5   1   2 194.759 57.1077   3 
   5   1   3 907.429 105.826   3 
   5   1   4 3009.26 186.910   3 
   5   1   5 1911.03 154.551   3 
   5   1   6 28.9691 39.3436   3 
   5   1   7 348.426 81.1799   3 
   5   1   8-55.8744 42.3219   3 
   5   1   9 72.1129 57.2332   3 
   5   2 -13 127.216 76.8391   1 
   5   2 -12 102.587 72.3346   1 
   5   2 -11 38.7128 47.8455   1 
   5   2 -10 585.149 85.2723   1 
   5   2  -9 169.710 53.0440   1 
   5   2  -8 51.0089 48.5798   1 
   5   2  -7 3019.68 172.385   1 
   5   2  -6-5.78622 35.4625   1 
   5   2  -5 317.106 60.4089   1 
   5   2  -4 2015.15 52.0834   4 
   5   2  -4 1851.36 51.0414   4 
   5   2  -4 2145.29 132.205   1 
   5   2  -3 41.4031 14.6078   4 
   5   2  -3 47.5873 31.6274   1 
   5   2  -2 614.692 51.1636   4 
   5   2  -2 625.125 71.7312   1 
   5   2  -1 48.5132 36.0600   1 
   5   2  -1 8.16084 20.9167   4 
   5   2   0 813.264 79.5297   1 
   5   2   0 732.429 92.4890   3 
   5   2   1 1383.16 101.356   1 
   5   2   1 1235.74 118.897   3 
   5   2   2 128.790 41.6347   3 
   5   2   3 78.8938 48.6971   3 
   5   2   4 64.9919 42.4399   3 
   5   2   5 12.0937 33.3714   3 
   5   2   6 131.630 42.3331   3 
   5   2   7 76.6243 49.4816   3 
   5   2   8 9.68721 55.4791   3 
   5   3 -13-1.64158 56.1919   1 
   5   3 -12 136.635 63.4584   1 
   5   3 -11 267.171 61.3031   1 
   5   3 -10 33.5740 37.3364   1 
   5   3  -9 1180.21 119.057   1 
   5   3  -8-4.64924 36.4985   1 
   5   3  -7 233.984 54.8283   1 
   5   3  -6 254.203 55.6469   1 
   5   3  -6 196.199 20.2004   4 
   5   3  -5-9.88934 10.9252   4 
   5   3  -5 1.67296 27.8928   1 
   5   3  -4 560.764 44.6158   4 
   5   3  -4 538.240 47.2459   4 
   5   3  -4 652.652 73.5138   1 
   5   3  -3 53.1202 16.8453   4 
   5   3  -3 83.5528 34.1669   1 
   5   3  -2 1939.13 116.418   1 
   5   3  -2 1843.35 137.549   3 
   5   3  -1 1765.72 108.715   1 
   5   3  -1 1723.05 133.631   3 
   5   3   0 258.474 55.6111   3 
   5   3   0 394.102 58.7543   1 
   5   3   1 555.317 82.3531   3 
   5   3   2 123.456 55.5692   3 
   5   3   3 208.197 61.2863   3 
   5   3   4 77.5950 40.8190   3 
   5   3   5-49.9424 39.0506   3 
   5   3   6 174.838 59.7731   3 
   5   3   7 205.438 72.2667   3 
   5   4 -13 131.109 46.1507   1 
   5   4 -12 429.931 90.3595   1 
   5   4 -11 103.786 54.9384   1 
   5   4 -10 145.557 52.2038   1 
   5   4  -9-1.69277 40.2458   1 
   5   4  -8 58.3716 43.6795   1 
   5   4  -7 932.338 92.2174   1 
   5   4  -6 64.7200 33.7797   1 
   5   4  -6 75.5997 21.2947   4 
   5   4  -5 115.342 27.4284   4 
   5   4  -5 163.958 41.2684   1 
   5   4  -4 433.462 52.3540   4 
   5   4  -4 458.102 59.2974   1 
   5   4  -3 563.319 82.5856   3 
   5   4  -3 578.857 66.0759   1 
   5   4  -2 83.9741 34.0651   1 
   5   4  -2 33.8267 27.9231   3 
   5   4  -1 1158.20 85.3014   1 
   5   4  -1 1194.89 118.400   3 
   5   4   0 75.7974 37.1815   3 
   5   4   1 10.7715 30.9478   3 
   5   4   2 94.1614 45.8460   3 
   5   4   3 359.943 74.2399   3 
   5   4   4 21.5183 42.7657   3 
   5   4   5 185.249 67.9977   3 
   5   4   6-19.8951 51.0180   3 
   5   5 -13-56.2090 55.6876   1 
   5   5 -12 163.488 67.5630   1 
   5   5 -11 72.9437 59.8709   1 
   5   5 -10-11.0403 44.6870   1 
   5   5  -9 521.657 71.3643   1 
   5   5  -8-31.9883 49.8049   1 
   5   5  -7 25.0225 33.0907   1 
   5   5  -7 33.3809 16.2824   4 
   5   5  -6 102.001 33.8282   1 
   5   5  -6 186.532 36.9214   4 
   5   5  -5 1230.44 90.3907   4 
   5   5  -5 1413.94 102.780   1 
   5   5  -4 12.4148 27.9177   3 
   5   5  -4 31.6345 30.3150   1 
   5   5  -4 37.2828 28.3765   4 
   5   5  -3 46.2077 29.0939   1 
   5   5  -3-30.3976 45.5984   3 
   5   5  -2 43.9929 23.7670   1 
   5   5  -2 16.2801 34.8883   3 
   5   5  -1 5.11789 32.0846   3 
   5   5   0 358.348 71.7686   3 
   5   5   1 888.452 109.270   3 
   5   5   2-23.9582 36.6814   3 
   5   5   3 7.34324 36.7003   3 
   5   5   4 163.405 67.9285   3 
   5   5   5 164.821 67.6687   3 
   5   6 -13-116.182 90.5142   1 
   5   6 -12-41.1424 45.7003   1 
   5   6 -11 81.2555 57.3851   1 
   5   6 -10 568.443 79.9195   1 
   5   6  -9 1196.45 114.057   1 
   5   6  -8 56.3389 34.4211   1 
   5   6  -7-28.2639 34.8974   1 
   5   6  -7 6.57936 28.7602   4 
   5   6  -6 208.137 59.4820   3 
   5   6  -6 192.732 43.3150   4 
   5   6  -6 256.512 49.8844   1 
   5   6  -5 124.353 45.0874   3 
   5   6  -5 72.5348 36.0546   1 
   5   6  -5 102.459 34.1059   4 
   5   6  -4-15.9777 23.2038   1 
   5   6  -4-16.8887 36.7867   3 
   5   6  -4 7.75483 23.6273   4 
   5   6  -3 21.5600 25.5822   1 
   5   6  -3-38.8559 33.7920   3 
   5   6  -2 153.063 47.7809   3 
   5   6  -1 59.4533 39.2088   3 
   5   6   0 1137.11 124.953   3 
   5   6   1 999.430 128.139   3 
   5   6   2 111.058 52.8711   3 
   5   6   3-56.1857 39.7754   3 
   5   6   4-57.7480 69.0089   3 
   5   7 -13-37.9523 47.7466   1 
   5   7 -12-29.9603 52.6942   1 
   5   7 -11 80.8444 61.1546   1 
   5   7 -10 313.564 69.4280   1 
   5   7  -9-53.5257 38.9218   1 
   5   7  -8 397.011 65.9920   1 
   5   7  -8 233.222 57.9537   3 
   5   7  -7 39.8192 36.3432   3 
   5   7  -7-6.92824 32.7580   1 
   5   7  -6 70.1525 38.3629   3 
   5   7  -6 33.7068 25.0535   4 
   5   7  -5 84.1359 47.1699   3 
   5   7  -5 2.59315 29.9155   4 
   5   7  -4 49.5755 45.0699   3 
   5   7  -4 13.1910 37.8549   4 
   5   7  -3 223.391 61.7870   3 
   5   7  -2-34.9603 55.6430   3 
   5   7  -1 102.037 54.7077   3 
   5   7   0 40.0225 41.1690   3 
   5   7   1-16.4120 44.9701   3 
   5   7   2 119.011 58.8672   3 
   5   7   3 15.1956 55.9343   3 
   5   8  -8 17.2457 40.5125   3 
   5   8  -7 192.986 46.6901   3 
   5   8  -6 777.119 94.4097   3 
   5   8  -6 729.696 88.0497   4 
   5   8  -5 67.2555 44.6033   3 
   5   8  -5-14.5384 42.7760   4 
   5   8  -4 30.5164 32.0062   3 
   5   8  -4-3.41542 35.5638   4 
   5   8  -3 474.421 85.1389   3 
   5   8  -2 291.215 71.5559   3 
   5   8  -1 341.198 78.3979   3 
   5   8   0 288.156 69.1630   3 
   5   8   1 22.5434 41.1078   3 
   5   9  -7 371.069 67.7744   3 
   5   9  -6 77.0528 36.1607   3 
   5   9  -5 299.733 70.2614   3 
   5   9  -5 250.386 52.3132   4 
   5   9  -4 28.4255 53.2628   3 
   5   9  -4 9.81097 38.9977   4 
   5   9  -3 105.948 42.9731   3 
   5   9  -2 146.857 57.2995   3 
   5   9  -1-15.1049 41.2764   3 
   5   9   0-4.30987 38.6818   3 
   5  10  -5-22.0996 64.4330   3 
   5  10  -4-61.4772 42.2531   3 
   5  10  -4-44.8401 51.4620   4 
   5  10  -3 132.578 66.1003   3 
   5  10  -3 19.9792 31.0717   4 
   5  10  -2-66.2085 63.2560   3 
   6 -11  -2 107.533 69.6042   6 
   6 -11  -1-63.7586 61.8814   1 
   6 -11  -1 4.80705 40.3733   6 
   6 -11   0 67.5665 68.8138   6 
   6 -11   0 115.400 50.0047   1 
   6 -11   1 66.8966 70.7934   6 
   6 -11   1-55.6349 50.1340   1 
   6 -11   2 209.159 68.0106   6 
   6 -11   3-15.1359 44.2640   6 
   6 -11   4 69.8230 62.2115   6 
   6 -11   5-90.4258 67.7708   6 
   6 -11   6-3.58425 39.7697   6 
   6 -10  -5 56.4063 57.9478   6 
   6 -10  -4-53.6227 52.0372   6 
   6 -10  -4 3.60704 46.0080   1 
   6 -10  -3-29.8406 37.1531   6 
   6 -10  -3 49.7660 53.9055   1 
   6 -10  -2 234.384 70.1482   1 
   6 -10  -2 89.8212 61.4338   6 
   6 -10  -1 149.140 42.0171   1 
   6 -10  -1 33.5369 49.7533   6 
   6 -10   0 255.615 62.9520   1 
   6 -10   0 213.102 71.0035   6 
   6 -10   1 188.586 47.4240   6 
   6 -10   1 249.796 69.3145   1 
   6 -10   2 1.67395 45.3295   6 
   6 -10   2-5.62192 53.7091   1 
   6 -10   3-11.7407 41.7023   6 
   6 -10   4 0.11025 54.8844   6 
   6 -10   5-69.7208 50.6160   6 
   6 -10   6 10.3097 35.9564   6 
   6 -10   7-6.48109 53.1407   6 
   6 -10   8 9.34410 38.3542   6 
   6  -9  -6-72.9014 53.6568   6 
   6  -9  -6 36.1920 47.0429   1 
   6  -9  -5 497.621 94.1757   6 
   6  -9  -5 618.835 106.187   1 
   6  -9  -4 61.8250 59.2110   6 
   6  -9  -4 77.1323 56.6961   1 
   6  -9  -3 64.7685 42.5680   6 
   6  -9  -3 169.007 58.6422   1 
   6  -9  -2-85.3751 58.6565   6 
   6  -9  -2-61.7057 56.1827   1 
   6  -9  -1-32.9388 43.9146   1 
   6  -9  -1 65.0503 49.2972   6 
   6  -9   0 38.7259 41.8602   1 
   6  -9   0 24.5194 38.8084   6 
   6  -9   1-45.2767 43.9272   1 
   6  -9   1 23.3747 41.3977   6 
   6  -9   2-36.2277 51.9004   6 
   6  -9   2 10.3760 42.9977   1 
   6  -9   3 89.1815 58.8389   6 
   6  -9   4 46.0334 49.3894   6 
   6  -9   5 84.5246 54.2463   6 
   6  -9   6 73.0898 52.3350   6 
   6  -9   7-18.8294 38.7294   6 
   6  -9   8 83.4711 40.7824   6 
   6  -9   9 3.25505 45.5081   6 
   6  -8  -8-44.8020 76.9525   1 
   6  -8  -7 188.632 65.4268   1 
   6  -8  -6 159.076 58.0118   6 
   6  -8  -6 257.015 82.1224   1 
   6  -8  -5 47.3780 30.0902   6 
   6  -8  -5-8.48480 46.7930   1 
   6  -8  -4 71.9953 40.2884   6 
   6  -8  -4 108.787 56.3049   1 
   6  -8  -3 31.3641 50.9373   6 
   6  -8  -3 32.9716 44.1036   1 
   6  -8  -2 47.8342 46.9333   1 
   6  -8  -1 98.7889 61.8487   1 
   6  -8   0 12.5441 42.6502   1 
   6  -8   1 50.6296 41.0892   1 
   6  -8   2 45.7898 53.5326   1 
   6  -8   5 34.3991 44.9340   6 
   6  -8   6 39.1473 38.9098   6 
   6  -8   7-2.63253 45.4629   6 
   6  -8   8-45.3846 57.4859   6 
   6  -7  -8 113.493 71.5879   1 
   6  -7  -7 468.755 76.0716   6 
   6  -7  -7 531.329 102.609   1 
   6  -7  -6 140.237 62.3112   6 
   6  -7  -6 63.7716 45.6753   1 
   6  -7  -5 113.240 66.3394   1 
   6  -7  -4 157.804 68.5025   1 
   6  -7  -3 79.5457 45.0327   1 
   6  -7  -2 624.893 97.9510   1 
   6  -7  -1 418.732 79.7563   1 
   6  -7   0 95.4057 40.3946   1 
   6  -7   1-5.70834 38.6375   1 
   6  -7   2 150.407 62.8354   1 
   6  -7   3 183.510 66.3916   1 
   6  -7   4 35.9066 32.4855   3 
   6  -7   6 32.9556 27.1856   2 
   6  -7   7-35.8668 32.6289   2 
   6  -7   7 29.3315 33.8959   6 
   6  -7   8 236.413 64.9184   2 
   6  -7   8 82.5692 56.4599   6 
   6  -7   9 34.7258 55.9396   2 
   6  -7  10 95.1719 60.7179   2 
   6  -6  -9 15.1858 59.0613   1 
   6  -6  -8 24.6391 48.2784   1 
   6  -6  -7 95.4523 60.7271   1 
   6  -6  -6 8.27628 51.8951   1 
   6  -6  -5-9.36580 40.0575   1 
   6  -6  -4 5.19328 50.6828   1 
   6  -6  -3 89.3127 51.2310   1 
   6  -6  -2 123.662 44.5187   1 
   6  -6  -1 53.4482 48.0110   1 
   6  -6   0 67.0794 42.8308   1 
   6  -6   1 55.7782 37.7072   1 
   6  -6   2 164.498 52.6053   1 
   6  -6   3 66.5243 47.2571   1 
   6  -6   4 12.9563 26.1357   2 
   6  -6   4 57.3660 33.7678   3 
   6  -6   5 22.6190 27.3061   2 
   6  -6   5-13.9571 26.5551   3 
   6  -6   6 84.8980 41.1556   2 
   6  -6   6 62.8313 29.1721   3 
   6  -6   7-14.5450 43.4197   2 
   6  -6   8-93.5336 60.1618   2 
   6  -6   9-69.6824 62.2291   2 
   6  -6  10 68.7750 57.1231   2 
   6  -5  -9 469.040 104.582   1 
   6  -5  -8 8.04472 55.5393   1 
   6  -5  -7 46.2506 44.3682   1 
   6  -5  -6 110.687 61.7919   1 
   6  -5  -5 153.866 66.7269   1 
   6  -5  -4 2683.31 185.042   1 
   6  -5  -3 319.492 74.8784   1 
   6  -5  -2 152.221 57.9892   1 
   6  -5  -1 81.1301 47.7711   1 
   6  -5   0 43.6595 51.1425   1 
   6  -5   1 691.699 105.460   1 
   6  -5   2 226.894 34.8973   2 
   6  -5   2 255.996 69.3965   1 
   6  -5   3-11.5009 19.3647   2 
   6  -5   3 31.7177 33.9731   3 
   6  -5   4 11.8284 26.4780   2 
   6  -5   4-14.1764 28.6110   3 
   6  -5   5 108.640 35.9841   2 
   6  -5   5 148.824 52.0958   3 
   6  -5   6 365.306 63.3349   2 
   6  -5   6 278.184 58.2870   3 
   6  -5   7-232.150 59.9192   2 
   6  -5   7 17.1927 31.3311   3 
   6  -5   8 24.1694 41.5014   2 
   6  -5   9 30.7273 44.6870   2 
   6  -5  10 4.07777 52.0187   2 
   6  -4 -10 8.40285 53.1951   1 
   6  -4  -9 1182.50 143.257   1 
   6  -4  -8 206.999 70.3004   1 
   6  -4  -7 37.8250 44.6859   1 
   6  -4  -6 320.125 79.5441   1 
   6  -4  -5 25.8294 39.8100   1 
   6  -4  -4-33.6133 47.6876   1 
   6  -4  -3 387.900 75.5768   1 
   6  -4  -2 58.7788 43.3683   1 
   6  -4  -1 480.124 77.3450   1 
   6  -4   0 23.2039 39.9051   1 
   6  -4   1 683.543 98.3038   1 
   6  -4   1 608.512 45.8733   2 
   6  -4   2 257.604 39.0467   2 
   6  -4   2 286.412 72.9910   1 
   6  -4   3 88.2028 31.3253   2 
   6  -4   3 24.6955 44.3434   1 
   6  -4   3 63.4276 32.3161   3 
   6  -4   4 22.2316 29.4591   3 
   6  -4   5 8.94386 33.2024   3 
   6  -4   6 33.8275 27.5446   3 
   6  -4   7 99.7348 45.5506   3 
   6  -4   8-13.8315 38.1574   3 
   6  -4   8-100.287 45.9946   2 
   6  -4   9 83.2452 57.6588   2 
   6  -4  10 69.6796 47.5494   2 
   6  -3 -10 513.336 104.580   1 
   6  -3  -9 76.9238 56.0009   1 
   6  -3  -8 633.769 103.705   1 
   6  -3  -7-7.58721 47.8384   1 
   6  -3  -6 258.027 61.5584   1 
   6  -3  -5 54.7826 47.9473   1 
   6  -3  -4 214.301 67.9062   1 
   6  -3  -3 746.717 92.0753   1 
   6  -3  -2 48.0260 35.5858   1 
   6  -3  -1 5985.04 250.166   1 
   6  -3   0 1684.00 135.829   1 
   6  -3   0 1546.07 64.2654   2 
   6  -3   1 97.3947 46.0570   1 
   6  -3   2 126.563 43.4554   3 
   6  -3   2 139.147 57.5398   1 
   6  -3   3-9.91487 36.7188   3 
   6  -3   4 21.3589 36.2509   3 
   6  -3   5 127.269 51.8049   3 
   6  -3   6-41.8541 43.3495   3 
   6  -3   7 70.1182 43.4201   3 
   6  -3   8 24.8763 42.5780   3 
   6  -2 -11 2511.30 206.711   1 
   6  -2 -10 264.307 77.8530   1 
   6  -2  -9 395.035 90.0917   1 
   6  -2  -8-78.9409 57.5204   1 
   6  -2  -7 265.793 60.0218   1 
   6  -2  -6 185.989 56.6043   1 
   6  -2  -5 200.176 56.5661   1 
   6  -2  -4 286.439 58.9579   1 
   6  -2  -3 75.9671 36.2225   1 
   6  -2  -2 2234.92 153.821   1 
   6  -2  -1 998.124 104.184   1 
   6  -2   0 2258.18 157.316   1 
   6  -2   1 408.228 73.7703   1 
   6  -2   2-47.0927 41.2510   3 
   6  -2   2 45.7487 35.5441   1 
   6  -2   3-26.7646 39.7472   3 
   6  -2   4-26.3512 34.4872   3 
   6  -2   5-30.6821 42.7809   3 
   6  -2   6 67.6478 38.9862   3 
   6  -2   7 80.9627 51.7583   3 
   6  -2   8-5.95067 44.4456   3 
   6  -2   9 39.3706 58.9919   3 
   6  -1 -11-40.9431 49.0053   1 
   6  -1 -10 51.3596 49.5453   1 
   6  -1  -9-54.6673 64.1680   1 
   6  -1  -8 56.2371 41.9371   1 
   6  -1  -7 10.0577 39.2779   1 
   6  -1  -6 237.869 60.3467   1 
   6  -1  -5 619.261 85.7511   1 
   6  -1  -4 1920.75 142.880   1 
   6  -1  -3 7300.25 271.275   1 
   6  -1  -2 1038.67 105.948   1 
   6  -1  -1 741.786 96.3716   1 
   6  -1   0 46.0231 40.1372   1 
   6  -1   1-1.36684 41.1326   1 
   6  -1   1 11.5961 32.0989   3 
   6  -1   2 38.9655 39.7426   3 
   6  -1   2-11.1720 35.5643   1 
   6  -1   3 19.4313 35.1669   3 
   6  -1   4 78.0111 45.7327   3 
   6  -1   5 108.111 61.9245   3 
   6  -1   6 824.475 113.439   3 
   6  -1   7 413.227 82.6564   3 
   6  -1   8 178.646 64.7309   3 
   6  -1   9-150.099 76.7510   3 
   6   0 -11 422.700 99.2917   1 
   6   0 -10-59.5272 66.4950   1 
   6   0  -9-6.58274 48.0963   1 
   6   0  -8 836.572 107.276   1 
   6   0  -7 248.744 68.7078   1 
   6   0  -6 107.209 52.3288   1 
   6   0  -5 1797.28 136.888   1 
   6   0  -4-34.4572 47.5109   1 
   6   0  -3 31.6091 41.0336   1 
   6   0  -2 867.099 99.1625   1 
   6   0  -1 21.3299 31.9982   1 
   6   0   0 376.534 67.2953   1 
   6   0   0 388.411 73.0262   3 
   6   0   1 68.6634 43.0113   3 
   6   0   1 115.721 36.2833   1 
   6   0   2 81.3434 41.1589   3 
   6   0   3 405.231 81.5245   3 
   6   0   4 85.2654 39.1136   3 
   6   0   5 89.4843 50.5627   3 
   6   0   6 78.2755 53.0318   3 
   6   0   7-47.0962 54.1648   3 
   6   0   8-66.2675 59.9917   3 
   6   1 -12 0.71172 49.7729   1 
   6   1 -11 25.9358 51.4783   1 
   6   1 -10 128.069 51.5983   1 
   6   1  -9 524.667 95.3408   1 
   6   1  -8 217.237 73.9518   1 
   6   1  -7 1559.65 134.360   1 
   6   1  -6-34.8161 41.5193   1 
   6   1  -5 67.3328 45.0720   1 
   6   1  -4 182.377 54.9774   1 
   6   1  -3 15.3903 35.2052   1 
   6   1  -2 407.843 68.6025   1 
   6   1  -1-39.8898 39.6474   1 
   6   1   0 631.783 85.9153   1 
   6   1   0 659.969 89.8068   3 
   6   1   1 285.371 68.9425   3 
   6   1   1 389.490 67.7888   1 
   6   1   2 150.026 53.5938   3 
   6   1   3 201.143 62.5708   3 
   6   1   4-55.7933 32.6291   3 
   6   1   5 19.8168 39.9946   3 
   6   1   6-90.4293 50.7691   3 
   6   1   7-24.9733 43.3592   3 
   6   2 -12 107.532 61.6231   1 
   6   2 -11 501.764 101.651   1 
   6   2 -10 668.803 107.577   1 
   6   2  -9 154.860 66.5996   1 
   6   2  -8 331.077 71.0146   1 
   6   2  -7 54.8683 48.2576   1 
   6   2  -6 47.1898 48.9054   1 
   6   2  -5 914.255 100.621   1 
   6   2  -4 10.0368 28.3218   1 
   6   2  -3 122.629 38.5923   1 
   6   2  -2 104.635 38.9234   1 
   6   2  -1 318.698 60.6684   1 
   6   2  -1 321.647 67.4573   3 
   6   2   0 5.64161 39.3554   3 
   6   2   0 69.0664 39.5568   1 
   6   2   1 248.719 63.1533   3 
   6   2   2-8.08613 43.0558   3 
   6   2   3 54.1946 44.5872   3 
   6   2   4-5.98674 46.9472   3 
   6   2   5 58.9498 40.0027   3 
   6   2   6 107.021 61.3027   3 
   6   3 -12-49.7388 68.0094   1 
   6   3 -11 177.549 74.7087   1 
   6   3 -10 50.2825 40.1412   1 
   6   3  -9 54.9390 53.8667   1 
   6   3  -8-34.4252 52.3484   1 
   6   3  -7 641.973 89.1958   1 
   6   3  -6-22.0603 34.0326   1 
   6   3  -5-7.23459 37.5537   1 
   6   3  -4 145.257 48.9923   1 
   6   3  -3 1106.74 100.714   1 
   6   3  -2-46.9188 37.9739   1 
   6   3  -2 48.8050 40.1860   3 
   6   3  -1 49.3977 32.6411   1 
   6   3  -1 57.7891 41.6767   3 
   6   3   0 33.6738 43.1767   3 
   6   3   0 23.8636 29.9872   1 
   6   3   1 3.74199 35.9962   3 
   6   3   2 190.159 62.2614   3 
   6   3   3 275.128 70.5044   3 
   6   3   4 9.33261 40.4053   3 
   6   3   5-49.9397 58.6137   3 
   6   4 -12 118.410 68.5690   1 
   6   4 -11-10.1532 55.9432   1 
   6   4 -10 140.492 58.0595   1 
   6   4  -9 16.8085 40.2870   1 
   6   4  -8 660.567 91.5575   1 
   6   4  -7 1576.23 135.124   1 
   6   4  -6-41.7369 38.8613   1 
   6   4  -5 11.2202 28.2604   1 
   6   4  -4 207.318 45.6495   1 
   6   4  -4 203.211 59.7675   3 
   6   4  -3 61.6918 28.2361   1 
   6   4  -3 143.300 49.0863   3 
   6   4  -2 25.9073 28.5185   1 
   6   4  -2 20.8473 39.8708   3 
   6   4  -1-45.2322 46.2602   3 
   6   4  -1-14.3092 28.4119   1 
   6   4   0 189.586 62.0841   3 
   6   4   1-6.67865 36.8968   3 
   6   4   2 484.358 89.6325   3 
   6   4   3 635.663 104.658   3 
   6   4   4-86.0429 61.5318   3 
   6   5 -12-81.5020 66.5696   1 
   6   5 -11 199.381 78.0737   1 
   6   5 -10-32.0847 54.8304   1 
   6   5  -9 48.3666 44.8284   1 
   6   5  -8 296.547 51.5434   1 
   6   5  -7 114.394 50.3623   1 
   6   5  -6 461.065 66.4947   1 
   6   5  -5 77.5500 45.9025   3 
   6   5  -5 122.778 37.1115   1 
   6   5  -4-12.3034 33.4653   1 
   6   5  -4 78.2012 46.5129   3 
   6   5  -3 69.3799 32.8015   1 
   6   5  -3 93.5441 46.0478   3 
   6   5  -2 63.6398 41.3312   3 
   6   5  -1 200.661 64.1252   3 
   6   5   0 16.5418 47.0251   3 
   6   5   1-43.2756 53.3681   3 
   6   5   2 41.7202 38.8404   3 
   6   5   3 38.8104 47.6493   3 
   6   6 -12-9.93855 58.3338   1 
   6   6 -11 20.4720 40.4730   1 
   6   6 -10 29.2827 46.8707   1 
   6   6  -9 569.457 85.2469   1 
   6   6  -8 3.89728 33.4259   1 
   6   6  -7 68.9311 46.5627   3 
   6   6  -7 84.0072 42.0692   1 
   6   6  -6 63.7964 43.8712   3 
   6   6  -5 136.014 55.1345   3 
   6   6  -4 794.103 107.505   3 
   6   6  -3 95.6454 52.1710   3 
   6   6  -2-20.6080 42.2185   3 
   6   6  -1 400.040 88.6650   3 
   6   6   0 255.024 68.1134   3 
   6   6   1 213.585 75.9195   3 
   6   6   2 160.758 59.1575   3 
   6   7  -9 16.8661 34.3103   3 
   6   7  -8 40.7737 43.0734   3 
   6   7  -7 115.689 55.1129   3 
   6   7  -6 170.319 58.9217   3 
   6   7  -5 453.797 89.3247   3 
   6   7  -4 111.712 59.6843   3 
   6   7  -3 268.623 71.7537   3 
   6   7  -2 67.0612 49.8430   3 
   6   7  -1 199.767 58.9152   3 
   6   7   0 181.086 49.4706   3 
   6   8  -8 111.161 50.6321   3 
   6   8  -7 428.015 79.2491   3 
   6   8  -6 794.460 108.447   3 
   6   8  -5-0.31107 41.0564   3 
   6   8  -4-26.9513 47.1936   3 
   6   8  -3 103.495 66.7269   3 
   6   8  -2 50.4563 60.3508   3 
   6   9  -6 196.532 71.2482   3 
   6   9  -5 543.716 100.060   3 
   6   9  -4-7.89634 60.2177   3 
   7 -11  -1 39.6334 52.3679   1 
   7 -11   0 26.0849 47.8950   1 
   7 -11   1-81.3019 59.7724   1 
   7 -10  -3 5.26566 58.9557   1 
   7 -10  -2-59.6835 60.8238   1 
   7 -10  -1 42.2457 42.0067   1 
   7 -10   0-16.0483 49.7559   1 
   7 -10   0 72.9602 43.1109   6 
   7 -10   1 28.5152 68.7320   6 
   7 -10   1-109.522 57.3622   1 
   7 -10   2 3.90279 48.0937   6 
   7 -10   3-56.1349 72.5583   6 
   7  -9  -5 182.450 70.6943   6 
   7  -9  -5 184.618 79.5479   1 
   7  -9  -4 139.536 59.4139   6 
   7  -9  -4-9.88029 52.1094   1 
   7  -9  -3-6.99686 39.5202   6 
   7  -9  -3 8.16963 44.8652   1 
   7  -9  -2-8.15880 47.9331   1 
   7  -9  -2-143.961 75.2922   6 
   7  -9  -1 81.0890 67.7718   1 
   7  -9  -1-8.31686 44.0931   6 
   7  -9   0 181.243 69.6268   1 
   7  -9   1 167.321 67.8735   1 
   7  -9   2-263.118 75.1294   1 
   7  -9   3 70.7658 51.5394   6 
   7  -9   4 26.5387 52.2437   6 
   7  -9   5 41.3232 51.6656   6 
   7  -9   6-36.8405 57.8904   6 
   7  -8  -6-46.4192 37.5264   6 
   7  -8  -6-12.3216 58.2089   1 
   7  -8  -5 29.4819 47.9076   6 
   7  -8  -5 16.1479 48.5028   1 
   7  -8  -4-21.1133 56.3244   1 
   7  -8  -3 54.5203 57.1000   1 
   7  -8  -2-25.5865 44.8359   1 
   7  -8  -1 13.5543 52.4551   1 
   7  -8   0-26.9863 55.3725   1 
   7  -8   1-19.5307 48.0403   1 
   7  -8   2-28.5571 51.1949   1 
   7  -8   6-12.7542 47.8877   6 
   7  -8   7 54.8237 36.8224   6 
   7  -7  -7 179.583 47.6133   6 
   7  -7  -6 65.4001 48.9542   1 
   7  -7  -5-5.15826 46.5560   1 
   7  -7  -4-30.2319 50.1067   1 
   7  -7  -3 86.5819 71.8080   1 
   7  -7  -2 713.710 118.659   1 
   7  -7  -1 82.6965 56.8905   1 
   7  -7   0 79.1280 62.5878   1 
   7  -7   1 29.0646 52.5243   1 
   7  -7   2-76.3889 70.7274   1 
   7  -6  -7 721.125 118.772   1 
   7  -6  -6-9.24573 47.0740   1 
   7  -6  -5-19.7091 59.2354   1 
   7  -6  -4 47.1569 43.1389   1 
   7  -6  -3 23.2038 45.9143   1 
   7  -6  -2-30.3734 40.7228   1 
   7  -6  -1 72.3924 60.9870   1 
   7  -6   0-38.8917 52.2508   1 
   7  -6   1 111.595 47.4090   1 
   7  -6   2-78.1561 60.9722   1 
   7  -6   3 115.477 45.8909   3 
   7  -6   4 133.137 46.8470   3 
   7  -6   5 60.5862 43.2082   3 
   7  -5  -8 429.912 89.5782   1 
   7  -5  -7 62.8466 57.4714   1 
   7  -5  -6 576.822 107.696   1 
   7  -5  -5-42.8094 44.6977   1 
   7  -5  -4 68.8104 52.2139   1 
   7  -5  -3 57.7451 41.6522   1 
   7  -5  -2 56.7706 56.5412   1 
   7  -5  -1 222.381 67.2754   1 
   7  -5   0 48.2672 57.2759   1 
   7  -5   1 1248.21 141.830   1 
   7  -5   2 298.728 78.1910   1 
   7  -5   3 30.7106 39.4419   3 
   7  -5   4-41.7713 30.2601   3 
   7  -5   5-22.1387 40.7527   3 
   7  -5   6-120.579 46.8552   3 
   7  -4  -8 240.686 70.2082   1 
   7  -4  -7 402.199 87.4541   1 
   7  -4  -6-10.7868 58.7975   1 
   7  -4  -5 136.859 54.7101   1 
   7  -4  -4 46.7755 37.8184   1 
   7  -4  -3-36.1893 47.3371   1 
   7  -4  -2 116.151 64.5498   1 
   7  -4  -1 25.0678 42.6066   1 
   7  -4   0 386.246 83.9731   1 
   7  -4   1 285.560 71.6449   1 
   7  -4   2 288.870 72.7764   3 
   7  -4   2 265.985 66.9106   1 
   7  -4   3 181.485 59.0742   3 
   7  -4   4 68.1608 52.6899   3 
   7  -4   5 140.502 51.9526   3 
   7  -4   6 0.09193 45.1016   3 
   7  -4   7-19.6086 40.6445   3 
   7  -3  -9-83.4030 70.6615   1 
   7  -3  -8 23.4567 52.0868   1 
   7  -3  -7 53.9469 44.7686   1 
   7  -3  -6 54.3547 52.6991   1 
   7  -3  -5 8.31578 48.9841   1 
   7  -3  -4-33.1230 40.5509   1 
   7  -3  -3 289.736 71.5105   1 
   7  -3  -2 596.484 96.7778   1 
   7  -3  -1 1819.27 155.474   1 
   7  -3   0 402.697 81.5372   1 
   7  -3   1 125.107 50.0687   1 
   7  -3   2 28.2424 35.1346   3 
   7  -3   2-0.71362 42.2058   1 
   7  -3   3-37.6016 38.8757   3 
   7  -3   4 134.441 58.5968   3 
   7  -3   5-14.3897 34.8110   3 
   7  -3   6 6.11395 39.6913   3 
   7  -3   7-1.23775 45.5182   3 
   7  -2  -9 344.060 86.7901   1 
   7  -2  -8 78.7262 58.6465   1 
   7  -2  -7 47.4979 42.2143   1 
   7  -2  -6 559.706 90.4379   1 
   7  -2  -5 144.286 42.5404   1 
   7  -2  -4 132.449 56.6346   1 
   7  -2  -3 415.318 76.2415   1 
   7  -2  -2-52.6754 54.8137   1 
   7  -2  -1 39.1931 50.0185   1 
   7  -2   0 321.154 77.4599   1 
   7  -2   1 71.5621 50.2481   1 
   7  -2   1 68.3017 47.8752   3 
   7  -2   2 13.3908 44.4871   3 
   7  -2   2 87.3954 47.8428   1 
   7  -2   3-27.6536 39.1072   3 
   7  -2   4 87.9716 53.9884   3 
   7  -2   5 102.443 53.1092   3 
   7  -2   6-13.7186 47.3977   3 
   7  -2   7-119.212 50.7416   3 
   7  -1 -10 20.8808 43.4028   1 
   7  -1  -9-55.3745 57.1907   1 
   7  -1  -8 178.805 60.5970   1 
   7  -1  -7 384.494 87.2268   1 
   7  -1  -6 205.295 46.6491   1 
   7  -1  -5 909.416 118.107   1 
   7  -1  -4 53.7352 43.9008   1 
   7  -1  -3 62.5677 48.6709   1 
   7  -1  -2 87.2574 51.3529   1 
   7  -1  -1 1.88176 41.6666   1 
   7  -1   0 56.7326 56.7076   1 
   7  -1   1-132.581 52.7785   3 
   7  -1   1 31.1976 43.4160   1 
   7  -1   2 240.754 69.9044   3 
   7  -1   3-5.67410 34.6159   3 
   7  -1   4-24.2134 46.4878   3 
   7  -1   5 100.985 50.1969   3 
   7  -1   6-22.0147 48.9543   3 
   7  -1   7 29.4795 41.3425   3 
   7   0 -10-142.863 77.1561   1 
   7   0  -9 234.746 64.1958   1 
   7   0  -8 328.916 70.6953   1 
   7   0  -7-14.3831 42.3890   1 
   7   0  -6 241.349 54.0412   1 
   7   0  -5 47.3990 40.9936   1 
   7   0  -4 45.4006 39.0495   1 
   7   0  -3 390.287 70.6213   1 
   7   0  -2 71.3562 52.7730   1 
   7   0  -1 102.966 54.9034   1 
   7   0   0-3.42889 47.5988   1 
   7   0   0 45.5442 37.1198   3 
   7   0   1 72.6589 44.7302   3 
   7   0   1 58.4441 44.7559   1 
   7   0   2 39.8069 41.3904   3 
   7   0   3 78.6125 59.9185   3 
   7   0   4 33.8842 41.3360   3 
   7   0   5 8.20632 43.2767   3 
   7   0   6-286.184 77.9201   3 
   7   1 -10-35.4109 57.7851   1 
   7   1  -9 135.790 75.2723   1 
   7   1  -8 37.2067 55.1120   1 
   7   1  -7-55.0049 49.3219   1 
   7   1  -6 20.2294 42.8256   1 
   7   1  -5 292.505 73.4101   1 
   7   1  -4-42.3881 56.1565   1 
   7   1  -3 47.2908 34.9919   1 
   7   1  -2 28.4163 46.0045   1 
   7   1  -1 288.083 66.3689   1 
   7   1  -1 199.009 62.1546   3 
   7   1   0 15.2954 44.6339   3 
   7   1   0 118.257 53.4785   1 
   7   1   1 45.5651 39.7682   3 
   7   1   2-19.1942 46.4093   3 
   7   1   3-40.2232 55.1366   3 
   7   1   4 71.1338 53.3747   3 
   7   1   5 254.612 83.5211   3 
   7   2 -10 57.8495 47.5990   1 
   7   2  -9-102.533 66.1237   1 
   7   2  -8-36.8974 60.8209   1 
   7   2  -7 34.4684 52.5981   1 
   7   2  -6 455.933 74.6035   1 
   7   2  -5 1211.60 125.661   1 
   7   2  -4 144.180 59.4591   1 
   7   2  -3-54.1390 42.3219   1 
   7   2  -2 78.5345 47.8676   1 
   7   2  -2 14.6723 38.4618   3 
   7   2  -1 113.774 49.4426   1 
   7   2  -1 18.3525 39.2560   3 
   7   2   0 208.874 67.3415   3 
   7   2   0 23.3784 40.2172   1 
   7   2   1-11.1952 46.1845   3 
   7   2   2 72.5265 50.9303   3 
   7   2   3-22.0462 50.1341   3 
   7   2   4 98.4310 62.3153   3 
   7   3 -10 83.5057 52.6822   1 
   7   3  -9 143.165 71.0065   1 
   7   3  -8-3.06825 47.5969   1 
   7   3  -7 37.5298 39.4810   1 
   7   3  -6 220.661 62.5311   1 
   7   3  -5-15.7839 38.5398   1 
   7   3  -4 311.210 64.7474   1 
   7   3  -3 125.248 59.1670   1 
   7   3  -3 26.3411 52.9179   3 
   7   3  -2-33.4932 55.2559   1 
   7   3  -2-11.9253 43.8139   3 
   7   3  -1-17.3816 42.9189   3 
   7   3  -1-0.48757 35.0678   1 
   7   3   0 66.3217 50.1132   3 
   7   3   1 97.3380 50.4629   3 
   7   3   2 97.9560 54.9727   3 
   7   3   3-50.1392 65.1285   3 
   7   4 -10 131.140 57.3501   1 
   7   4  -9 130.720 45.0882   1 
   7   4  -8 107.551 55.1592   1 
   7   4  -7 422.780 76.7915   1 
   7   4  -6 138.334 67.4000   1 
   7   4  -5 140.827 51.1229   1 
   7   4  -5 95.9914 43.7859   3 
   7   4  -4-32.1427 37.8087   1 
   7   4  -4 72.4144 57.7942   3 
   7   4  -3 85.2783 34.3530   1 
   7   4  -3 134.958 52.1091   3 
   7   4  -2 540.919 102.348   3 
   7   4  -1 7.62417 47.2721   3 
   7   4   0-10.1900 38.2716   3 
   7   4   1 106.048 46.9046   3 
   7   5 -10 48.7018 41.9288   1 
   7   5  -9 128.448 61.9488   1 
   7   5  -8-70.2222 58.4894   1 
   7   5  -7 32.5666 35.1488   1 
   7   5  -6 45.2447 52.8864   3 
   7   5  -5 216.086 69.9917   3 
   7   5  -4 89.2410 55.2998   3 
   7   5  -3 277.504 75.7696   3 
   7   5  -2 105.721 51.4064   3 
   7   5  -1 363.084 89.8547   3 
   7   5   0 30.8756 42.2059   3 
   7   6  -8-40.7677 60.2068   3 
   7   6  -7-40.0919 53.1639   3 
   7   6  -6-35.7535 48.1367   3 
   7   6  -5 359.925 89.7436   3 
   7   6  -4 755.424 114.825   3 
   7   6  -3 120.750 46.0835   3 
   7   6  -2 30.1228 55.1356   3 
   7   7  -7 151.577 65.4506   3 
   7   7  -6 286.560 73.4076   3 
   8  -8  -1 21.3643 71.4486   1 
   8  -8   0 94.8589 70.1068   1 
   8  -8   1-35.9202 62.4317   1 
   8  -7  -3 35.3424 55.0811   1 
   8  -7  -2-11.7465 57.1527   1 
   8  -7  -1 90.6483 46.3444   1 
   8  -7   0-19.1011 49.5348   1 
   8  -7   1-14.3652 57.5742   1 
   8  -7   2 61.8336 51.1535   1 
   8  -6  -4 16.4167 49.9285   1 
   8  -6  -3-407.269 93.5330   1 
   8  -6  -2 126.257 52.0822   1 
   8  -6  -1 43.1132 48.5661   1 
   8  -6   0-151.791 84.6308   1 
   8  -6   1-124.658 83.5599   1 
   8  -6   2 66.6703 54.0880   3 
   8  -6   2 96.3996 66.0810   1 
   8  -6   3 20.2123 44.3367   3 
   8  -5  -5-9.99637 60.0260   1 
   8  -5  -4 18.7174 54.7672   1 
   8  -5  -3 20.7132 48.8295   1 
   8  -5  -2 51.9473 55.8569   1 
   8  -5  -1 28.6933 55.0403   1 
   8  -5   0-2.64908 48.6906   1 
   8  -5   1 242.909 82.1705   1 
   8  -5   2 33.0068 41.2037   3 
   8  -5   2 147.901 62.1701   1 
   8  -5   3-11.9516 39.6756   3 
   8  -5   4-41.0444 48.4252   3 
   8  -4  -6 41.4751 57.0277   1 
   8  -4  -5 24.9380 58.5603   1 
   8  -4  -4 228.322 79.9295   1 
   8  -4  -3 140.741 73.1390   1 
   8  -4  -2-36.5333 56.0979   1 
   8  -4  -1 111.405 65.3274   1 
   8  -4   0-35.4183 46.1272   1 
   8  -4   1-56.8215 79.4559   1 
   8  -4   2 106.895 75.4748   1 
   8  -4   2 84.6170 47.5438   3 
   8  -4   3 16.7115 52.1625   3 
   8  -4   4-29.6736 46.7282   3 
   8  -4   5-90.5180 69.0490   3 
   8  -3  -7 4.16961 55.3387   1 
   8  -3  -6-13.9104 82.4566   1 
   8  -3  -5 235.700 80.6374   1 
   8  -3  -4 32.4154 50.9030   1 
   8  -3  -3 348.661 89.4443   1 
   8  -3  -2-3.29981 48.5817   1 
   8  -3  -1-78.7798 62.4626   1 
   8  -3   0 29.1078 58.8176   1 
   8  -3   1-6.76042 44.2228   3 
   8  -3   1-35.0533 42.3315   1 
   8  -3   2 22.2590 35.0532   3 
   8  -3   3-45.9685 48.3531   3 
   8  -3   4-43.0315 53.2300   3 
   8  -3   5 51.8282 46.8013   3 
   8  -2  -7-17.6787 56.8754   1 
   8  -2  -6 93.8305 74.4174   1 
   8  -2  -5 4.34156 56.0007   1 
   8  -2  -4 85.7661 63.2817   1 
   8  -2  -3-72.0029 64.4358   1 
   8  -2  -2-64.2073 60.8527   1 
   8  -2  -1 127.400 48.8775   1 
   8  -2   0 2.51491 43.7089   1 
   8  -2   0-3.48974 42.5994   3 
   8  -2   1 2.89613 50.3195   3 
   8  -2   1-28.2204 66.3759   1 
   8  -2   2 96.1001 42.0969   3 
   8  -2   3 22.1132 39.6595   3 
   8  -2   4 0.81419 40.0264   3 
   8  -1  -7-42.8528 58.3600   1 
   8  -1  -6 67.5994 72.1066   1 
   8  -1  -5-14.8158 55.4907   1 
   8  -1  -4-38.6729 40.8392   1 
   8  -1  -3 218.605 74.2771   1 
   8  -1  -2-102.118 56.4598   1 
   8  -1  -1-64.6860 63.9221   1 
   8  -1   0 26.4419 46.4973   1 
   8  -1   0-127.081 59.6116   3 
   8  -1   1 92.7977 58.7602   3 
   8  -1   1-3.86673 52.7834   1 
   8  -1   2-41.8499 56.1833   3 
   8  -1   3-43.4032 44.9839   3 
   8   0  -8 140.887 65.4057   1 
   8   0  -7-34.3599 46.7212   1 
   8   0  -6 35.6260 52.5724   1 
   8   0  -5-3.19379 47.4330   1 
   8   0  -4 200.243 63.3534   1 
   8   0  -3 545.146 95.5379   1 
   8   0  -2 163.530 60.7468   1 
   8   0  -1 19.2076 50.9122   1 
   8   0  -1-73.8358 59.7238   3 
   8   0   0 139.115 62.9758   3 
   8   0   0 11.3705 44.0373   1 
   8   0   1 240.313 82.6314   3 
   8   0   2-1.18520 50.6343   3 
   8   1  -8 66.5788 60.8014   1 
   8   1  -7 129.594 57.9448   1 
   8   1  -6-4.45257 42.7381   1 
   8   1  -5 12.4490 45.9137   1 
   8   1  -4 88.5055 47.3045   1 
   8   1  -3 10.8463 42.5262   1 
   8   1  -2 61.1159 52.2928   1 
   8   1  -2 148.990 42.7323   3 
   8   1  -1-19.5924 51.4518   1 
   8   1  -1 96.7619 48.6717   3 
   8   1   0 146.105 69.5940   3 
   8   1   0-12.9149 44.1285   1 
   8   1   1-99.9108 59.2838   3 
   8   2  -8 88.9800 50.6024   1 
   8   2  -7 278.218 87.9014   1 
   8   2  -6 37.6529 45.9348   1 
   8   2  -5 311.996 72.9576   1 
   8   2  -4-107.757 63.5845   1 
   8   2  -3 60.6049 48.5035   1 
   8   2  -3 68.0619 44.4197   3 
   8   2  -2-33.5346 36.5463   1 
   8   2  -2 108.924 65.2714   3 
   8   2  -1 63.5404 65.2698   3 
   8   2  -1-0.61149 41.7241   1 
   8   2   0 190.014 76.4587   3 
   8   3  -8 90.7644 57.7844   1 
   8   3  -7-33.7570 46.8201   1 
   8   3  -6 318.500 77.9480   1 
   8   3  -5 44.8615 38.6729   1 
   8   3  -5-70.0588 59.2818   3 
   8   3  -4 177.865 70.6646   1 
   8   3  -4 34.1772 47.9746   3 
   8   3  -3-4.54880 57.2580   1 
   8   3  -3 52.7829 50.3464   3 
   9  -6   1 3.58882 51.2661   3 
   0   0   0    0.00    0.00   0 
TITL exp_1127 in P1 
REM P1 (#1 in standard setting) 
CELL 0.71073   6.116179   9.637058  10.241227 108.2983  98.0826 100.4317 
ZERR    2.00   0.000312   0.000475   0.000517   0.0045   0.0042   0.0042 
LATT -1 
SFAC C H N O F 
UNIT 24.00 24.00 2.00 4.00 2.00 
TREF 
HKLF 4 
END 
;
_shelx_hkl_checksum              49436
#END Tags that were not found in dictionaries
loop_
_space_group_symop_operation_xyz
'x, y, z'
'-x, -y, -z'
loop_
_atom_site_label
_atom_site_type_symbol
_atom_site_fract_x
_atom_site_fract_y
_atom_site_fract_z
_atom_site_U_iso_or_equiv
_atom_site_adp_type
_atom_site_occupancy
_atom_site_site_symmetry_order
_atom_site_calc_flag
_atom_site_refinement_flags_posn
_atom_site_refinement_flags_adp
F1 F 1.44878(19) 0.63757(11) 0.67222(13) 0.0938(4) Uani 1 1 d . U
O1 O 1.0188(2) -0.20701(14) 0.05259(14) 0.0884(5) Uani 1 1 d . U
O2 O 0.6257(2) -0.10060(12) 0.35070(12) 0.0656(4) Uani 1 1 d . U
N7 N 0.9162(2) 0.16071(13) 0.45866(12) 0.0475(3) Uani 1 1 d . U
H7A H 0.7955 0.1048 0.4661 0.057 Uiso 1 1 calc R U
C1 C 0.9937(2) 0.30613(15) 0.56083(15) 0.0450(4) Uani 1 1 d . U
C3 C 0.9318(3) 0.49266(18) 0.76033(18) 0.0649(5) Uani 1 1 d . U
H3A H 0.8425 0.5220 0.8256 0.078 Uiso 1 1 calc R U
C6 C 1.1937(3) 0.40295(16) 0.56608(16) 0.0538(4) Uani 1 1 d . U
H6A H 1.2852 0.3743 0.5020 0.065 Uiso 1 1 calc R U
C5 C 1.2528(3) 0.54212(17) 0.66852(18) 0.0570(4) Uani 1 1 d . U
C2 C 0.8634(3) 0.35134(17) 0.65863(17) 0.0578(4) Uani 1 1 d . U
H2A H 0.7292 0.2862 0.6558 0.069 Uiso 1 1 calc R U
C4 C 1.1295(3) 0.59120(17) 0.76716(17) 0.0609(5) Uani 1 1 d . U
H4A H 1.1769 0.6867 0.8358 0.073 Uiso 1 1 calc R U
C8 C 1.0104(3) 0.10155(15) 0.35250(15) 0.0462(4) Uani 1 1 d . U
H8A H 1.1433 0.1613 0.3462 0.055 Uiso 1 1 calc R U
C11 C 0.7216(3) -0.13770(16) 0.25079(16) 0.0513(4) Uani 1 1 d . U
C10 C 1.0673(3) -0.08317(17) 0.14248(16) 0.0535(4) Uani 1 1 d . U
C9 C 0.9327(3) -0.03939(15) 0.25003(15) 0.0460(4) Uani 1 1 d . U
C13 C 0.6124(3) -0.28233(19) 0.13195(19) 0.0693(5) Uani 1 1 d . U
H13A H 0.5989 -0.2642 0.0445 0.083 Uiso 1 1 calc R U
H13B H 0.4641 -0.3222 0.1440 0.083 Uiso 1 1 calc R U
H13C H 0.7043 -0.3534 0.1310 0.083 Uiso 1 1 calc R U
C12 C 1.2743(3) 0.0275(2) 0.1425(2) 0.0704(5) Uani 1 1 d . U
H12A H 1.2329 0.1174 0.1374 0.085 Uiso 1 1 calc R U
H12B H 1.3371 -0.0159 0.0628 0.085 Uiso 1 1 calc R U
H12C H 1.3855 0.0518 0.2275 0.085 Uiso 1 1 calc R U
loop_
_atom_site_aniso_label
_atom_site_aniso_U_11
_atom_site_aniso_U_22
_atom_site_aniso_U_33
_atom_site_aniso_U_23
_atom_site_aniso_U_13
_atom_site_aniso_U_12
F1 0.0799(8) 0.0604(6) 0.1037(9) -0.0098(6) 0.0376(6) -0.0201(5)
O1 0.1036(11) 0.0593(8) 0.0739(9) -0.0171(6) 0.0457(8) 0.0013(7)
O2 0.0660(8) 0.0547(7) 0.0604(7) 0.0021(5) 0.0252(6) -0.0012(5)
N7 0.0539(7) 0.0374(6) 0.0429(7) 0.0042(5) 0.0164(6) 0.0036(5)
C1 0.0539(9) 0.0364(7) 0.0394(8) 0.0060(6) 0.0134(6) 0.0080(6)
C3 0.0772(12) 0.0549(10) 0.0551(10) 0.0015(8) 0.0342(9) 0.0134(8)
C6 0.0564(9) 0.0456(8) 0.0508(9) 0.0033(7) 0.0225(7) 0.0069(7)
C5 0.0566(10) 0.0435(8) 0.0577(10) 0.0040(7) 0.0169(8) 0.0004(7)
C2 0.0635(10) 0.0488(9) 0.0536(9) 0.0065(7) 0.0269(8) 0.0044(7)
C4 0.0745(12) 0.0433(8) 0.0503(9) -0.0014(7) 0.0164(8) 0.0082(8)
C8 0.0544(9) 0.0399(7) 0.0408(8) 0.0090(6) 0.0136(6) 0.0095(6)
C11 0.0579(9) 0.0433(8) 0.0461(8) 0.0077(7) 0.0119(7) 0.0092(7)
C10 0.0667(10) 0.0466(8) 0.0426(8) 0.0065(7) 0.0172(7) 0.0141(7)
C9 0.0553(9) 0.0388(7) 0.0392(8) 0.0073(6) 0.0116(6) 0.0101(6)
C13 0.0710(12) 0.0529(10) 0.0602(11) -0.0012(8) 0.0129(9) -0.0053(8)
C12 0.0746(12) 0.0644(11) 0.0660(11) 0.0090(9) 0.0345(9) 0.0107(9)
loop_
_atom_type_symbol
_atom_type_description
_atom_type_scat_dispersion_real
_atom_type_scat_dispersion_imag
_atom_type_scat_source
C C 0.0033 0.0016 'International Tables Vol C Tables 4.2.6.8 and 6.1.1.4'
H H 0.0000 0.0000 'International Tables Vol C Tables 4.2.6.8 and 6.1.1.4'
F F 0.0171 0.0103 'International Tables Vol C Tables 4.2.6.8 and 6.1.1.4'
N N 0.0061 0.0033 'International Tables Vol C Tables 4.2.6.8 and 6.1.1.4'
O O 0.0106 0.0060 'International Tables Vol C Tables 4.2.6.8 and 6.1.1.4'
loop_
_geom_angle_atom_site_label_1
_geom_angle_atom_site_label_2
_geom_angle_atom_site_label_3
_geom_angle
C8 N7 C1 126.55(13)
C8 N7 H7A 116.7
C1 N7 H7A 116.7
C2 C1 C6 119.67(13)
C2 C1 N7 118.01(13)
C6 C1 N7 122.32(12)
C4 C3 C2 121.21(14)
C4 C3 H3A 119.4
C2 C3 H3A 119.4
C5 C6 C1 117.77(14)
C5 C6 H6A 121.1
C1 C6 H6A 121.1
F1 C5 C4 118.04(14)
F1 C5 C6 117.49(14)
C4 C5 C6 124.47(15)
C3 C2 C1 120.14(15)
C3 C2 H2A 119.9
C1 C2 H2A 119.9
C5 C4 C3 116.72(14)
C5 C4 H4A 121.6
C3 C4 H4A 121.6
N7 C8 C9 126.94(14)
N7 C8 H8A 116.5
C9 C8 H8A 116.5
O2 C11 C9 119.85(13)
O2 C11 C13 118.23(14)
C9 C11 C13 121.91(14)
O1 C10 C9 122.46(15)
O1 C10 C12 117.76(15)
C9 C10 C12 119.78(13)
C8 C9 C11 119.61(13)
C8 C9 C10 117.72(14)
C11 C9 C10 122.66(13)
C11 C13 H13A 109.5
C11 C13 H13B 109.5
H13A C13 H13B 109.5
C11 C13 H13C 109.5
H13A C13 H13C 109.5
H13B C13 H13C 109.5
C10 C12 H12A 109.5
C10 C12 H12B 109.5
H12A C12 H12B 109.5
C10 C12 H12C 109.5
H12A C12 H12C 109.5
H12B C12 H12C 109.5
loop_
_geom_bond_atom_site_label_1
_geom_bond_atom_site_label_2
_geom_bond_distance
F1 C5 1.3604(18)
O1 C10 1.2103(19)
O2 C11 1.2385(18)
N7 C8 1.3207(19)
N7 C1 1.4081(18)
N7 H7A 0.8600
C1 C2 1.380(2)
C1 C6 1.381(2)
C3 C4 1.374(2)
C3 C2 1.377(2)
C3 H3A 0.9300
C6 C5 1.365(2)
C6 H6A 0.9300
C5 C4 1.362(2)
C2 H2A 0.9300
C4 H4A 0.9300
C8 C9 1.3795(19)
C8 H8A 0.9300
C11 C9 1.459(2)
C11 C13 1.496(2)
C10 C9 1.469(2)
C10 C12 1.500(2)
C13 H13A 0.9600
C13 H13B 0.9600
C13 H13C 0.9600
C12 H12A 0.9600
C12 H12B 0.9600
C12 H12C 0.9600
loop_
_geom_hbond_atom_site_label_D
_geom_hbond_atom_site_label_H
_geom_hbond_atom_site_label_A
_geom_hbond_distance_DH
_geom_hbond_distance_HA
_geom_hbond_distance_DA
_geom_hbond_angle_DHA
_geom_hbond_site_symmetry_A
N7 H7A O2 0.86 1.96 2.6078(16) 131.4 .
C6 H6A F1 0.93 2.57 3.4786(19) 166.0 2_866
C2 H2A O2 0.93 2.53 3.4576(19) 177.4 2_656
C4 H4A O1 0.93 2.54 3.201(2) 128.4 1_566
loop_
_geom_torsion_atom_site_label_1
_geom_torsion_atom_site_label_2
_geom_torsion_atom_site_label_3
_geom_torsion_atom_site_label_4
_geom_torsion
C8 N7 C1 C2 175.78(14)
C8 N7 C1 C6 -4.5(2)
C2 C1 C6 C5 -0.9(2)
N7 C1 C6 C5 179.40(14)
C1 C6 C5 F1 -179.32(14)
C1 C6 C5 C4 1.0(3)
C4 C3 C2 C1 -0.1(3)
C6 C1 C2 C3 0.4(2)
N7 C1 C2 C3 -179.81(15)
F1 C5 C4 C3 179.66(16)
C6 C5 C4 C3 -0.7(3)
C2 C3 C4 C5 0.2(3)
C1 N7 C8 C9 -178.32(14)
N7 C8 C9 C11 1.8(2)
N7 C8 C9 C10 -179.00(14)
O2 C11 C9 C8 -7.2(2)
C13 C11 C9 C8 171.41(14)
O2 C11 C9 C10 173.64(14)
C13 C11 C9 C10 -7.8(2)
O1 C10 C9 C8 176.31(16)
C12 C10 C9 C8 -3.3(2)
O1 C10 C9 C11 -4.5(3)
C12 C10 C9 C11 175.92(15)
