#------------------------------------------------------------------------------
#$Date: 2016-02-18 17:37:37 +0200 (Thu, 18 Feb 2016) $
#$Revision: 176729 $
#$URL: svn://www.crystallography.net/cod/cif/1/51/86/1518683.cif $
#------------------------------------------------------------------------------
#
# This file is available in the Crystallography Open Database (COD),
# http://www.crystallography.net/
#
# All data on this site have been placed in the public domain by the
# contributors.
#
data_1518683
loop_
_publ_author_name
'Breternitz, Joachim'
'Farrugia, Louis J.'
'Godula-Jopek, Agata'
'Saremi-Yarahmadi, Sina'
'Malka, Iwona E.'
'Hoang, Tuan K.A.'
'Gregory, Duncan H.'
_publ_section_title
;
 Reaction of [Ni(H2O)6](NO3)2 with gaseous NH3; crystal growth via in-situ
 solvation
;
_journal_name_full               'Journal of Crystal Growth'
_journal_page_first              1
_journal_paper_doi               10.1016/j.jcrysgro.2014.11.021
_journal_volume                  412
_journal_year                    2015
_chemical_compound_source        'synthesis as described'
_chemical_formula_moiety         'H12 Ni O6, 2(N O3)'
_chemical_formula_sum            'H12 N2 Ni O12'
_chemical_formula_weight         290.83
_space_group_IT_number           2
_symmetry_cell_setting           triclinic
_symmetry_Int_Tables_number      2
_symmetry_space_group_name_Hall  '-P 1'
_symmetry_space_group_name_H-M   'P -1'
_atom_sites_solution_hydrogens   difmap
_atom_sites_solution_primary     direct
_atom_sites_solution_secondary   direct
_audit_conform_dict_location     ftp://ftp.iucr.org/pub/cif_core.dic
_audit_conform_dict_name         cif_core.dic
_audit_conform_dict_version      2.4.2
_audit_creation_date             2013-04-30T11:08:44-00:00
_audit_creation_method           'WinGX routine CIF_UPDATE'
_cell_angle_alpha                106.347(2)
_cell_angle_beta                 98.450(2)
_cell_angle_gamma                101.538(2)
_cell_formula_units_Z            2
_cell_length_a                   5.7531(3)
_cell_length_b                   7.6604(4)
_cell_length_c                   11.4876(6)
_cell_measurement_reflns_used    9604
_cell_measurement_temperature    100(2)
_cell_measurement_theta_max      60.88
_cell_measurement_theta_min      2.88
_cell_measurement_wavelength     0.71073
_cell_volume                     464.73(4)
_computing_cell_refinement
'SAINT V8.27B integration software (Bruker, 2012)'
_computing_data_collection       'Bruker APEX2 software (Bruker, 2012)'
_computing_data_reduction        'SORTAV (Blessing, 1987)'
_computing_molecular_graphics    'Diamond 3.1 (Brandenburg, 2005)'
_computing_publication_material  'WinGX publication routines (Farrugia, 2012)'
_computing_structure_refinement  'SHELXL-2013 (Sheldrick, 2008)'
_computing_structure_solution    'SIR-92 (Altomare et al., 1994)'
_diffrn_ambient_temperature      100(2)
_diffrn_detector                 'APEX-II CCD'
_diffrn_measured_fraction_theta_full 0.992
_diffrn_measured_fraction_theta_max 0.944
_diffrn_measurement_device       '\k-geometry diffractometer'
_diffrn_measurement_device_type  'Bruker APEX-II'
_diffrn_measurement_method       '\f or \w oscillation scans'
_diffrn_orient_matrix_UB_11      0.16623
_diffrn_orient_matrix_UB_12      0.085827
_diffrn_orient_matrix_UB_13      0.019345
_diffrn_orient_matrix_UB_21      -0.009341
_diffrn_orient_matrix_UB_22      0.048019
_diffrn_orient_matrix_UB_23      0.089195
_diffrn_orient_matrix_UB_31      0.072769
_diffrn_orient_matrix_UB_32      -0.100573
_diffrn_orient_matrix_UB_33      0.017413
_diffrn_radiation_monochromator  graphite
_diffrn_radiation_probe          x-ray
_diffrn_radiation_type           MoK\a
_diffrn_radiation_wavelength     0.71073
_diffrn_reflns_av_R_equivalents  0.057
_diffrn_reflns_Laue_measured_fraction_full 0.992
_diffrn_reflns_Laue_measured_fraction_max 0.944
_diffrn_reflns_limit_h_max       14
_diffrn_reflns_limit_h_min       -10
_diffrn_reflns_limit_k_max       10
_diffrn_reflns_limit_k_min       -18
_diffrn_reflns_limit_l_max       27
_diffrn_reflns_limit_l_min       -24
_diffrn_reflns_number            32234
_diffrn_reflns_point_group_measured_fraction_full 0.992
_diffrn_reflns_point_group_measured_fraction_max 0.944
_diffrn_reflns_reduction_process
;
        Scaled and merged with Sortav
        R.H. Blessing, (1987) Cryst. Rev. 1, 3-58
        R.H. Blessing, (1989) J. Appl. Cryst. 22, 396-397
;
_diffrn_reflns_theta_full        25.242
_diffrn_reflns_theta_max         60.935
_diffrn_reflns_theta_min         1.892
_diffrn_source                   'sealed x-ray tube'
_exptl_absorpt_coefficient_mu    2.155
_exptl_absorpt_correction_T_max  0.752
_exptl_absorpt_correction_T_min  0.575
_exptl_absorpt_correction_type   multi-scan
_exptl_absorpt_process_details
;
SADABS-2012/1 - Bruker AXS area detector scaling and absorption correction
;
_exptl_crystal_colour            green
_exptl_crystal_density_diffrn    2.078
_exptl_crystal_density_method    'not measured'
_exptl_crystal_description       irregular
_exptl_crystal_F_000             300
_exptl_crystal_size_max          0.4
_exptl_crystal_size_mid          0.4
_exptl_crystal_size_min          0.4
_refine_diff_density_max         2.264
_refine_diff_density_min         -1.118
_refine_diff_density_rms         0.178
_refine_ls_extinction_method     none
_refine_ls_goodness_of_fit_ref   1.06
_refine_ls_hydrogen_treatment    refall
_refine_ls_matrix_type           full
_refine_ls_number_constraints    0
_refine_ls_number_parameters     185
_refine_ls_number_reflns         13670
_refine_ls_number_restraints     12
_refine_ls_restrained_S_all      1.06
_refine_ls_R_factor_all          0.0425
_refine_ls_R_factor_gt           0.0391
_refine_ls_shift/su_max          0.001
_refine_ls_shift/su_mean         0
_refine_ls_structure_factor_coef Fsqd
_refine_ls_weighting_details
;
 w=1/[\s^2^(Fo^2^)+(0.0215P)^2^+0.0544P]
 where P=(Fo^2^+2Fc^2^)/3
;
_refine_ls_weighting_scheme      calc
_refine_ls_wR_factor_gt          0.1015
_refine_ls_wR_factor_ref         0.1032
_reflns_number_gt                12467
_reflns_number_total             13670
_reflns_threshold_expression     'I > 2\s(I)'
_iucr_refine_instructions_details
;
TITL [Ni(H2O)6]2+ (NO3-)2 100K  APEXII code svc_31a in P -1
CELL  0.71073   5.7531   7.6604  11.4876  106.347   98.450  101.538
ZERR     2.00   0.0003   0.0004   0.0006    0.002    0.002    0.002
LATT   1
SFAC  NI   O    N    H
UNIT  2    24   4    24
MERG   2
DFIX   21 0.01 O1 H11 O1 H12
DFIX   21 0.01 O2 H21 O2 H22
DFIX   21 0.01 O3 H31 O3 H32
DFIX   21 0.01 O4 H41 O4 H42
DFIX   21 0.01 O5 H51 O5 H52
DFIX   21 0.01 O6 H61 O6 H62
EQIV $1 x+1, y, z
HTAB O1 O23_$1
EQIV $2 -x+1, -y+1, -z+1
HTAB O1 O21_$2
EQIV $3 x-1, y, z
HTAB O2 O5_$3
EQIV $4 x, y-1, z
HTAB O2 O13_$4
EQIV $5 -x+1, -y, -z
HTAB O3 O2_$5
HTAB O3 O12_$4
HTAB O4 O22_$4
EQIV $6 x+1, y-1, z
HTAB O4 O23_$6
HTAB O5 O21_$1
HTAB O5 O23_$2
HTAB O6 O12
HTAB O6 O11_$1
FMAP  -2
PLAN   20
SIZE     0.400   0.400   0.400
ACTA
BOND   $H
CONF
LIST   4
L.S.  10
TEMP  -173.00
WGHT    0.021500    0.054400
FVAR       0.82188   0.80113
MOLE    1
NI1   1    0.672512    0.145193    0.232393    11.00000    0.00582    0.00496 =
         0.00651    0.00212    0.00119    0.00118
O1    2    0.598143    0.358064    0.368288    11.00000    0.01148    0.00793 =
         0.00953    0.00229    0.00205    0.00265
O2    2    0.309435    0.036411    0.145285    11.00000    0.00748    0.00778 =
         0.01064    0.00318    0.00168    0.00157
O3    2    0.751539   -0.065276    0.103065    11.00000    0.01052    0.00741 =
         0.00909    0.00167    0.00237    0.00222
O4    2    0.634672   -0.005767    0.353055    11.00000    0.01054    0.00904 =
         0.01147    0.00550    0.00277    0.00279
O5    2    1.043037    0.239828    0.314936    11.00000    0.00799    0.00930 =
         0.01019    0.00423    0.00057    0.00064
O6    2    0.722174    0.309743    0.123898    11.00000    0.00981    0.00988 =
         0.01324    0.00704    0.00378    0.00286
H11   4    0.672079    0.460068    0.370817    11.00000    0.02981
H12   4    0.646012    0.343105    0.434193    11.00000    0.02304
H21   4    0.221285    0.091918    0.180858    11.00000    0.03196
H22   4    0.262467   -0.075559    0.132565    11.00000    0.02533
H31   4    0.719882   -0.069007    0.031969    11.00000    0.02123
H32   4    0.688765   -0.169204    0.102693    11.00000    0.02391
H41   4    0.498687   -0.059806    0.350039    11.00000    0.02071
H42   4    0.715224   -0.072123    0.365663    11.00000    0.02573
H51   4    1.111539    0.348970    0.333412    11.00000    0.05280
H52   4    1.075845    0.235559    0.384287    11.00000    0.03775
H61   4    0.663226    0.396857    0.127923    11.00000    0.03901
H62   4    0.856495    0.353679    0.120889    11.00000    0.02117
MOLE    2
O11   2    0.208073    0.386910    0.123333    11.00000    0.01214    0.00721 =
         0.01948    0.00654    0.00481    0.00218
O12   2    0.520243    0.608594    0.137141    11.00000    0.00980    0.00946 =
         0.02036    0.00597    0.00394    0.00128
O13   2    0.158667    0.659686    0.123170    11.00000    0.01265    0.00843 =
         0.01400    0.00479    0.00338    0.00462
N1    3    0.293631    0.552564    0.127609    11.00000    0.00998    0.00646 =
         0.00920    0.00327    0.00269    0.00202
MOLE    3
O21   2    0.214570    0.652752    0.392456    11.00000    0.01490    0.01137 =
         0.01201    0.00417    0.00258    0.00691
O22   2    0.153587    0.912554    0.369536    11.00000    0.01514    0.01035 =
         0.01518    0.00706    0.00616    0.00394
O23   2   -0.130772    0.723671    0.410905    11.00000    0.01100    0.01160 =
         0.02006    0.00600    0.00519    0.00199
N2    3    0.080499    0.763249    0.390262    11.00000    0.01065    0.00838 =
         0.00821    0.00317    0.00222    0.00298
HKLF    4
REM  [Ni(H2O)6]2+ (NO3-)2 100K  APEXII code svc_31a in P -1
REM R1 =  0.0391 for   12467 Fo > 4sig(Fo)  and  0.0425 for all   13670 data
REM    185 parameters refined using     12 restraints
END
;
_cod_data_source_file            hydrates.cif
_cod_data_source_block           100K
_cod_database_code               1518683
#BEGIN Tags that were not found in dictionaries:
_iucr_refine_reflections_details
;
 -14   2   2 2.77229 1.07396   1
 -14   2   3 50.2366 3.69867   1
 -14   2   4 2.59834 1.07441   1
 -14   2   5 7.38569 1.51179   1
 -14   2   6 0.75209 0.94195   1
 -14   2   7 7.39557 1.48346   1
 -14   3   1 1.23634 0.89793   1
 -14   3   2 15.9904 1.51331   1
 -14   3   3 0.46474 0.90503   1
 -14   3   4 10.2435 1.69885   1
 -14   3   5 2.88831 1.08612   1
 -14   3   6 32.1203 2.60741   1
 -14   3   7  16.723 1.94016   1
 -14   3   8 14.9298 2.08673   1
 -14   4   1 21.3896 2.67703   1
 -14   4   2 18.5926 2.40433   1
 -14   4   3  8.6315 1.58797   1
 -14   4   4 2.13463  0.7788   1
 -14   4   5 2.27296 1.08955   1
 -14   4   6 7.40751 1.13391   1
 -14   4   7 2.57917 0.77751   1
 -14   5   1  9.0509 1.56815   1
 -14   5   2 3.60592 1.06921   1
 -14   5   3 10.1794 2.69835   1
 -14   5   4 0.08913  0.6662   1
 -14   5   5 48.0167  3.5891   1
 -14   5   6 6.28158 0.97049   1
 -14   6   1 2.57179 0.99585   1
 -14   6   2  23.691 2.00799   1
 -14   6   3 6.54775 0.93311   1
 -14   6   4 12.7729  1.2881   1
 -14   6   5 23.2579 2.74805   1
 -13  -3   3 31.2146 2.44195   1
 -13  -3   4 2.74835 1.39803   1
 -13  -3   5  21.917 3.47796   1
 -13  -3   6 1.87616 0.63216   1
 -13  -3   7 22.8201 2.37431   1
 -13  -3   8  4.3986 0.80126   1
 -13  -3   9 17.4322 1.58805   1
 -13  -3  10 10.4876 1.74275   1
 -13  -3  11 14.7212 2.13584   1
 -13  -2   1 8.29127 1.42438   1
 -13  -2   2 37.8244 2.28054   1
 -13  -2   3 23.2489 1.55665   1
 -13  -2   4 20.4284 1.41997   1
 -13  -2   5 3.26634 0.59907   1
 -13  -2   6 4.75939 0.76092   1
 -13  -2   7 1.33017 0.70263   1
 -13  -2   8 4.12118 0.60466   1
 -13  -2   9 47.9857 2.57809   1
 -13  -2  10 7.35396 0.98215   1
 -13  -2  11 93.4298 7.99893   1
 -13  -2  12 0.44731 1.01736   1
 -13  -2  13 29.5481  3.4534   1
 -13  -1   1 23.4897 1.57274   1
 -13  -1   2 32.1502 2.44056   1
 -13  -1   3 8.03096 0.81705   1
 -13  -1   4 11.8428  1.4521   1
 -13  -1   5 0.45517 0.52742   1
 -13  -1   6 21.9518 1.39289   1
 -13  -1   7   0.366 0.73456   1
 -13  -1   8 40.3568 2.80977   1
 -13  -1   9 9.53001 1.61978   1
 -13  -1  10 39.3159 5.12951   1
 -13  -1  11  21.418 1.57277   1
 -13  -1  12 25.1656 2.68882   1
 -13  -1  13 7.95006 2.50737   1
 -13  -1  14 11.1124 1.85435   1
 -13   0   1 44.5864 4.98509   1
 -13   0   2 9.04305 0.88284   1
 -13   0   3 14.6908 1.89991   1
 -13   0   4 0.36211 0.58103   1
 -13   0   5 6.87855 0.83055   1
 -13   0   6 4.05994 0.61893   1
 -13   0   7 30.5375 2.05766   1
 -13   0   8 45.2494 3.14044   1
 -13   0   9 35.5288 2.11626   1
 -13   0  10 40.2635 2.25902   1
 -13   0  11 2.35761 0.56926   1
 -13   0  12 21.2981 2.45014   1
 -13   0  13 0.29559  0.6538   1
 -13   0  14  26.057 3.13973   1
 -13   1   0 16.5507 1.27079   1
 -13   1   1 2.30637 0.87016   1
 -13   1   2 9.95184 0.92264   1
 -13   1   3 23.3709 2.39839   1
 -13   1   4 9.71033 1.31462   1
 -13   1   5 105.782 8.19945   1
 -13   1   6 4.04417 0.68601   1
 -13   1   7 32.5081 1.92887   1
 -13   1   8 0.70674 0.55252   1
 -13   1   9 9.63796 1.65397   1
 -13   1  10 0.64275  0.5469   1
 -13   1  11  59.717 3.52966   1
 -13   1  12 0.86999 0.53791   1
 -13   1  13   43.28 2.61608   1
 -13   1  14 10.7503 1.15244   1
 -13   2   0  15.391 1.74886   1
 -13   2   1 0.13725 0.48654   1
 -13   2   2 3.03566 0.68138   1
 -13   2   3 3.07422 0.57227   1
 -13   2   4 37.8215 3.79083   1
 -13   2   5 7.04166 0.78672   1
 -13   2   6 104.996 6.36713   1
 -13   2   7 30.0565 3.21492   1
 -13   2   8 37.4052 3.72109   1
 -13   2   9 9.25306 1.29267   1
 -13   2  10 0.70752 0.54456   1
 -13   2  11 7.81958 1.37546   1
 -13   2  12 3.35623 0.60613   1
 -13   2  13 25.3356 1.69225   1
 -13   2  14 26.0835 2.04929   1
 -13   3   0 0.85421 0.49904   1
 -13   3   1 28.3326 1.98074   1
 -13   3   2 15.1932 1.56852   1
 -13   3   3 31.5157 1.68439   1
 -13   3   4 37.1571 3.04907   1
 -13   3   5 12.4281 1.01719   1
 -13   3   6 25.1746 1.59879   1
 -13   3   7 0.35209 0.55052   1
 -13   3   8 42.2899 5.56805   1
 -13   3   9 5.18464 0.71712   1
 -13   3  10 53.3822 3.18447   1
 -13   3  11 5.16074 0.72252   1
 -13   3  12  7.0087 0.90717   1
 -13   3  13 1.82247 0.57709   1
 -13   3  14 9.21864 1.60144   1
 -13   4   0 9.43437  1.7847   1
 -13   4   1 76.4246 4.48107   1
 -13   4   2 5.68937 0.61077   1
 -13   4   3 20.6869 2.78651   1
 -13   4   4 0.59026 0.55631   1
 -13   4   5 17.5821 1.24581   1
 -13   4   6 0.86833  0.5566   1
 -13   4   7 68.9205 5.16504   1
 -13   4   8 3.39907 0.91881   1
 -13   4   9  40.014  2.5185   1
 -13   4  10 14.4274 1.07896   1
 -13   4  11 7.14818 0.74369   1
 -13   4  12 4.22641 0.66229   1
 -13   4  13 8.27442 1.25142   1
 -13   5   0 57.1706 2.75912   1
 -13   5   1 8.35171 1.07872   1
 -13   5   2 92.7951 5.36394   1
 -13   5   3 35.2766 2.47184   1
 -13   5   4 31.8664  2.0883   1
 -13   5   5 9.25848 0.86424   1
 -13   5   6 0.99915 0.53883   1
 -13   5   7 6.24649 0.89803   1
 -13   5   8 8.44484 0.81236   1
 -13   5   9  23.491 1.90585   1
 -13   5  10 27.3017 3.75085   1
 -13   5  11 30.9532  3.3991   1
 -13   5  12  -0.035 1.08508   1
 -13   5  13 29.6789 3.24048   1
 -13   6   0 16.1903 1.67732   1
 -13   6   1 10.6451 1.10396   1
 -13   6   2 17.1933 1.78939   1
 -13   6   3 8.43136  1.5969   1
 -13   6   4 68.2561 7.92971   1
 -13   6   5 6.08676 0.89136   1
 -13   6   6 60.9907 4.13455   1
 -13   6   7 2.31363 0.61388   1
 -13   6   8 2.79229  0.5589   1
 -13   6   9 0.34453 0.58945   1
 -13   6  10  8.0739 0.95481   1
 -13   6  11  5.1978 1.24909   1
 -13   7   0 0.62303 0.57223   1
 -13   7   1 21.4312 1.62001   1
 -13   7   2  1.1328 0.62169   1
 -13   7   3 61.8505 4.69225   1
 -13   7   4 4.96824 0.78558   1
 -13   7   5 41.1388 3.11707   1
 -13   7   6  5.6445 1.06026   1
 -13   7   7 10.2282 1.61781   1
 -13   7   8 2.39984 0.84539   1
 -13   7   9 7.70304 1.53931   1
 -13   7  10 13.0073 1.96602   1
 -13   7  11 4.87524 1.30644   1
 -13   8   0 35.0739 2.31301   1
 -13   8   1  25.204 1.80106   1
 -13   8   2 13.5956 1.47037   1
 -13   8   3 8.24197 1.17054   1
 -13   8   4 5.27618 1.01752   1
 -13   8   5 6.29099 1.34152   1
 -13   8   6 11.6221 1.37837   1
 -13   8   7 27.2824 5.46714   1
 -13   8   8  5.4555 1.36135   1
 -13   8   9   55.84 5.54487   1
 -13   9   0 39.3997  4.0336   1
 -13   9   1 3.53228 0.87769   1
 -13   9   2 43.1554 10.5353   1
 -13   9   3  0.1881 0.70878   1
 -13   9   4 12.3137  1.7698   1
 -13   9   5 0.83242 1.00768   1
 -13   9   6 7.85635 1.36879   1
 -13   9   7 4.15633 1.15862   1
 -13  10   2 -0.6172 0.92493   1
 -13  10   3 1.77504 0.93819   1
 -13  10   4-0.16909 0.92871   1
 -12  -6   4 29.5677 3.02929   1
 -12  -6   5 0.55318 0.80967   1
 -12  -6   6 0.40859 0.75024   1
 -12  -5   1 40.8912 4.00827   1
 -12  -5   2  1.0845 0.82363   1
 -12  -5   3 23.8946  2.8675   1
 -12  -5   4 7.26823 0.85344   1
 -12  -5   5 10.2918 1.00168   1
 -12  -5   7  6.3959  2.5204   1
 -12  -5   8 35.0844 2.60155   1
 -12  -5   9 1.23117 0.69265   1
 -12  -5  10 9.87841 1.32202   1
 -12  -5  11 0.36272 0.67345   1
 -12  -5  12 44.9513 11.9551   1
 -12  -5  13 1.53784 1.09767   1
 -12  -5  14 79.5315 8.11919   1
 -12  -4   1 33.0494 3.60997   1
 -12  -4   2 0.60106  0.5587   1
 -12  -4   3 2.30579 0.73857   1
 -12  -4   4 2.35121  0.6432   1
 -12  -4   5 9.56338 0.91378   1
 -12  -4   6 0.94617 0.63147   1
 -12  -4   7 60.9815 4.60944   1
 -12  -4   8 15.0869  1.2881   1
 -12  -4   9  86.617 8.57772   1
 -12  -4  10 11.6602 1.10847   1
 -12  -4  11 14.1871  1.2478   1
 -12  -4  12 5.49054 0.81501   1
 -12  -4  13  2.8531 1.67401   1
 -12  -4  14 27.9777 3.20474   1
 -12  -3   1 0.79884  0.5139   1
 -12  -3   2 8.57635 0.84135   1
 -12  -3   3 2.48342 0.58042   1
 -12  -3   4 17.7783 1.73911   1
 -12  -3   5 24.8945 1.53225   1
 -12  -3   6 47.2255 4.83613   1
 -12  -3   7 61.0359  12.245   1
 -12  -3   8 15.2592 1.32158   1
 -12  -3   9 34.3344 3.25418   1
 -12  -3  10 0.62749 0.64964   1
 -12  -3  11 27.4161 4.98426   1
 -12  -3  12 8.31815   1.158   1
 -12  -3  13 18.3774 4.36052   1
 -12  -3  14 2.74006  1.4148   1
 -12  -3  15 15.8581  2.3617   1
 -12  -2   1 5.12707 0.68208   1
 -12  -2   2 59.2875 5.57758   1
 -12  -2   3 10.7812 0.87372   1
 -12  -2   4 23.4171 1.71364   1
 -12  -2   5 6.82568 0.72948   1
 -12  -2   6 9.95638 1.84942   1
 -12  -2   7 0.43029 0.64455   1
 -12  -2   8 84.9321  8.2431   1
 -12  -2   9 1.40733 0.56296   1
 -12  -2  10 113.442 7.56887   1
 -12  -2  11 10.6004 1.29041   1
 -12  -2  12 11.1636  2.6248   1
 -12  -2  13 5.68124 0.98438   1
 -12  -2  14 1.19597 0.78708   1
 -12  -2  15  0.0105 1.60051   1
 -12  -2  16 17.0979 1.93259   1
 -12  -1   1 32.3487  2.0781   1
 -12  -1   2  1.5788 0.57568   1
 -12  -1   3 117.653 5.37982   1
 -12  -1   4 22.4872 1.42481   1
 -12  -1   5 63.2185 3.59301   1
 -12  -1   6 8.71834 0.81924   1
 -12  -1   7 8.30027 0.75357   1
 -12  -1   8 6.12018 0.87186   1
 -12  -1   9 12.8909 1.84467   1
 -12  -1  10 34.0647 3.04686   1
 -12  -1  11 40.8261 7.76421   1
 -12  -1  12 28.3704 2.31832   1
 -12  -1  13 9.03585 3.60547   1
 -12  -1  14 14.1594 2.05302   1
 -12  -1  15 2.26612 0.78966   1
 -12  -1  16 29.7924 2.80571   1
 -12  -1  17 3.66255 0.97032   1
 -12   0   1 6.44901 0.91027   1
 -12   0   2 32.0062 1.79419   1
 -12   0   3 34.9556 1.92583   1
 -12   0   4 26.9869 1.40664   1
 -12   0   5 75.6857 4.31498   1
 -12   0   6 13.1624 1.10627   1
 -12   0   7 65.5916 3.20816   1
 -12   0   8 5.63217 0.78221   1
 -12   0   9 14.0801 1.12357   1
 -12   0  10 0.15597 0.68398   1
 -12   0  11 11.6622 1.44055   1
 -12   0  12 1.11741 0.66937   1
 -12   0  13 60.6443 5.05999   1
 -12   0  14 4.58824 0.93365   1
 -12   0  15 47.2415 6.12359   1
 -12   0  16 23.7297 2.06713   1
 -12   0  17 7.67437 1.20026   1
 -12   1   0 51.9082 2.73296   1
 -12   1   1 7.78445 0.69241   1
 -12   1   2 19.6658 1.13278   1
 -12   1   3 1.26948 0.44297   1
 -12   1   4 58.3346 3.35564   1
 -12   1   5  3.1073 0.51024   1
 -12   1   6 137.027 6.18023   1
 -12   1   7 10.9333 1.25975   1
 -12   1   8 43.3651 2.46601   1
 -12   1   9 2.05313  0.6435   1
 -12   1  10 3.01307 0.75528   1
 -12   1  11 0.37625 0.66531   1
 -12   1  12 6.48766 1.50123   1
 -12   1  13 44.7952 3.32805   1
 -12   1  14 26.8493 2.52099   1
 -12   1  15 98.4206 6.42747   1
 -12   1  16 5.84736 1.13048   1
 -12   1  17 23.2425 2.32115   1
 -12   2   0 3.01245 0.52934   1
 -12   2   1 47.6393  3.0629   1
 -12   2   2 18.6766 1.57581   1
 -12   2   3 51.6226 2.37636   1
 -12   2   4 27.6046  1.4314   1
 -12   2   5 29.0931 1.49145   1
 -12   2   6 25.3799 1.47544   1
 -12   2   7 14.4496 1.21386   1
 -12   2   8  14.501 1.79785   1
 -12   2   9 11.0545 1.15785   1
 -12   2  10 29.4581 2.02536   1
 -12   2  11 2.69178 1.22414   1
 -12   2  12 57.9514 3.44448   1
 -12   2  13  1.9294 0.68238   1
 -12   2  14 37.8941  2.3834   1
 -12   2  15 13.0099   2.524   1
 -12   2  16 30.5144 2.85522   1
 -12   2  17 4.55411  1.0083   1
 -12   3   0 29.3806  1.4898   1
 -12   3   1 57.8702 2.69811   1
 -12   3   2 13.9708 0.88988   1
 -12   3   3 59.0942 2.70771   1
 -12   3   4 3.39165 0.51225   1
 -12   3   5 32.4625 1.75965   1
 -12   3   6 1.38971 0.53854   1
 -12   3   7 19.2776 1.22442   1
 -12   3   8 0.31603 0.58484   1
 -12   3   9 42.3189 2.75617   1
 -12   3  10 6.33028 0.78144   1
 -12   3  11 34.3612 5.19081   1
 -12   3  12 20.8344 1.59673   1
 -12   3  13 22.0394 1.63646   1
 -12   3  14 15.2435 1.73161   1
 -12   3  15  8.8704 1.35305   1
 -12   3  16 26.1608 2.54038   1
 -12   3  17 4.13536  1.0031   1
 -12   4   0 85.2847 3.74118   1
 -12   4   1 4.21313 0.56303   1
 -12   4   2  117.48 7.82288   1
 -12   4   3 8.69007 0.76346   1
 -12   4   4 24.2291 2.27059   1
 -12   4   5  0.2997 0.48692   1
 -12   4   6  3.9334 0.59554   1
 -12   4   7 1.36281 0.82047   1
 -12   4   8 26.4037 2.03485   1
 -12   4   9 53.8534 4.31206   1
 -12   4  10 29.4735 3.56402   1
 -12   4  11   76.61 4.01655   1
 -12   4  12 1.80823 0.58941   1
 -12   4  13  21.755 1.45963   1
 -12   4  14 3.00465 0.58909   1
 -12   4  15 19.7076 1.67594   1
 -12   4  16 0.20212 1.40903   1
 -12   5   0 45.3507 2.32481   1
 -12   5   1 42.3833 2.00842   1
 -12   5   2 17.7493 1.53508   1
 -12   5   3 11.5042 0.86856   1
 -12   5   4 6.94026  0.7233   1
 -12   5   5 9.26068 0.87115   1
 -12   5   6 38.4344 1.98376   1
 -12   5   7 5.39621 0.64135   1
 -12   5   8 70.1527 3.35344   1
 -12   5   9 1.79984  0.6096   1
 -12   5  10  32.555 1.95078   1
 -12   5  11 9.48073 1.28849   1
 -12   5  12 36.9208 4.53798   1
 -12   5  13 4.19596 0.75778   1
 -12   5  14 48.5065 3.42488   1
 -12   5  15 5.20137 0.85993   1
 -12   6   0 2.80913 0.54358   1
 -12   6   1 42.5165  2.4352   1
 -12   6   2 1.14617 0.46596   1
 -12   6   3 28.2794 1.56309   1
 -12   6   4 0.16833 0.45158   1
 -12   6   5 33.3507 1.77495   1
 -12   6   6 3.07211 0.54361   1
 -12   6   7 38.1079 1.97202   1
 -12   6   8 20.6374 1.40064   1
 -12   6   9 31.6009 5.34472   1
 -12   6  10 26.3881 3.73173   1
 -12   6  11 11.4531 2.15988   1
 -12   6  12 29.2176 3.59568   1
 -12   6  13 2.19472 0.64833   1
 -12   6  14 24.8874 5.36887   1
 -12   6  15 4.15572 1.29227   1
 -12   7   0 7.42282  0.9436   1
 -12   7   1 0.46063 0.52382   1
 -12   7   2 23.0337 1.52557   1
 -12   7   3 12.9774 1.39711   1
 -12   7   4 50.1293 2.78931   1
 -12   7   5 58.9627 4.48182   1
 -12   7   6 12.6153 1.23982   1
 -12   7   7 32.1634 2.16099   1
 -12   7   8-0.28949 1.05633   1
 -12   7   9 16.7826 1.37018   1
 -12   7  10-0.00344 1.06881   1
 -12   7  11 48.3305 6.20816   1
 -12   7  12 0.80118 0.64696   1
 -12   7  13 60.0106 11.8692   1
 -12   7  14-0.55913 1.01251   1
 -12   8   0 1.41257   0.696   1
 -12   8   1 7.76887 0.82495   1
 -12   8   2 8.58793 1.00001   1
 -12   8   3 5.78975 0.88923   1
 -12   8   4 80.7601 20.2659   1
 -12   8   5  1.3863 0.89614   1
 -12   8   6 75.9457 5.52369   1
 -12   8   7  5.4886 1.14397   1
 -12   8   8 26.1829 2.37139   1
 -12   8   9 16.7668 1.79256   1
 -12   8  10 20.3626 1.98954   1
 -12   8  11 2.67968 1.30144   1
 -12   8  13 3.12724 1.23366   1
 -12   9   0 0.91601 0.74798   1
 -12   9   1 71.4391 5.19836   1
 -12   9   2 1.25275 0.78635   1
 -12   9   3 6.67287 1.13584   1
 -12   9   4 5.07638 1.04858   1
 -12   9   5 5.51982 1.10372   1
 -12   9   6 30.3976 2.60176   1
 -12   9   7 39.2029 3.16677   1
 -12   9   8 41.4879 3.61611   1
 -12   9   9 16.3069 2.73574   1
 -12   9  10 18.6475 2.49934   1
 -12   9  11 0.42494 1.18879   1
 -12  10   0 35.4027 2.85213   1
 -12  10   1 22.2647 2.03991   1
 -12  10   2  14.252 2.04496   1
 -12  10   3 35.4263 3.41024   1
 -12  10   4 4.27708 2.69457   1
 -12  10   5  25.147 2.56765   1
 -12  10   6 0.24154 0.86391   1
 -12  10   7 45.2691  8.0504   1
 -12  10   8 1.77952  1.1695   1
 -12  10   9 38.7763 4.09874   1
 -12  10  10 0.52651 1.07008   1
 -12  11   0 73.1975 7.40308   1
 -12  11   1 0.41977 1.17965   1
 -12  11   2 44.1124 4.40638   1
 -12  11   3 6.79228 1.09354   1
 -12  11   4 14.0398 1.51824   1
 -12  11   5 11.0269 2.19584   1
 -12  11   6 20.8021 2.48519   1
 -12  11   7 1.31252 0.98636   1
 -12  11   8 17.7427 2.26257   1
 -11  -7   1 7.51103 1.18842   1
 -11  -7   2 15.7383 2.02934   1
 -11  -7   6  55.252 5.74525   1
 -11  -7   7 1.13547 1.36443   1
 -11  -7  14 9.10801 2.00759   1
 -11  -6   1  2.9729 0.65457   1
 -11  -6   2 0.76112 0.67847   1
 -11  -6   3  18.338 2.00041   1
 -11  -6   4 7.60817 1.14862   1
 -11  -6   5 49.8004 3.46785   1
 -11  -6   6 50.2823 5.45852   1
 -11  -6   7 27.9169 3.54798   1
 -11  -6  11 0.44819 1.04924   1
 -11  -6  13 0.90119 1.52275   1
 -11  -6  14 34.1699 4.09651   1
 -11  -6  15 0.87211 1.37026   1
 -11  -6  16 25.3629 3.36153   1
 -11  -5   1 21.8825 1.75464   1
 -11  -5   2 14.9636 1.72065   1
 -11  -5   3 29.1959 2.74835   1
 -11  -5   4 2.11088 1.86707   1
 -11  -5   5 45.2981 3.24304   1
 -11  -5   6 0.73463 0.77137   1
 -11  -5   7  79.915 4.68218   1
 -11  -5   8 1.24823 0.65241   1
 -11  -5   9  79.575 11.1187   1
 -11  -5  10 3.88164   1.009   1
 -11  -5  11 22.7921 2.35462   1
 -11  -5  12 -0.6393  1.1713   1
 -11  -5  13 2.02288 1.58477   1
 -11  -5  14 12.4221 2.35479   1
 -11  -5  15 15.1608 2.50217   1
 -11  -5  16 79.6715 7.99831   1
 -11  -5  17 28.0145 3.56732   1
 -11  -4   1-0.12565 0.81047   1
 -11  -4   2 25.1519  1.9026   1
 -11  -4   3 1.49982 0.50435   1
 -11  -4   4 30.8237  5.3244   1
 -11  -4   5 5.59811 0.92222   1
 -11  -4   6 79.5619 4.67774   1
 -11  -4   7 60.4016 4.22598   1
 -11  -4   8 54.1815  5.3072   1
 -11  -4   9 30.7686 6.31428   1
 -11  -4  10  2.7125 2.28004   1
 -11  -4  11  2.5837 0.94638   1
 -11  -4  12 0.73457  1.0148   1
 -11  -4  13 15.6948 1.61339   1
 -11  -4  14 7.38345  1.8976   1
 -11  -4  15 72.5654 4.92205   1
 -11  -4  16  2.3044  0.8055   1
 -11  -4  17 58.1594 6.05076   1
 -11  -3   1 38.8142 2.18913   1
 -11  -3   2 43.2857 3.55761   1
 -11  -3   3 24.6354 1.53364   1
 -11  -3   4 66.5878 5.42481   1
 -11  -3   5 14.0926 1.25946   1
 -11  -3   6 37.5147 2.47668   1
 -11  -3   7 2.97347 0.83232   1
 -11  -3   8 26.8852 2.97086   1
 -11  -3   9 0.03368 0.82537   1
 -11  -3  10 48.2212 3.53985   1
 -11  -3  11 0.18676 0.79352   1
 -11  -3  12 40.8237 3.66281   1
 -11  -3  13 9.77608  1.9101   1
 -11  -3  14 23.7096 2.05305   1
 -11  -3  15 30.5724 4.13958   1
 -11  -3  16 23.7091 2.03539   1
 -11  -3  17 19.6796 5.05938   1
 -11  -3  18 18.3612 6.18996   1
 -11  -2   1 31.2437  3.0949   1
 -11  -2   2 5.10161 0.67949   1
 -11  -2   3 102.446 5.17256   1
 -11  -2   4 1.08731  0.5392   1
 -11  -2   5 114.192 7.03238   1
 -11  -2   6 7.46266 0.90067   1
 -11  -2   7 33.7027 2.27912   1
 -11  -2   8 1.21975 0.70876   1
 -11  -2   9  3.4676 0.78398   1
 -11  -2  10 12.5781 1.19852   1
 -11  -2  11 24.0947 2.80004   1
 -11  -2  12 75.1659 5.14292   1
 -11  -2  13  42.135 4.92277   1
 -11  -2  14 45.5555 6.78358   1
 -11  -2  15 1.66165 1.69882   1
 -11  -2  16 20.7073  2.7252   1
 -11  -2  17 5.21785 0.93072   1
 -11  -2  18 54.3357 3.76813   1
 -11  -2  19 0.57331 0.88097   1
 -11  -1   1 25.5928 1.80646   1
 -11  -1   2 113.298 5.19186   1
 -11  -1   3 79.7758 4.19141   1
 -11  -1   4 38.8676  3.2068   1
 -11  -1   5 13.9159  1.2709   1
 -11  -1   6 3.98128 0.69963   1
 -11  -1   7 2.07299 0.72461   1
 -11  -1   8 9.88321 1.44131   1
 -11  -1   9  52.527 3.21148   1
 -11  -1  10 10.3724 1.10167   1
 -11  -1  11 96.7141 5.54236   1
 -11  -1  12 4.11617 0.81405   1
 -11  -1  13 49.9879  3.6354   1
 -11  -1  14 13.8123 1.50804   1
 -11  -1  15 42.5934  9.8986   1
 -11  -1  16 0.18245 0.76051   1
 -11  -1  17 28.0361 6.02645   1
 -11  -1  18 7.29032  1.2429   1
 -11  -1  19 10.0738 1.36531   1
 -11   0   1 22.8094  1.5525   1
 -11   0   2 105.246 5.29662   1
 -11   0   3 10.4762 0.78294   1
 -11   0   4 34.1838 2.26128   1
 -11   0   5 0.54869 0.41361   1
 -11   0   6 23.3157 2.00162   1
 -11   0   7-0.03594 1.10489   1
 -11   0   8 49.9496 3.73522   1
 -11   0   9 7.25832 1.81545   1
 -11   0  10 51.1995 3.16117   1
 -11   0  11 35.5611 2.36216   1
 -11   0  12 35.1176 2.35218   1
 -11   0  13 35.0474 2.38943   1
 -11   0  14  18.097 1.76967   1
 -11   0  15 32.1881 5.35617   1
 -11   0  16 7.20557 1.62831   1
 -11   0  17 32.0254 2.47703   1
 -11   0  18 9.63046  1.3988   1
 -11   0  19 11.7702 1.47198   1
 -11   1   0 5.91005 0.76419   1
 -11   1   1 51.2449 2.36845   1
 -11   1   2 5.98838 0.60214   1
 -11   1   3 43.5975 3.09496   1
 -11   1   4 13.6532 1.46589   1
 -11   1   5   39.28 2.24547   1
 -11   1   6 14.8654 1.46269   1
 -11   1   7 16.7474 1.42988   1
 -11   1   8 33.0282 2.22308   1
 -11   1   9 12.9299 1.42139   1
 -11   1  10 35.2716 2.32484   1
 -11   1  11 9.45926  2.2186   1
 -11   1  12 61.3875 5.92453   1
 -11   1  13 1.41553 0.66519   1
 -11   1  14 92.8165 5.24899   1
 -11   1  15 2.92542  1.6449   1
 -11   1  16 27.9004 3.19287   1
 -11   1  17 1.00486  0.9886   1
 -11   1  18 4.32039 1.11917   1
 -11   1  19 1.28692  0.9276   1
 -11   2   0 38.4286  2.3003   1
 -11   2   1 7.70221 0.65826   1
 -11   2   2 6.08713 0.60398   1
 -11   2   3 9.09369 0.70752   1
 -11   2   4 9.75017 0.72221   1
 -11   2   5 90.0749 3.96911   1
 -11   2   6 22.7934 2.37773   1
 -11   2   7 196.937 13.1816   1
 -11   2   8 1.11695 0.69229   1
 -11   2   9 37.3977 2.51638   1
 -11   2  10 20.0579 2.05135   1
 -11   2  11 16.0464 2.54729   1
 -11   2  12 13.2261 1.22837   1
 -11   2  13 51.9945 3.71607   1
 -11   2  14 3.44655 0.77612   1
 -11   2  15 44.7783 3.70807   1
 -11   2  16 7.91278 1.32265   1
 -11   2  17 8.51688 1.34092   1
 -11   2  18 26.1803 2.60603   1
 -11   2  19 -0.0325 0.85996   1
 -11   3   0  41.489 2.94272   1
 -11   3   1 0.61137 0.41356   1
 -11   3   2 70.8494 3.38001   1
 -11   3   3  1.1581  0.4283   1
 -11   3   4 43.6232 2.82596   1
 -11   3   5 0.48383 0.55823   1
 -11   3   6 13.4392 0.96868   1
 -11   3   7 24.7993 1.71642   1
 -11   3   8 60.7654 3.99708   1
 -11   3   9 60.5118 3.65249   1
 -11   3  10 76.3859 4.45984   1
 -11   3  11 49.2414 3.04225   1
 -11   3  12 5.78117 0.89934   1
 -11   3  13 28.0905 1.96826   1
 -11   3  14  1.0398 0.65961   1
 -11   3  15 12.8455 1.13855   1
 -11   3  16 2.21399 0.79676   1
 -11   3  17 36.7039 3.32054   1
 -11   3  18 0.87976 0.92987   1
 -11   3  19 46.6177  3.9705   1
 -11   4   0 20.5076 1.28117   1
 -11   4   1  69.391 3.10789   1
 -11   4   2 6.95706 0.62826   1
 -11   4   3 21.8158 1.34033   1
 -11   4   4 15.8013 1.06788   1
 -11   4   5 17.5142  1.4492   1
 -11   4   6 46.9201  2.3736   1
 -11   4   7 15.4379 1.05947   1
 -11   4   8 104.817 5.25803   1
 -11   4   9 1.59815 0.73007   1
 -11   4  10 123.456 6.98003   1
 -11   4  11 2.44589 0.78396   1
 -11   4  12  19.546 2.14369   1
 -11   4  13  2.9516 1.41285   1
 -11   4  14 5.01762 0.84117   1
 -11   4  15 0.32577 0.82013   1
 -11   4  16  41.695 6.35856   1
 -11   4  17 39.4893 5.66724   1
 -11   4  18 37.5514 3.35043   1
 -11   5   0 17.1335 1.20235   1
 -11   5   1 129.093 8.83594   1
 -11   5   2  8.5219 1.11739   1
 -11   5   3 184.988 8.49381   1
 -11   5   4 0.87529 0.49528   1
 -11   5   5 12.2516 0.92888   1
 -11   5   6 11.5866 0.91533   1
 -11   5   7 13.8951 0.99945   1
 -11   5   8 7.09205 0.79922   1
 -11   5   9 110.253 5.12753   1
 -11   5  10 7.04817 0.96516   1
 -11   5  11 62.1388 3.71829   1
 -11   5  12 23.7166 1.78106   1
 -11   5  13 3.58903  0.7976   1
 -11   5  14 30.5901 2.06729   1
 -11   5  15 1.25254 0.77011   1
 -11   5  16 22.1625  3.3542   1
 -11   5  17  2.3339 0.73933   1
 -11   5  18 25.3909 2.45695   1
 -11   6   0 14.1554 1.03385   1
 -11   6   1 9.35037  0.9224   1
 -11   6   2 3.95212 0.58723   1
 -11   6   3 11.4047 0.86898   1
 -11   6   4 126.936 6.80544   1
 -11   6   5 117.994 5.47757   1
 -11   6   6 124.455 5.76952   1
 -11   6   7 79.7336 4.26425   1
 -11   6   8 1.40136 0.55897   1
 -11   6   9 4.16069 0.68885   1
 -11   6  10 3.41486 1.24467   1
 -11   6  11 7.04039 1.23518   1
 -11   6  12 22.6567 2.31894   1
 -11   6  13 76.7782   5.085   1
 -11   6  14 5.41516 0.98175   1
 -11   6  15 75.6651 4.98408   1
 -11   6  16 32.6045 2.40489   1
 -11   6  17  5.3151 0.83201   1
 -11   7   0 37.2215 2.32649   1
 -11   7   1 14.6398 1.16585   1
 -11   7   2 43.3432   2.901   1
 -11   7   3 1.95491 0.59245   1
 -11   7   4 62.7354 3.83885   1
 -11   7   5 1.11167 0.64586   1
 -11   7   6 104.739 7.09959   1
 -11   7   7 1.80191 0.59093   1
 -11   7   8 44.5155 2.44587   1
 -11   7   9 3.45985   0.808   1
 -11   7  10 10.6381 0.92921   1
 -11   7  11 7.79112 1.87051   1
 -11   7  12  23.313 2.19975   1
 -11   7  13 42.6233  3.8948   1
 -11   7  14 29.0597 4.47524   1
 -11   7  15 18.2626 2.66719   1
 -11   7  16 8.64056 2.54506   1
 -11   8   0 1.06049 0.54881   1
 -11   8   1 32.7064  3.6526   1
 -11   8   2 5.55734  0.8889   1
 -11   8   3 87.3976 6.05021   1
 -11   8   4 14.6986 1.42802   1
 -11   8   5 61.4776 3.76027   1
 -11   8   6 14.4921 1.33953   1
 -11   8   7 12.0557 1.19518   1
 -11   8   8  12.861 1.83387   1
 -11   8   9 15.1451 1.53866   1
 -11   8  10 16.5449 1.36675   1
 -11   8  11 15.6095 1.30226   1
 -11   8  12 27.7801  2.1623   1
 -11   8  13 0.48929  0.7427   1
 -11   8  14 41.7129 7.79566   1
 -11   8  15  2.0888 1.10539   1
 -11   9   0 80.7288 5.84028   1
 -11   9   1 83.2531 4.89574   1
 -11   9   2 35.0191 2.33691   1
 -11   9   3 53.8394 3.35651   1
 -11   9   4 0.79127  0.6975   1
 -11   9   5 6.13004 1.08708   1
 -11   9   6 4.54163 0.86221   1
 -11   9   7 11.7974 3.09209   1
 -11   9   8 8.52699 1.30004   1
 -11   9   9 99.9918  9.7185   1
 -11   9  10 2.04949 1.70455   1
 -11   9  11 66.9297 6.62803   1
 -11   9  12  10.158 1.85501   1
 -11   9  13 4.43011 1.46957   1
 -11   9  14 8.31663 1.57593   1
 -11  10   0  104.53 9.94226   1
 -11  10   1 3.31126 0.75168   1
 -11  10   2 91.2284 5.32511   1
 -11  10   3 1.45423 0.79774   1
 -11  10   4 17.8068 1.49739   1
 -11  10   5 0.70164  0.7097   1
 -11  10   6 11.6343 1.48604   1
 -11  10   7 3.78741 1.22506   1
 -11  10   8 43.3718 5.21375   1
 -11  10   9 12.4642 2.09997   1
 -11  10  10 20.5249 1.99029   1
 -11  10  11 21.3617 2.78141   1
 -11  10  12 5.02703 1.42784   1
 -11  11   0 12.6187 1.66584   1
 -11  11   1 18.1028 1.85547   1
 -11  11   2 7.58097  1.2372   1
 -11  11   3 16.4371 1.78464   1
 -11  11   4 7.96448 2.81734   1
 -11  11   5 39.1744 3.17121   1
 -11  11   6  14.379 2.00942   1
 -11  11   7 7.24013  1.7305   1
 -11  11   8 29.7796 7.33333   1
 -11  11   9-0.19366  1.0773   1
 -11  11  11-0.06018 1.05352   1
 -11  12   0 10.3795 2.12806   1
 -11  12   1 33.7813 4.06892   1
 -11  12   2 6.90999  1.8424   1
 -11  12   3 15.8377 2.59461   1
 -11  12   4-0.04413 1.09564   1
 -11  12   5 23.9188 6.37893   1
 -11  12   6 0.14077 0.77194   1
 -11  12   7 24.3074  2.7916   1
 -11  12   8 0.48538 0.88097   1
 -11  12   9 12.1744 1.75639   1
 -11  13   0 0.98436 1.22051   1
 -11  13   1 0.93199 1.26331   1
 -11  13   2 45.2755  4.9895   1
 -11  13   3 4.72738  1.5964   1
 -11  13   5 4.29667  1.1467   1
 -10  -9   1 0.97639 0.77391   1
 -10  -9   4 24.7891 2.52401   1
 -10  -9   6 18.6278 2.14898   1
 -10  -9   7 33.0157 3.09637   1
 -10  -9   8 12.7172 1.61027   1
 -10  -9   9 30.9794 2.91868   1
 -10  -9  10 2.14452 0.94075   1
 -10  -9  11  51.141 4.35343   1
 -10  -9  12 3.04812 0.93319   1
 -10  -9  13 26.1201 2.52494   1
 -10  -9  14-0.72655 0.68994   1
 -10  -9  15 12.4058 1.46398   1
 -10  -8   3 2.32433 1.00196   1
 -10  -8   4 29.7157 2.85834   1
 -10  -8   5  9.6252 1.43405   1
 -10  -8   6 85.7681 6.97708   1
 -10  -8   7 0.63387 0.85063   1
 -10  -8   8 102.976 8.29934   1
 -10  -8   9 2.41338 0.91209   1
 -10  -8  10 11.7648 1.48738   1
 -10  -8  11 4.20318  1.0643   1
 -10  -8  12 4.35481 1.02229   1
 -10  -8  13   17.52 2.01039   1
 -10  -8  14 31.5579 2.91076   1
 -10  -8  15 25.8518 2.51402   1
 -10  -8  16 26.3189 2.49382   1
 -10  -8  17  26.075 2.43098   1
 -10  -7   5 80.0816 6.59199   1
 -10  -7   6 34.5629 3.23277   1
 -10  -7   7 36.0927 3.34915   1
 -10  -7   8  6.0084 1.21407   1
 -10  -7   9 5.40449 1.14746   1
 -10  -7  10 10.4145 1.42824   1
 -10  -7  11 6.79981 1.23945   1
 -10  -7  12 52.9065 4.51248   1
 -10  -7  13 2.83536 0.88333   1
 -10  -7  14  64.573 5.35212   1
 -10  -7  15 2.72886 0.86907   1
 -10  -7  16 56.3012 4.69198   1
 -10  -7  17 1.32896 0.76694   1
 -10  -7  18 22.9727 1.94176   1
 -10  -6   1 10.6459 1.76953   1
 -10  -6   2  30.205 5.54629   1
 -10  -6   3 109.265 8.78334   1
 -10  -6   4 35.6869 3.23786   1
 -10  -6   5 70.4316 5.80823   1
 -10  -6   6 2.30724 0.85258   1
 -10  -6   8-0.55189 0.84456   1
 -10  -6   9 21.4415 2.31708   1
 -10  -6  10-0.34733 0.76736   1
 -10  -6  11 79.1169 6.54165   1
 -10  -6  12 16.6092 1.87753   1
 -10  -6  13 51.8029 4.43748   1
 -10  -6  14  31.181 2.92729   1
 -10  -6  15 18.4868 2.04904   1
 -10  -6  16 24.8392 2.41096   1
 -10  -6  17 19.1118 1.99999   1
 -10  -6  18 26.6838 4.61826   1
 -10  -6  19 23.2926 2.21997   1
 -10  -5   1   18.77 1.56551   1
 -10  -5   2 66.1676 8.57592   1
 -10  -5   3 0.51396  0.8948   1
 -10  -5   4 95.7249 7.78396   1
 -10  -5   5 15.1754  1.7453   1
 -10  -5   6  59.921 7.77271   1
 -10  -5   7 9.90349 1.31907   1
 -10  -5   8 11.7641 1.49796   1
 -10  -5   9 5.98927 1.06968   1
 -10  -5  10 13.8721 1.67061   1
 -10  -5  11 17.6233 1.93192   1
 -10  -5  12 29.5805 2.84961   1
 -10  -5  14 15.6614 1.89566   1
 -10  -5  15 113.299 9.11307   1
 -10  -5  16 0.86392 0.74355   1
 -10  -5  17 45.2217 9.96633   1
 -10  -5  18 3.26667 1.40621   1
 -10  -5  19  7.3272 1.61366   1
 -10  -4   1 93.8848 5.81714   1
 -10  -4   2 44.8745 2.45548   1
 -10  -4   3 28.7821 1.87622   1
 -10  -4   4 1.23523 0.56213   1
 -10  -4   5 7.10489 1.29944   1
 -10  -4   6 13.1075 1.56563   1
 -10  -4   7 17.7739 2.02441   1
 -10  -4   8 123.498 9.94051   1
 -10  -4   9 8.20874 1.21407   1
 -10  -4  10 80.8516 6.68216   1
 -10  -4  11 2.42929 0.97474   1
 -10  -4  12 17.8669 1.98358   1
 -10  -4  13 7.42191 1.27209   1
 -10  -4  14 49.6962 4.30695   1
 -10  -4  15 9.25278 1.36961   1
 -10  -4  16 83.3588 19.3787   1
 -10  -4  17 14.8678 2.46316   1
 -10  -4  18 22.2065 2.95511   1
 -10  -3   1 97.2164 5.43837   1
 -10  -3   2 7.49097 0.77238   1
 -10  -3   3 13.5227 1.93282   1
 -10  -3   4 0.42942 0.64601   1
 -10  -3   5 29.6589 3.28584   1
 -10  -3   6-0.33975 0.71762   1
 -10  -3   7 69.5746 10.3791   1
 -10  -3   8  12.917 1.36792   1
 -10  -3   9 50.5045  6.9165   1
 -10  -3  10 22.5406 6.50829   1
 -10  -3  11 42.0565 3.81014   1
 -10  -3  12 30.7991 3.02068   1
 -10  -3  13 35.3857 3.33556   1
 -10  -3  14  47.637 4.23311   1
 -10  -3  15 12.1735 1.43842   1
 -10  -3  16 37.6813 6.40221   1
 -10  -3  17 0.11061 0.75231   1
 -10  -3  18 20.8534 1.82487   1
 -10  -3  19 0.82828 0.85919   1
 -10  -2   1  30.711 2.09219   1
 -10  -2   2  109.57 5.54855   1
 -10  -2   3 12.5588 1.64928   1
 -10  -2   4 30.1359 1.65511   1
 -10  -2   5 1.02765 0.53349   1
 -10  -2   6 9.30524  1.0338   1
 -10  -2   7 10.9338 1.20534   1
 -10  -2   8 32.8297 3.19773   1
 -10  -2   9 112.858 20.3209   1
 -10  -2  10 19.1327 2.50445   1
 -10  -2  11 206.309 11.5554   1
 -10  -2  12 1.98031 0.92224   1
 -10  -2  13 52.3921  4.0276   1
 -10  -2  14 1.46581 0.87573   1
 -10  -2  15  2.7794 1.12015   1
 -10  -2  16 2.45721 1.02146   1
 -10  -2  17 29.5714 2.53971   1
 -10  -2  18 2.76942 1.10122   1
 -10  -2  19 82.8585 6.74228   1
 -10  -2  20 66.0794 5.45732   1
 -10  -2  21 18.5574   1.952   1
 -10  -1   1 17.3688 1.30703   1
 -10  -1   2 52.6913 2.60427   1
 -10  -1   3 21.7951 1.46343   1
 -10  -1   4 195.202 10.2945   1
 -10  -1   5 7.34816 0.86203   1
 -10  -1   6 38.0565 2.14495   1
 -10  -1   7 1.31358 0.64267   1
 -10  -1   8 6.39989 0.88401   1
 -10  -1   9 3.55152 1.04633   1
 -10  -1  10 130.402 7.38176   1
 -10  -1  11 17.1213 1.43486   1
 -10  -1  12 191.953 10.7022   1
 -10  -1  13 28.4786 3.45638   1
 -10  -1  14 16.7792 2.99879   1
 -10  -1  15 10.6644 3.00173   1
 -10  -1  16 2.78346 1.23529   1
 -10  -1  17 15.6556  1.5308   1
 -10  -1  18 4.53371  1.1484   1
 -10  -1  19  57.851 4.90341   1
 -10  -1  20  25.578 2.60727   1
 -10  -1  21 57.4086 4.81415   1
 -10   0   1 25.2224 1.76947   1
 -10   0   2 7.20388 0.82433   1
 -10   0   3 29.3747  2.3169   1
 -10   0   4 4.45957 0.63749   1
 -10   0   5 105.214  5.2753   1
 -10   0   6 51.4022 2.88047   1
 -10   0   7 136.116 6.73121   1
 -10   0   8 76.5486 4.48658   1
 -10   0   9 20.0938 2.02802   1
 -10   0  10 52.3075 3.19942   1
 -10   0  11 1.34943 0.69153   1
 -10   0  12 24.7451 1.82867   1
 -10   0  13 12.2625 1.33761   1
 -10   0  14 35.9101 5.34169   1
 -10   0  15  12.031 1.37164   1
 -10   0  16 78.6214  5.2942   1
 -10   0  17 3.71756 1.17503   1
 -10   0  18 39.8529 3.60921   1
 -10   0  19 34.9921 3.26735   1
 -10   0  20 17.2822 1.92234   1
 -10   0  21 16.0067 1.80853   1
 -10   1   0 66.2819 3.47983   1
 -10   1   1 31.5088 1.56382   1
 -10   1   2 15.3101 1.04982   1
 -10   1   3  5.8196 0.55852   1
 -10   1   4 9.62509 1.25229   1
 -10   1   5 45.9985 2.49435   1
 -10   1   6 12.5476 0.98754   1
 -10   1   7 254.985 18.6459   1
 -10   1   8 14.8834  2.4883   1
 -10   1   9 134.488  7.5886   1
 -10   1  10 0.12342 0.63008   1
 -10   1  11 3.31574 0.73595   1
 -10   1  12 2.33485 0.70311   1
 -10   1  13 20.2284 1.57147   1
 -10   1  14  13.586 1.20916   1
 -10   1  15 91.8512  6.6972   1
 -10   1  16 31.2276 2.49883   1
 -10   1  17 28.0494 2.84236   1
 -10   1  18 24.0766 2.56038   1
 -10   1  19 2.77071 1.05678   1
 -10   1  20 15.9457 1.79973   1
 -10   1  21 0.07182 0.92878   1
 -10   2   0 43.6171 3.09805   1
 -10   2   1 16.1119 0.95183   1
 -10   2   2 23.4187 1.54619   1
 -10   2   3 0.70778 0.37355   1
 -10   2   4 103.585  4.7914   1
 -10   2   5 5.72236 0.62319   1
 -10   2   6 171.414 11.8603   1
 -10   2   7 37.8686 2.50478   1
 -10   2   8 62.0365 3.25128   1
 -10   2   9 30.5387  2.3041   1
 -10   2  10 25.7004 1.85369   1
 -10   2  11    1.84 0.70417   1
 -10   2  12 18.4084 2.67937   1
 -10   2  13 13.9622 1.25204   1
 -10   2  14 5.76128  0.8684   1
 -10   2  15 99.1701 6.58883   1
 -10   2  16 3.09193  1.1008   1
 -10   2  17 86.3039 7.06589   1
 -10   2  18 1.81705  1.0561   1
 -10   2  19 27.1501 2.75022   1
 -10   2  20 2.04395 1.01754   1
 -10   2  21 21.4927 2.25852   1
 -10   3   0 18.2842 1.25828   1
 -10   3   1 87.2444  4.9763   1
 -10   3   2 26.5095 1.46343   1
 -10   3   3 67.4873 3.02977   1
 -10   3   4 46.5764 2.28748   1
 -10   3   5 27.8671 2.91105   1
 -10   3   6 70.9699 3.65039   1
 -10   3   7 35.1161 2.01853   1
 -10   3   8 34.9881 2.00476   1
 -10   3   9  18.257  1.2752   1
 -10   3  10 48.2222 3.01013   1
 -10   3  11 0.59432  0.6564   1
 -10   3  12  100.91 5.79834   1
 -10   3  13 0.81451 0.68329   1
 -10   3  14 27.0949 1.92681   1
 -10   3  15  3.1922 0.89625   1
 -10   3  16 11.5667 1.26583   1
 -10   3  17  32.252 3.11821   1
 -10   3  18 63.0464  5.3135   1
 -10   3  19 31.2804 3.03309   1
 -10   3  20 40.2897 3.56914   1
 -10   3  21 7.70386 1.31474   1
 -10   4   0 28.6178 1.44739   1
 -10   4   1 48.8292 3.78344   1
 -10   4   2 34.0797 1.78998   1
 -10   4   3 417.296  19.072   1
 -10   4   4 10.8929 0.84215   1
 -10   4   5 108.602 5.44672   1
 -10   4   6  1.9767 0.55069   1
 -10   4   7 1.94419 0.57254   1
 -10   4   8 5.68473 0.72762   1
 -10   4   9 46.5047 3.38613   1
 -10   4  10 0.79484 0.68293   1
 -10   4  11 131.802 13.0322   1
 -10   4  12 13.5004 1.25179   1
 -10   4  13 25.9691 2.86599   1
 -10   4  14 64.3476 3.96878   1
 -10   4  15 3.16143 0.92877   1
 -10   4  16 54.3309 3.75767   1
 -10   4  17 4.33505 0.87348   1
 -10   4  18 28.2908 2.81704   1
 -10   4  19 3.98539  1.0931   1
 -10   4  20 19.7116 2.15934   1
 -10   5   0  245.50 10.8938   1
 -10   5   1 11.8917 0.79509   1
 -10   5   2  79.167 3.88795   1
 -10   5   3 7.69477 0.84842   1
 -10   5   4 12.6284 0.92935   1
 -10   5   5 11.8691 0.89394   1
 -10   5   6 93.6888 4.75168   1
 -10   5   7 10.9775 1.16407   1
 -10   5   8 74.2513 5.76252   1
 -10   5   9 43.3086 2.40271   1
 -10   5  10   0.885  0.5684   1
 -10   5  11 82.1793 6.52355   1
 -10   5  12 1.11085 0.72119   1
 -10   5  13 47.7352  6.1443   1
 -10   5  14  8.5337 1.17957   1
 -10   5  15 42.6443 3.11205   1
 -10   5  16 2.56609 1.05707   1
 -10   5  17  55.841 3.80541   1
 -10   5  18 11.8947 3.02414   1
 -10   5  19 20.6087 2.21426   1
 -10   6   0 28.6276 1.44951   1
 -10   6   1 72.2475 5.16246   1
 -10   6   2 211.653 9.69995   1
 -10   6   3 66.7847 3.23773   1
 -10   6   4 59.9141 2.92071   1
 -10   6   5 0.53077 0.45769   1
 -10   6   6 8.07682 0.92663   1
 -10   6   7 3.43936 0.69931   1
 -10   6   8 61.5486 3.87359   1
 -10   6   9 14.4811 1.53641   1
 -10   6  10  72.269 4.37981   1
 -10   6  11 0.43018 0.70297   1
 -10   6  12 34.5268  2.8461   1
 -10   6  13 80.6923 9.54315   1
 -10   6  14 51.8468 3.64196   1
 -10   6  15 56.1898 9.72661   1
 -10   6  16 21.9734 4.11753   1
 -10   6  17-0.34458 1.06603   1
 -10   6  18 2.10319   1.213   1
 -10   7   0  0.9936  0.5362   1
 -10   7   1 5.04645 0.71218   1
 -10   7   2-0.12512 1.03499   1
 -10   7   3 8.27789 0.87345   1
 -10   7   4 0.65014 0.52566   1
 -10   7   5 242.543 13.8267   1
 -10   7   6 1.59316 0.57422   1
 -10   7   7 95.1794 6.03509   1
 -10   7   8 15.7432 2.20902   1
 -10   7   9 1.91575 0.80185   1
 -10   7  10 53.9154 6.54457   1
 -10   7  11 5.24968 1.47559   1
 -10   7  12 45.1135 5.50646   1
 -10   7  13   33.09 11.0214   1
 -10   7  14 15.9739 2.34203   1
 -10   7  15 0.16454 0.74452   1
 -10   7  16 35.1078 2.56212   1
 -10   7  17 0.67658 1.14964   1
 -10   7  18 20.4218 2.52793   1
 -10   8   0 49.8655  3.1333   1
 -10   8   1 19.3528 2.79223   1
 -10   8   2 56.7999 3.52853   1
 -10   8   3 17.0031 1.81536   1
 -10   8   4  23.112  3.1017   1
 -10   8   5 26.5356 2.41487   1
 -10   8   6 2.31092 0.85359   1
 -10   8   7 47.4848   2.789   1
 -10   8   8 15.8681 2.35993   1
 -10   8   9 41.7761  4.4289   1
 -10   8  10 2.11268 0.63938   1
 -10   8  11 62.7181 3.23721   1
 -10   8  12 20.3505 2.79413   1
 -10   8  13  61.916 12.0751   1
 -10   8  14 6.05174 1.97148   1
 -10   8  15 13.2739 4.27763   1
 -10   8  16 0.74091 1.15169   1
 -10   8  17 7.25883 1.55889   1
 -10   9   0 64.7899 3.92152   1
 -10   9   1  6.3357 0.91925   1
 -10   9   2 11.4551 2.12907   1
 -10   9   3 2.34073 0.75685   1
 -10   9   4 31.7875 3.29921   1
 -10   9   5 9.02689 1.19898   1
 -10   9   6  63.214  3.8528   1
 -10   9   7 4.06007 1.23756   1
 -10   9   8 70.1058 4.21809   1
 -10   9   9 70.1306 4.20584   1
 -10   9  10 41.2901   3.379   1
 -10   9  11 20.3951 3.76694   1
 -10   9  12 5.40575 1.18366   1
 -10   9  13 1.01522 0.78327   1
 -10   9  14 3.81949 0.83725   1
 -10   9  15 12.5672 1.89204   1
 -10   9  16 9.99204 1.69475   1
 -10  10   0 3.01356 0.77568   1
 -10  10   1 202.194 11.4409   1
 -10  10   2 5.81663 1.00201   1
 -10  10   3 35.4947  3.4784   1
 -10  10   4  3.6418  1.0981   1
 -10  10   5 2.44001 1.17032   1
 -10  10   6 17.9622  2.8571   1
 -10  10   7 18.6697 3.09141   1
 -10  10   8 75.2648 4.47184   1
 -10  10   9 39.7626 3.23235   1
 -10  10  10 61.5001 4.62315   1
 -10  10  11-0.05065 1.25293   1
 -10  10  12 15.8688 2.32045   1
 -10  10  13 1.80042 1.32933   1
 -10  10  14 4.29154 1.19905   1
 -10  11   0  19.271 2.19623   1
 -10  11   1 16.8444 1.44537   1
 -10  11   2 22.2663 1.73792   1
 -10  11   3 50.4973  4.9909   1
 -10  11   4 15.8529  1.9456   1
 -10  11   5 57.6085 4.36561   1
 -10  11   6 0.30982 0.77446   1
 -10  11   7 36.8106 10.3502   1
 -10  11   8 9.84195 1.38053   1
 -10  11   9 30.6814 3.00328   1
 -10  11  10 0.06298 1.19623   1
 -10  11  11 21.3327 2.73641   1
 -10  11  12 0.32005 1.11226   1
 -10  11  13 12.5908 1.78791   1
 -10  12   0 4.25162 1.06825   1
 -10  12   1 0.61547 0.85308   1
 -10  12   2 27.5303 2.72576   1
 -10  12   3 3.88145  0.8223   1
 -10  12   4 111.921 8.31653   1
 -10  12   5 32.3787  2.7525   1
 -10  12   6 42.7071 5.11473   1
 -10  12   7 12.0074 1.41978   1
 -10  12   8-0.55841 1.06029   1
 -10  12   9 1.46018 0.97204   1
 -10  12  10 1.83226 1.00861   1
 -10  12  11 10.8128 1.61947   1
 -10  13   0 3.84545 1.53669   1
 -10  13   1 5.41344 1.78643   1
 -10  13   2 13.8403   2.465   1
 -10  13   3 6.17723 1.78837   1
 -10  13   4 44.4437 7.09577   1
 -10  13   5 12.7094  2.9384   1
 -10  13   6 54.7944 4.07977   1
 -10  13   7 7.53383 1.45945   1
 -10  13   8 16.4333 2.24959   1
 -10  13   9 0.11785 1.02271   1
 -10  14   0 4.37888 1.66897   1
 -10  14   1 59.8012 6.28025   1
 -10  14   2-0.71689 1.30084   1
 -10  14   3 52.7177 5.61804   1
  -9 -11   5 84.0665 6.79326   1
  -9 -11   6-0.25601 0.83445   1
  -9 -11   7 63.8447 5.29676   1
  -9 -11   8 5.29406 1.11958   1
  -9 -11   9  17.878  1.9445   1
  -9 -11  10 3.09241 0.97613   1
  -9 -11  11 11.2926  1.4418   1
  -9 -11  12 5.93211 1.07644   1
  -9 -11  13 19.9705 2.11551   1
  -9 -11  14 19.5447 2.03787   1
  -9 -10   1  0.7303 0.97244   1
  -9 -10   2 49.9585 4.34237   1
  -9 -10   3 3.75354 1.14852   1
  -9 -10   4 71.2409 5.90388   1
  -9 -10   5 11.2069 1.51581   1
  -9 -10   6 33.3394 3.14846   1
  -9 -10   7 23.9122 2.48884   1
  -9 -10   8 6.68774 1.22872   1
  -9 -10   9 37.2474 3.39692   1
  -9 -10  10 2.03136 0.97768   1
  -9 -10  11 21.2186 2.27567   1
  -9 -10  12 0.85461 0.91228   1
  -9 -10  13  30.438 2.88669   1
  -9 -10  14 1.05427 0.85699   1
  -9 -10  15 43.7207 3.77927   1
  -9 -10  16 2.35225 0.85039   1
  -9 -10  17 63.8277 5.19045   1
  -9  -9   1 60.6618 5.15293   1
  -9  -9   2 117.411 9.44171   1
  -9  -9   3 20.9734 2.27595   1
  -9  -9   4 22.4652  2.5277   1
  -9  -9   5 4.24837  1.1265   1
  -9  -9   6 4.05073 1.11095   1
  -9  -9   7 2.58762 1.04819   1
  -9  -9   8 50.2046 4.37771   1
  -9  -9   9 2.05149 0.96356   1
  -9  -9  10 105.042 8.49835   1
  -9  -9  11 11.2415 1.53961   1
  -9  -9  12 20.4126 2.30776   1
  -9  -9  13  6.0532 1.13459   1
  -9  -9  14 10.4065  1.4069   1
  -9  -9  15 17.8962  2.0525   1
  -9  -9  16 55.1863 4.65138   1
  -9  -9  17   52.06  4.3704   1
  -9  -9  18 21.3124 2.16283   1
  -9  -9  19 25.3445  2.3477   1
  -9  -8   1 102.863 8.36024   1
  -9  -8   2 2.13394 1.09574   1
  -9  -8   3 110.375 8.93731   1
  -9  -8   4 4.43407 1.14349   1
  -9  -8   5 34.2104 3.27158   1
  -9  -8   6 1.95382  0.9805   1
  -9  -8   7 8.06137 1.30822   1
  -9  -8   8 5.93473 1.19169   1
  -9  -8   9 26.6724 2.70491   1
  -9  -8  10 40.7958 3.72569   1
  -9  -8  11 26.9056 2.69119   1
  -9  -8  12 111.344 9.00135   1
  -9  -8  13 12.9549 1.64193   1
  -9  -8  14 68.1935 5.68597   1
  -9  -8  15 0.53563 0.80369   1
  -9  -8  16 16.8663 1.96692   1
  -9  -8  17 0.95368 0.79016   1
  -9  -8  18 27.6969 2.62522   1
  -9  -8  19 0.20486 0.65062   1
  -9  -8  20 43.7695 3.69826   1
  -9  -7   1 2.45634 1.62641   1
  -9  -7   2 30.8831 2.26223   1
  -9  -7   3  40.318 3.72001   1
  -9  -7   4 21.2161 2.38534   1
  -9  -7   5 113.706 9.22464   1
  -9  -7   6 14.7152 1.79301   1
  -9  -7   7  17.271 1.95656   1
  -9  -7   8  1.9006 0.96364   1
  -9  -7   9 2.64935 1.00937   1
  -9  -7  10 0.04944 0.88051   1
  -9  -7  11 82.8335 6.84186   1
  -9  -7  12 3.85526 1.03718   1
  -9  -7  13 205.475 16.3342   1
  -9  -7  14 31.4392   2.989   1
  -9  -7  15 43.2789 3.83611   1
  -9  -7  16 9.10928 1.35708   1
  -9  -7  17 1.54176 0.82989   1
  -9  -7  18 0.70891 0.75883   1
  -9  -7  19 3.66423 0.88118   1
  -9  -7  20 36.1399 3.18433   1
  -9  -7  21 33.3065 2.92851   1
  -9  -6   1 4.55809 0.66614   1
  -9  -6   2 10.4995 0.88652   1
  -9  -6   3 16.6223 3.17697   1
  -9  -6   4 36.6245 6.56118   1
  -9  -6   5 1.87692 1.20015   1
  -9  -6   6 136.982 8.09843   1
  -9  -6   7  22.593 2.39901   1
  -9  -6   8 68.5263 5.77736   1
  -9  -6   9   10.76 1.48602   1
  -9  -6  10 10.7872 1.50851   1
  -9  -6  11 31.3944 3.01806   1
  -9  -6  12 38.1208 3.52693   1
  -9  -6  13 76.0711 6.34308   1
  -9  -6  14 49.2069 4.29389   1
  -9  -6  15 40.6397 3.66726   1
  -9  -6  16 7.76245 1.22361   1
  -9  -6  17 23.3689 2.36537   1
  -9  -6  18 0.91817 0.73886   1
  -9  -6  19 26.9941 2.56624   1
  -9  -6  20 4.06126  0.8588   1
  -9  -6  21 45.2301 3.83711   1
  -9  -6  22 4.88245 0.86949   1
  -9  -5   1 71.3726 6.64435   1
  -9  -5   2 32.8032 2.33369   1
  -9  -5   3 28.5289 2.07841   1
  -9  -5   4 15.6526 2.75471   1
  -9  -5   5  9.0596 0.96288   1
  -9  -5   6 3.38362 1.65436   1
  -9  -5   7 13.8252 1.59858   1
  -9  -5   8 119.132 7.08406   1
  -9  -5   9 59.1912 3.69744   1
  -9  -5  10 247.068 14.4535   1
  -9  -5  11 15.7634  1.3225   1
  -9  -5  12 32.7232 3.11737   1
  -9  -5  13 9.58162 1.34738   1
  -9  -5  14 9.51985 1.37219   1
  -9  -5  15 7.57383 1.24224   1
  -9  -5  16 70.1345 5.83669   1
  -9  -5  17 1.91883 0.83351   1
  -9  -5  18 57.8504 4.85305   1
  -9  -5  19  12.396 1.49388   1
  -9  -5  20 8.98417 1.21075   1
  -9  -5  22 3.09994 0.74542   1
  -9  -4   1 75.7865 4.78478   1
  -9  -4   2 44.3385 3.81131   1
  -9  -4   3 3.94046 1.22115   1
  -9  -4   4  6.2505 1.89483   1
  -9  -4   5 30.3731  3.3109   1
  -9  -4   6 -0.1953 0.75729   1
  -9  -4   7 202.566 16.2027   1
  -9  -4   8 12.4401 1.27938   1
  -9  -4   9 171.281 13.7378   1
  -9  -4  10 52.0079 3.29737   1
  -9  -4  11 37.3951  6.6122   1
  -9  -4  12 2.68543 0.98684   1
  -9  -4  13 17.1973 1.48034   1
  -9  -4  14 0.74838 0.70728   1
  -9  -4  15 21.0626  1.6332   1
  -9  -4  16   89.27   7.278   1
  -9  -4  17 16.6717 1.86943   1
  -9  -4  18 127.666 8.32602   1
  -9  -4  19 1.76683 0.74148   1
  -9  -4  20 24.9662 2.41002   1
  -9  -4  21 1.78224 0.63853   1
  -9  -4  22 13.6906 1.57434   1
  -9  -3   1 13.4784 1.10387   1
  -9  -3   2 93.6984 10.4694   1
  -9  -3   3 34.1509 2.14782   1
  -9  -3   4 49.9782  4.3511   1
  -9  -3   5 1.15149 0.53379   1
  -9  -3   6 19.3053 3.12353   1
  -9  -3   7  42.927 8.80761   1
  -9  -3   8  86.557  17.395   1
  -9  -3   9 130.947 21.1838   1
  -9  -3  10 106.033 8.66271   1
  -9  -3  11 72.4753 6.09406   1
  -9  -3  12 2.22126 0.97194   1
  -9  -3  13 38.3819  3.5288   1
  -9  -3  14 5.82676  1.1433   1
  -9  -3  15 30.9044 2.97439   1
  -9  -3  16 0.14563 0.88504   1
  -9  -3  17 34.3035 2.67912   1
  -9  -3  18  3.0738  1.0491   1
  -9  -2   1 18.5879 1.81018   1
  -9  -2   2 13.8144 1.37618   1
  -9  -2   3 28.4298 2.07909   1
  -9  -2   4 185.438 11.3107   1
  -9  -2   5 66.4544 3.75903   1
  -9  -2   6 453.322 26.0604   1
  -9  -2   7 9.42109 1.29133   1
  -9  -2   8 28.4484 2.19303   1
  -9  -2   9 21.6201  1.8003   1
  -9  -2  10 4.55008 1.22384   1
  -9  -2  11 1.52901 0.67515   1
  -9  -2  12 134.482 10.8848   1
  -9  -2  13 2.59571 0.98868   1
  -9  -2  14 125.337 10.1414   1
  -9  -2  15 24.8442 2.18677   1
  -9  -2  16 8.48502 1.63459   1
  -9  -2  17 79.4629 5.37099   1
  -9  -2  18  3.4183  1.1228   1
  -9  -2  19 62.8451 5.31565   1
  -9  -2  20  13.257 1.65335   1
  -9  -2  21 35.6699 3.32946   1
  -9  -1   1 142.053 7.14791   1
  -9  -1   2 6.40972 0.67014   1
  -9  -1   3 229.048 17.7382   1
  -9  -1   4 2.38598 0.58035   1
  -9  -1   5 44.8852 5.26202   1
  -9  -1   6 12.9438 1.01259   1
  -9  -1   7 78.4535  4.3536   1
  -9  -1   8 8.56952 0.99653   1
  -9  -1   9 146.294 17.3699   1
  -9  -1  10 21.7309 4.55776   1
  -9  -1  11 17.5262 1.59526   1
  -9  -1  12 103.771 10.2475   1
  -9  -1  13 1.56309 0.85944   1
  -9  -1  14 66.3271 4.61402   1
  -9  -1  15 10.0981  1.2852   1
  -9  -1  16 24.0007 2.20123   1
  -9  -1  17 11.3479 1.59537   1
  -9  -1  18 73.1915 6.10836   1
  -9  -1  19 11.3202  1.5843   1
  -9  -1  20 96.7877  7.8311   1
  -9  -1  21 24.2835 2.54021   1
  -9  -1  22  16.164 1.85932   1
  -9   0   1 4.22119 0.52925   1
  -9   0   2 125.134 7.40859   1
  -9   0   3 197.323  11.763   1
  -9   0   4 198.551 15.8873   1
  -9   0   5 225.699 12.2222   1
  -9   0   6 32.0701 1.84046   1
  -9   0   7 16.1873 1.13408   1
  -9   0   8 7.49849 0.88947   1
  -9   0   9 24.1145 5.69713   1
  -9   0  10 9.62083  2.4922   1
  -9   0  11 92.0062 5.33707   1
  -9   0  12 28.9093 2.00323   1
  -9   0  13 90.7509 5.21804   1
  -9   0  14 25.5847 2.54408   1
  -9   0  15 75.7426 8.50853   1
  -9   0  16 102.426 6.81941   1
  -9   0  17 57.6773 4.98072   1
  -9   0  18 19.6935 2.29616   1
  -9   0  19 11.5124 1.56836   1
  -9   0  20  1.1383 1.04852   1
  -9   0  21 4.51063 1.22459   1
  -9   0  22 22.4962 2.46563   1
  -9   1   0 193.455 8.91934   1
  -9   1   1  22.895 1.42628   1
  -9   1   2 170.738 12.2829   1
  -9   1   3 5.76094 0.84076   1
  -9   1   4 32.0874 1.81896   1
  -9   1   5 0.54821 0.50414   1
  -9   1   6 127.611 6.37625   1
  -9   1   7 0.86741 0.45572   1
  -9   1   8 194.493 20.4828   1
  -9   1   9 2.82808 0.67804   1
  -9   1  10 23.5656 1.70325   1
  -9   1  11 43.9679 2.77226   1
  -9   1  12 7.25426 0.89914   1
  -9   1  13 60.0927  3.6061   1
  -9   1  14 50.3113 3.73875   1
  -9   1  15 67.9418 4.66489   1
  -9   1  16 23.5536 2.57434   1
  -9   1  17 66.5675 5.62657   1
  -9   1  18  0.8403 1.03866   1
  -9   1  19 29.5226 2.94138   1
  -9   1  20 0.96198  1.0506   1
  -9   1  21 10.9727 1.54967   1
  -9   1  22 2.01354 1.07984   1
  -9   2   0 1.24227 0.39535   1
  -9   2   1 117.297 6.20658   1
  -9   2   2 10.2378 0.77253   1
  -9   2   3 69.6498 3.59009   1
  -9   2   4 22.3198 1.37555   1
  -9   2   5 97.3279 4.94539   1
  -9   2   6 62.9883  3.2874   1
  -9   2   7 41.5298 2.28769   1
  -9   2   8  75.232 3.87573   1
  -9   2   9 12.4446 1.62069   1
  -9   2  10 22.1773 1.62949   1
  -9   2  11  10.069 1.50745   1
  -9   2  12  61.641 5.50082   1
  -9   2  13 1.59954 0.67783   1
  -9   2  14 205.701 15.0032   1
  -9   2  15 9.57885 1.63683   1
  -9   2  16 74.7526 6.24882   1
  -9   2  17 5.79587 1.26763   1
  -9   2  18 4.42558 1.23583   1
  -9   2  19 2.04377 1.12329   1
  -9   2  20 13.3762  1.7425   1
  -9   2  21 14.8105 1.78211   1
  -9   2  22 28.7476 2.78102   1
  -9   3   0 124.138 5.41194   1
  -9   3   1 157.188  6.7936   1
  -9   3   2 26.0324 1.31706   1
  -9   3   3 16.4149 0.99401   1
  -9   3   4 4.95279 0.63629   1
  -9   3   5 40.2799 2.21568   1
  -9   3   6 20.6148 1.55585   1
  -9   3   7 113.231 5.66698   1
  -9   3   8 3.01471 0.55354   1
  -9   3   9 126.887 6.31336   1
  -9   3  10 38.6136 2.46797   1
  -9   3  11 111.158 10.1283   1
  -9   3  12   59.34 3.57083   1
  -9   3  13 36.5526 3.10691   1
  -9   3  14 19.5677 1.57208   1
  -9   3  15 14.1076  1.7674   1
  -9   3  16 16.3645 1.65735   1
  -9   3  17 28.7778 2.89624   1
  -9   3  18 30.8418 3.09304   1
  -9   3  19 9.65908 1.53481   1
  -9   3  20 50.8302 4.42383   1
  -9   3  21 0.16289  0.9928   1
  -9   3  22   31.17 2.92216   1
  -9   4   0 144.907 6.26945   1
  -9   4   1 1.31538  0.3472   1
  -9   4   2 299.891 13.7301   1
  -9   4   3  4.3591 0.90825   1
  -9   4   4  78.315 5.26579   1
  -9   4   5 1.63504 0.58771   1
  -9   4   6 1.58118 0.50343   1
  -9   4   7 6.99365 0.70471   1
  -9   4   8 49.5769 2.85647   1
  -9   4   9 64.1827 3.69848   1
  -9   4  10 121.432 7.07616   1
  -9   4  11 170.129 21.5669   1
  -9   4  12 12.7581 1.20287   1
  -9   4  13 87.0084 8.04468   1
  -9   4  14 0.51082  0.7893   1
  -9   4  15 4.42169 0.98603   1
  -9   4  16  0.8694  0.7715   1
  -9   4  17 23.7035 3.02919   1
  -9   4  18 0.58555 1.07545   1
  -9   4  19 100.333 8.10774   1
  -9   4  20 5.60525 1.26188   1
  -9   4  21 23.1692 2.44488   1
  -9   5   0 0.66533 0.34368   1
  -9   5   1 57.0511 2.59958   1
  -9   5   2  69.342 3.89601   1
  -9   5   3 156.356 7.84706   1
  -9   5   4 120.044 6.31952   1
  -9   5   5 52.1988 2.77571   1
  -9   5   6 12.0858 0.94008   1
  -9   5   7 2.04677 0.53035   1
  -9   5   8 50.1352 2.73425   1
  -9   5   9 5.40651 0.70366   1
  -9   5  10 230.282 11.2314   1
  -9   5  11 2.61483  1.0341   1
  -9   5  12 101.739  9.2719   1
  -9   5  13 2.52031 0.91458   1
  -9   5  14 10.1901 1.28044   1
  -9   5  15 19.9426 1.84767   1
  -9   5  16  18.584  2.3375   1
  -9   5  17 13.1461 2.34882   1
  -9   5  18 22.8552 5.31602   1
  -9   5  19 18.1431 2.02843   1
  -9   5  20 4.54068 1.14846   1
  -9   6   0 16.7866 1.22954   1
  -9   6   1 30.6756 1.64078   1
  -9   6   2 5.99076 0.58918   1
  -9   6   3 5.60077 0.59158   1
  -9   6   4 0.53551 0.41177   1
  -9   6   5 152.311 8.31279   1
  -9   6   6 8.67205 0.81077   1
  -9   6   7 289.062 27.3628   1
  -9   6   8 27.3523 2.73636   1
  -9   6   9 12.6468  1.0206   1
  -9   6  10 40.6248 2.27123   1
  -9   6  11 0.96567 0.58945   1
  -9   6  12 32.0697 2.46165   1
  -9   6  13 77.4892 5.22298   1
  -9   6  14 22.0887 2.01887   1
  -9   6  15 34.4529 2.67952   1
  -9   6  16 43.4603 5.44589   1
  -9   6  17 6.88407 4.28704   1
  -9   6  18 39.4787 3.34809   1
  -9   6  19 6.16578 0.91035   1
  -9   6  20 19.2188 2.10798   1
  -9   7   0 58.0423 3.96939   1
  -9   7   1 0.63348 0.48106   1
  -9   7   2 21.2041 2.11033   1
  -9   7   3 3.86462 0.76331   1
  -9   7   4 54.0706 3.18648   1
  -9   7   5 64.8096 3.42399   1
  -9   7   6  47.451 2.58576   1
  -9   7   7 212.527 14.5492   1
  -9   7   8 23.0067 1.50724   1
  -9   7   9 72.9416 3.76173   1
  -9   7  10 10.4023  0.9497   1
  -9   7  11 2.79953  0.6563   1
  -9   7  12 1.44698 0.88831   1
  -9   7  13 48.7479 8.02613   1
  -9   7  14 6.56068 1.62567   1
  -9   7  15 106.667 6.94422   1
  -9   7  16 0.16803 1.01475   1
  -9   7  17 13.5057 1.37669   1
  -9   7  18 5.84935 1.97004   1
  -9   7  19 2.34905 1.31547   1
  -9   8   0 48.2479 5.03346   1
  -9   8   1  17.544  1.7777   1
  -9   8   2 8.46146 1.40605   1
  -9   8   3 0.58879 1.36871   1
  -9   8   4 91.0774 5.39276   1
  -9   8   5 0.62011 0.68756   1
  -9   8   6 196.933   9.678   1
  -9   8   7 0.71397 0.57231   1
  -9   8   8 61.5876 3.22404   1
  -9   8   9 14.0271 1.10298   1
  -9   8  10 26.4276 1.82465   1
  -9   8  11 14.1368 1.19225   1
  -9   8  12 52.4918 3.70409   1
  -9   8  13 1.35328  0.8915   1
  -9   8  14 14.9286 1.50338   1
  -9   8  15 18.7781 3.25424   1
  -9   8  16 4.75895 1.81047   1
  -9   8  17 63.8128 4.23502   1
  -9   8  18 6.24479 1.02845   1
  -9   9   0 5.76429 1.25658   1
  -9   9   1 158.289 12.8198   1
  -9   9   2 8.07853 0.97603   1
  -9   9   3 229.813  13.009   1
  -9   9   4  33.703 2.33171   1
  -9   9   5 10.6202 1.15429   1
  -9   9   6 30.3477 2.17822   1
  -9   9   7 2.41839 0.80555   1
  -9   9   8  26.852 4.21079   1
  -9   9   9 89.7797  4.7442   1
  -9   9  10 33.5562 1.95514   1
  -9   9  11   28.17   1.888   1
  -9   9  12 42.2585 2.51979   1
  -9   9  13 6.27244 1.06866   1
  -9   9  14 26.5196 3.85335   1
  -9   9  15 1.78061 0.82424   1
  -9   9  16 22.0613 3.68283   1
  -9   9  17 1.06051 1.14952   1
  -9  10   0 61.3116  4.9284   1
  -9  10   1 43.5113 4.25219   1
  -9  10   2 32.4523 3.79014   1
  -9  10   3 95.5172 5.61624   1
  -9  10   4 12.3888  1.5373   1
  -9  10   5 66.9748 4.09573   1
  -9  10   6  7.7778 1.68794   1
  -9  10   7 19.7434 2.40992   1
  -9  10   8 0.44114  0.7663   1
  -9  10   9 47.4277 3.03163   1
  -9  10  10 1.23606 0.94801   1
  -9  10  11 63.4911 6.51606   1
  -9  10  12 0.86947 1.44483   1
  -9  10  13 22.7495 2.78157   1
  -9  10  14 11.9214 1.23335   1
  -9  10  15  10.771 1.90501   1
  -9  11   0 110.563 7.59203   1
  -9  11   1  0.7145 0.69827   1
  -9  11   2  116.79 11.6522   1
  -9  11   3 0.75977 0.72086   1
  -9  11   4 31.2059 2.46914   1
  -9  11   5 6.63743 1.00043   1
  -9  11   6 43.1889 2.81551   1
  -9  11   7 10.9503 1.38571   1
  -9  11   8 60.3721 6.21883   1
  -9  11   9 3.85707  0.9983   1
  -9  11  10 7.59641 1.75482   1
  -9  11  11 14.7871 2.31212   1
  -9  11  12 2.77464 1.42205   1
  -9  11  13 49.2507  5.1233   1
  -9  11  14 7.56785 1.57996   1
  -9  12   0 26.2035 2.37732   1
  -9  12   1 34.8265 4.88071   1
  -9  12   2 28.1783 3.74748   1
  -9  12   3 11.6427 1.21215   1
  -9  12   4 31.9006 2.24613   1
  -9  12   5 30.2574 3.66676   1
  -9  12   6  22.166 3.35122   1
  -9  12   7 17.2122 1.46027   1
  -9  12   8 15.2569 2.26854   1
  -9  12   9 0.63469 1.18395   1
  -9  12  10 26.9069 3.21881   1
  -9  12  11 1.03774 1.20386   1
  -9  12  12 42.2874  4.4191   1
  -9  13   0 0.32129 0.88262   1
  -9  13   1 21.5441 4.30951   1
  -9  13   2  8.4491 2.09948   1
  -9  13   3 77.7066 8.40088   1
  -9  13   4 8.51068 1.18134   1
  -9  13   5 59.3675 6.55869   1
  -9  13   6 0.35965 0.84455   1
  -9  13   7 12.2247 1.45719   1
  -9  13   8 2.47687 1.24936   1
  -9  13   9   8.025 1.55404   1
  -9  13  10 8.16035 1.58445   1
  -9  13  11 27.4753 3.12411   1
  -9  14   0 50.4297 5.60841   1
  -9  14   1 6.99994 1.95879   1
  -9  14   2 8.04014  2.0174   1
  -9  14   3 7.68565 1.94682   1
  -9  14   4 16.4629 2.58387   1
  -9  14   5 2.68231 0.93002   1
  -9  14   6 27.6872 3.07393   1
  -9  14   7  4.5531 1.18523   1
  -9  14   8 10.9981 1.63524   1
  -9  15   0 27.0322 3.55524   1
  -9  15   1 41.1593 4.68407   1
  -9  15   2 19.9636 2.96496   1
  -8 -12   3 11.9651 1.54911   1
  -8 -12   4  11.576 1.51703   1
  -8 -12   5 20.8319 2.29115   1
  -8 -12   6 1.07789 0.92484   1
  -8 -12   7 75.3023 6.16055   1
  -8 -12   8 8.39684 1.31082   1
  -8 -12   9 58.4071 4.89572   1
  -8 -12  10 1.74443  0.9508   1
  -8 -12  11 3.13554 0.97006   1
  -8 -12  12 3.60186 1.01356   1
  -8 -12  13 18.8105 2.05963   1
  -8 -12  14 39.8686 3.47123   1
  -8 -12  15 70.9874 5.74496   1
  -8 -12  16 48.9682 4.07273   1
  -8 -11   1 7.93243 1.39095   1
  -8 -11   2 46.7973 4.13031   1
  -8 -11   3 -0.8749 0.96343   1
  -8 -11   4 25.1493 2.66795   1
  -8 -11   5 16.9858 1.95255   1
  -8 -11   6 29.1485 2.86839   1
  -8 -11   7 12.5992 1.63332   1
  -8 -11   8 10.8361 1.52854   1
  -8 -11   9  11.618 1.55222   1
  -8 -11  10 17.0898 1.92821   1
  -8 -11  11 48.1134 4.19403   1
  -8 -11  12 28.8018 2.78669   1
  -8 -11  13 80.4013 6.57927   1
  -8 -11  14 1.17771  0.8979   1
  -8 -11  15 41.7129 3.65808   1
  -8 -11  16 7.27591 1.19545   1
  -8 -11  17 24.1188 2.34216   1
  -8 -11  18 2.48935  0.7752   1
  -8 -11  19 13.6988 1.57599   1
  -8 -10   1 25.6449 2.73402   1
  -8 -10   2 75.7295 6.30657   1
  -8 -10   3 36.0963 3.44845   1
  -8 -10   4 11.7793 1.63774   1
  -8 -10   5 8.00682 1.37456   1
  -8 -10   6 1.10122 1.04062   1
  -8 -10   7 0.04499 0.94554   1
  -8 -10   8 63.1469 5.34014   1
  -8 -10   9 0.82272 0.94152   1
  -8 -10  10 167.092 13.3012   1
  -8 -10  11 8.90771 1.39755   1
  -8 -10  12 61.6206 5.21736   1
  -8 -10  13 7.21794 1.27203   1
  -8 -10  14 7.19693 1.25249   1
  -8 -10  15 0.21013 0.85294   1
  -8 -10  16 15.5953 1.78584   1
  -8 -10  17  18.182 2.02685   1
  -8 -10  18 36.4592 3.22436   1
  -8 -10  19 63.5185 5.18546   1
  -8 -10  20 5.36557 0.93479   1
  -8  -9   1 44.6494  2.9989   1
  -8  -9   2 1.54143 1.04735   1
  -8  -9   3 78.2352 6.53104   1
  -8  -9   4  17.976 2.05743   1
  -8  -9   5 46.3434 4.15539   1
  -8  -9   6 1.14158 0.99447   1
  -8  -9   7 6.71565 1.27998   1
  -8  -9   8 0.59244 0.91822   1
  -8  -9   9 38.4584 3.56282   1
  -8  -9  10 71.4653 6.00823   1
  -8  -9  11  137.86 11.0814   1
  -8  -9  12 81.3489 6.74503   1
  -8  -9  13   36.45 3.40976   1
  -8  -9  14 21.4876  2.3942   1
  -8  -9  15 3.00319 0.99063   1
  -8  -9  16 8.80404 1.34316   1
  -8  -9  17 2.22318 0.92619   1
  -8  -9  18 32.1639 2.98764   1
  -8  -9  19 0.55187  0.7542   1
  -8  -9  20 67.2034 5.47867   1
  -8  -9  21 0.65033 0.69685   1
  -8  -9  22 50.1793 4.16678   1
  -8  -8   1 34.9362 4.80813   1
  -8  -8   2 38.6986  2.6767   1
  -8  -8   3 0.28408 0.95116   1
  -8  -8   4  6.8376 1.31245   1
  -8  -8   5 7.36685 1.35082   1
  -8  -8   6 32.1002 3.13393   1
  -8  -8   7 180.978 14.4787   1
  -8  -8   8 49.9389 4.40278   1
  -8  -8   9 139.629 11.2517   1
  -8  -8  10-0.02991 0.85765   1
  -8  -8  11 23.8032 2.54152   1
  -8  -8  12 6.41417  1.1914   1
  -8  -8  13 35.2506 3.32351   1
  -8  -8  14 1.52377 0.90517   1
  -8  -8  15  82.221 6.80663   1
  -8  -8  16 0.88902 0.86339   1
  -8  -8  17  42.313 3.79452   1
  -8  -8  18 38.0587 3.43649   1
  -8  -8  19 3.17916 0.91844   1
  -8  -8  20 61.1141 5.06304   1
  -8  -8  21 8.80827  1.2017   1
  -8  -8  22  41.922 3.57976   1
  -8  -7   1 6.51871 1.02905   1
  -8  -7   2 32.5829 2.33912   1
  -8  -7   3 2.69782 0.72607   1
  -8  -7   4 82.2503 6.85195   1
  -8  -7   5  1.3882 0.96625   1
  -8  -7   6 100.019 8.22596   1
  -8  -7   7 0.48896 0.90019   1
  -8  -7   8  107.81 8.81639   1
  -8  -7   9 4.65977 1.09356   1
  -8  -7  10 110.184 9.00266   1
  -8  -7  11 9.60958  1.4436   1
  -8  -7  12 28.6166 2.83554   1
  -8  -7  13 56.9334 4.93251   1
  -8  -7  14 7.51872  1.2951   1
  -8  -7  15 61.6615 5.25377   1
  -8  -7  16 8.74961 1.36854   1
  -8  -7  17 12.9526 1.59685   1
  -8  -7  18 10.8934 1.43915   1
  -8  -7  19 29.7759 2.81595   1
  -8  -7  20  1.0585 0.75726   1
  -8  -7  21  98.039 7.84761   1
  -8  -7  22 13.5848 1.57079   1
  -8  -7  23 52.4027 4.33018   1
  -8  -6   1 9.08666 1.75846   1
  -8  -6   2 9.06063 0.79594   1
  -8  -6   3 61.3561 3.27959   1
  -8  -6   4 42.7386 2.48306   1
  -8  -6   5 203.087 16.2955   1
  -8  -6   6 180.283 14.5085   1
  -8  -6   7 89.8975 7.44969   1
  -8  -6   8 38.5214 3.52528   1
  -8  -6   9 1.03372 0.84202   1
  -8  -6  10 14.2871 1.71591   1
  -8  -6  11 11.1285  1.5383   1
  -8  -6  12 58.8213 5.07528   1
  -8  -6  13 22.0575 2.41016   1
  -8  -6  14 78.2988 6.54756   1
  -8  -6  15 1.68327  0.8325   1
  -8  -6  16 61.8488 5.27322   1
  -8  -6  17 27.1255 2.68394   1
  -8  -6  18 69.0061 5.74345   1
  -8  -6  19 16.8791 1.94946   1
  -8  -6  20 35.0707 3.16579   1
  -8  -6  21 9.70711 1.28898   1
  -8  -6  22 7.79348 1.10958   1
  -8  -6  23 12.6495 1.44221   1
  -8  -6  24 5.42114  0.9351   1
  -8  -5   1 21.7738 1.41841   1
  -8  -5   2 18.1415 1.23496   1
  -8  -5   3 83.3459 6.69576   1
  -8  -5   4 54.5908 2.94275   1
  -8  -5   5 131.957  11.953   1
  -8  -5   6  6.9616 0.91773   1
  -8  -5   7 152.145  9.0216   1
  -8  -5   8 0.70721 1.34096   1
  -8  -5   9 100.429 10.2593   1
  -8  -5  10 1.21172 1.83809   1
  -8  -5  11 33.8724 3.16541   1
  -8  -5  12 15.9429 1.87657   1
  -8  -5  13 33.4516 3.15834   1
  -8  -5  14 23.5734 2.45164   1
  -8  -5  15 49.3138  4.3276   1
  -8  -5  16 48.3152 4.23191   1
  -8  -5  17  30.027  2.8873   1
  -8  -5  18 95.2602 7.74479   1
  -8  -5  19 10.3202 1.35084   1
  -8  -5  20 51.1011 4.33755   1
  -8  -5  21 1.92742 0.78302   1
  -8  -5  22 6.41877 1.04395   1
  -8  -5  23-0.13518 0.62234   1
  -8  -5  24 19.6328 1.92611   1
  -8  -4   1 16.3328 2.05748   1
  -8  -4   2 159.344 10.3969   1
  -8  -4   3 3.74988 0.54451   1
  -8  -4   4 155.289 7.93866   1
  -8  -4   5 15.7608 1.02615   1
  -8  -4   6 92.6339    7.76   1
  -8  -4   7 24.1644 2.81929   1
  -8  -4   8 53.2196  4.9602   1
  -8  -4   9 79.0523 4.82636   1
  -8  -4  10  45.792  8.3357   1
  -8  -4  11 25.0569 1.81918   1
  -8  -4  12 17.8158 1.46157   1
  -8  -4  13 13.9564 1.35948   1
  -8  -4  14 0.98325 0.57239   1
  -8  -4  15 187.148  14.987   1
  -8  -4  16 0.70949 0.76462   1
  -8  -4  17 186.498 14.8667   1
  -8  -4  18 3.69399 0.90629   1
  -8  -4  19 20.1285 2.11294   1
  -8  -4  20 6.19897  1.0764   1
  -8  -4  21 2.84556 0.77028   1
  -8  -4  22 2.24387 0.79046   1
  -8  -4  23 28.9879 2.63642   1
  -8  -4  24 10.8372 1.22905   1
  -8  -3   1 220.119 15.3801   1
  -8  -3   2 103.669 8.34048   1
  -8  -3   3  64.284  3.6492   1
  -8  -3   4  1.8008 0.47418   1
  -8  -3   5  14.024 1.08813   1
  -8  -3   6 66.6611 3.75989   1
  -8  -3   7 64.2898 11.4903   1
  -8  -3   8 204.694 43.1095   1
  -8  -3   9 14.4927 1.75802   1
  -8  -3  10 73.0459 4.55943   1
  -8  -3  11  26.281 3.66383   1
  -8  -3  12 38.2825 4.52367   1
  -8  -3  13 9.62308 0.93492   1
  -8  -3  14  94.804 5.71207   1
  -8  -3  15 7.24967 1.28319   1
  -8  -3  16 96.1681 5.76662   1
  -8  -3  17  50.447 3.18989   1
  -8  -3  18 40.8715 2.70868   1
  -8  -3  19 38.4991  3.4146   1
  -8  -3  20 7.71444 1.09532   1
  -8  -3  21  10.794  1.3589   1
  -8  -3  22 1.01642 0.64456   1
  -8  -3  23 26.8435 2.43872   1
  -8  -2   1 238.832 13.1793   1
  -8  -2   2 3.22543 0.76286   1
  -8  -2   3 578.759 31.3085   1
  -8  -2   4 3.62186 0.54986   1
  -8  -2   5 99.3657 6.26494   1
  -8  -2   6 1.83508 0.88501   1
  -8  -2   7 9.94456  1.0205   1
  -8  -2   8 2.44657 0.85394   1
  -8  -2   9 77.8702 18.1507   1
  -8  -2  10 11.8592  2.3452   1
  -8  -2  11 298.472 23.9427   1
  -8  -2  12 116.915 9.56102   1
  -8  -2  13 26.8108 2.68522   1
  -8  -2  14 230.176 18.4203   1
  -8  -2  15 1.63341 0.86901   1
  -8  -2  16 33.6853 4.38387   1
  -8  -2  17 11.5211 1.59831   1
  -8  -2  18 5.26773 1.24281   1
  -8  -2  19  4.8332   1.217   1
  -8  -2  20 94.6624 7.70829   1
  -8  -1   1 3.12915 0.52846   1
  -8  -1   2 41.5269 2.45309   1
  -8  -1   3 11.9015 1.83318   1
  -8  -1   4 256.105 22.8574   1
  -8  -1   5 244.236 14.9526   1
  -8  -1   6 225.951 12.2226   1
  -8  -1   7 36.2051 2.16336   1
  -8  -1   8   0.439 0.51357   1
  -8  -1   9 1.79628 0.56047   1
  -8  -1  10 21.7834  2.9335   1
  -8  -1  11 258.007 16.6334   1
  -8  -1  12 26.1409 2.59814   1
  -8  -1  13 429.266 34.3637   1
  -8  -1  14 12.7821 2.47402   1
  -8  -1  15 34.6132 2.66643   1
  -8  -1  16 33.0482 3.13761   1
  -8  -1  17 4.24483 1.11384   1
  -8  -1  18 25.4866  2.6376   1
  -8  -1  19 51.0417 4.45872   1
  -8  -1  20 4.25192 1.16674   1
  -8  -1  21 27.3463 2.81777   1
  -8  -1  22 26.0474 2.64472   1
  -8   0   1 46.3259 2.71403   1
  -8   0   2 236.467 20.9193   1
  -8   0   3 32.7384 2.24908   1
  -8   0   4 99.3164 8.53649   1
  -8   0   5 1.23517 0.42901   1
  -8   0   6 27.8692 1.96193   1
  -8   0   7 2.02478 0.45515   1
  -8   0   8 195.772 21.1384   1
  -8   0   9 1.25097  0.8768   1
  -8   0  10  177.31 16.5075   1
  -8   0  11 35.8401 2.60579   1
  -8   0  12  35.792 4.19764   1
  -8   0  13 143.893 14.0415   1
  -8   0  14 61.3456 4.27789   1
  -8   0  15 32.9885 6.44175   1
  -8   0  16 69.3498 5.87264   1
  -8   0  17 2.79937 1.11715   1
  -8   0  18 0.30514 0.97223   1
  -8   0  19 56.4475 4.89756   1
  -8   0  20 3.37378 1.17279   1
  -8   0  21 84.1323 6.93177   1
  -8   0  22 0.74421 1.03346   1
  -8   0  23 26.5931 2.67339   1
  -8   1   0 1.89768 1.17637   1
  -8   1   1 110.919 7.84582   1
  -8   1   2 8.88728 0.72522   1
  -8   1   3 3.55365  0.7495   1
  -8   1   4 1.19291  0.3916   1
  -8   1   5 126.842 6.37182   1
  -8   1   6 32.6487 2.74677   1
  -8   1   7  222.50 15.5968   1
  -8   1   8 227.691 12.4091   1
  -8   1   9 36.4736 3.68706   1
  -8   1  10  208.10 11.6803   1
  -8   1  11 8.91686 0.93572   1
  -8   1  12 16.6501 1.37626   1
  -8   1  13 13.7764 1.41632   1
  -8   1  14   28.20 3.26203   1
  -8   1  15  1.2965 0.90812   1
  -8   1  16 223.696 17.8653   1
  -8   1  17 3.84298 1.15209   1
  -8   1  18 65.0784 5.54556   1
  -8   1  19 1.36488 1.06123   1
  -8   1  20 2.03107 1.13709   1
  -8   1  21 26.3959 2.78876   1
  -8   1  22 17.9175 2.01509   1
  -8   1  23 59.7313 5.00027   1
  -8   2   0 301.893  14.845   1
  -8   2   1  263.84 13.0717   1
  -8   2   2 108.968 5.49307   1
  -8   2   3 19.0105 1.18815   1
  -8   2   4 0.97178 0.39359   1
  -8   2   5 2.85428 0.76072   1
  -8   2   6 0.53289 0.39163   1
  -8   2   7 334.733 16.4638   1
  -8   2   8 40.7214 2.55231   1
  -8   2   9 466.634 30.6238   1
  -8   2  10 1.60358 0.54408   1
  -8   2  11 54.2649 3.85471   1
  -8   2  12 43.0532 3.20141   1
  -8   2  13 16.2753 1.31279   1
  -8   2  14 13.1992 1.33255   1
  -8   2  15 52.9855 10.4772   1
  -8   2  16 4.00701 1.15322   1
  -8   2  17 40.1907  3.7114   1
  -8   2  18 50.2762 4.46131   1
  -8   2  19 14.7645 1.90214   1
  -8   2  20 70.7464 5.96328   1
  -8   2  21 2.41418  1.1633   1
  -8   2  22 31.7498 3.03677   1
  -8   2  23 1.11605 0.96213   1
  -8   3   0 38.2345 1.88401   1
  -8   3   1  16.231 1.04684   1
  -8   3   2 19.5146 1.41646   1
  -8   3   3 2.94883 0.44672   1
  -8   3   4 292.964 15.9384   1
  -8   3   5 4.83407 0.78178   1
  -8   3   6 231.236 16.0709   1
  -8   3   7 55.2548 2.91672   1
  -8   3   8 21.4463 1.32739   1
  -8   3   9 108.767  5.4539   1
  -8   3  10 64.1518 3.97144   1
  -8   3  11 40.9888 2.58518   1
  -8   3  12 106.719 8.07756   1
  -8   3  13 26.3408 1.83966   1
  -8   3  14 6.36442 1.00449   1
  -8   3  15 52.8397 3.71237   1
  -8   3  16 3.65058 0.89829   1
  -8   3  17 53.3818 4.70152   1
  -8   3  18-0.03459 1.07019   1
  -8   3  19 64.9946 5.55744   1
  -8   3  20 5.99494 1.34703   1
  -8   3  22 12.3764 1.63808   1
  -8   3  23 11.3722 1.49829   1
  -8   4   0 1.20293 0.50316   1
  -8   4   1 68.4201  3.5142   1
  -8   4   2 32.5686 2.14991   1
  -8   4   3 174.592 8.66665   1
  -8   4   4 161.267 8.31122   1
  -8   4   5 64.0126 3.88655   1
  -8   4   6 173.112  9.7226   1
  -8   4   7 20.3421  1.2796   1
  -8   4   8  48.648 2.59602   1
  -8   4   9  8.6543 0.76911   1
  -8   4  10 83.4288 4.25402   1
  -8   4  11 0.26059 0.57171   1
  -8   4  12 175.592 19.5165   1
  -8   4  13 0.56751 0.70589   1
  -8   4  14 47.3958  3.3997   1
  -8   4  15 1.98032 0.85513   1
  -8   4  16 6.44456 1.56687   1
  -8   4  17  42.311 3.09183   1
  -8   4  18 40.2263 3.79053   1
  -8   4  19 74.1963 6.23015   1
  -8   4  20 41.6968 3.82809   1
  -8   4  22 5.97386  1.2393   1
  -8   5   0 24.7834 1.65016   1
  -8   5   1 53.2166 2.79698   1
  -8   5   2 25.1159 1.78785   1
  -8   5   3 240.425 13.0783   1
  -8   5   4 7.02639 1.00776   1
  -8   5   5 245.033 13.3005   1
  -8   5   6 1.82782 0.46076   1
  -8   5   7 110.431 6.26962   1
  -8   5   8 16.3516  1.8305   1
  -8   5   9  76.119 3.90861   1
  -8   5  10 17.1284 1.20334   1
  -8   5  11 47.7109 2.76382   1
  -8   5  12 13.1809 1.42481   1
  -8   5  13  21.954 1.99142   1
  -8   5  14 34.0317 2.66014   1
  -8   5  15 30.5798 2.48798   1
  -8   5  16 61.3514  4.2352   1
  -8   5  17 5.88984 1.06648   1
  -8   5  18 68.7008 9.89158   1
  -8   5  19 4.25801 1.23679   1
  -8   5  20 30.3231 2.95813   1
  -8   5  21 -0.6465  0.9717   1
  -8   5  22 11.1174 1.55387   1
  -8   6   0 120.089 8.63402   1
  -8   6   1 13.3554 1.13341   1
  -8   6   2 342.501 19.8461   1
  -8   6   3 70.1361 3.62032   1
  -8   6   4  95.232 4.81886   1
  -8   6   5 66.5503 3.44555   1
  -8   6   6 14.9755 1.06919   1
  -8   6   7  50.184 2.69041   1
  -8   6   8 57.5324 3.81284   1
  -8   6   9 41.0218 2.26909   1
  -8   6  10 54.3876 3.16021   1
  -8   6  11 40.2913 2.30004   1
  -8   6  12 2.67914 1.16978   1
  -8   6  13 63.0185 4.39012   1
  -8   6  14  15.739 1.99737   1
  -8   6  15 108.116 7.12177   1
  -8   6  16 15.9561 1.62507   1
  -8   6  17 59.4945 4.10807   1
  -8   6  18 1.37327 0.86591   1
  -8   6  19 6.59209 1.23758   1
  -8   6  20 4.95686 1.23286   1
  -8   6  21 11.2451 1.45046   1
  -8   7   0  57.352 4.82307   1
  -8   7   1 12.7492 1.13433   1
  -8   7   2 29.8952  2.0602   1
  -8   7   3 5.73262 0.80363   1
  -8   7   4 132.224 10.7117   1
  -8   7   5 48.5421 2.93897   1
  -8   7   6 272.642 19.3783   1
  -8   7   7 9.12119 0.84042   1
  -8   7   8 72.5805 3.76205   1
  -8   7   9 9.43168 0.88089   1
  -8   7  10 4.16384 1.36688   1
  -8   7  11   6.988 0.89146   1
  -8   7  12  37.948 3.59341   1
  -8   7  13 10.5965 2.67419   1
  -8   7  14 113.436  17.345   1
  -8   7  15 47.1982 3.43143   1
  -8   7  16 21.5759 2.97027   1
  -8   7  17 57.8625 8.07736   1
  -8   7  18 0.54284  0.8173   1
  -8   7  19  12.135 1.24309   1
  -8   7  20 3.39233 1.08056   1
  -8   8   0 5.17556 0.97281   1
  -8   8   1 173.523 9.94556   1
  -8   8   2 2.48983 0.65823   1
  -8   8   3 77.1952 8.66959   1
  -8   8   4 20.4825 1.62899   1
  -8   8   5 70.4738 5.69572   1
  -8   8   6   18.97 1.29888   1
  -8   8   7  66.815 3.48594   1
  -8   8   8 2.67986 0.62703   1
  -8   8   9 52.4123 5.00232   1
  -8   8  10 15.7572 1.17549   1
  -8   8  11 18.0573  1.4175   1
  -8   8  12  113.52 9.84469   1
  -8   8  13 0.44541  0.8821   1
  -8   8  14 108.592  12.007   1
  -8   8  15 0.79212  0.9518   1
  -8   8  16 17.1432 1.64898   1
  -8   8  17 2.56052 1.11443   1
  -8   8  18 9.29679 1.12452   1
  -8   8  19 0.50669 0.72274   1
  -8   9   0 100.566 5.88689   1
  -8   9   1 46.4275 3.59395   1
  -8   9   2 32.6169 2.22771   1
  -8   9   3 35.2042 2.36988   1
  -8   9   4  55.974 3.50385   1
  -8   9   5 34.8601 3.29961   1
  -8   9   6 38.7218 2.60572   1
  -8   9   7 42.5657 2.80715   1
  -8   9   8   0.939 0.63387   1
  -8   9   9 76.1789 3.91213   1
  -8   9  10 6.38749 0.88165   1
  -8   9  11 89.8608 4.98191   1
  -8   9  12 2.44606   0.734   1
  -8   9  13 31.1743 2.67052   1
  -8   9  14 1.24112 0.88942   1
  -8   9  15 15.4679 1.96484   1
  -8   9  16 17.9958 1.67058   1
  -8   9  17 35.0227 3.12024   1
  -8   9  18 26.1351 3.02141   1
  -8  10   0 238.311  13.439   1
  -8  10   1 47.2637  3.0114   1
  -8  10   2 347.418  19.645   1
  -8  10   3 1.47723 0.70846   1
  -8  10   4  16.057 1.44999   1
  -8  10   5 1.94418 0.78234   1
  -8  10   6 4.19453 0.88274   1
  -8  10   7 -0.4628 1.28255   1
  -8  10   8 103.046 6.01128   1
  -8  10   9 13.2155 1.56762   1
  -8  10  10  175.68 9.38272   1
  -8  10  11 71.7415 4.01567   1
  -8  10  12 2.61036 0.73332   1
  -8  10  13 42.5835 3.73795   1
  -8  10  14 2.22545 1.33694   1
  -8  10  15 7.60158 1.34585   1
  -8  10  16 12.0217  1.2661   1
  -8  10  17 12.0853 1.87867   1
  -8  11   0 6.81927 1.47739   1
  -8  11   1 58.3554 4.14568   1
  -8  11   2 7.36964  1.7891   1
  -8  11   3 117.056 6.79572   1
  -8  11   4 8.15328 1.08407   1
  -8  11   5 62.1866 3.84767   1
  -8  11   6 29.6586 2.15649   1
  -8  11   7 0.89567   0.788   1
  -8  11   8 61.6795 6.13523   1
  -8  11   9 0.98625 0.94428   1
  -8  11  10 46.8174 5.17717   1
  -8  11  11 5.44392 1.72184   1
  -8  11  12 32.7979 3.88124   1
  -8  11  13 5.46776 1.64813   1
  -8  11  14 35.6742 4.06887   1
  -8  11  15 7.88296 1.70038   1
  -8  12   0 15.8942 1.79688   1
  -8  12   1 7.51296  2.3431   1
  -8  12   2-0.06489 1.20647   1
  -8  12   3 12.6211 1.25946   1
  -8  12   4 13.6825 1.33276   1
  -8  12   5 95.3285   9.797   1
  -8  12   6 7.90477 1.06115   1
  -8  12   7 104.551 10.9681   1
  -8  12   8 7.31398 1.18819   1
  -8  12   9 17.0023 2.54381   1
  -8  12  10 13.9149 2.25298   1
  -8  12  11 9.65213 1.93838   1
  -8  12  12 15.0801 2.30667   1
  -8  12  13 39.0304 4.23209   1
  -8  12  14  11.137 1.87851   1
  -8  13   0 40.4192 4.50346   1
  -8  13   1 3.39335 1.08197   1
  -8  13   2 5.40268 1.18973   1
  -8  13   3 0.52077 0.75517   1
  -8  13   4 47.4289 2.99897   1
  -8  13   5 38.1782  3.9096   1
  -8  13   6 91.5325 9.97143   1
  -8  13   7 34.1744 3.89028   1
  -8  13   8 7.89106 1.66321   1
  -8  13   9 13.5507 2.14012   1
  -8  13  10 0.17063  1.2044   1
  -8  13  11 21.1337 2.75146   1
  -8  13  12 4.95893  1.3402   1
  -8  14   0 4.09536 1.11536   1
  -8  14   1 17.2719  1.8252   1
  -8  14   2  26.946 2.44207   1
  -8  14   3 24.0641 3.03446   1
  -8  14   4 26.5889 4.25005   1
  -8  14   5 1.58234 0.89146   1
  -8  14   6  26.549 3.10178   1
  -8  14   7 1.62883 1.07328   1
  -8  14   8 51.1016 5.18143   1
  -8  14   9 1.31725 1.05167   1
  -8  14  10 37.0437  3.9008   1
  -8  15   0 42.4844 4.94013   1
  -8  15   1 79.9349 8.17897   1
  -8  15   2 0.43121 1.36639   1
  -8  15   3 48.9382 5.31855   1
  -8  15   4 17.8929 2.62057   1
  -8  16   0  15.602 2.53557   1
  -8  16   1 7.67675 1.81781   1
  -7 -13   2 21.8796  2.3414   1
  -7 -13   3 38.6035 3.45628   1
  -7 -13   4 0.57694 0.94436   1
  -7 -13   5 15.9002 1.79321   1
  -7 -13   6 0.45293 0.92742   1
  -7 -13   7 15.0846 1.74358   1
  -7 -13   8 3.76603 1.01441   1
  -7 -13   9 83.1596 6.72707   1
  -7 -13  10  1.3425  0.8742   1
  -7 -13  11 93.0462 7.46157   1
  -7 -13  12 6.49381 1.13271   1
  -7 -13  13 20.5678 2.14557   1
  -7 -13  14 18.9093 2.01966   1
  -7 -13  15 5.39482 0.96346   1
  -7 -13  16 23.2995 2.22264   1
  -7 -12   1 2.47211 1.11048   1
  -7 -12   2 21.1142 2.37909   1
  -7 -12   3 9.23979 1.45814   1
  -7 -12   4 17.8915 2.03435   1
  -7 -12   5 5.40638 1.22354   1
  -7 -12   6 70.4058 5.86096   1
  -7 -12   7 56.7041 4.84599   1
  -7 -12   8  67.228 5.60484   1
  -7 -12   9 17.2758 1.92391   1
  -7 -12  10 13.7699 1.67931   1
  -7 -12  11 5.64647 1.17022   1
  -7 -12  12 13.8479 1.68488   1
  -7 -12  13  39.146 3.53402   1
  -7 -12  14 20.0759 2.21233   1
  -7 -12  15 59.3178 4.94443   1
  -7 -12  16 1.01214 0.82726   1
  -7 -12  17 33.3425 2.97612   1
  -7 -12  18 8.16212 1.11528   1
  -7 -12  19 19.2869 1.89291   1
  -7 -11   1   10.87 1.59499   1
  -7 -11   2 11.3811 1.62685   1
  -7 -11   3 2.99777 1.13116   1
  -7 -11   4 15.5487  1.8786   1
  -7 -11   5  35.671 3.40573   1
  -7 -11   6 38.0783  3.5805   1
  -7 -11   7 34.4596  3.3205   1
  -7 -11   8 109.889 8.89448   1
  -7 -11   9 3.80745 1.08901   1
  -7 -11  10 86.8214 7.12288   1
  -7 -11  11 1.13846 0.92755   1
  -7 -11  12 25.2104 2.59218   1
  -7 -11  13 4.16599 1.09739   1
  -7 -11  14 17.8716 1.98693   1
  -7 -11  15 10.4284 1.46097   1
  -7 -11  16 28.6395 2.76847   1
  -7 -11  17 5.78357 1.10767   1
  -7 -11  18 29.9479 2.78235   1
  -7 -11  19 30.6625 2.77444   1
  -7 -11  20 18.0878 1.86838   1
  -7 -11  21 61.9113 4.99718   1
  -7 -10   1 14.9228 1.45623   1
  -7 -10   2 21.8135  2.4677   1
  -7 -10   3 17.3945 2.03078   1
  -7 -10   4 5.04405  1.2245   1
  -7 -10   5 145.029 11.6452   1
  -7 -10   6 10.0574 1.53012   1
  -7 -10   7 150.748 12.1012   1
  -7 -10   8 6.34578  1.2419   1
  -7 -10   9 20.1503 2.27872   1
  -7 -10  10 17.4024  1.9828   1
  -7 -10  11 15.3552 1.81686   1
  -7 -10  12 21.0598 2.39303   1
  -7 -10  13 47.9914 4.24451   1
  -7 -10  14 8.86916 1.40334   1
  -7 -10  15 9.14694 1.39093   1
  -7 -10  16 43.2588 3.86382   1
  -7 -10  17 1.07454 0.88597   1
  -7 -10  18 140.278 11.1389   1
  -7 -10  19 0.63268  0.7706   1
  -7 -10  20  52.009 4.35253   1
  -7 -10  21 0.72831 0.69816   1
  -7 -10  22 10.6245 1.28381   1
  -7  -9   1 75.9922 4.81587   1
  -7  -9   2 114.763 7.05079   1
  -7  -9   3 75.4586 6.34031   1
  -7  -9   4 70.0588 5.92112   1
  -7  -9   5 5.59371 1.18821   1
  -7  -9   6 10.4133 1.51418   1
  -7  -9   7 3.87414 1.11531   1
  -7  -9   8 72.5029 6.11899   1
  -7  -9   9 245.385 19.5542   1
  -7  -9  10 56.1194 4.87638   1
  -7  -9  11 127.723 10.3369   1
  -7  -9  12 20.2895 2.33631   1
  -7  -9  13 2.45989 0.99765   1
  -7  -9  14 15.7965 1.91606   1
  -7  -9  15 14.5356 1.78641   1
  -7  -9  16 8.48143 1.33418   1
  -7  -9  17 136.122 10.9169   1
  -7  -9  18 11.0331 1.48542   1
  -7  -9  19 102.504  8.2535   1
  -7  -9  20 82.6629 6.70306   1
  -7  -9  21  6.6129 1.08525   1
  -7  -9  22 18.2187 1.94631   1
  -7  -9  23-0.38989 0.62195   1
  -7  -8   1 98.5936  8.1289   1
  -7  -8   2 59.9394 3.88682   1
  -7  -8   3 43.5826 3.65545   1
  -7  -8   4 371.811 29.6769   1
  -7  -8   5 2.32789 0.93393   1
  -7  -8   6 154.193 12.4412   1
  -7  -8   7 0.11754 0.81421   1
  -7  -8   8 5.17125 1.10352   1
  -7  -8   9 0.84302 0.84881   1
  -7  -8  10 29.1316 2.87987   1
  -7  -8  11 3.35915 1.01975   1
  -7  -8  12  249.31 19.9079   1
  -7  -8  13 10.2781 1.48122   1
  -7  -8  14  56.035 4.87283   1
  -7  -8  15 107.844 8.80764   1
  -7  -8  16 0.49691 0.80215   1
  -7  -8  17 96.3563  7.8799   1
  -7  -8  18 13.0282 1.63101   1
  -7  -8  19 10.5916 1.41764   1
  -7  -8  20 21.8656 2.27285   1
  -7  -8  21 21.8556 2.23311   1
  -7  -8  22 0.72577  0.7418   1
  -7  -8  23  49.522 4.15555   1
  -7  -8  24 10.0821 1.22497   1
  -7  -7   1 88.0538 7.32551   1
  -7  -7   2 3.31669 3.15857   1
  -7  -7   3 64.9804 4.57075   1
  -7  -7   4 1.37182 0.59418   1
  -7  -7   5 122.527 9.98954   1
  -7  -7   6 58.6511 5.04744   1
  -7  -7   7 190.619 15.3484   1
  -7  -7   8  71.146 6.00904   1
  -7  -7   9 33.0519 3.11472   1
  -7  -7  10 1.72043 0.81788   1
  -7  -7  11 13.6937 1.64218   1
  -7  -7  12 60.0099 5.18068   1
  -7  -7  13 4.64246 1.08773   1
  -7  -7  14 284.042 22.6785   1
  -7  -7  15 54.2587 4.72669   1
  -7  -7  16 97.5771 8.01005   1
  -7  -7  17 1.23916 0.86372   1
  -7  -7  18  8.8662 1.33033   1
  -7  -7  19 30.8337 2.92637   1
  -7  -7  20 30.4535 2.86225   1
  -7  -7  21 6.05163 1.07811   1
  -7  -7  22  51.152 4.33211   1
  -7  -7  23 4.79583 0.95004   1
  -7  -7  24 6.84603 1.02598   1
  -7  -7  25  23.914 2.23916   1
  -7  -6   1 1.20213 0.71635   1
  -7  -6   2 47.1802 3.12439   1
  -7  -6   3 60.5098 3.89574   1
  -7  -6   4  63.193 4.03684   1
  -7  -6   5 310.435  24.909   1
  -7  -6   6 32.7405 3.06934   1
  -7  -6   7 80.9279 6.75988   1
  -7  -6   8 1.53542 0.72853   1
  -7  -6   9 4.09755 0.86135   1
  -7  -6  10 2.17818 0.76068   1
  -7  -6  11 69.3233 5.86799   1
  -7  -6  12 1.70029 0.81727   1
  -7  -6  13 230.367 18.4854   1
  -7  -6  14 106.432 8.74632   1
  -7  -6  15 147.523 11.9241   1
  -7  -6  16 98.5016 8.09353   1
  -7  -6  17  20.974 2.26196   1
  -7  -6  18 0.82216 0.79023   1
  -7  -6  19 0.97046 0.76736   1
  -7  -6  20  8.9827 1.28021   1
  -7  -6  21 5.90704 1.06701   1
  -7  -6  22 72.4496 5.93539   1
  -7  -6  23 7.16621 1.12296   1
  -7  -6  24 59.4855  4.8816   1
  -7  -6  25 0.87609 0.64391   1
  -7  -5   1 3.16477 0.51257   1
  -7  -5   2 167.596 8.90256   1
  -7  -5   3 19.3273  1.5932   1
  -7  -5   4 21.6091 1.33819   1
  -7  -5   5 0.91032 0.77951   1
  -7  -5   6 71.9437 7.76346   1
  -7  -5   7  15.703 1.28859   1
  -7  -5   8 202.395 14.5694   1
  -7  -5   9  50.879 4.41475   1
  -7  -5  10 76.1112 6.39131   1
  -7  -5  11 138.884 11.3201   1
  -7  -5  12 10.0968 1.38331   1
  -7  -5  13 68.9996 5.83972   1
  -7  -5  14 24.1591 2.44358   1
  -7  -5  15 31.0605 2.95066   1
  -7  -5  16 21.6795 2.30494   1
  -7  -5  17 138.641 11.1774   1
  -7  -5  18 0.06802 0.68715   1
  -7  -5  19 81.5282 6.70265   1
  -7  -5  20 4.08065  0.9396   1
  -7  -5  21 3.06458 0.86207   1
  -7  -5  22 8.85569 1.25356   1
  -7  -5  23 13.8168 1.61485   1
  -7  -5  24  17.118 1.81645   1
  -7  -5  25 68.4261 5.50715   1
  -7  -4   1 324.882 16.5564   1
  -7  -4   2 170.156 8.74257   1
  -7  -4   3 232.569 11.8908   1
  -7  -4   4 74.6369 3.63653   1
  -7  -4   5 7.28928 1.27449   1
  -7  -4   6 12.1775 1.17008   1
  -7  -4   7 3.67102 0.50416   1
  -7  -4   8 76.0701 4.66009   1
  -7  -4   9 48.7312 3.09111   1
  -7  -4  10 535.006 66.6219   1
  -7  -4  11 48.5008 4.68756   1
  -7  -4  12 214.375 17.3014   1
  -7  -4  13 13.7284 1.17048   1
  -7  -4  14  16.191 1.80837   1
  -7  -4  15 29.1374 2.78134   1
  -7  -4  16  44.623 3.93031   1
  -7  -4  17 8.26812 1.20467   1
  -7  -4  18 86.1377 7.08666   1
  -7  -4  19 13.8012 1.63225   1
  -7  -4  20 32.5342 3.02269   1
  -7  -4  21 25.8631 2.50781   1
  -7  -4  22 1.94397 0.79356   1
  -7  -4  23 41.8413 3.61372   1
  -7  -4  24  0.3575 0.62224   1
  -7  -4  25 64.2702 5.18708   1
  -7  -3   1 177.922 20.2284   1
  -7  -3   2 49.5984 3.75078   1
  -7  -3   3 95.8772 4.64648   1
  -7  -3   4 5.33245 0.49189   1
  -7  -3   5 61.6833 3.77172   1
  -7  -3   6 4.04238 0.42903   1
  -7  -3   7 147.002 7.91642   1
  -7  -3   8 9.76109 0.76879   1
  -7  -3   9 193.173 11.5114   1
  -7  -3  10 107.666 9.11032   1
  -7  -3  11 189.253 20.9507   1
  -7  -3  12 67.7316 4.18502   1
  -7  -3  13 85.9365 5.22683   1
  -7  -3  14 12.1358 2.76848   1
  -7  -3  15 10.0496 1.36209   1
  -7  -3  16 49.5678   3.146   1
  -7  -3  17 3.94089 0.85138   1
  -7  -3  18 72.9975 6.06968   1
  -7  -3  19 3.64561 0.83762   1
  -7  -3  20 51.8166 4.41886   1
  -7  -3  21  0.7389 0.64947   1
  -7  -3  22 72.1654 5.90916   1
  -7  -3  23 7.31159 1.03292   1
  -7  -3  24 35.8242 3.11032   1
  -7  -3  25 7.42426  0.9792   1
  -7  -2   1 1.88495 0.55827   1
  -7  -2   2 33.2985 1.77218   1
  -7  -2   3 3.16469 0.44986   1
  -7  -2   4 67.4351 4.53666   1
  -7  -2   5 50.5428 2.82281   1
  -7  -2   6 202.072 12.4732   1
  -7  -2   7 200.613 16.3625   1
  -7  -2   8 131.319  8.6748   1
  -7  -2   9 100.706 5.46324   1
  -7  -2  10 9.68016 1.20714   1
  -7  -2  11 92.2021  5.6047   1
  -7  -2  12 3.02251 0.54273   1
  -7  -2  13 262.432 15.4941   1
  -7  -2  14 22.3874 1.63429   1
  -7  -2  15 104.593 6.27762   1
  -7  -2  16 1.38424 0.79887   1
  -7  -2  17 3.68336 0.65859   1
  -7  -2  18 33.0252 2.40421   1
  -7  -2  19 38.9325 3.78805   1
  -7  -2  20 36.6579 3.28952   1
  -7  -2  21 97.0076 7.82709   1
  -7  -2  22 30.2733 2.75345   1
  -7  -2  23 19.7437  1.9791   1
  -7  -2  24 20.2407 1.94936   1
  -7  -1   1 37.3712 2.21092   1
  -7  -1   2  38.015 3.21616   1
  -7  -1   3 45.8107 3.92142   1
  -7  -1   4 206.578  15.265   1
  -7  -1   5 39.8461 2.77544   1
  -7  -1   6 336.343 17.7729   1
  -7  -1   7  3.9302 1.03647   1
  -7  -1   8 217.753  13.652   1
  -7  -1   9 1.30761 0.59019   1
  -7  -1  10 160.553  14.749   1
  -7  -1  11 6.83025 1.01018   1
  -7  -1  12 100.985 8.33929   1
  -7  -1  13 41.9875 3.72532   1
  -7  -1  14 35.1009 3.20503   1
  -7  -1  15 33.8332 3.15361   1
  -7  -1  16 53.7281 4.67937   1
  -7  -1  17 9.54416 1.46707   1
  -7  -1  18 25.3512 2.68307   1
  -7  -1  19 76.1665 6.37567   1
  -7  -1  20 1.73404 1.04356   1
  -7   0   1 15.8408 1.68565   1
  -7   0   2 4.67969 1.08629   1
  -7   0   3 266.171 16.4652   1
  -7   0   4 17.9802 1.35914   1
  -7   0   5 410.323 45.6811   1
  -7   0   6 100.224  6.3039   1
  -7   0   7 180.054 11.1492   1
  -7   0   8 68.9798 5.83933   1
  -7   0   9 34.4898  3.7304   1
  -7   0  10 69.4794 4.70278   1
  -7   0  11 62.8382 4.99275   1
  -7   0  12 84.5272 18.2693   1
  -7   0  13  63.827 4.43945   1
  -7   0  14 45.2637 3.26161   1
  -7   0  15 0.47447 0.78343   1
  -7   0  16 85.7129  7.1227   1
  -7   0  17 22.4591 2.44568   1
  -7   0  18 169.119 13.5726   1
  -7   0  19  1.1275 1.00197   1
  -7   0  20 36.9228 3.47951   1
  -7   0  21 1.12481 1.05225   1
  -7   0  22 7.66792  1.4419   1
  -7   0  23 28.8129 2.85783   1
  -7   1   0 98.9067 4.63716   1
  -7   1   1 34.7255  2.1261   1
  -7   1   2 170.221 24.1679   1
  -7   1   3 136.424 26.2108   1
  -7   1   4 113.329 6.11407   1
  -7   1   5 163.091 10.1584   1
  -7   1   6 34.6323 2.33352   1
  -7   1   7 288.229 19.3842   1
  -7   1   8 26.4683 1.85479   1
  -7   1   9 275.052 23.1297   1
  -7   1  10 12.0598 1.43252   1
  -7   1  11 47.6865 2.91934   1
  -7   1  12 3.85263 0.92878   1
  -7   1  13 11.4694 1.01618   1
  -7   1  14 11.3204 1.39719   1
  -7   1  15  125.90 10.2674   1
  -7   1  16 22.5891 2.45582   1
  -7   1  17 128.772 10.4523   1
  -7   1  18 82.6018 6.88769   1
  -7   1  19 7.87881 1.37864   1
  -7   1  20 57.6471 4.99015   1
  -7   1  21 4.26987 1.21118   1
  -7   1  22 8.24135 1.39947   1
  -7   1  23 3.75864 1.17319   1
  -7   1  24 17.7941 1.94252   1
  -7   2   0 313.137 16.0947   1
  -7   2   1 47.3975 2.86809   1
  -7   2   2  128.03 8.89383   1
  -7   2   3 1.76283 0.82758   1
  -7   2   4 137.622 7.83849   1
  -7   2   5 4.52363  1.2976   1
  -7   2   6 428.519 23.2973   1
  -7   2   7   16.74 1.09046   1
  -7   2   8 237.878 12.3543   1
  -7   2   9 38.6419 2.74176   1
  -7   2  10 25.5143 1.82827   1
  -7   2  11 13.3787 1.36198   1
  -7   2  12 43.0549 4.92279   1
  -7   2  13 14.9553 1.39837   1
  -7   2  14 43.7396  3.1264   1
  -7   2  15 152.576 15.5076   1
  -7   2  16 4.37597 1.08056   1
  -7   2  17 199.483 15.9664   1
  -7   2  18 0.99806 1.07289   1
  -7   2  19 14.0467 1.85379   1
  -7   2  20 0.31321 1.06437   1
  -7   2  21 7.91284 1.42867   1
  -7   2  22 1.80073 1.11662   1
  -7   2  23 66.8179 5.56234   1
  -7   2  24 6.42294 1.20026   1
  -7   3   0 19.4889 1.68187   1
  -7   3   1 541.284 42.7147   1
  -7   3   2 87.3578 7.92797   1
  -7   3   3  178.23 10.1014   1
  -7   3   4 52.8014  2.7251   1
  -7   3   5 39.0049 2.95187   1
  -7   3   6 89.4724 8.99883   1
  -7   3   7  93.358  4.9057   1
  -7   3   8 141.901 7.77736   1
  -7   3   9 101.332 5.64215   1
  -7   3  10 60.5969 3.15635   1
  -7   3  11 0.17065 0.49679   1
  -7   3  12  70.384 5.27888   1
  -7   3  13  21.068 1.80498   1
  -7   3  14 159.285 14.3779   1
  -7   3  15  2.0606 0.86558   1
  -7   3  16 77.1809 13.1407   1
  -7   3  17    4.21 1.19683   1
  -7   3  18 25.3449 2.78046   1
  -7   3  19 42.2086 3.93065   1
  -7   3  20 30.1198 3.09124   1
  -7   3  21 25.3285 2.72931   1
  -7   3  22 11.5609 1.64405   1
  -7   3  23 3.94791 1.18568   1
  -7   4   0 67.4086 3.94124   1
  -7   4   1 219.754 16.3233   1
  -7   4   2 113.094 7.22865   1
  -7   4   3 557.879 31.0248   1
  -7   4   4 34.6847 1.85658   1
  -7   4   5 254.909 18.0737   1
  -7   4   6 3.54719  0.4799   1
  -7   4   7 3.26357 0.48434   1
  -7   4   8 0.67653 0.38431   1
  -7   4   9 38.3388 3.65881   1
  -7   4  10 8.24834 0.80909   1
  -7   4  11 425.616 27.5247   1
  -7   4  12 53.6028 10.6752   1
  -7   4  13 84.4212 8.52172   1
  -7   4  14 91.5169 14.0234   1
  -7   4  15  4.2665 0.93931   1
  -7   4  16 41.3318 3.06291   1
  -7   4  17 4.88695 1.00822   1
  -7   4  18 20.4608  2.2905   1
  -7   4  19 35.6317 3.48432   1
  -7   4  20 43.7507 3.99548   1
  -7   4  21 3.40393 1.20236   1
  -7   4  22 49.5853 4.29967   1
  -7   4  23 8.04937 1.31173   1
  -7   5   0 12.2052 2.00547   1
  -7   5   1 3.72545 1.10493   1
  -7   5   2 474.829 35.7846   1
  -7   5   3 29.1453 1.68332   1
  -7   5   4  576.77  28.282   1
  -7   5   5 26.2105  1.5053   1
  -7   5   6 29.6843 1.68727   1
  -7   5   7 10.8735 0.83927   1
  -7   5   8 1.61092 0.67663   1
  -7   5   9 27.0144  1.8302   1
  -7   5  10 42.5164 2.32287   1
  -7   5  11 159.004  8.6547   1
  -7   5  12 45.4081  3.3107   1
  -7   5  13  191.66 15.8168   1
  -7   5  14 3.87591 0.95865   1
  -7   5  15 38.9649 10.1444   1
  -7   5  16 3.49839 1.18394   1
  -7   5  17 24.3354 2.16143   1
  -7   5  18 8.93336 2.72312   1
  -7   5  19 50.7333 4.52059   1
  -7   5  20 4.16891 1.26002   1
  -7   5  21 16.9034 1.98151   1
  -7   5  22  8.2849 1.36486   1
  -7   6   0 144.313 8.39519   1
  -7   6   1 83.4061 4.97205   1
  -7   6   2 33.0455 2.41738   1
  -7   6   3 2.00907 0.69652   1
  -7   6   4 44.6232 2.46048   1
  -7   6   5 80.3612 4.13401   1
  -7   6   6 102.605 10.1474   1
  -7   6   7 100.103 7.82289   1
  -7   6   8  153.73 9.22994   1
  -7   6   9 9.76943 0.84367   1
  -7   6  10 118.623 5.91801   1
  -7   6  11 55.4301 3.23757   1
  -7   6  12 59.7333 3.45268   1
  -7   6  13 7.73292 1.16365   1
  -7   6  14 65.6768 5.38382   1
  -7   6  15 8.73901  1.2563   1
  -7   6  16 48.5677 5.22421   1
  -7   6  17 15.6317 5.53905   1
  -7   6  18 7.90952 1.16999   1
  -7   6  19 19.9928 1.77641   1
  -7   6  20 -0.5168 1.02109   1
  -7   6  21 30.1747 2.91602   1
  -7   7   0 31.1685 2.05655   1
  -7   7   1 332.865 18.9869   1
  -7   7   2 18.6381 1.94578   1
  -7   7   3 38.2062  2.4745   1
  -7   7   4 4.90503 0.68537   1
  -7   7   5 17.7722 1.45105   1
  -7   7   6 45.3872 2.45119   1
  -7   7   7 245.775 12.0361   1
  -7   7   8 69.7501  3.6127   1
  -7   7   9 162.354 8.04039   1
  -7   7  10 11.4436 1.03673   1
  -7   7  11 3.40417 2.10901   1
  -7   7  12 34.2426 2.18502   1
  -7   7  13 4.94148   1.061   1
  -7   7  14 105.583 12.4467   1
  -7   7  15 37.8549 2.92321   1
  -7   7  16 56.5022 3.97864   1
  -7   7  17 4.74198 3.98792   1
  -7   7  18 5.48885 1.08725   1
  -7   7  19 6.20754 1.04129   1
  -7   7  20 12.7524  1.6443   1
  -7   7  21 14.1531 1.75353   1
  -7   8   0 405.409 28.3702   1
  -7   8   1 11.6888 1.52267   1
  -7   8   2 2.90779 0.62996   1
  -7   8   3 4.22224 0.73978   1
  -7   8   4 17.3706 5.66465   1
  -7   8   5 26.9729 1.61944   1
  -7   8   6 153.344 7.71733   1
  -7   8   7 124.833 7.26981   1
  -7   8   8 18.9787 1.87502   1
  -7   8   9 210.433 12.1573   1
  -7   8  10 6.28402 0.84237   1
  -7   8  11 84.9152 4.74635   1
  -7   8  12-0.00861 1.15899   1
  -7   8  13 15.5003 1.59841   1
  -7   8  14 0.08157 0.90804   1
  -7   8  15  27.631 3.06786   1
  -7   8  16 2.38478 0.97323   1
  -7   8  17 33.1183  3.8683   1
  -7   8  18 13.9622 1.43321   1
  -7   8  19 22.5361 2.14128   1
  -7   9   0 19.5216 1.50877   1
  -7   9   1 117.717 6.86278   1
  -7   9   2 218.779 12.4866   1
  -7   9   3 97.7703 6.81441   1
  -7   9   4 146.321 12.0765   1
  -7   9   5 41.8825 2.73982   1
  -7   9   6 31.4697 2.19612   1
  -7   9   7 44.5676 2.50016   1
  -7   9   8 39.2779 2.87467   1
  -7   9   9 1.46505 0.67496   1
  -7   9  10  129.75 7.04442   1
  -7   9  11 11.6612 1.10687   1
  -7   9  12 88.3238 6.33994   1
  -7   9  13 60.5121 5.05359   1
  -7   9  14 3.74519 1.31446   1
  -7   9  15 13.0993 1.47457   1
  -7   9  16-0.53961 1.29425   1
  -7   9  17 9.84473  1.4438   1
  -7   9  18 4.85721 1.77814   1
  -7   9  19 50.4606 5.13005   1
  -7  10   0 0.98303 0.59103   1
  -7  10   1 1.57559 0.66744   1
  -7  10   2 9.96206 1.06526   1
  -7  10   3 127.343 8.74917   1
  -7  10   4 12.8814 1.24869   1
  -7  10   5  227.40 14.3354   1
  -7  10   6 17.5361 3.14578   1
  -7  10   7 14.1634 1.34843   1
  -7  10   8 109.519 5.49603   1
  -7  10   9 1.58434 0.70896   1
  -7  10  10 108.287 6.52284   1
  -7  10  11  15.736 1.29444   1
  -7  10  12 12.1972 1.12845   1
  -7  10  13 19.8928 1.47229   1
  -7  10  14 7.19159 1.44936   1
  -7  10  15-0.14846   1.158   1
  -7  10  16 47.2943 15.0225   1
  -7  10  17 17.1989 1.55021   1
  -7  11   0 172.656 11.6351   1
  -7  11   1 101.204 6.60463   1
  -7  11   2  131.05 7.59199   1
  -7  11   3 82.0412 7.85052   1
  -7  11   4 6.45822 0.97273   1
  -7  11   5 67.5138 5.87344   1
  -7  11   6 6.61233 1.00229   1
  -7  11   7 81.8808 6.28334   1
  -7  11   8 21.0138 2.00294   1
  -7  11   9 54.2893 3.99008   1
  -7  11  10 0.52992 1.01917   1
  -7  11  11 32.1047 2.07769   1
  -7  11  12  16.125 2.41462   1
  -7  11  13 34.3754 2.98141   1
  -7  11  14  13.518 1.66978   1
  -7  11  15  15.408 4.80708   1
  -7  11  16 9.11321 1.76622   1
  -7  12   0  33.298 2.23821   1
  -7  12   1 6.68185 0.90633   1
  -7  12   2 41.7366 2.36019   1
  -7  12   3 0.84582 0.56434   1
  -7  12   4 105.231  12.322   1
  -7  12   5 1.35575 0.79208   1
  -7  12   6 105.412 9.23711   1
  -7  12   7 59.6549 4.32101   1
  -7  12   8 27.4144 2.41007   1
  -7  12   9 27.4466 2.41613   1
  -7  12  10  3.4901 1.31512   1
  -7  12  11  1.2436 1.54346   1
  -7  12  12 5.38618 1.67084   1
  -7  12  13 17.6029   2.497   1
  -7  12  14 6.19641 1.58442   1
  -7  13   0 4.66277 0.84993   1
  -7  13   1 50.8802 3.09849   1
  -7  13   2 32.7612 2.18951   1
  -7  13   3 7.88093 0.85265   1
  -7  13   4 99.7999 7.58794   1
  -7  13   5 15.2896 2.65254   1
  -7  13   6 45.2661 9.19751   1
  -7  13   7 16.2679 4.33492   1
  -7  13   8   6.003 1.12718   1
  -7  13   9 2.91747  1.3813   1
  -7  13  10 15.0426 2.26304   1
  -7  13  11 -0.6541 1.05638   1
  -7  13  12 52.3765 5.40098   1
  -7  13  13 6.75894 1.54941   1
  -7  14   0 1.13618  0.7158   1
  -7  14   1 28.7733 2.01584   1
  -7  14   2  0.7877 0.70467   1
  -7  14   3 62.2642 6.20571   1
  -7  14   4 0.59657  0.6261   1
  -7  14   5 72.0291 3.70316   1
  -7  14   6 1.28972 1.24788   1
  -7  14   7 29.9576 3.47258   1
  -7  14   8 3.36781 1.38259   1
  -7  14   9   10.63 1.87957   1
  -7  14  10 6.09161 1.48324   1
  -7  14  11 11.9288 1.85487   1
  -7  15   0 101.573 9.44205   1
  -7  15   1 18.9109 1.84875   1
  -7  15   2   57.65 10.6357   1
  -7  15   3  24.694 3.26712   1
  -7  15   4 8.71563 1.98382   1
  -7  15   6 5.79558  1.3678   1
  -7  15   7 5.99797  1.4114   1
  -7  15   8 20.1157 2.52565   1
  -7  16   0 70.2364 7.25009   1
  -7  16   1 44.4238 4.90503   1
  -7  16   2 38.3729 4.37487   1
  -6 -14   2 23.8904 2.41429   1
  -6 -14   3 16.6061 1.82295   1
  -6 -14   4 40.9396  3.6207   1
  -6 -14   5  84.559 6.81497   1
  -6 -14   6 5.24912 1.08586   1
  -6 -14   7 63.9251 5.27129   1
  -6 -14   8 2.93106 0.90781   1
  -6 -14   9  10.454 1.34764   1
  -6 -14  10 0.52396  0.7174   1
  -6 -14  11 27.1825  2.5527   1
  -6 -14  12 3.86233 0.95118   1
  -6 -14  13 84.6494 6.76251   1
  -6 -14  14 3.56597 0.81663   1
  -6 -14  15 23.3806 2.19563   1
  -6 -14  16 10.0758 1.20462   1
  -6 -13   1 1.12068 1.01946   1
  -6 -13   2 20.6601 2.33267   1
  -6 -13   3 0.91868 1.02008   1
  -6 -13   4 74.4773 6.16084   1
  -6 -13   5 0.27094 0.96206   1
  -6 -13   6 82.3371 6.74234   1
  -6 -13   7 2.87397 1.01497   1
  -6 -13   8 66.2387  4.6943   1
  -6 -13   9 18.3908 2.88428   1
  -6 -13  10 36.8565 2.87263   1
  -6 -13  11 9.26543 1.33876   1
  -6 -13  12 2.25127 0.90831   1
  -6 -13  13 18.2553 2.07394   1
  -6 -13  14 1.51269 0.82466   1
  -6 -13  15 55.9193 4.65202   1
  -6 -13  16 15.6848 1.78272   1
  -6 -13  17 63.3156 5.12436   1
  -6 -13  18   3.202 0.74981   1
  -6 -13  19 28.6884 2.49055   1
  -6 -12   1 82.6519   6.826   1
  -6 -12   2 0.06898 1.00589   1
  -6 -12   3 31.9385 3.13252   1
  -6 -12   4 3.97941 1.16604   1
  -6 -12   5 32.6412  3.1378   1
  -6 -12   6 89.2826 7.33113   1
  -6 -12   7 49.8092 8.51802   1
  -6 -12   8  114.27 14.2571   1
  -6 -12   9  7.0103 1.35001   1
  -6 -12  10 10.5842  1.2693   1
  -6 -12  11 0.42904 0.85134   1
  -6 -12  12 1.71939 0.94378   1
  -6 -12  13 1.58333 0.91879   1
  -6 -12  14 71.1069 5.88613   1
  -6 -12  15  7.4888 1.26548   1
  -6 -12  16  163.11 12.8989   1
  -6 -12  17 42.8581 3.71129   1
  -6 -12  18 45.2358 3.82648   1
  -6 -12  19 4.93164 0.89503   1
  -6 -12  20 0.56433 0.61791   1
  -6 -12  21 1.91528 0.65249   1
  -6 -11   1 83.2824 6.92945   1
  -6 -11   2 7.32386 1.36536   1
  -6 -11   3 36.5347 3.47771   1
  -6 -11   4 31.0992 3.05309   1
  -6 -11   5 28.7477  2.4814   1
  -6 -11   6  4.8901 1.05103   1
  -6 -11   7 112.832 7.77238   1
  -6 -11   8 14.1903 2.19476   1
  -6 -11   9 102.224 10.1774   1
  -6 -11  10 11.6322 3.98892   1
  -6 -11  11 12.1195 1.57025   1
  -6 -11  12 12.2122 1.60295   1
  -6 -11  13 8.65035 1.34764   1
  -6 -11  14  35.661 3.33797   1
  -6 -11  15 52.4589 4.54125   1
  -6 -11  16  50.336 4.34958   1
  -6 -11  17 26.6456 2.63188   1
  -6 -11  18 76.4969 6.24182   1
  -6 -11  19 2.68171 0.82023   1
  -6 -11  20 37.6752 3.27646   1
  -6 -11  21 0.59762 0.65918   1
  -6 -11  22 7.19339 1.02986   1
  -6 -11  23 3.65118 0.79037   1
  -6 -10   1 1.10841 1.05279   1
  -6 -10   2 150.889  12.152   1
  -6 -10   3 39.3193 3.67884   1
  -6 -10   4 172.351  21.497   1
  -6 -10   5 37.4692 2.97675   1
  -6 -10   6 27.4391 2.37434   1
  -6 -10   7 1.79912 0.78612   1
  -6 -10   8 2.18189  0.7843   1
  -6 -10   9 15.3964 1.82148   1
  -6 -10  10 32.6669  3.1272   1
  -6 -10  11 159.912  12.839   1
  -6 -10  12 61.5533 5.25547   1
  -6 -10  13 110.394  8.9798   1
  -6 -10  14 1.39206 0.92402   1
  -6 -10  15 33.9802 3.21882   1
  -6 -10  16 10.3923 1.47562   1
  -6 -10  17 42.0028 3.76371   1
  -6 -10  18 0.69092 0.84176   1
  -6 -10  19 70.8833 5.84133   1
  -6 -10  20 8.72935 1.23376   1
  -6 -10  21 31.4475 2.86643   1
  -6 -10  22 19.7113 2.01475   1
  -6 -10  23 1.40298 0.67733   1
  -6 -10  24 11.0524 1.24221   1
  -6  -9   1 47.8983 4.30722   1
  -6  -9   2 32.5942 3.17554   1
  -6  -9   3 101.119 7.06485   1
  -6  -9   4 141.236 17.9185   1
  -6  -9   5 30.8389 3.88832   1
  -6  -9   6 98.2643 10.4326   1
  -6  -9   7  0.6646  0.6941   1
  -6  -9   8 8.94741 1.33079   1
  -6  -9   9 1.66045 0.89387   1
  -6  -9  10 31.3278 3.02082   1
  -6  -9  11  25.366 2.62298   1
  -6  -9  12 253.594 20.2484   1
  -6  -9  13 16.2659 1.89494   1
  -6  -9  14 181.542 14.5567   1
  -6  -9  15 3.46557 0.99608   1
  -6  -9  16 2.77166 0.95965   1
  -6  -9  17 39.1008  3.5717   1
  -6  -9  18 1.57183 0.87412   1
  -6  -9  19 72.0944 5.97068   1
  -6  -9  20 24.9284 2.48187   1
  -6  -9  21 18.8751 2.06453   1
  -6  -9  22 3.76061 0.91955   1
  -6  -9  23 20.0308 2.05145   1
  -6  -9  24  4.8941 0.92075   1
  -6  -9  25 50.3986 4.14199   1
  -6  -8   1 296.873 23.7444   1
  -6  -8   2 4.32458 1.02382   1
  -6  -8   3 154.801 10.6123   1
  -6  -8   4 7.48528 1.02639   1
  -6  -8   5 7.92609  3.0693   1
  -6  -8   6 0.85113 0.75774   1
  -6  -8   7 24.9993 2.50401   1
  -6  -8   8 21.4385 2.25427   1
  -6  -8   9 207.065 16.6598   1
  -6  -8  10   85.41 7.10148   1
  -6  -8  11 67.6528 5.73218   1
  -6  -8  12  96.157 7.94432   1
  -6  -8  13 1.26134 0.83627   1
  -6  -8  14 141.446 11.4643   1
  -6  -8  15 17.5519 2.07509   1
  -6  -8  16 72.2213  6.0649   1
  -6  -8  17 29.0523 2.84677   1
  -6  -8  18 9.71141 1.37984   1
  -6  -8  19  13.675 1.64765   1
  -6  -8  20 21.7376 2.25314   1
  -6  -8  21 38.0491 3.39464   1
  -6  -8  22 90.2326 7.29116   1
  -6  -8  23 4.78519 0.95584   1
  -6  -8  24 33.4421 2.97431   1
  -6  -8  25 12.1632 1.34928   1
  -6  -7   1 3.69791 0.96168   1
  -6  -7   2 79.8215  8.9672   1
  -6  -7   3 6.00702 0.92466   1
  -6  -7   4 24.2553 2.41431   1
  -6  -7   5 97.5243  8.0597   1
  -6  -7   6  37.989 3.43445   1
  -6  -7   7 167.753 13.6085   1
  -6  -7   8 14.8824 1.74775   1
  -6  -7   9 97.3293 8.04826   1
  -6  -7  10 0.04851  0.6129   1
  -6  -7  11 113.383 9.30403   1
  -6  -7  12  1.3367 0.80174   1
  -6  -7  13 163.867 13.2643   1
  -6  -7  14 6.47682 1.20229   1
  -6  -7  15 73.8217 6.22169   1
  -6  -7  16 59.6864 5.11802   1
  -6  -7  17  30.611 2.96388   1
  -6  -7  18 6.54985 1.13382   1
  -6  -7  19 11.1639  1.4502   1
  -6  -7  20 1.57989 0.81144   1
  -6  -7  21 4.69386 0.98346   1
  -6  -7  22 114.399 9.17273   1
  -6  -7  23 5.67593 1.03264   1
  -6  -7  24 135.424 10.7002   1
  -6  -7  25 2.84514 0.76436   1
  -6  -7  26 4.14921 0.75147   1
  -6  -6   1 9.63783 1.26943   1
  -6  -6   2 58.5687 4.25408   1
  -6  -6   3 0.67271 0.62544   1
  -6  -6   4 30.2746 2.81155   1
  -6  -6   5 0.46436 0.61368   1
  -6  -6   6 140.158 11.4669   1
  -6  -6   7 17.3538 1.89088   1
  -6  -6   8  339.85 27.4085   1
  -6  -6   9 21.9446 2.18636   1
  -6  -6  10 163.034  13.261   1
  -6  -6  11  28.595 2.72988   1
  -6  -6  12 29.4571 2.81733   1
  -6  -6  13  124.97 10.2296   1
  -6  -6  14 45.0041 4.00322   1
  -6  -6  15 69.9447 5.90589   1
  -6  -6  16 29.8555 2.86567   1
  -6  -6  17 12.3468 1.52674   1
  -6  -6  18 1.83626 0.82438   1
  -6  -6  19 72.4617 6.03251   1
  -6  -6  20 2.60696 0.86892   1
  -6  -6  21 122.693 9.85769   1
  -6  -6  22 0.52045 0.72036   1
  -6  -6  23 30.0127 2.82029   1
  -6  -6  24 13.4676 1.53312   1
  -6  -6  25 17.6901 1.82596   1
  -6  -6  26 15.8489 1.67285   1
  -6  -5   1  6.1066  0.6482   1
  -6  -5   2 12.1627 1.03643   1
  -6  -5   3 55.1744 3.45019   1
  -6  -5   4 58.4636 3.12946   1
  -6  -5   5 331.296 16.9516   1
  -6  -5   6 229.126 18.6426   1
  -6  -5   7 124.876 10.3014   1
  -6  -5   8 128.599 10.5922   1
  -6  -5   9  0.4501 0.51914   1
  -6  -5  10 145.618 11.9182   1
  -6  -5  11 39.9928  3.5827   1
  -6  -5  12 151.172  12.335   1
  -6  -5  13 43.9109 3.89097   1
  -6  -5  14 37.3507 3.38721   1
  -6  -5  15 13.0156 1.54224   1
  -6  -5  16 51.2422 4.45454   1
  -6  -5  17 36.6942 3.35141   1
  -6  -5  18  93.754 7.70145   1
  -6  -5  19 12.6556 1.57461   1
  -6  -5  20 49.3973 4.27263   1
  -6  -5  21  42.698 3.76482   1
  -6  -5  22 15.4312 1.77645   1
  -6  -5  23 35.7657  3.2037   1
  -6  -5  24  5.5686 0.96476   1
  -6  -5  25  17.338 1.80791   1
  -6  -5  26 0.14423 0.58027   1
  -6  -4   1 218.292 34.2885   1
  -6  -4   2 36.7963 2.38901   1
  -6  -4   3 110.657 5.79873   1
  -6  -4   4 16.6739 1.09273   1
  -6  -4   5 28.7076 1.68866   1
  -6  -4   6 6.02083 0.66873   1
  -6  -4   7 365.358  29.674   1
  -6  -4   8 3.67384 0.60231   1
  -6  -4   9 629.617 37.3506   1
  -6  -4  10 16.9817 1.39018   1
  -6  -4  11 84.5295 7.06962   1
  -6  -4  12 66.8282    5.67   1
  -6  -4  13 4.98891 0.87201   1
  -6  -4  14 2.29583 0.69596   1
  -6  -4  15 55.2981 4.75211   1
  -6  -4  16  20.832 2.15102   1
  -6  -4  17 45.5735  3.9949   1
  -6  -4  18 231.289 18.4727   1
  -6  -4  19 5.43497 1.01394   1
  -6  -4  20  133.06 10.7059   1
  -6  -4  21-0.07477  0.6272   1
  -6  -4  22 4.76206 0.97713   1
  -6  -4  23 0.23828 0.68063   1
  -6  -4  24 19.3659  2.0097   1
  -6  -4  25 1.83942 0.70247   1
  -6  -4  26 57.1357 4.66221   1
  -6  -3   1 5.46023 0.53511   1
  -6  -3   2 440.858 23.9652   1
  -6  -3   3 14.4772 1.95363   1
  -6  -3   4 280.954 15.3507   1
  -6  -3   5 26.3009 1.62527   1
  -6  -3   6 130.702  7.4896   1
  -6  -3   7 61.7905 4.24699   1
  -6  -3   8 141.587 9.38491   1
  -6  -3   9 249.762 35.1276   1
  -6  -3  10  173.51 10.4207   1
  -6  -3  11 115.127 6.97156   1
  -6  -3  12 23.8908 1.66408   1
  -6  -3  13 7.95283 2.38324   1
  -6  -3  14 4.82643 0.62203   1
  -6  -3  15 117.646 7.05914   1
  -6  -3  16 0.53906 0.57255   1
  -6  -3  17  228.12 18.2715   1
  -6  -3  18 0.27439  0.6193   1
  -6  -3  19 88.9539 7.31419   1
  -6  -3  20 27.9385 2.67288   1
  -6  -3  21 24.8252 2.47645   1
  -6  -3  22 21.4423 2.17767   1
  -6  -3  23 19.3807 2.00684   1
  -6  -3  24 4.64877 0.87209   1
  -6  -3  25 5.32678 0.86645   1
  -6  -3  26 10.8603 1.24572   1
  -6  -2   1 190.988 10.5195   1
  -6  -2   2 361.772 19.7606   1
  -6  -2   3 262.678 20.5702   1
  -6  -2   4 335.441 18.3494   1
  -6  -2   5 51.4454 2.95874   1
  -6  -2   6 200.741 15.4886   1
  -6  -2   7 13.9441 1.24748   1
  -6  -2   8 130.749 8.70905   1
  -6  -2   9  27.005 2.01799   1
  -6  -2  10 105.901 8.80545   1
  -6  -2  11 0.69869 0.70017   1
  -6  -2  12 198.517 12.9075   1
  -6  -2  13 35.2878 2.67783   1
  -6  -2  14 157.518 21.4186   1
  -6  -2  15  67.171 5.23455   1
  -6  -2  16 25.6238 3.03316   1
  -6  -2  17 57.5299 6.12311   1
  -6  -2  18 23.5198 2.24497   1
  -6  -2  19 31.8484 2.94833   1
  -6  -2  20 43.9862  3.8562   1
  -6  -2  21 45.9731 3.98668   1
  -6  -2  22 6.57263 1.06116   1
  -6  -2  23 58.4682 4.85046   1
  -6  -2  24  1.2927 0.62316   1
  -6  -2  25  13.139 1.44789   1
  -6  -2  26 1.46386 0.65043   1
  -6  -1   1  17.677 1.16606   1
  -6  -1   2 17.1182 1.13366   1
  -6  -1   3 334.243 22.1021   1
  -6  -1   4 0.95779 0.82574   1
  -6  -1   5 1901.44 103.666   1
  -6  -1   6 42.6954 2.49472   1
  -6  -1   7 310.129 16.9683   1
  -6  -1   8 34.0106 2.45199   1
  -6  -1   9 52.7347 5.33988   1
  -6  -1  10 5.83574 0.98196   1
  -6  -1  11 29.7312 2.08878   1
  -6  -1  12 70.9427 5.98127   1
  -6  -1  13  288.69 32.4234   1
  -6  -1  14 307.987 25.5231   1
  -6  -1  15 45.7174 2.91665   1
  -6  -1  16 146.106 9.97138   1
  -6  -1  17 22.6415   1.677   1
  -6  -1  18 28.6877 3.93083   1
  -6  -1  19  8.5694 0.93084   1
  -6  -1  20 55.9107 3.49421   1
  -6  -1  21 3.71522 0.83406   1
  -6  -1  22   51.06   4.309   1
  -6  -1  23 2.17967  0.6834   1
  -6  -1  24 14.1202 1.60453   1
  -6   0   1 124.787 6.97144   1
  -6   0   2 342.393 18.8159   1
  -6   0   3 108.543  6.0859   1
  -6   0   4 120.048 6.71658   1
  -6   0   5 216.599 11.9631   1
  -6   0   6 123.976 6.90464   1
  -6   0   7 151.349 8.38658   1
  -6   0   8 174.581 22.2941   1
  -6   0   9 52.9635 3.66469   1
  -6   0  10   17.18 1.34767   1
  -6   0  11 153.935 10.8354   1
  -6   0  12 36.6817 3.27559   1
  -6   0  13 276.219 22.3223   1
  -6   0  14 23.5907  2.3133   1
  -6   0  15 138.117 11.2574   1
  -6   0  16 3.75423 0.93266   1
  -6   0  17 64.1674  5.4867   1
  -6   0  18 9.48703  1.4385   1
  -6   0  19 26.3377   2.764   1
  -6   0  20 39.5753 3.67473   1
  -6   0  21 12.6379 1.70911   1
  -6   0  22 36.4397 3.44925   1
  -6   1   0 256.673 18.0011   1
  -6   1   1 180.488 14.7976   1
  -6   1   2  352.61 24.4937   1
  -6   1   3 54.5963 3.13717   1
  -6   1   4 330.634 21.2439   1
  -6   1   5 36.1747  2.1379   1
  -6   1   6 118.431 8.58035   1
  -6   1   7 6.07096 0.55092   1
  -6   1   8 215.068 13.9871   1
  -6   1   9 79.3688 5.14721   1
  -6   1  10 244.396 19.9549   1
  -6   1  11 26.7302 2.07564   1
  -6   1  12 73.0717 5.35762   1
  -6   1  13 24.3475 3.32926   1
  -6   1  14 36.0765  3.2976   1
  -6   1  15 148.235 12.0572   1
  -6   1  16 59.4119 5.13202   1
  -6   1  17 205.091  16.463   1
  -6   1  18 18.3205 2.12287   1
  -6   1  19 23.9447  2.6324   1
  -6   1  20 0.09068 1.00101   1
  -6   1  21 0.62398 0.96366   1
  -6   1  22 6.33254 1.34804   1
  -6   1  23 62.3498 5.26702   1
  -6   1  24 8.70255 1.40313   1
  -6   2   0 31.3287 3.43159   1
  -6   2   1 2436.69 140.631   1
  -6   2   2 76.7709  5.9039   1
  -6   2   3 237.673 15.5686   1
  -6   2   4 3.36501 0.59442   1
  -6   2   5  90.446 6.04671   1
  -6   2   6 3.45971 1.63821   1
  -6   2   7 166.839 10.9171   1
  -6   2   8 159.246 9.05226   1
  -6   2   9 488.141 26.5344   1
  -6   2  10 503.563 42.5591   1
  -6   2  11 16.8179 2.52541   1
  -6   2  12 154.951 37.1545   1
  -6   2  13 44.0882 4.37379   1
  -6   2  14 28.3094 4.36352   1
  -6   2  15 0.65392 0.83378   1
  -6   2  16 78.4415  6.5942   1
  -6   2  17 16.1879 1.94892   1
  -6   2  18 107.922 8.88321   1
  -6   2  19 6.08092 1.31207   1
  -6   2  20 36.2121 3.48381   1
  -6   2  21 41.7852 3.88551   1
  -6   2  22 7.62861 1.36142   1
  -6   2  23  38.979 3.55001   1
  -6   2  24 1.88344  1.0283   1
  -6   3   0 153.395 8.99592   1
  -6   3   1 61.0115  3.6158   1
  -6   3   2 138.957 9.36606   1
  -6   3   3  230.35  19.441   1
  -6   3   4 229.301 24.0394   1
  -6   3   5 279.172  19.763   1
  -6   3   6 16.4011 1.32507   1
  -6   3   7 138.179  15.321   1
  -6   3   8 78.5245 4.21926   1
  -6   3   9 117.613 9.74893   1
  -6   3  10 7.59153 0.97259   1
  -6   3  11 233.599 15.2217   1
  -6   3  12 2.75232 0.69178   1
  -6   3  13 260.953 28.8426   1
  -6   3  14 43.3862 3.13698   1
  -6   3  15 34.7879  2.6531   1
  -6   3  16 98.8597 8.14357   1
  -6   3  17  2.9895 1.11989   1
  -6   3  18 17.5474 2.06304   1
  -6   3  19 10.8225 1.62522   1
  -6   3  20 19.5275 2.22613   1
  -6   3  21 13.7038 1.80518   1
  -6   3  22 82.1681 6.78152   1
  -6   3  23 2.49195 1.10568   1
  -6   3  24 48.3953 4.13598   1
  -6   4   0  533.89 51.7911   1
  -6   4   1 6.84973  0.5848   1
  -6   4   2 26.0212 3.33846   1
  -6   4   3 1.67628 0.40358   1
  -6   4   4 117.478 13.2813   1
  -6   4   5 10.5476  1.2974   1
  -6   4   6 491.074 27.4327   1
  -6   4   7 12.6358 1.24424   1
  -6   4   8 171.833 9.46062   1
  -6   4   9 99.0993 6.15621   1
  -6   4  10 18.6268 1.17908   1
  -6   4  11 282.571 15.2287   1
  -6   4  12  29.067 2.28201   1
  -6   4  13 145.367 9.53296   1
  -6   4  14 39.7243 2.94442   1
  -6   4  15 6.68314 1.05124   1
  -6   4  16 11.2868 1.37851   1
  -6   4  17 8.99261 1.19822   1
  -6   4  18 5.60323 1.33277   1
  -6   4  19 135.794 10.9846   1
  -6   4  20 29.4685 3.05914   1
  -6   4  21 91.4118 7.51733   1
  -6   4  22 10.4962 1.57339   1
  -6   4  23 1.68389 1.03688   1
  -6   5   0 1.54695 0.37675   1
  -6   5   1 88.4331 5.70507   1
  -6   5   2 39.8935 2.43812   1
  -6   5   3 383.698  21.523   1
  -6   5   4 198.443 11.2444   1
  -6   5   5 106.173  6.1146   1
  -6   5   6 257.732 14.4511   1
  -6   5   7 1.17139 0.37314   1
  -6   5   8 130.473 10.3024   1
  -6   5   9  5.4401 0.70957   1
  -6   5  10 133.466 7.48786   1
  -6   5  11 7.49289 1.10136   1
  -6   5  12 177.512 11.5772   1
  -6   5  13 2.38389 0.80386   1
  -6   5  14 73.4536 5.36007   1
  -6   5  15 13.2314 1.55843   1
  -6   5  16 20.7519 3.06004   1
  -6   5  17 19.4951 1.81573   1
  -6   5  18 21.0668 3.27631   1
  -6   5  19 35.1328  3.4682   1
  -6   5  20 12.3853  1.7876   1
  -6   5  21  46.274 4.17061   1
  -6   5  22 4.94433 1.22604   1
  -6   5  23 29.1442 2.81028   1
  -6   6   0 39.1778 2.53076   1
  -6   6   1 93.0346 8.75766   1
  -6   6   2  14.913 1.40289   1
  -6   6   3 249.731 14.0556   1
  -6   6   4 9.56938 1.52529   1
  -6   6   5 202.991 11.7801   1
  -6   6   6 0.74008 0.40059   1
  -6   6   7 221.169 10.9741   1
  -6   6   8 72.8065 3.82521   1
  -6   6   9 244.213 12.7305   1
  -6   6  10  75.522 4.26035   1
  -6   6  11 48.8711 5.37421   1
  -6   6  12 7.05678 0.82762   1
  -6   6  13 1.85028 0.82052   1
  -6   6  14 10.8555 3.63288   1
  -6   6  15 25.0516 2.19325   1
  -6   6  16 99.8236 8.55625   1
  -6   6  17 18.2313 4.66683   1
  -6   6  18 106.309 6.96915   1
  -6   6  19  4.8578 1.06455   1
  -6   6  20 27.6268 2.88035   1
  -6   6  21 11.9165 1.68159   1
  -6   6  22  9.5163 1.46567   1
  -6   7   0 327.086 26.6369   1
  -6   7   1 1.90955 1.16648   1
  -6   7   2 126.218 8.73904   1
  -6   7   3 28.9404 1.95586   1
  -6   7   4 43.6284 2.74612   1
  -6   7   5 158.475 8.33046   1
  -6   7   6  144.44 7.25553   1
  -6   7   7 185.382 9.18287   1
  -6   7   8 91.4392 5.05676   1
  -6   7   9  72.724 5.74618   1
  -6   7  10  3.9698 1.09215   1
  -6   7  11 33.1073 2.56186   1
  -6   7  12 5.27211 0.89612   1
  -6   7  13 45.6614 3.59713   1
  -6   7  14 0.68901 0.88243   1
  -6   7  15 83.7709 5.63558   1
  -6   7  16 25.6915 5.68151   1
  -6   7  17 56.0211  3.9636   1
  -6   7  18 19.1205 3.01798   1
  -6   7  19  13.254  1.9189   1
  -6   7  20  5.8637 1.41893   1
  -6   7  21 9.62906 1.44843   1
  -6   8   0 59.5048 6.51894   1
  -6   8   1  33.369 2.73174   1
  -6   8   2 69.1873   4.186   1
  -6   8   3 35.9611 2.47102   1
  -6   8   4 127.449 7.39557   1
  -6   8   5 10.8513 0.98452   1
  -6   8   6 298.824 16.7159   1
  -6   8   7 9.13192 1.10591   1
  -6   8   8 203.885 9.09493   1
  -6   8   9 0.21899 0.46446   1
  -6   8  10 13.8218 1.14488   1
  -6   8  11 1.66152 0.63811   1
  -6   8  12 11.0172 1.05779   1
  -6   8  13 32.7614 3.05668   1
  -6   8  14 80.9359 5.47674   1
  -6   8  15 64.4199 6.67526   1
  -6   8  16 28.8527 2.43319   1
  -6   8  17 33.0758 2.59832   1
  -6   8  18-0.09953 1.26069   1
  -6   8  19 27.7738 4.61354   1
  -6   8  20 1.47348  0.8226   1
  -6   9   0 23.5846 1.41415   1
  -6   9   1 205.611 13.9703   1
  -6   9   2 16.5526 1.14404   1
  -6   9   3 63.1692 3.31356   1
  -6   9   4 92.2904 4.73696   1
  -6   9   5 147.447 9.64828   1
  -6   9   6 11.0137 1.26236   1
  -6   9   7 95.8056 4.57407   1
  -6   9   8  2.7359 0.58143   1
  -6   9   9 18.2009 1.74534   1
  -6   9  10 76.3429 3.77216   1
  -6   9  11 27.0577 1.61207   1
  -6   9  12 89.7754 7.44753   1
  -6   9  13 6.17827 1.09988   1
  -6   9  14 27.3777  2.3242   1
  -6   9  15 5.06529 1.07983   1
  -6   9  16  31.834 4.43907   1
  -6   9  17  3.2425 1.00611   1
  -6   9  18 60.8783 4.27844   1
  -6   9  19 0.70407 1.69643   1
  -6  10   0 20.9883 2.04523   1
  -6  10   1 156.592  7.8054   1
  -6  10   2 501.313 24.6685   1
  -6  10   3 242.454  11.952   1
  -6  10   4 87.3563 4.46087   1
  -6  10   5 52.7504 3.42102   1
  -6  10   6 47.5358 2.70333   1
  -6  10   7 13.0593 0.91744   1
  -6  10   8 5.96508 1.10205   1
  -6  10   9 52.0024 3.65324   1
  -6  10  10 40.9287 2.21291   1
  -6  10  11 107.856 5.17859   1
  -6  10  12  19.235 1.28422   1
  -6  10  13 63.2373 3.52332   1
  -6  10  14 44.1727 4.56201   1
  -6  10  15 7.26916 1.28077   1
  -6  10  16 8.04609  1.1815   1
  -6  10  17 7.21639 1.09856   1
  -6  10  18 12.4113 1.98843   1
  -6  11   0 60.2524 3.54886   1
  -6  11   1  6.0936 0.74228   1
  -6  11   2 130.217 7.13553   1
  -6  11   3 7.29069 0.80624   1
  -6  11   4 190.895 12.4127   1
  -6  11   5 25.9413 1.65133   1
  -6  11   6 43.4756 2.60801   1
  -6  11   7 1.29604 0.70212   1
  -6  11   8  7.2317  0.9421   1
  -6  11   9 87.9408 5.31002   1
  -6  11  10 50.0998 2.58653   1
  -6  11  11 41.8529 2.51919   1
  -6  11  12 37.2575 2.03492   1
  -6  11  13 5.64188 0.83457   1
  -6  11  14 1.92658 0.90214   1
  -6  11  15 48.5201 3.38413   1
  -6  11  16 0.88833 0.82716   1
  -6  12   0 33.6044 2.23781   1
  -6  12   1 147.983  8.1418   1
  -6  12   2 6.75296  0.7984   1
  -6  12   3 25.6686 1.62318   1
  -6  12   4 13.1585 1.07268   1
  -6  12   5 12.8499 1.31872   1
  -6  12   6 78.0739 4.85213   1
  -6  12   7 63.8676 3.69111   1
  -6  12   8 35.0895 2.90036   1
  -6  12   9 10.3987 1.09877   1
  -6  12  10 11.2726  1.1169   1
  -6  12  11 14.6814 1.77664   1
  -6  12  12 67.2015 3.70944   1
  -6  12  13 1.71627 0.84245   1
  -6  12  14 86.2379 6.84241   1
  -6  12  15 -0.4128 1.28028   1
  -6  13   0 24.4886 1.83053   1
  -6  13   1 26.7689 2.59598   1
  -6  13   2 14.3637  1.2926   1
  -6  13   3  3.8648 0.71293   1
  -6  13   4 17.1206 1.39414   1
  -6  13   5 61.1669 3.23718   1
  -6  13   6 20.4792  2.6399   1
  -6  13   7 124.995 6.81979   1
  -6  13   8 17.5429 1.90491   1
  -6  13   9 40.2814 3.02868   1
  -6  13  10 19.2805 3.50455   1
  -6  13  11 4.61243 1.62485   1
  -6  13  12 6.06187 1.64807   1
  -6  13  13 9.89075  1.8123   1
  -6  14   0 120.931 6.71905   1
  -6  14   1 7.12969 0.96013   1
  -6  14   2 68.6928 3.99648   1
  -6  14   3 1.78125 0.74201   1
  -6  14   4 14.5129  1.5401   1
  -6  14   5 35.0604 2.25483   1
  -6  14   6 18.9091 1.42952   1
  -6  14   7 11.7991 2.16959   1
  -6  14   8 27.2176 2.25298   1
  -6  14   9 17.7285 2.51121   1
  -6  14  10 7.49305 1.70076   1
  -6  14  11  70.991 7.01568   1
  -6  15   0 6.71099 1.29289   1
  -6  15   1 24.4195  1.8154   1
  -6  15   2 44.1012 7.63733   1
  -6  15   3 52.8078 4.11787   1
  -6  15   4 30.0668 3.18162   1
  -6  15   5 4.29089 1.22518   1
  -6  15   6 13.8749 2.00171   1
  -6  15   7 6.20026  1.3626   1
  -6  15   8 36.2784 3.83065   1
  -6  15   9 3.03623 1.03519   1
  -6  16   0   5.732 3.41022   1
  -6  16   1 41.3591 3.89422   1
  -6  16   2 5.78663 2.34935   1
  -5 -15   3 3.92413 1.04954   1
  -5 -15   4 52.0902 4.33473   1
  -5 -15   5 14.7303  1.6128   1
  -5 -15   6 57.4884 4.72225   1
  -5 -15   7 72.1522 5.81222   1
  -5 -15   8 8.15017 1.14784   1
  -5 -15   9 37.7809 2.88213   1
  -5 -15  10  1.6004  0.7771   1
  -5 -15  11 3.02798 0.81857   1
  -5 -15  12 8.03832 1.49447   1
  -5 -15  13 47.3657 4.21837   1
  -5 -15  14 1.30547 0.67744   1
  -5 -14   1 41.7456 3.67089   1
  -5 -14   2  43.546 3.83321   1
  -5 -14   3 6.67755 1.22995   1
  -5 -14   4 159.456 12.6079   1
  -5 -14   5 4.03857 1.09408   1
  -5 -14   6 65.1162 5.39194   1
  -5 -14   7 0.15705 0.76666   1
  -5 -14   8 1.10691 0.85988   1
  -5 -14   9 0.30677 0.79033   1
  -5 -14  10 22.7496 2.22909   1
  -5 -14  11 16.1839 1.65608   1
  -5 -14  12 104.125 7.13174   1
  -5 -14  13 61.3382 6.74091   1
  -5 -14  14 16.6509  1.6213   1
  -5 -14  15 57.4822 4.06559   1
  -5 -14  16 1.74688 0.65128   1
  -5 -14  17 29.2215 2.53746   1
  -5 -14  18 17.2809 1.65996   1
  -5 -13   1 68.1563 5.70942   1
  -5 -13   2 2.14533 1.05128   1
  -5 -13   3 102.636 8.29622   1
  -5 -13   4 0.28499 0.93853   1
  -5 -13   5 31.1053 2.63099   1
  -5 -13   6 21.1383 2.05277   1
  -5 -13   7 15.4419 1.85259   1
  -5 -13   8 66.3852 6.69865   1
  -5 -13   9 22.9753 2.13544   1
  -5 -13  10 35.1935 2.83643   1
  -5 -13  11 2.08524  0.8358   1
  -5 -13  12 31.3689 5.32567   1
  -5 -13  13 0.13525 0.74793   1
  -5 -13  14  80.443 5.62221   1
  -5 -13  15 3.72821 1.01713   1
  -5 -13  16 97.6393 10.2998   1
  -5 -13  17 6.56366 1.01178   1
  -5 -13  18 36.0571 3.08337   1
  -5 -13  19 16.8757 1.69768   1
  -5 -13  20 5.41995 0.83917   1
  -5 -13  21 2.05961 0.64759   1
  -5 -12   1 37.6006 3.55368   1
  -5 -12   2 58.0399 5.00532   1
  -5 -12   3 79.0185 6.55387   1
  -5 -12   4 3.19511 0.98097   1
  -5 -12   5 37.7505 3.05548   1
  -5 -12   6 0.46501 0.83879   1
  -5 -12   7 14.6969 1.60923   1
  -5 -12   8 1.03634  1.4994   1
  -5 -12   9 77.1312 5.49724   1
  -5 -12  10 1.18565 0.79502   1
  -5 -12  11 172.767  14.137   1
  -5 -12  12 0.89371 0.79882   1
  -5 -12  13 53.7304 4.77233   1
  -5 -12  14 44.7358 3.38827   1
  -5 -12  15 17.4877 5.29582   1
  -5 -12  16 76.3061 6.24688   1
  -5 -12  17 20.3877 2.12705   1
  -5 -12  18 13.4049 1.51671   1
  -5 -12  19 5.97705 0.96053   1
  -5 -12  20 4.78968 0.87469   1
  -5 -12  21 0.28419 0.58914   1
  -5 -12  22 51.5563 4.19408   1
  -5 -11   1-0.37035 0.99569   1
  -5 -11   2 37.3351 3.51195   1
  -5 -11   3 8.95195 1.79578   1
  -5 -11   4 6.16162 1.09321   1
  -5 -11   5 0.39319 0.77951   1
  -5 -11   6 91.8985 6.75957   1
  -5 -11   7 78.6179 7.21767   1
  -5 -11   8  124.10 9.00294   1
  -5 -11   9 76.8671 5.48435   1
  -5 -11  10 8.44205   2.501   1
  -5 -11  11 29.7789 8.14725   1
  -5 -11  12 11.0841 2.81605   1
  -5 -11  13 66.4226  13.988   1
  -5 -11  14 66.3085 4.75891   1
  -5 -11  15 87.1557 18.2731   1
  -5 -11  16 0.23236 0.75767   1
  -5 -11  17 43.8487 3.85616   1
  -5 -11  18 27.6427 2.64228   1
  -5 -11  19  26.601 2.51381   1
  -5 -11  20 4.81073 0.92693   1
  -5 -11  21 30.2786 2.71889   1
  -5 -11  22 4.83158 0.88814   1
  -5 -11  23 35.1646  3.0178   1
  -5 -11  24 27.7488 2.42483   1
  -5 -10   1 81.0225 6.77124   1
  -5 -10   2 34.7584 2.81801   1
  -5 -10   3 6.14016 1.71051   1
  -5 -10   4 26.1248 2.34815   1
  -5 -10   5 12.1943 1.36484   1
  -5 -10   6 33.3165 3.50338   1
  -5 -10   7 18.3447 3.20862   1
  -5 -10   8 113.824 7.91533   1
  -5 -10   9 8.68922 1.15406   1
  -5 -10  10 225.374 15.2855   1
  -5 -10  11 0.14841 0.69636   1
  -5 -10  12 135.589  17.777   1
  -5 -10  13 21.2207 2.79897   1
  -5 -10  14 40.4963 3.11493   1
  -5 -10  15 7.04503 1.20461   1
  -5 -10  16 15.9899 1.82464   1
  -5 -10  17 2.34047 0.88306   1
  -5 -10  18 19.8521 2.14659   1
  -5 -10  19 51.4324 4.38181   1
  -5 -10  20 21.5308 2.21207   1
  -5 -10  21 115.025 9.16428   1
  -5 -10  22 10.0942 1.29917   1
  -5 -10  23 28.4925 2.59667   1
  -5 -10  24-0.05473  0.5919   1
  -5 -10  25  10.998 1.26977   1
  -5  -9   1 88.9199 6.29668   1
  -5  -9   2 2.24757 0.81925   1
  -5  -9   3 208.023 15.9044   1
  -5  -9   4 2.18631 0.73541   1
  -5  -9   5  68.065 4.89413   1
  -5  -9   6 1.99815 2.12711   1
  -5  -9   7 41.6816  6.1717   1
  -5  -9   8 2.88214 1.03224   1
  -5  -9   9  199.26 34.6482   1
  -5  -9  10 96.8221 6.76917   1
  -5  -9  11 219.598 20.1429   1
  -5  -9  12 148.431 23.8969   1
  -5  -9  13 14.1738 1.66098   1
  -5  -9  14 7.69975 1.24664   1
  -5  -9  15 3.95029 0.99136   1
  -5  -9  16 7.55002 1.21476   1
  -5  -9  17 11.6568  1.5019   1
  -5  -9  18 134.004 10.7621   1
  -5  -9  19 6.48831 1.12804   1
  -5  -9  20 142.618 11.3643   1
  -5  -9  21 22.4438 2.29242   1
  -5  -9  22 43.8654 3.80064   1
  -5  -9  23 18.3925 1.95498   1
  -5  -9  24 9.97855 1.26343   1
  -5  -9  25 0.69245 0.60666   1
  -5  -8   1 6.01729 1.51604   1
  -5  -8   2 67.9373 4.88026   1
  -5  -8   3 106.622 7.46824   1
  -5  -8   4 208.502 24.7389   1
  -5  -8   5 157.393 10.8531   1
  -5  -8   6 74.2728 5.30204   1
  -5  -8   7 35.6087 8.64216   1
  -5  -8   8 12.1217 1.43744   1
  -5  -8   9 71.5369 14.3644   1
  -5  -8  10  30.312 4.05827   1
  -5  -8  11 191.154 15.4403   1
  -5  -8  12 18.1506 2.01104   1
  -5  -8  13 129.674 10.5674   1
  -5  -8  14 3.27042 0.91815   1
  -5  -8  15 29.4689 2.83077   1
  -5  -8  16 27.4801 2.68918   1
  -5  -8  17 23.2412 2.39157   1
  -5  -8  18 38.9546 3.50375   1
  -5  -8  19 67.2057 5.62194   1
  -5  -8  20 16.1308 1.89548   1
  -5  -8  21 56.3816 4.76879   1
  -5  -8  22 26.7984 2.58453   1
  -5  -8  23 4.67314 0.95007   1
  -5  -8  24 65.2957 5.34125   1
  -5  -8  25 0.62438 0.64003   1
  -5  -8  26 19.0725 1.85261   1
  -5  -7   1 30.3473 3.97697   1
  -5  -7   2 26.8387 2.18512   1
  -5  -7   3 19.0576 2.88698   1
  -5  -7   4 66.7469 7.79753   1
  -5  -7   5 9.81292 1.76439   1
  -5  -7   6 544.131 42.1056   1
  -5  -7   7 0.61523 0.65598   1
  -5  -7   8 561.769 61.1549   1
  -5  -7   9 16.6131 1.79148   1
  -5  -7  10 17.3257 1.82964   1
  -5  -7  11 7.24156 1.05504   1
  -5  -7  12 1.16113 0.68653   1
  -5  -7  13 11.3877 1.40286   1
  -5  -7  14 109.776 9.02576   1
  -5  -7  15 106.778 8.77433   1
  -5  -7  16 152.969 12.3719   1
  -5  -7  17 116.034 9.44502   1
  -5  -7  18 1.32026 0.78389   1
  -5  -7  19 48.0289 4.17019   1
  -5  -7  20 13.4607 1.59306   1
  -5  -7  21 70.0389 5.82742   1
  -5  -7  22 1.99147 0.83529   1
  -5  -7  23 57.4461 4.82348   1
  -5  -7  24 1.92176 0.76089   1
  -5  -7  25 12.1053 1.38984   1
  -5  -7  26 13.5838 1.51556   1
  -5  -6   1  55.035 4.01837   1
  -5  -6   2 1.12974 0.46337   1
  -5  -6   3 49.5549 2.99016   1
  -5  -6   4 10.2833 1.24753   1
  -5  -6   5 329.397 26.7625   1
  -5  -6   6  172.42  14.138   1
  -5  -6   7 390.923 31.6945   1
  -5  -6   8 220.358 17.9729   1
  -5  -6   9 56.0196 4.80572   1
  -5  -6  10 5.81142 0.85056   1
  -5  -6  11 1.37407 0.58262   1
  -5  -6  12 18.5041 1.93133   1
  -5  -6  13 8.85561 1.20939   1
  -5  -6  14 263.651 21.2437   1
  -5  -6  15 0.47496 0.60815   1
  -5  -6  16  269.33 21.5988   1
  -5  -6  17  16.918 1.90071   1
  -5  -6  18 59.5267 5.05338   1
  -5  -6  19 1.41395 0.73713   1
  -5  -6  20  12.713 1.51892   1
  -5  -6  21 7.90834 1.19513   1
  -5  -6  22 30.1637 2.83858   1
  -5  -6  23 43.5698 3.77612   1
  -5  -6  24   29.52 2.71591   1
  -5  -6  25 24.0488 2.29671   1
  -5  -6  26 1.19473 0.62483   1
  -5  -6  27  8.8671 1.09556   1
  -5  -5   1 197.143 18.0646   1
  -5  -5   2 181.091 11.9607   1
  -5  -5   3  108.31 7.24311   1
  -5  -5   4 74.8568 5.08013   1
  -5  -5   5 184.706 12.2109   1
  -5  -5   6 45.5028 4.83207   1
  -5  -5   7 308.344 30.8359   1
  -5  -5   8 9.28455 0.88283   1
  -5  -5   9 296.208 18.5399   1
  -5  -5  10 2.03113  0.5926   1
  -5  -5  11 99.0632 8.24666   1
  -5  -5  12 19.0726  1.9352   1
  -5  -5  13 33.4639 3.05335   1
  -5  -5  14 33.3587 3.05606   1
  -5  -5  15 139.398 11.3694   1
  -5  -5  16 51.3036 4.43912   1
  -5  -5  17 160.555  12.963   1
  -5  -5  18 123.008 9.98688   1
  -5  -5  19 12.5216 1.51152   1
  -5  -5  20 104.982 8.54408   1
  -5  -5  21-0.33138 0.63683   1
  -5  -5  22 3.78001 0.92227   1
  -5  -5  23 -0.0955 0.66607   1
  -5  -5  24 6.86399  1.0707   1
  -5  -5  25  0.4737 0.65556   1
  -5  -5  26 84.8357 6.77679   1
  -5  -5  27 3.72523 0.72709   1
  -5  -4   1 8.44545 0.87883   1
  -5  -4   2 1140.61 74.2376   1
  -5  -4   3 1.10977 0.40786   1
  -5  -4   4 991.898 64.5784   1
  -5  -4   5  8.1424 1.20179   1
  -5  -4   6 11.0795 1.04248   1
  -5  -4   7 1.01732  0.3779   1
  -5  -4   8 4.18859 0.86028   1
  -5  -4   9  43.485 3.07511   1
  -5  -4  10 336.952 21.5005   1
  -5  -4  11 278.484 17.4434   1
  -5  -4  12 311.897 19.4642   1
  -5  -4  13 186.533 15.2203   1
  -5  -4  14 5.64386 0.91948   1
  -5  -4  15 45.5127 3.97443   1
  -5  -4  16 30.7891 2.85047   1
  -5  -4  17 123.662 10.0702   1
  -5  -4  18 21.4082 2.19427   1
  -5  -4  19 151.577 12.2054   1
  -5  -4  20 8.49988 1.25699   1
  -5  -4  21 25.8153 2.52785   1
  -5  -4  22 27.6454 2.63246   1
  -5  -4  23 5.75663 0.99391   1
  -5  -4  24  38.588 3.38238   1
  -5  -4  25 11.0698 1.31536   1
  -5  -4  26 22.5935 2.17338   1
  -5  -4  27 14.9604 1.57381   1
  -5  -3   1 548.372 35.9782   1
  -5  -3   2 172.945 11.5666   1
  -5  -3   3 517.388 38.4703   1
  -5  -3   4 330.702 30.3463   1
  -5  -3   5 185.975 10.3231   1
  -5  -3   6 64.7113 4.45395   1
  -5  -3   7 10.1524   0.984   1
  -5  -3   8 62.5339 4.30184   1
  -5  -3   9 0.73232  0.3576   1
  -5  -3  10 269.161 17.7066   1
  -5  -3  11 1.49033 0.72027   1
  -5  -3  12 348.441 21.7595   1
  -5  -3  13 0.42807 0.47116   1
  -5  -3  14 251.377   20.37   1
  -5  -3  15 7.50102 1.07237   1
  -5  -3  16 85.0455 7.05682   1
  -5  -3  17 65.4132 5.50643   1
  -5  -3  18 15.3259 1.73285   1
  -5  -3  19 56.0962 4.79496   1
  -5  -3  20 22.6817 2.30956   1
  -5  -3  21 7.84393 1.18855   1
  -5  -3  22 16.5541 1.83456   1
  -5  -3  23 20.1501 2.10057   1
  -5  -3  24 0.20073 0.63826   1
  -5  -3  25 95.5349 7.64906   1
  -5  -3  26 2.68051 0.71119   1
  -5  -2   1 628.289 41.2817   1
  -5  -2   2 74.9828  5.0426   1
  -5  -2   3 130.198 7.31246   1
  -5  -2   4 0.73334 0.25103   1
  -5  -2   5 210.841 12.2652   1
  -5  -2   6 3.08238 0.46829   1
  -5  -2   7 519.067  34.139   1
  -5  -2   8 8.88405 0.85192   1
  -5  -2   9 203.145 13.4936   1
  -5  -2  10 93.1506 14.4105   1
  -5  -2  11 81.5468 5.52563   1
  -5  -2  12 221.382  13.923   1
  -5  -2  13  134.02 8.08642   1
  -5  -2  14 191.968 11.4551   1
  -5  -2  15  79.901 4.88448   1
  -5  -2  16 78.5729 5.00177   1
  -5  -2  17 11.7042 1.41635   1
  -5  -2  18 7.46573 1.07203   1
  -5  -2  19 3.74333 0.85243   1
  -5  -2  20 42.4764 3.75435   1
  -5  -2  21  5.1142 0.96931   1
  -5  -2  22 146.122 11.6467   1
  -5  -2  23 6.84635 1.06524   1
  -5  -2  24 48.9693 4.14311   1
  -5  -2  25 7.61213 1.05031   1
  -5  -2  26 1.51181 0.62536   1
  -5  -1   1 10.2962 0.76706   1
  -5  -1   2 370.254 20.4768   1
  -5  -1   3 43.6829 2.55309   1
  -5  -1   4 262.984 14.6247   1
  -5  -1   5 94.9909 6.49297   1
  -5  -1   6 114.536 7.77064   1
  -5  -1   7 291.474 19.3872   1
  -5  -1   8 111.809 7.56058   1
  -5  -1   9 179.245 11.9505   1
  -5  -1  10 99.9323 6.74452   1
  -5  -1  11 121.755 8.13083   1
  -5  -1  12 4.09834 0.61794   1
  -5  -1  13 422.523 25.0947   1
  -5  -1  14 5.79777 0.98701   1
  -5  -1  15 263.078 17.9368   1
  -5  -1  16 0.93486 0.46343   1
  -5  -1  17 11.6031 1.03384   1
  -5  -1  18 1.00765 0.53081   1
  -5  -1  19 7.36096 0.87202   1
  -5  -1  20 29.3956 2.75551   1
  -5  -1  21 60.6589  5.0854   1
  -5  -1  22 77.2393 6.32084   1
  -5  -1  23  36.599 3.25239   1
  -5  -1  24 46.2848 3.91553   1
  -5  -1  25 2.38964 0.69699   1
  -5  -1  26 14.5636 1.56504   1
  -5   0   1 56.1179 4.61875   1
  -5   0   2  7.3401 0.58082   1
  -5   0   3 11.0795 0.77609   1
  -5   0   4 215.911 14.5519   1
  -5   0   5 174.732 11.7986   1
  -5   0   6  703.63 54.2116   1
  -5   0   7 51.2089 5.91393   1
  -5   0   8 288.556 46.2315   1
  -5   0   9 105.962 7.16085   1
  -5   0  10  294.77  24.917   1
  -5   0  11  107.51 7.20332   1
  -5   0  12  285.89 40.3934   1
  -5   0  13 11.5497 1.38354   1
  -5   0  14 47.8088  4.3896   1
  -5   0  15 17.6889 1.35028   1
  -5   0  16 15.6766 1.28198   1
  -5   0  17  69.241 4.26618   1
  -5   0  18 40.7864 2.67729   1
  -5   0  19 85.0757 7.25846   1
  -5   0  20 3.59693 0.71147   1
  -5   0  21 59.7916 4.06992   1
  -5   0  22 5.28776  0.9764   1
  -5   0  23 37.5261 3.27345   1
  -5   1   0 30.6951 2.02276   1
  -5   1   1 554.784 30.2915   1
  -5   1   2  3.5434 0.61557   1
  -5   1   3 926.206 46.6996   1
  -5   1   4 8.06719 0.76813   1
  -5   1   5 52.0176 4.05343   1
  -5   1   6 174.446 9.75921   1
  -5   1   7 128.667 8.55569   1
  -5   1   8  239.02 13.2133   1
  -5   1   9 512.831 80.8418   1
  -5   1  10 182.089 17.6978   1
  -5   1  11 128.135 18.8096   1
  -5   1  12 177.109 11.1619   1
  -5   1  13 1.54668 0.59734   1
  -5   1  14 64.0606 5.45174   1
  -5   1  15  4.2318 0.91592   1
  -5   1  16 41.2171   3.725   1
  -5   1  17 0.82919 0.92543   1
  -5   1  18 124.458 10.1728   1
  -5   1  19 18.3188 2.10404   1
  -5   1  20  77.956 6.54253   1
  -5   1  21 16.2355 1.90569   1
  -5   1  22 21.0178 2.30127   1
  -5   1  23 14.5118 1.79375   1
  -5   2   0 522.655 30.3689   1
  -5   2   1 7.36485 0.86426   1
  -5   2   2  5.8971 0.43159   1
  -5   2   3 22.2039 1.24701   1
  -5   2   4  131.43 7.82457   1
  -5   2   5 236.783 17.7179   1
  -5   2   6 432.856 23.8224   1
  -5   2   7 619.753 53.2606   1
  -5   2   8 2.64378 0.60726   1
  -5   2   9 777.003 42.1558   1
  -5   2  10 80.9923 7.56747   1
  -5   2  11 118.936 9.87485   1
  -5   2  12 15.8484 1.69763   1
  -5   2  13 2.81554 0.59742   1
  -5   2  14 8.46552 0.96335   1
  -5   2  15 98.8685 8.19259   1
  -5   2  16 107.115 8.84791   1
  -5   2  17 177.219 14.3231   1
  -5   2  18 131.703 10.7287   1
  -5   2  19  7.4866 1.36921   1
  -5   2  20 29.0592 3.01931   1
  -5   2  21 1.91394 1.02323   1
  -5   2  22 20.5895 2.38859   1
  -5   2  23 4.99702 1.17081   1
  -5   3   0 1155.74 73.0797   1
  -5   3   1  314.35 22.7848   1
  -5   3   2 1684.63 97.6441   1
  -5   3   3 15.7691 1.06801   1
  -5   3   4 8.83515 1.68891   1
  -5   3   5 272.332 17.9121   1
  -5   3   6 127.143 8.45149   1
  -5   3   7 67.5405 5.96849   1
  -5   3   8 871.882 56.8648   1
  -5   3   9 2.70684 1.01247   1
  -5   3  10 226.738 14.8755   1
  -5   3  11 86.6497 7.26893   1
  -5   3  12 2.98544 0.65557   1
  -5   3  13  190.23 17.7143   1
  -5   3  14 11.8003 1.22341   1
  -5   3  15 50.0783 6.42096   1
  -5   3  16 16.8902 1.78664   1
  -5   3  17 40.7732 3.80002   1
  -5   3  18 0.80149 0.99955   1
  -5   3  19 118.002 9.63438   1
  -5   3  20 5.36533 1.25077   1
  -5   3  21 88.8816 7.35718   1
  -5   3  22  6.3222 1.34968   1
  -5   3  23 13.6992 1.76201   1
  -5   3  24 4.49984 1.12567   1
  -5   4   0 29.9463 1.87273   1
  -5   4   1  23.593 1.68173   1
  -5   4   2 44.4453 2.69162   1
  -5   4   3 942.942 53.9369   1
  -5   4   4 430.431 28.0417   1
  -5   4   5 1387.35 88.7784   1
  -5   4   6  307.52 20.0192   1
  -5   4   7  5.0641 0.59513   1
  -5   4   8 152.645  9.9891   1
  -5   4   9 39.6506  2.6355   1
  -5   4  10 57.2754 3.70813   1
  -5   4  11 128.924 7.12452   1
  -5   4  12 93.2931 17.3232   1
  -5   4  13 30.4391 2.34037   1
  -5   4  14  176.82 11.5245   1
  -5   4  15 77.7297  11.978   1
  -5   4  16   96.94 6.46232   1
  -5   4  17 52.6061 3.71478   1
  -5   4  18 16.2675 2.02079   1
  -5   4  19 9.16888 1.52819   1
  -5   4  20 23.0223 2.50724   1
  -5   4  21 19.8658 2.23184   1
  -5   4  22 30.2658 3.07013   1
  -5   4  23 26.7393 2.72026   1
  -5   5   0 88.2587 7.00195   1
  -5   5   1 187.751  10.988   1
  -5   5   2 100.359 5.94613   1
  -5   5   3 670.891 43.2576   1
  -5   5   4 4.85485 2.35683   1
  -5   5   5 893.442 59.8423   1
  -5   5   6 2.38908 0.76798   1
  -5   5   7 159.122  26.858   1
  -5   5   8 49.7239 2.56493   1
  -5   5   9 4.21478 0.46125   1
  -5   5  10 20.2107 1.18513   1
  -5   5  11 146.553 7.02865   1
  -5   5  12 166.885 8.27934   1
  -5   5  13 207.514 11.0935   1
  -5   5  14 39.7901 3.55208   1
  -5   5  15 9.55124 2.36523   1
  -5   5  16 19.7101 3.07886   1
  -5   5  17 0.60388 0.81131   1
  -5   5  18 101.597 9.66273   1
  -5   5  19 9.37306 1.61153   1
  -5   5  20 77.5126 6.53045   1
  -5   5  21 4.20105 1.23022   1
  -5   5  22 7.78402 1.37878   1
  -5   5  23 2.45359 1.04809   1
  -5   6   0 38.2802 2.92028   1
  -5   6   1 22.0033 3.10473   1
  -5   6   2 232.937  13.581   1
  -5   6   3 34.0947 2.41096   1
  -5   6   4 673.875 43.2765   1
  -5   6   5 43.2984 2.26243   1
  -5   6   6 205.522 10.1173   1
  -5   6   7 127.769 5.43399   1
  -5   6   8 27.5585 1.52296   1
  -5   6   9 71.4852  3.5323   1
  -5   6  10 23.3784 1.35259   1
  -5   6  11 16.8395 1.10254   1
  -5   6  12 6.06295 0.62656   1
  -5   6  13 97.2066 5.34173   1
  -5   6  14 1.42525 0.62742   1
  -5   6  15 197.376 19.3344   1
  -5   6  16 1.67665   0.688   1
  -5   6  17 77.1266 7.09095   1
  -5   6  18 10.5373 1.32525   1
  -5   6  19 6.77322 0.88939   1
  -5   6  20 7.18545 1.47572   1
  -5   6  21 7.83017 1.43398   1
  -5   6  22 6.60199 1.33377   1
  -5   7   0 513.568 28.4098   1
  -5   7   1 614.652   42.43   1
  -5   7   2 330.622 18.2149   1
  -5   7   3  5.2969 1.36229   1
  -5   7   4 28.0454 1.55637   1
  -5   7   5 3.69062  0.9309   1
  -5   7   6 50.6456  2.4073   1
  -5   7   7 134.976 8.70308   1
  -5   7   8 278.201 13.2083   1
  -5   7   9  16.768 1.08269   1
  -5   7  10 197.084 12.7587   1
  -5   7  11 46.9993  4.1279   1
  -5   7  12 14.5748 1.13365   1
  -5   7  13   40.92 2.17312   1
  -5   7  14 21.2807 1.54678   1
  -5   7  15 32.0147 2.23065   1
  -5   7  16 99.7122 5.42365   1
  -5   7  17 35.2226 2.23261   1
  -5   7  18 31.5841 2.05971   1
  -5   7  19 11.4786 1.05436   1
  -5   7  20 0.64995 0.88283   1
  -5   7  21 16.8251 1.96373   1
  -5   8   0 29.7089 1.87468   1
  -5   8   1 634.967 34.6959   1
  -5   8   2 7.77037 0.84295   1
  -5   8   3  149.03 7.84513   1
  -5   8   4 1.44156 0.54252   1
  -5   8   5 24.2944 1.51899   1
  -5   8   6 25.5544 1.35228   1
  -5   8   7 109.747 5.44113   1
  -5   8   8 43.2404 2.24615   1
  -5   8   9 131.923 9.15104   1
  -5   8  10 31.2901 1.97044   1
  -5   8  11 24.9812 1.64677   1
  -5   8  12 66.3772 4.18676   1
  -5   8  13   4.293 0.64895   1
  -5   8  14 85.1604 6.03632   1
  -5   8  15 1.77023 0.73068   1
  -5   8  16 48.0863 5.28614   1
  -5   8  17 0.57149 0.72802   1
  -5   8  18 22.3128 1.57769   1
  -5   8  19 0.22923 0.89412   1
  -5   8  20 20.6956 4.78298   1
  -5   9   0 150.959  9.0401   1
  -5   9   1 44.6971 2.41054   1
  -5   9   2 153.851 8.48011   1
  -5   9   3 67.7242 4.17486   1
  -5   9   4 141.099 9.64084   1
  -5   9   5 51.7909 2.45874   1
  -5   9   6 18.9587 1.13849   1
  -5   9   7 29.6448 1.65445   1
  -5   9   8  0.7279 0.62837   1
  -5   9   9 83.6472 7.13774   1
  -5   9  10 5.97082 0.68242   1
  -5   9  11  148.73 7.07922   1
  -5   9  12 0.34772 0.61321   1
  -5   9  13 100.224 4.84009   1
  -5   9  14 19.4503 1.48181   1
  -5   9  15 14.1852 1.23171   1
  -5   9  16 4.30923 0.83747   1
  -5   9  17 5.80912  0.8738   1
  -5   9  18 1.55398 0.90728   1
  -5   9  19 27.3283 3.04836   1
  -5  10   0 55.1907 3.56675   1
  -5  10   1   3.512 0.75092   1
  -5  10   2 32.7242 1.87933   1
  -5  10   3 17.4609 1.52405   1
  -5  10   4 199.086 9.86165   1
  -5  10   5 17.2695  1.1936   1
  -5  10   6 155.592 8.14438   1
  -5  10   7 0.80606 0.46515   1
  -5  10   8 15.0821 1.04136   1
  -5  10   9 60.9671 3.08543   1
  -5  10  10 32.5854 1.83392   1
  -5  10  11 76.3252 3.77313   1
  -5  10  12 95.0332 4.72784   1
  -5  10  13 7.71194 0.94033   1
  -5  10  14 22.0115 1.60298   1
  -5  10  15 1.78295 0.72596   1
  -5  10  16-0.01549 1.20687   1
  -5  10  17  39.555 3.17344   1
  -5  10  18 1.33721 0.85456   1
  -5  11   0  1.9495 0.67556   1
  -5  11   1 188.766 11.1097   1
  -5  11   2  4.1219 0.60984   1
  -5  11   3 143.208   7.256   1
  -5  11   4 8.57979 0.83574   1
  -5  11   5 8.26652 0.83657   1
  -5  11   6  36.427 2.32949   1
  -5  11   7 18.5488 1.21111   1
  -5  11   8 84.3146 4.13888   1
  -5  11   9 58.9801 3.00378   1
  -5  11  10 68.5679 3.42665   1
  -5  11  11 0.85085 0.93131   1
  -5  11  12 43.9798 2.62786   1
  -5  11  13 4.34213  0.7993   1
  -5  11  14 36.5526 2.62483   1
  -5  11  15 1.65339 1.18749   1
  -5  11  16 21.2715 2.34616   1
  -5  11  17-0.14883 1.27803   1
  -5  12   0 49.6115 3.01537   1
  -5  12   1 26.0515 1.84329   1
  -5  12   2 9.70096 1.03488   1
  -5  12   3  30.327 2.51942   1
  -5  12   4 17.6734 1.25738   1
  -5  12   5 76.0348 4.07347   1
  -5  12   6 10.4415 2.29106   1
  -5  12   7 118.528 9.12103   1
  -5  12   8 15.4493 1.95733   1
  -5  12   9 74.6744 3.68561   1
  -5  12  10 20.3582 1.49598   1
  -5  12  11 15.8578 1.28788   1
  -5  12  12  1.5995 0.69612   1
  -5  12  13 11.3769 1.51549   1
  -5  12  14 3.39696 0.91934   1
  -5  12  15 34.8237 3.95761   1
  -5  13   0 87.2777 4.96781   1
  -5  13   1 7.66149 0.95722   1
  -5  13   2 50.9063 3.10903   1
  -5  13   3 2.26563 0.65979   1
  -5  13   4 28.7974 1.79012   1
  -5  13   5 44.7064 3.55674   1
  -5  13   6 65.5564  5.3896   1
  -5  13   7 38.7575 4.91973   1
  -5  13   8 55.7283 9.25268   1
  -5  13   9 2.21881 0.93191   1
  -5  13  10 7.51233 2.00723   1
  -5  13  11 13.5323 1.48762   1
  -5  13  12 1.30508 1.39478   1
  -5  13  13 49.2212 5.12949   1
  -5  14   0 1.06377 0.74721   1
  -5  14   1 2.39602 0.99785   1
  -5  14   2 9.43676 1.06066   1
  -5  14   3 19.7344 1.62015   1
  -5  14   4  81.949  4.6079   1
  -5  14   5 53.2791 3.15258   1
  -5  14   6 81.5328 5.50677   1
  -5  14   7 0.39325 0.83611   1
  -5  14   8 31.7575 2.54172   1
  -5  14   9 1.83185 0.89783   1
  -5  14  10 12.5787 2.03619   1
  -5  14  11 2.71377 1.41631   1
  -5  14  12 16.9484 2.33324   1
  -5  15   0 23.1579 1.72098   1
  -5  15   1 97.3709 9.27839   1
  -5  15   2 4.05572 0.94164   1
  -5  15   3 60.3795 4.35856   1
  -5  15   4 12.0058 1.78394   1
  -5  15   5  20.608 3.70806   1
  -5  15   6 4.04732  0.9277   1
  -5  15   7 20.2683 2.64582   1
  -5  15   8-0.09006 1.13822   1
  -5  15   9 38.2109 4.10495   1
  -5  16   0 52.7287 4.17381   1
  -5  16   1 13.3035 1.52965   1
  -5  16   2 107.901 9.00501   1
  -5  16   3 35.5028 3.52038   1
  -5  17   0 32.6178 3.90006   1
  -4 -16   8 22.5827 3.28999   1
  -4 -16  10 8.85299 1.97631   1
  -4 -16  11 66.3364 7.29135   1
  -4 -16  12-0.11942  1.1936   1
  -4 -16  13 25.6569 3.44538   1
  -4 -16  14-0.27703 1.01778   1
  -4 -15   1 37.2204 3.29695   1
  -4 -15   2 24.9585 2.46864   1
  -4 -15   3  12.493 1.51686   1
  -4 -15   4 84.4813 6.78714   1
  -4 -15   5-0.15572 0.79491   1
  -4 -15   6 45.0047  3.4048   1
  -4 -15   7 0.76119 0.83626   1
  -4 -15   8 7.99307 1.56414   1
  -4 -15   9-0.30025 1.07044   1
  -4 -15  10 44.1798 10.0303   1
  -4 -15  11 5.75767  1.0384   1
  -4 -15  12 139.326 10.9312   1
  -4 -15  13 46.7129 3.46974   1
  -4 -15  14 41.7059 4.97409   1
  -4 -15  15 25.0922 3.45283   1
  -4 -15  16  1.5319  1.2794   1
  -4 -15  17 2.75095 1.28498   1
  -4 -15  18 2.59164  1.3701   1
  -4 -14   1 22.2702  2.3652   1
  -4 -14   2-0.15422  0.8861   1
  -4 -14   3 26.5531 2.63309   1
  -4 -14   4 11.1364 1.46255   1
  -4 -14   5 67.7426 5.54478   1
  -4 -14   6 30.4865 2.60105   1
  -4 -14   7 42.2789 3.30068   1
  -4 -14   8 14.5929 3.78723   1
  -4 -14   9 17.9007 1.81037   1
  -4 -14  10 14.3616 3.98798   1
  -4 -14  11 22.5366   7.265   1
  -4 -14  12 92.1469 6.40772   1
  -4 -14  13  11.371 1.33467   1
  -4 -14  14 108.568 7.41701   1
  -4 -14  15-0.10921 0.84375   1
  -4 -14  16 15.5018 4.14185   1
  -4 -14  17 0.50182 0.81743   1
  -4 -14  18 3.06453 1.18534   1
  -4 -14  19 10.2747 1.94612   1
  -4 -14  20  56.861 6.24928   1
  -4 -13   1 1.24674 1.00802   1
  -4 -13   2 19.5678 2.24583   1
  -4 -13   3 16.6919 4.57517   1
  -4 -13   4 23.2055 2.18104   1
  -4 -13   5 101.122    7.06   1
  -4 -13   6 5.97552  1.4624   1
  -4 -13   7 91.4118 6.46725   1
  -4 -13   8 2.06501 0.89889   1
  -4 -13   9  55.448  7.8353   1
  -4 -13  10  0.2353 0.81286   1
  -4 -13  11 85.1307 13.6116   1
  -4 -13  12-0.29966 0.97713   1
  -4 -13  13 74.7803 12.1841   1
  -4 -13  14 7.91767 1.16587   1
  -4 -13  15 16.7513  1.6645   1
  -4 -13  16 34.8369 3.98581   1
  -4 -13  17 20.2323 1.85951   1
  -4 -13  18 28.6167 2.52979   1
  -4 -13  19 20.4936 1.81075   1
  -4 -13  20 18.5198 1.65098   1
  -4 -13  21 2.58664 0.62849   1
  -4 -13  22 53.2019 4.28248   1
  -4 -12   1 3.60895 1.08412   1
  -4 -12   2 59.7021 4.42634   1
  -4 -12   3 0.33347 0.86626   1
  -4 -12   4 1.66897  0.9078   1
  -4 -12   5 2.86753 1.34095   1
  -4 -12   6 58.7548  4.3554   1
  -4 -12   7 14.4222 2.45001   1
  -4 -12   8 327.422 22.7209   1
  -4 -12   9 104.847  7.3439   1
  -4 -12  10 105.327 7.35797   1
  -4 -12  11 21.0289 2.99972   1
  -4 -12  12 5.80379 0.98156   1
  -4 -12  13 1.97493 0.83232   1
  -4 -12  14 2.08411 0.80986   1
  -4 -12  15 57.6015 4.21157   1
  -4 -12  16  39.434  3.1199   1
  -4 -12  17 159.985 19.6289   1
  -4 -12  18 1.08706  0.6788   1
  -4 -12  19 64.6805 4.71861   1
  -4 -12  20 15.7844 2.48151   1
  -4 -12  21 14.1172 1.56256   1
  -4 -12  22 0.49627 0.56275   1
  -4 -12  23 21.0329 1.92087   1
  -4 -11   1 103.205 7.24958   1
  -4 -11   2 45.9143 3.55633   1
  -4 -11   3 61.9817 4.86319   1
  -4 -11   4 12.4729 2.93596   1
  -4 -11   5  25.373 2.26721   1
  -4 -11   6 29.6254 2.48504   1
  -4 -11   7 39.1951 3.09111   1
  -4 -11   8 167.212 13.4243   1
  -4 -11   9 26.8911 5.22404   1
  -4 -11  10 175.505 34.9009   1
  -4 -11  11 4.12913 0.89399   1
  -4 -11  12 29.9145 3.17302   1
  -4 -11  13 0.64773 0.68299   1
  -4 -11  14 2.43249 0.78396   1
  -4 -11  15 22.4333 2.77111   1
  -4 -11  16 76.5333 5.42772   1
  -4 -11  17 28.8825  2.4203   1
  -4 -11  18 162.159  10.998   1
  -4 -11  19 21.5231 1.92809   1
  -4 -11  20 27.2684 2.32161   1
  -4 -11  21  47.533 4.00319   1
  -4 -11  22-0.26209 0.58403   1
  -4 -11  23 33.5746 2.89354   1
  -4 -11  24 1.92739 0.59508   1
  -4 -10   1  37.044  2.9617   1
  -4 -10   2 4.05037  4.4103   1
  -4 -10   3 141.553 34.5758   1
  -4 -10   4 12.7277 1.39345   1
  -4 -10   5 226.257 15.4382   1
  -4 -10   6 6.95547 1.03253   1
  -4 -10   7 114.685 7.97776   1
  -4 -10   8 2.08655 1.06092   1
  -4 -10   9 57.0093 4.18825   1
  -4 -10  10 13.2153 1.39761   1
  -4 -10  11 70.9353 5.10618   1
  -4 -10  12 56.7159 4.16954   1
  -4 -10  13 82.1256 8.62852   1
  -4 -10  14  63.244 4.60777   1
  -4 -10  15 16.0291 1.62569   1
  -4 -10  16  23.631 5.05486   1
  -4 -10  17 0.07933 0.67899   1
  -4 -10  18 92.2926 6.43215   1
  -4 -10  19 7.87259 1.64672   1
  -4 -10  20 166.568 13.2025   1
  -4 -10  21 10.5908 1.34862   1
  -4 -10  22 30.9045 2.80307   1
  -4 -10  23 5.98344 0.97989   1
  -4 -10  24 2.19236 0.68562   1
  -4 -10  25 19.3438 1.83853   1
  -4  -9   1 11.4419 1.29535   1
  -4  -9   2 63.1013 10.1924   1
  -4  -9   3  7.3176 1.60672   1
  -4  -9   4 378.271 25.7416   1
  -4  -9   5 215.612 17.8021   1
  -4  -9   6 362.288 50.6238   1
  -4  -9   7 55.1549 12.8226   1
  -4  -9   8 2.58475 0.70249   1
  -4  -9   9 1.27779 0.63284   1
  -4  -9  10 5.87998 0.88905   1
  -4  -9  11 88.8368  6.2601   1
  -4  -9  12 31.3414 3.98318   1
  -4  -9  13 253.751  45.576   1
  -4  -9  14 17.7666 1.76425   1
  -4  -9  15 142.029 20.8206   1
  -4  -9  16  6.1453 0.97055   1
  -4  -9  17  39.791 6.92216   1
  -4  -9  18 34.3186 2.69695   1
  -4  -9  19 51.7377 4.41469   1
  -4  -9  20 36.0857 3.25122   1
  -4  -9  21 56.1349 4.72445   1
  -4  -9  22  8.4788  1.2091   1
  -4  -9  23 14.3226 1.67053   1
  -4  -9  24 4.34077 0.86344   1
  -4  -9  25 0.71171 0.60355   1
  -4  -9  26 34.4268 2.90721   1
  -4  -8   1  68.161 4.93159   1
  -4  -8   2 302.443 20.6792   1
  -4  -8   3  101.02 22.6911   1
  -4  -8   4 170.295 11.7569   1
  -4  -8   5  18.571  1.6263   1
  -4  -8   6 50.5227 12.5495   1
  -4  -8   7 5.46227 0.80593   1
  -4  -8   8 186.758 12.8566   1
  -4  -8   9 16.9393 3.14039   1
  -4  -8  10 148.199 10.2688   1
  -4  -8  11 29.2022 5.37697   1
  -4  -8  12 50.3741 3.72047   1
  -4  -8  13 121.822  8.4554   1
  -4  -8  14 90.9306 8.36872   1
  -4  -8  15 51.8579 8.51735   1
  -4  -8  16 140.445 12.4997   1
  -4  -8  17 31.9226 2.95051   1
  -4  -8  18 36.1479 3.26263   1
  -4  -8  19 49.6208 4.26655   1
  -4  -8  20 0.27733 0.66759   1
  -4  -8  21 45.4379 3.94751   1
  -4  -8  22 0.00602 0.66748   1
  -4  -8  23 40.9776 3.57386   1
  -4  -8  24-0.20955 0.61705   1
  -4  -8  25 40.0537 3.41071   1
  -4  -8  26 3.06184 0.71966   1
  -4  -8  27   17.64  1.7195   1
  -4  -7   1 221.669 31.6763   1
  -4  -7   2 43.1161  3.2941   1
  -4  -7   3  368.40 25.2848   1
  -4  -7   4 15.8061 2.21931   1
  -4  -7   5 312.636 40.4471   1
  -4  -7   6 57.6465 4.49824   1
  -4  -7   7 55.9992 4.36112   1
  -4  -7   8 69.4941 4.99723   1
  -4  -7   9 18.3236 1.57254   1
  -4  -7  10 64.4117 5.22123   1
  -4  -7  11 107.601 17.3324   1
  -4  -7  12 37.7569 4.46369   1
  -4  -7  13 72.0507 7.36638   1
  -4  -7  14 243.234 16.5816   1
  -4  -7  15-0.17326 0.52541   1
  -4  -7  16 408.542 32.7406   1
  -4  -7  17 3.14195 0.81045   1
  -4  -7  18 46.0037 4.00025   1
  -4  -7  19 0.74836 0.65883   1
  -4  -7  20 2.98224 0.83731   1
  -4  -7  21 0.46688 0.65852   1
  -4  -7  22 29.4135 2.75484   1
  -4  -7  23 47.8237  4.0856   1
  -4  -7  24 92.7291 7.44674   1
  -4  -7  25 69.3655 5.62762   1
  -4  -7  26 12.7453 1.47347   1
  -4  -7  27 14.2858 1.50799   1
  -4  -6   1 396.517 27.7977   1
  -4  -6   2 283.315 34.6561   1
  -4  -6   3  17.896 1.43172   1
  -4  -6   4 10.6987  1.1069   1
  -4  -6   5 4.25777 0.56288   1
  -4  -6   6 25.0074 2.60149   1
  -4  -6   7 407.974  36.654   1
  -4  -6   8 136.516 12.4808   1
  -4  -6   9 396.156 32.2444   1
  -4  -6  10 1.16067 0.50555   1
  -4  -6  11 107.574  8.9303   1
  -4  -6  12 60.0848 5.12195   1
  -4  -6  13 185.438 15.1146   1
  -4  -6  14  23.884 2.30695   1
  -4  -6  15 199.999 16.1868   1
  -4  -6  16 6.78532 1.04195   1
  -4  -6  17 70.8835 5.92713   1
  -4  -6  18 28.6025 2.69542   1
  -4  -6  19 16.6418 1.88554   1
  -4  -6  20 51.6792 4.45481   1
  -4  -6  21 4.83555 0.96017   1
  -4  -6  22  55.888 4.74283   1
  -4  -6  23-0.08444 0.66789   1
  -4  -6  24 54.5933 4.56869   1
  -4  -6  25 0.48816 0.65231   1
  -4  -6  26 47.8949 3.99395   1
  -4  -6  27 0.30113 0.52282   1
  -4  -5   1  110.42 7.43876   1
  -4  -5   2 48.4999  3.3864   1
  -4  -5   3 7.17833 0.71924   1
  -4  -5   4  704.26  46.053   1
  -4  -5   5 1.57869 0.42261   1
  -4  -5   6 406.159 32.2784   1
  -4  -5   7 45.5308 3.19179   1
  -4  -5   8 11.3092 1.06336   1
  -4  -5   9 118.023  7.9059   1
  -4  -5  10 134.557 8.97457   1
  -4  -5  11 47.3588 4.11574   1
  -4  -5  12 498.573 40.4194   1
  -4  -5  13 135.914 11.1962   1
  -4  -5  14 74.0374 6.22292   1
  -4  -5  15 232.705 18.8274   1
  -4  -5  16 7.38406 1.05965   1
  -4  -5  17 42.9972 3.76642   1
  -4  -5  18 0.59371 0.62804   1
  -4  -5  19 22.9954 2.31115   1
  -4  -5  20 5.90438 1.05291   1
  -4  -5  21 86.6705 7.12006   1
  -4  -5  22 3.08941 0.84694   1
  -4  -5  23 71.6834 5.89281   1
  -4  -5  24  37.478 3.29931   1
  -4  -5  25 22.4395 2.19913   1
  -4  -5  26 23.1698 2.20887   1
  -4  -5  27  6.7002 0.92909   1
  -4  -4   1 787.189 51.4999   1
  -4  -4   2 61.4344  4.2534   1
  -4  -4   3 40.2784   2.861   1
  -4  -4   4 1.40333  0.4173   1
  -4  -4   5 4.71646 0.56188   1
  -4  -4   6 63.3171 4.37707   1
  -4  -4   7 431.065 28.4692   1
  -4  -4   8 390.724 25.7925   1
  -4  -4   9 226.557 16.7921   1
  -4  -4  10 799.829 52.1376   1
  -4  -4  11 43.8209 7.63087   1
  -4  -4  12 438.438 27.4012   1
  -4  -4  13 9.81094 1.17702   1
  -4  -4  14 21.3425 2.06522   1
  -4  -4  15 54.0218 11.0986   1
  -4  -4  16  21.882    1.97   1
  -4  -4  17 0.50413 0.49834   1
  -4  -4  18 152.383  12.327   1
  -4  -4  19 160.966 12.9718   1
  -4  -4  20  86.377 7.12164   1
  -4  -4  21  88.579 7.26037   1
  -4  -4  22  1.3567  0.6831   1
  -4  -4  23 5.49395 0.97393   1
  -4  -4  24 0.34941 0.66574   1
  -4  -4  25 26.4358  2.5047   1
  -4  -4  26 8.65079 1.13984   1
  -4  -4  27 77.4688 6.16818   1
  -4  -3   1 276.585 18.5577   1
  -4  -3   2 294.047 29.0623   1
  -4  -3   3 1979.05 199.316   1
  -4  -3   4 120.375 8.22167   1
  -4  -3   5 136.335 9.27486   1
  -4  -3   6 60.4264 4.34323   1
  -4  -3   7  7.2434 0.71616   1
  -4  -3   8 61.9456 4.29391   1
  -4  -3   9 715.612 46.8431   1
  -4  -3  10 1.14502 0.37419   1
  -4  -3  11 1091.92 71.0698   1
  -4  -3  12  42.627 3.01417   1
  -4  -3  13 58.3949 3.83935   1
  -4  -3  14 150.768 9.51254   1
  -4  -3  15 5.79154  0.9026   1
  -4  -3  16 63.2081 7.34094   1
  -4  -3  17 27.2444 2.15596   1
  -4  -3  18 34.6634 8.31358   1
  -4  -3  19 36.1543 3.28244   1
  -4  -3  20 86.3459 7.10868   1
  -4  -3  21-0.02632 0.65326   1
  -4  -3  22 129.605 10.3886   1
  -4  -3  23  9.4022 1.24969   1
  -4  -3  24 45.5254 3.90091   1
  -4  -3  25 4.08519  0.8694   1
  -4  -3  26 3.25122 0.74564   1
  -4  -3  27 2.83753 0.69517   1
  -4  -2   1 8.50506  0.8071   1
  -4  -2   2 140.425 9.63289   1
  -4  -2   3 7.48736  0.7301   1
  -4  -2   4 355.467 23.9013   1
  -4  -2   5  113.12 7.77138   1
  -4  -2   6 1129.84 73.5036   1
  -4  -2   7 220.615 14.8632   1
  -4  -2   8 279.181  18.669   1
  -4  -2   9 436.245 62.7176   1
  -4  -2  10 11.5679 2.40448   1
  -4  -2  11 260.447 42.9538   1
  -4  -2  12 37.9945 3.45738   1
  -4  -2  13 57.5258 3.79955   1
  -4  -2  14 42.4871 3.71157   1
  -4  -2  15 94.6167 7.85581   1
  -4  -2  16  1.6262 0.52341   1
  -4  -2  17 164.307 11.0983   1
  -4  -2  18 43.2046 3.79883   1
  -4  -2  19 70.3616 5.88457   1
  -4  -2  20 27.8785  2.6623   1
  -4  -2  21 42.2179 3.71111   1
  -4  -2  22 21.0011 2.17843   1
  -4  -2  23 23.9599 2.35319   1
  -4  -2  24 27.5784 2.59718   1
  -4  -2  25 13.8991 1.54407   1
  -4  -2  26 17.6547 1.79609   1
  -4  -2  27 0.60211 0.54301   1
  -4  -1   1 24.2402 1.79464   1
  -4  -1   2 20.1755 1.51869   1
  -4  -1   3 110.524 17.4732   1
  -4  -1   4 549.873 36.7024   1
  -4  -1   5 194.947 13.2887   1
  -4  -1   6 1778.24 114.226   1
  -4  -1   7 45.1585 3.91716   1
  -4  -1   8  698.56 99.3956   1
  -4  -1   9 7.50159 0.73688   1
  -4  -1  10 14.0159 1.18851   1
  -4  -1  11  0.7474 0.31892   1
  -4  -1  12  131.55 12.4127   1
  -4  -1  13 37.6241 3.77329   1
  -4  -1  14 437.121 25.9676   1
  -4  -1  15 81.4018 4.98465   1
  -4  -1  16 57.0048 3.28078   1
  -4  -1  17 53.1114 3.34766   1
  -4  -1  18 0.54939 0.59679   1
  -4  -1  19 50.1578 4.31762   1
  -4  -1  20 19.7687 2.08609   1
  -4  -1  21 111.581 9.02346   1
  -4  -1  22 19.1834 2.02015   1
  -4  -1  23 72.2844 5.93451   1
  -4  -1  24 -0.0011 0.61359   1
  -4  -1  25 7.66423 1.05185   1
  -4  -1  26 4.49856 0.80522   1
  -4   0   1 8.73635 2.51057   1
  -4   0   2 0.29822 0.21427   1
  -4   0   3 24.7934 1.82377   1
  -4   0   4 2.21874  0.3489   1
  -4   0   5 1975.14 126.159   1
  -4   0   6 70.2979 4.90133   1
  -4   0   8 277.725 18.6215   1
  -4   0   9 120.221 10.3145   1
  -4   0  10  58.151 4.03177   1
  -4   0  11 4.57698 0.58771   1
  -4   0  12 14.4125 1.23653   1
  -4   0  13 33.6993 2.35097   1
  -4   0  14 171.764 28.9163   1
  -4   0  15 65.9936 7.17283   1
  -4   0  16 246.992 14.6276   1
  -4   0  17 3.08726 0.59922   1
  -4   0  18 107.901 7.99762   1
  -4   0  19 32.6791 2.24487   1
  -4   0  20 53.2024 5.13892   1
  -4   0  21  13.481 1.59588   1
  -4   0  22 27.6906 2.60359   1
  -4   0  23 0.29661 0.60836   1
  -4   0  24 20.1259  2.0277   1
  -4   0  25 5.58377 0.87974   1
  -4   0  26 17.3808  1.7605   1
  -4   1   0 888.077 49.1299   1
  -4   1   1 308.099 18.4985   1
  -4   1   2 1203.67  104.17   1
  -4   1   3 494.724 29.3253   1
  -4   1   4 195.821 11.8191   1
  -4   1   5 425.891 41.6897   1
  -4   1   6 69.4453 4.83758   1
  -4   1   7 258.768 17.4204   1
  -4   1   8 234.154 15.7179   1
  -4   1   9 308.768 20.5322   1
  -4   1  10 41.8577 5.41973   1
  -4   1  11 356.375  47.173   1
  -4   1  12  5.4192 0.64136   1
  -4   1  13 81.3743   8.487   1
  -4   1  14 19.3403 2.28632   1
  -4   1  15 36.8288 2.40285   1
  -4   1  16  51.827 3.27964   1
  -4   1  17 210.542 12.4405   1
  -4   1  18 70.1999 4.32188   1
  -4   1  19 112.902 6.74328   1
  -4   1  20 24.5016 3.66834   1
  -4   1  21 0.84104 0.61487   1
  -4   1  22 10.7871  1.0391   1
  -4   2   0 153.651  8.1806   1
  -4   2   1 539.808 28.0015   1
  -4   2   2 4650.95 239.074   1
  -4   2   3 462.728 28.4397   1
  -4   2   4 1374.59 83.5775   1
  -4   2   5  3.8532 0.56662   1
  -4   2   6 18.5954 1.43621   1
  -4   2   7  112.54 7.79106   1
  -4   2   8 218.361 42.5258   1
  -4   2   9 5.27012 1.00245   1
  -4   2  10 776.709 50.6667   1
  -4   2  11 11.4433 1.06886   1
  -4   2  12 91.4131 5.88112   1
  -4   2  13 143.492 9.07017   1
  -4   2  14 3.77746 0.87093   1
  -4   2  15 163.674 13.3419   1
  -4   2  16 27.6907 2.74033   1
  -4   2  17 121.989 10.0006   1
  -4   2  18 17.8851 2.03981   1
  -4   2  19 84.9084 7.11695   1
  -4   2  20 1.38622 1.03072   1
  -4   2  21 24.0965   2.663   1
  -4   2  22 0.16387 1.01453   1
  -4   2  23 13.5288 1.69506   1
  -4   3   0 6.70104 0.48313   1
  -4   3   1 912.198  46.584   1
  -4   3   2 153.481 8.11893   1
  -4   3   3 597.253 30.8045   1
  -4   3   4 234.393   17.68   1
  -4   3   5  773.44 57.4573   1
  -4   3   6 35.8053 2.10887   1
  -4   3   7 186.633 11.9571   1
  -4   3   8 52.2906 3.01372   1
  -4   3   9  7.5033 0.74068   1
  -4   3  10 294.227 42.2548   1
  -4   3  11 38.9669  3.4696   1
  -4   3  13  74.018 5.02686   1
  -4   3  14  147.56 13.9455   1
  -4   3  15 29.3479  2.2648   1
  -4   3  16 162.488 10.6137   1
  -4   3  17 61.8141 5.37432   1
  -4   3  18 52.7846 4.68885   1
  -4   3  19 0.98106 1.04845   1
  -4   3  20 10.7764 1.65454   1
  -4   3  21 3.08417 1.16033   1
  -4   3  22 29.4269 2.97085   1
  -4   3  23 55.1618 9.10437   1
  -4   3  24 15.9504 1.87871   1
  -4   4   0 555.379 50.7474   1
  -4   4   1 671.273  49.365   1
  -4   4   2 352.231 18.1741   1
  -4   4   3 264.436 15.5913   1
  -4   4   4 41.5471 7.36122   1
  -4   4   5 273.439 18.0273   1
  -4   4   6 2.43637 0.81096   1
  -4   4   7 502.491 32.5602   1
  -4   4   8 64.0232 4.32476   1
  -4   4   9 82.9323   7.557   1
  -4   4  10 1.25312 2.08244   1
  -4   4  11 46.2715 3.03623   1
  -4   4  12 232.807 15.1979   1
  -4   4  13 337.917 21.8835   1
  -4   4  14 122.322 8.07514   1
  -4   4  15 141.899 22.6342   1
  -4   4  16 1.20658 0.75686   1
  -4   4  17 2.95977 0.90381   1
  -4   4  18 16.1527  2.0072   1
  -4   4  19 1.39323 1.13741   1
  -4   4  20 112.176  10.282   1
  -4   4  21 22.5138 4.67144   1
  -4   4  22 63.3205 17.1404   1
  -4   4  23 1.91706 1.10659   1
  -4   4  24 8.03937 1.29528   1
  -4   5   0 400.959 23.4138   1
  -4   5   1 13.9889 0.99173   1
  -4   5   2 61.8089 3.72748   1
  -4   5   3 20.4258  1.5059   1
  -4   5   4 729.448 48.8918   1
  -4   5   5 2.14076 0.39664   1
  -4   5   6 455.962 41.8124   1
  -4   5   7 19.9207  1.4802   1
  -4   5   8 10.4533 0.78759   1
  -4   5   9 191.953 10.0148   1
  -4   5  10 54.1673 3.14675   1
  -4   5  11 141.438 7.77629   1
  -4   5  12 97.6001 5.40582   1
  -4   5  13 117.757 7.80403   1
  -4   5  14 1.29474 0.87591   1
  -4   5  15 140.229 9.17038   1
  -4   5  16 0.54107 0.81482   1
  -4   5  17  38.618 2.68765   1
  -4   5  18 3.26515 0.72132   1
  -4   5  19 9.58846 1.90975   1
  -4   5  20 13.2584 2.92758   1
  -4   5  21   44.61 8.57113   1
  -4   5  22  30.192 2.98881   1
  -4   5  23 37.4784 3.43886   1
  -4   6   0 123.179 8.94538   1
  -4   6   1 593.703 57.1418   1
  -4   6   2 136.292 22.8206   1
  -4   6   3 258.059 23.0487   1
  -4   6   4 99.9444 6.62652   1
  -4   6   5 2.09774 0.44341   1
  -4   6   6 130.361 7.09227   1
  -4   6   7 45.1467 3.50405   1
  -4   6   8 178.691 9.32081   1
  -4   6   9 44.0351 2.27123   1
  -4   6  10 240.449 12.8715   1
  -4   6  11 38.7457 3.42476   1
  -4   6  12 189.168 12.0613   1
  -4   6  13 26.2516 1.51725   1
  -4   6  14 32.8977 2.09056   1
  -4   6  15 2.51136  0.6896   1
  -4   6  16 18.1441 1.68167   1
  -4   6  17 16.2435 1.30064   1
  -4   6  18 64.3628 7.07329   1
  -4   6  19 64.2866  5.4057   1
  -4   6  20 14.6416 1.38807   1
  -4   6  21 28.3325  2.4632   1
  -4   6  22 3.64088 1.21342   1
  -4   7   0 46.2605 5.47471   1
  -4   7   1 115.971 11.6792   1
  -4   7   2 1.35775 0.41187   1
  -4   7   3 166.154  9.0232   1
  -4   7   4 44.6455 2.70258   1
  -4   7   5 134.492 7.30309   1
  -4   7   6 1.67244 0.47744   1
  -4   7   7 153.079  7.3969   1
  -4   7   8 178.072 13.7982   1
  -4   7   9 245.775 11.7083   1
  -4   7  10 92.3778 4.53639   1
  -4   7  11 83.4161 4.41931   1
  -4   7  12 2.86051 0.53082   1
  -4   7  13 1.64566 0.53518   1
  -4   7  14 32.7144 2.10522   1
  -4   7  15 11.9623   1.107   1
  -4   7  16 100.981 5.50957   1
  -4   7  17 13.2242 1.17672   1
  -4   7  18 37.7682 3.27871   1
  -4   7  19 1.39104 0.70619   1
  -4   7  20 20.4642  1.5232   1
  -4   7  21 8.72229 1.50833   1
  -4   8   0 764.613 65.2674   1
  -4   8   1 2.85843  0.4603   1
  -4   8   2 146.419 13.7541   1
  -4   8   3 1.34252 1.05138   1
  -4   8   4  1.7217 0.51534   1
  -4   8   5 98.2612 4.61772   1
  -4   8   6 112.497 5.49157   1
  -4   8   7 245.464 11.7007   1
  -4   8   8 128.141  6.2044   1
  -4   8   9 154.756 7.43451   1
  -4   8  10 2.39482 0.53106   1
  -4   8  11 46.2967 4.58072   1
  -4   8  12-0.04252 0.99833   1
  -4   8  13 33.0853 2.15064   1
  -4   8  14 6.35053 0.88185   1
  -4   8  15 51.4692 3.03991   1
  -4   8  16 6.33045 0.92846   1
  -4   8  17 54.9541 3.19575   1
  -4   8  18   31.17 2.04876   1
  -4   8  19 19.6714 2.55117   1
  -4   8  20 19.5917 3.26459   1
  -4   9   0 117.347 6.57377   1
  -4   9   1 47.2809 2.82148   1
  -4   9   2 73.0247 4.19666   1
  -4   9   3 17.4182 1.14305   1
  -4   9   4 103.596 4.71696   1
  -4   9   5 6.06297  1.1295   1
  -4   9   6 183.766 10.2309   1
  -4   9   7 8.37192 0.70601   1
  -4   9   8 167.623 7.99269   1
  -4   9   9 5.60641 1.02523   1
  -4   9  10 64.5215 4.14427   1
  -4   9  11 3.22253 0.84069   1
  -4   9  12 32.7522 2.14536   1
  -4   9  13 26.5083 1.86758   1
  -4   9  14 31.6283  2.1063   1
  -4   9  15 29.3862 2.00396   1
  -4   9  16 6.42347 1.00824   1
  -4   9  17 18.0104 2.19029   1
  -4   9  18 0.54122 0.88028   1
  -4   9  19 46.9921 3.30284   1
  -4  10   0 6.82357 0.83898   1
  -4  10   1 137.638 9.65562   1
  -4  10   2 10.2578 1.82568   1
  -4  10   3  468.19 23.0383   1
  -4  10   4 80.0024 4.36803   1
  -4  10   5 149.567 6.72223   1
  -4  10   6 111.592 5.70715   1
  -4  10   7 1.43596 0.69364   1
  -4  10   8 9.88249 0.82674   1
  -4  10   9 9.94529 0.85736   1
  -4  10  10 19.3033 1.27757   1
  -4  10  11 79.6412 4.44675   1
  -4  10  12 82.5653 4.81321   1
  -4  10  13 12.1003 1.27057   1
  -4  10  14 54.6229 5.46969   1
  -4  10  15 10.4386 1.06853   1
  -4  10  16 19.0872  2.4092   1
  -4  10  17 8.00477  1.1386   1
  -4  10  18 27.7558 2.17384   1
  -4  11   0 3.15391 0.64534   1
  -4  11   1 31.7034 2.55305   1
  -4  11   2 15.5031 1.09459   1
  -4  11   3 194.858 12.4287   1
  -4  11   4 144.986 7.23844   1
  -4  11   5 119.619 7.31465   1
  -4  11   6 35.4882 2.45138   1
  -4  11   7  39.783   2.147   1
  -4  11   8 5.00967 0.68205   1
  -4  11   9 46.8434 2.46778   1
  -4  11  10 6.28785  0.8844   1
  -4  11  11 67.3499 3.80726   1
  -4  11  12-0.09039 1.34294   1
  -4  11  13 29.9252 1.99202   1
  -4  11  14  2.8091 0.79202   1
  -4  11  15 14.3497 1.57067   1
  -4  11  16 30.8657 6.06916   1
  -4  11  17 12.2451 2.01505   1
  -4  12   0 141.877 8.08601   1
  -4  12   1 29.5274 2.03122   1
  -4  12   2 156.191 10.3375   1
  -4  12   3  10.164  0.9002   1
  -4  12   4 70.8553  6.4265   1
  -4  12   5 38.5184 2.44408   1
  -4  12   6 67.3701 3.90421   1
  -4  12   7 2.72522 0.63072   1
  -4  12   8  66.318 3.32913   1
  -4  12   9 0.33573 0.71993   1
  -4  12  10 18.1522 1.39273   1
  -4  12  11 15.1966  1.2681   1
  -4  12  12 2.62352 0.75031   1
  -4  12  13 54.1902 4.16976   1
  -4  12  14 5.44783 1.03083   1
  -4  12  15 58.2897 3.92538   1
  -4  13   0 60.3181 3.54917   1
  -4  13   1 43.5019  3.6115   1
  -4  13   2 50.2561 4.46403   1
  -4  13   3 1.35863 0.67791   1
  -4  13   4 1.38886 0.66447   1
  -4  13   5 46.5347 2.85643   1
  -4  13   6  39.194 2.74305   1
  -4  13   7  70.537 7.54226   1
  -4  13   8 101.381 6.78283   1
  -4  13   9 1.87556 0.68725   1
  -4  13  10 30.7615 1.99228   1
  -4  13  11 5.27934 0.79481   1
  -4  13  12 3.58911 0.90225   1
  -4  13  13 1.89288 0.80603   1
  -4  13  14 35.5956 3.92907   1
  -4  14   0 136.776 7.55161   1
  -4  14   1 124.434 6.86915   1
  -4  14   2  24.714 1.82687   1
  -4  14   3 71.2502 6.03547   1
  -4  14   4 17.5761   4.126   1
  -4  14   5 23.5631 2.94234   1
  -4  14   6 3.47497 0.93744   1
  -4  14   7 18.6252 3.05922   1
  -4  14   8 8.40711 1.20985   1
  -4  14   9 40.2563 3.02872   1
  -4  14  10  0.8665 1.24147   1
  -4  14  11  45.568 4.80527   1
  -4  14  12 56.2939 5.67154   1
  -4  15   0 8.22902 3.10266   1
  -4  15   1  10.758 1.43294   1
  -4  15   2  58.547 4.21589   1
  -4  15   3 0.27777 1.11601   1
  -4  15   4 122.027 10.2199   1
  -4  15   5  2.7523 0.92733   1
  -4  15   6 16.5354 2.62426   1
  -4  15   7 26.2745 2.26438   1
  -4  15   8-1.42013 1.18154   1
  -4  15   9 40.9847 4.33078   1
  -4  16   0  18.132 1.74471   1
  -4  16   1 20.6229 4.74452   1
  -4  16   2 55.3879 5.08762   1
  -4  16   3 11.8487 1.83841   1
  -3 -17   8 19.9894 2.99941   1
  -3 -17   9 39.3732  4.6983   1
  -3 -17  10  35.091 4.36189   1
  -3 -17  11 91.9647 9.87938   1
  -3 -16   7 8.19453 2.12137   1
  -3 -16   8 34.8691 4.55178   1
  -3 -16   9 0.51894  1.4746   1
  -3 -16  10 84.2445 9.24816   1
  -3 -16  11 3.39083  1.6374   1
  -3 -16  12 72.2706 7.99943   1
  -3 -16  13  9.8524 2.12228   1
  -3 -16  14 17.7372 2.75199   1
  -3 -16  15 18.1872 2.85258   1
  -3 -16  16 2.34031 1.32647   1
  -3 -16  17 12.9051  2.1841   1
  -3 -15   1 36.4563 3.22036   1
  -3 -15   2-0.27505 0.78208   1
  -3 -15   3 10.7967 1.35225   1
  -3 -15   4 0.76302 0.92362   1
  -3 -15   5 61.1359 11.0114   1
  -3 -15   6 12.3466 1.49293   1
  -3 -15   7 157.238 36.2658   1
  -3 -15   8 30.7134 5.69436   1
  -3 -15   9 56.7842 4.63831   1
  -3 -15  10 9.68878 2.37835   1
  -3 -15  11  2.1915 1.65313   1
  -3 -15  12 18.1194 3.01684   1
  -3 -15  13 5.04905 1.84279   1
  -3 -15  14 64.9362 7.32024   1
  -3 -15  15  33.003 4.28179   1
  -3 -15  16 73.9512 8.13306   1
  -3 -15  17 1.90796 1.40424   1
  -3 -15  18 25.7023 3.44653   1
  -3 -15  19 13.6481 2.29816   1
  -3 -14   1 0.10685 0.85843   1
  -3 -14   2 9.10245 1.32319   1
  -3 -14   3 25.4501 7.84034   1
  -3 -14   4 39.6521 5.35491   1
  -3 -14   5 117.202 14.3156   1
  -3 -14   6 50.8368 8.30092   1
  -3 -14   7 62.3214 7.29084   1
  -3 -14   8 13.8348 2.96259   1
  -3 -14   9  24.709 2.61363   1
  -3 -14  10  7.1836 2.22907   1
  -3 -14  11 42.6096 3.28877   1
  -3 -14  12 0.15849 0.82729   1
  -3 -14  13 62.2716 4.49502   1
  -3 -14  14 24.4259  8.1137   1
  -3 -14  15 48.9841 3.64002   1
  -3 -14  16 24.6023  3.6424   1
  -3 -14  17 26.3777 3.69437   1
  -3 -14  18 2.65735 1.37203   1
  -3 -14  19 39.5311  4.7477   1
  -3 -14  20 20.0376 2.92661   1
  -3 -14  21 13.9552 2.27382   1
  -3 -13   1 4.45289 1.10069   1
  -3 -13   2 46.4227 4.20328   1
  -3 -13   3 39.2065 3.18125   1
  -3 -13   4 76.0218 14.4554   1
  -3 -13   5 2.34936 0.99676   1
  -3 -13   6 146.933 10.1191   1
  -3 -13   7 12.5949 1.51373   1
  -3 -13   8 105.304 12.7083   1
  -3 -13   9 11.6076 5.80546   1
  -3 -13  10 19.8958 1.93669   1
  -3 -13  11 11.5042 3.99033   1
  -3 -13  12 10.8898 1.35437   1
  -3 -13  13  14.912 1.64246   1
  -3 -13  14 26.5635 2.32883   1
  -3 -13  15   49.69 3.98276   1
  -3 -13  16  29.086 4.55941   1
  -3 -13  17 143.413 28.9354   1
  -3 -13  18 2.44496 0.80356   1
  -3 -13  19 78.7104  5.4575   1
  -3 -13  20  2.1382 0.71936   1
  -3 -13  21 5.90848 1.61448   1
  -3 -13  22 0.72588 1.12325   1
  -3 -13  23 5.32943 1.45339   1
  -3 -12   1 67.7119  4.9359   1
  -3 -12   2 26.9177 3.68191   1
  -3 -12   3  239.41 32.1636   1
  -3 -12   4 46.5244 4.20015   1
  -3 -12   5 90.0262 15.8422   1
  -3 -12   6 5.10324 1.02732   1
  -3 -12   7 3.00403 0.89342   1
  -3 -12   8 38.4759 5.06406   1
  -3 -12   9 12.5313 3.58175   1
  -3 -12  10 130.292 8.96942   1
  -3 -12  11 34.4021 6.87194   1
  -3 -12  12 81.3962 10.0305   1
  -3 -12  13-0.23932 0.98433   1
  -3 -12  14 36.5383 4.77454   1
  -3 -12  15 16.3397 1.68994   1
  -3 -12  16 93.0417 6.50438   1
  -3 -12  17  15.998  1.6448   1
  -3 -12  18 116.111 12.9814   1
  -3 -12  19 2.86069 0.83262   1
  -3 -12  20 29.4487 2.39357   1
  -3 -12  21 4.50932 0.85542   1
  -3 -12  22 0.31331   0.626   1
  -3 -12  23 35.6386 3.85574   1
  -3 -12  24 2.02641 0.54325   1
  -3 -11   1 129.738 8.99719   1
  -3 -11   2  99.711 7.87121   1
  -3 -11   3 16.8944 1.75149   1
  -3 -11   4 13.0608 5.51867   1
  -3 -11   5 71.1645 5.11991   1
  -3 -11   6 7.03714 2.40428   1
  -3 -11   7 251.551 17.1084   1
  -3 -11   8 2.78889  0.8351   1
  -3 -11   9 65.7235 7.77034   1
  -3 -11  10 40.4779 3.13522   1
  -3 -11  11 8.55376 1.14515   1
  -3 -11  12 8.90351 1.18267   1
  -3 -11  13 89.4771 6.33524   1
  -3 -11  14  10.587 1.30309   1
  -3 -11  15 183.714 12.5138   1
  -3 -11  16 111.633 7.71416   1
  -3 -11  17 21.3358 1.97558   1
  -3 -11  18 82.9716 6.73044   1
  -3 -11  19 10.4408 1.25577   1
  -3 -11  20 15.3156 1.56293   1
  -3 -11  21 2.39301 0.76116   1
  -3 -11  22 8.94885 1.10376   1
  -3 -11  23  7.5622 0.99238   1
  -3 -11  24 45.2214  3.6912   1
  -3 -11  25 10.1349 1.12589   1
  -3 -10   1 5.66489 1.24691   1
  -3 -10   2 304.681 20.6881   1
  -3 -10   3 7.76444 1.51795   1
  -3 -10   4 65.3661 6.47736   1
  -3 -10   5 0.04604 0.99923   1
  -3 -10   6 15.1857 1.49819   1
  -3 -10   7 21.8196 5.25369   1
  -3 -10   8 121.307 8.42782   1
  -3 -10   9  76.711 5.51303   1
  -3 -10  10 105.832 7.41578   1
  -3 -10  11 143.418 9.94197   1
  -3 -10  12 4.16498 1.21428   1
  -3 -10  13 173.219 11.8898   1
  -3 -10  14 0.72849 0.51858   1
  -3 -10  15 87.9185 5.72666   1
  -3 -10  16 8.87961 0.90599   1
  -3 -10  17 31.3991 2.51646   1
  -3 -10  18 4.76185 0.92186   1
  -3 -10  19 52.1134 8.88188   1
  -3 -10  20 32.3872 7.70449   1
  -3 -10  21 62.5069 12.2935   1
  -3 -10  22  78.946 10.0143   1
  -3 -10  23 25.2151 2.16902   1
  -3 -10  24 12.0139 1.39437   1
  -3 -10  25 3.35753 0.69153   1
  -3 -10  26 6.35812 0.84617   1
  -3  -9   1 155.441 11.5368   1
  -3  -9   2  64.065 8.90849   1
  -3  -9   3 135.137 9.53873   1
  -3  -9   4 372.983 25.4776   1
  -3  -9   5 37.2791 6.81187   1
  -3  -9   6 92.0105 12.5881   1
  -3  -9   7 2.26281  2.3916   1
  -3  -9   8 2.82269 0.67367   1
  -3  -9   9 0.34294 0.50957   1
  -3  -9  10 191.204 13.1519   1
  -3  -9  11 6.95299 0.75617   1
  -3  -9  12 582.697 41.5458   1
  -3  -9  13 22.5568 1.87261   1
  -3  -9  14 171.445 9.82642   1
  -3  -9  15 57.7105 4.18284   1
  -3  -9  16 2.30996 0.95763   1
  -3  -9  17  9.6361 0.93205   1
  -3  -9  18 4.28675 0.67785   1
  -3  -9  19 23.3339 2.05179   1
  -3  -9  20 40.2196 3.09092   1
  -3  -9  21 79.8887 5.58313   1
  -3  -9  22 11.4143 1.28507   1
  -3  -9  23 76.9016 6.22483   1
  -3  -9  24 2.66516  0.7165   1
  -3  -9  25 43.0767  3.5976   1
  -3  -9  26 3.18715 0.70373   1
  -3  -8   1 39.8709 3.52943   1
  -3  -8   2  25.377 2.07054   1
  -3  -8   3 170.631 29.4138   1
  -3  -8   4 0.60846 0.47489   1
  -3  -8   5 334.275 22.9729   1
  -3  -8   6 26.0569  2.0911   1
  -3  -8   7 125.233 8.77569   1
  -3  -8   8  9.7773 1.03847   1
  -3  -8   9  48.755 3.61286   1
  -3  -8  10 99.2505 6.99549   1
  -3  -8  11 172.696 12.4703   1
  -3  -8  12 298.468 17.0777   1
  -3  -8  13 170.121 10.3995   1
  -3  -8  14 78.4045 4.64753   1
  -3  -8  15 5.66924  0.6944   1
  -3  -8  16  19.145 1.42341   1
  -3  -8  17 3.53985 0.52866   1
  -3  -8  18 68.7338 3.67529   1
  -3  -8  19 0.33815 0.48198   1
  -3  -8  20 100.941 6.98911   1
  -3  -8  21 3.34121 0.80906   1
  -3  -8  22 53.4142 11.3758   1
  -3  -8  23 23.6926 2.30153   1
  -3  -8  24  36.949 3.20774   1
  -3  -8  25 21.3935 2.06756   1
  -3  -8  26 17.7955 1.78121   1
  -3  -8  27 12.5978 1.36425   1
  -3  -7   1 17.7879 1.98892   1
  -3  -7   2 129.143 11.8323   1
  -3  -7   3 80.4596 7.48669   1
  -3  -7   4 50.4589 4.80881   1
  -3  -7   5 60.1755 5.66854   1
  -3  -7   6 47.7114 4.56243   1
  -3  -7   7 297.162 26.7939   1
  -3  -7   8 137.828 12.5716   1
  -3  -7   9 532.847 47.6274   1
  -3  -7  10  77.801 6.53047   1
  -3  -7  11  116.10 8.15491   1
  -3  -7  12 2.74936 0.78802   1
  -3  -7  13 88.0272 5.84843   1
  -3  -7  14 17.1725 1.25275   1
  -3  -7  15 208.512 10.8125   1
  -3  -7  16  6.0754  0.6334   1
  -3  -7  17 79.0742 7.49574   1
  -3  -7  18 26.0649 1.84769   1
  -3  -7  19 5.23316 0.74288   1
  -3  -7  20 49.5254 4.72339   1
  -3  -7  21 25.3694 1.84147   1
  -3  -7  22 57.9897 4.86435   1
  -3  -7  23 34.7982 3.10396   1
  -3  -7  24 76.4125 6.19733   1
  -3  -7  25 0.99223 0.66876   1
  -3  -7  26 27.6158  2.4927   1
  -3  -7  27 1.79926 0.61178   1
  -3  -6   1 123.038 8.25016   1
  -3  -6   2 3.15562 0.53945   1
  -3  -6   3 1.24405 0.37753   1
  -3  -6   4 5.68691 0.61435   1
  -3  -6   5 10.4094 2.22632   1
  -3  -6   6 913.424 81.6728   1
  -3  -6   7 1.34951 0.54064   1
  -3  -6   8 1384.51 123.604   1
  -3  -6   9 152.654 13.9734   1
  -3  -6  10 176.078 16.0179   1
  -3  -6  11 56.0203 5.27819   1
  -3  -6  12 4.90467 0.78391   1
  -3  -6  13 7.11296 2.61341   1
  -3  -6  14  47.308 7.97554   1
  -3  -6  15 95.1505 5.80821   1
  -3  -6  16 96.5992 5.11713   1
  -3  -6  17 255.076 14.9227   1
  -3  -6  18 15.4211 1.29836   1
  -3  -6  19 59.9997 4.71444   1
  -3  -6  20 7.36665 0.86571   1
  -3  -6  21 26.5156 2.16493   1
  -3  -6  22 9.28066 1.14635   1
  -3  -6  23 97.4727 7.85563   1
  -3  -6  24 0.07285  0.6246   1
  -3  -6  25 40.6993 3.50008   1
  -3  -6  26 2.53767 0.72567   1
  -3  -6  27 3.98941 0.73992   1
  -3  -5   1 1036.49 80.8129   1
  -3  -5   2 201.727 18.5695   1
  -3  -5   3  343.97  22.927   1
  -3  -5   4 4.65503 0.52391   1
  -3  -5   5 7.13554 2.23774   1
  -3  -5   6 92.2683 6.30266   1
  -3  -5   7 268.087 17.8801   1
  -3  -5   8 504.672 33.2379   1
  -3  -5   9 861.391 122.497   1
  -3  -5  10 302.813 27.4529   1
  -3  -5  11 33.9547 3.34583   1
  -3  -5  12 131.488 12.0114   1
  -3  -5  13 63.0034 5.35537   1
  -3  -5  14 105.501 9.20521   1
  -3  -5  15 1.49821 0.93539   1
  -3  -5  16 52.7773 4.62586   1
  -3  -5  17 3.63156 0.58061   1
  -3  -5  18 166.008 16.1249   1
  -3  -5  19 47.9919  5.8583   1
  -3  -5  20 191.933 12.8199   1
  -3  -5  21 78.2274 8.66537   1
  -3  -5  22 13.9679 1.42049   1
  -3  -5  23 12.4946 1.44736   1
  -3  -5  24 1.83587 0.72328   1
  -3  -5  25 9.61438 1.29268   1
  -3  -5  26  11.475 1.36003   1
  -3  -5  27 33.0201 2.84285   1
  -3  -4   1 118.655 8.11828   1
  -3  -4   2 99.2912 6.83632   1
  -3  -4   3 1175.55 76.3979   1
  -3  -4   4 1087.78 70.8703   1
  -3  -4   5 2369.77 152.078   1
  -3  -4   6 194.371 13.1703   1
  -3  -4   7 75.5712  5.2225   1
  -3  -4   8 228.086  15.312   1
  -3  -4   9 35.1032 3.31184   1
  -3  -4  10 37.9501 2.70211   1
  -3  -4  11 851.924 55.5379   1
  -3  -4  12 56.7978 6.94454   1
  -3  -4  13 314.479 50.4453   1
  -3  -4  14 28.4405   2.594   1
  -3  -4  15 0.86109 0.48387   1
  -3  -4  16 234.234  15.772   1
  -3  -4  17 24.6957 2.92665   1
  -3  -4  18 129.717 19.1518   1
  -3  -4  19 101.316 11.9838   1
  -3  -4  20 72.0421 5.04141   1
  -3  -4  21 11.3151 1.25228   1
  -3  -4  22 49.8033 3.98104   1
  -3  -4  23 1.57863 0.74008   1
  -3  -4  24 17.4529 1.89294   1
  -3  -4  25 2.02178 0.70921   1
  -3  -4  26 22.3339 2.13958   1
  -3  -4  27 9.67292  1.1724   1
  -3  -3   1 5.53123 0.56736   1
  -3  -3   2 1592.80 102.254   1
  -3  -3   3 9.00877 0.81911   1
  -3  -3   4 838.858 55.3371   1
  -3  -3   5 164.075 12.8843   1
  -3  -3   6 501.331  39.678   1
  -3  -3   7 21.0235 1.58339   1
  -3  -3   8 472.191 31.4114   1
  -3  -3   9 4.05736 0.47631   1
  -3  -3  10 46.0145 3.23528   1
  -3  -3  11 398.572 26.2873   1
  -3  -3  12  11.642 1.06692   1
  -3  -3  13 392.586 64.9847   1
  -3  -3  14 101.411 18.4949   1
  -3  -3  15  27.626 2.52795   1
  -3  -3  16 6.07325 1.01258   1
  -3  -3  17 95.7886  6.6051   1
  -3  -3  18 57.3043 4.07872   1
  -3  -3  19 295.121 34.2877   1
  -3  -3  20 10.1124  1.1338   1
  -3  -3  21 57.3722 4.08751   1
  -3  -3  22 0.80493 0.58886   1
  -3  -3  23 0.69812 0.65789   1
  -3  -3  24 12.9997 1.54043   1
  -3  -3  25 14.7223  1.6921   1
  -3  -3  26 49.8751 4.14678   1
  -3  -3  27 15.6725 1.65448   1
  -3  -2   1 255.303 50.8487   1
  -3  -2   2 247.625 35.2847   1
  -3  -2   3 1583.10 101.437   1
  -3  -2   4 1343.53 86.8647   1
  -3  -2   5 1019.80 111.396   1
  -3  -2   6 633.676  42.215   1
  -3  -2   7 1.22266 0.28135   1
  -3  -2   8 356.343 43.5771   1
  -3  -2   9 3.72062 0.47352   1
  -3  -2  10 173.964 12.8787   1
  -3  -2  11 85.5774 5.83203   1
  -3  -2  12 64.6774 12.0163   1
  -3  -2  13 14.6469 1.24308   1
  -3  -2  14 370.772  23.175   1
  -3  -2  15  199.80  16.309   1
  -3  -2  16 354.542 28.6271   1
  -3  -2  17 51.7548  5.2665   1
  -3  -2  18 14.7267 1.38314   1
  -3  -2  19 3.46383 0.67514   1
  -3  -2  20 2.22969 1.24947   1
  -3  -2  21 47.6362  3.7513   1
  -3  -2  22  32.653 3.95167   1
  -3  -2  23 83.7328 6.84224   1
  -3  -2  24 13.0226 1.50155   1
  -3  -2  25 32.1348 2.86437   1
  -3  -2  26 10.7222 1.27332   1
  -3  -2  27 12.7054 1.46213   1
  -3  -1   1 4324.92 272.496   1
  -3  -1   2 198.772 13.8519   1
  -3  -1   3 74.4194 5.28659   1
  -3  -1   4 108.124 7.59235   1
  -3  -1   5 193.904 19.3037   1
  -3  -1   6 4.47278 0.96484   1
  -3  -1   7 1831.58 233.557   1
  -3  -1   8 37.8182 2.71718   1
  -3  -1   9 379.442 25.3496   1
  -3  -1  10 95.4231 6.52199   1
  -3  -1  11 3.72701 0.76717   1
  -3  -1  12 275.443 19.4886   1
  -3  -1  13 86.8528 5.98496   1
  -3  -1  14 222.322 13.9821   1
  -3  -1  15 123.665 10.3663   1
  -3  -1  16 237.674 19.2496   1
  -3  -1  17 17.4662 1.50278   1
  -3  -1  18 96.6141 15.8394   1
  -3  -1  19 0.24466 0.50633   1
  -3  -1  20 11.8439 1.46687   1
  -3  -1  21 5.02141 1.95301   1
  -3  -1  22 39.1669 3.47739   1
  -3  -1  23 15.4894 1.76871   1
  -3  -1  24 77.9742   6.327   1
  -3  -1  25 11.6977  1.3604   1
  -3  -1  26 21.8981 2.12586   1
  -3   0   1 13.4477 0.89148   1
  -3   0   2 1021.09 72.3742   1
  -3   0   3 200.192 13.9555   1
  -3   0   4 2219.85 436.433   1
  -3   0   5 301.546 21.4417   1
  -3   0   6  176.02 12.1416   1
  -3   0   7  461.39  30.983   1
  -3   0   8 2.01921  0.5632   1
  -3   0   9 204.597 18.9996   1
  -3   0  10 134.321 9.09767   1
  -3   0  11 144.796 10.7313   1
  -3   0  12 37.1742 2.66361   1
  -3   0  13 497.862 56.9427   1
  -3   0  14  37.756 2.44214   1
  -3   0  15 330.333  19.615   1
  -3   0  16 20.2059   1.487   1
  -3   0  17 29.3092 1.81637   1
  -3   0  18 2.23687 0.46335   1
  -3   0  19 21.4689  2.1518   1
  -3   0  20 17.4808 1.58179   1
  -3   0  21 41.8482 3.67584   1
  -3   0  22 49.2283 4.21359   1
  -3   0  23 7.09562 1.05431   1
  -3   0  24 44.5395 3.79014   1
  -3   0  25 1.36789 0.65514   1
  -3   0  26 41.1536 3.47365   1
  -3   1   0 2047.17 128.437   1
  -3   1   1 648.994 49.3516   1
  -3   1   2 524.063 27.5378   1
  -3   1   3 8.29689 0.54825   1
  -3   1   4 524.786 35.5122   1
  -3   1   5 60.4595 4.32876   1
  -3   1   6 361.279 78.0159   1
  -3   1   7 152.074 16.5746   1
  -3   1   8 193.814 41.1293   1
  -3   1   9 44.4409 3.14451   1
  -3   1  10 520.898  34.329   1
  -3   1  11 270.153 17.8992   1
  -3   1  12 520.998 34.0641   1
  -3   1  13 80.0107 10.9757   1
  -3   1  14 46.1227 2.93753   1
  -3   1  15 24.7955 3.36646   1
  -3   1  16 8.65294 0.79462   1
  -3   1  17 55.4546 7.72198   1
  -3   1  18  42.411 2.51998   1
  -3   1  19 83.0434 5.47819   1
  -3   1  20 7.98661 0.90588   1
  -3   1  21 50.5578 4.31761   1
  -3   1  22 3.40096 0.83268   1
  -3   1  23 27.1762 2.55002   1
  -3   1  24 8.32634 1.15912   1
  -3   1  25 49.2612 4.11424   1
  -3   2   0 31.1499 1.76691   1
  -3   2   1 2262.86 131.924   1
  -3   2   2 2.46904 0.43443   1
  -3   2   3 1425.73 85.8404   1
  -3   2   4 4.10197 0.54546   1
  -3   2   5 58.7765 4.14178   1
  -3   2   6 45.3901 3.21895   1
  -3   2   7 99.9992 6.88646   1
  -3   2   8 335.036 22.4031   1
  -3   2   9 397.203 43.6023   1
  -3   2  10 563.662 37.0027   1
  -3   2  11 88.7974 6.01293   1
  -3   2  12 308.053 20.2099   1
  -3   2  13 6.82956 0.93781   1
  -3   2  14 49.5675 4.32448   1
  -3   2  15 6.81355  1.1041   1
  -3   2  16 47.5526 4.22773   1
  -3   2  17 2.43494 0.80391   1
  -3   2  18 131.773 11.8887   1
  -3   2  19 21.1772  2.4552   1
  -3   2  20 54.0404 4.77834   1
  -3   2  21  19.111 2.16576   1
  -3   2  22 7.45019 1.37622   1
  -3   3   0 2359.28  115.51   1
  -3   3   1 1506.03 94.1765   1
  -3   3   2 1530.47 76.3115   1
  -3   3   3 354.727 23.6433   1
  -3   3   4 8.00495 0.57704   1
  -3   3   5 5.32083 1.04287   1
  -3   3   6 2.44876 0.64783   1
  -3   3   7 274.014 33.1864   1
  -3   3   8 86.4953 4.91094   1
  -3   3   9 1154.95 67.6025   1
  -3   3  10 7.75534 0.78348   1
  -3   3  11 458.746 29.9819   1
  -3   3  12  56.401 3.72475   1
  -3   3  13 23.2885 2.30398   1
  -3   3  14 60.1161 4.15094   1
  -3   3  15 39.6147 6.09367   1
  -3   3  16 6.53937 1.18214   1
  -3   3  17 62.3417 5.37313   1
  -3   3  18 19.1879 2.15514   1
  -3   3  19 13.0528 1.74047   1
  -3   3  20 100.761  8.2967   1
  -3   3  21  6.1296  1.3197   1
  -3   3  22 99.2386  8.0962   1
  -3   3  23 1.14555  1.0625   1
  -3   4   0 19.8006 1.11761   1
  -3   4   1  6.6396 0.63167   1
  -3   4   2 158.422 8.39259   1
  -3   4   3 134.222 9.23267   1
  -3   4   4 1307.50 71.1597   1
  -3   4   5 1.25324 0.27848   1
  -3   4   6 972.329 52.8033   1
  -3   4   7 276.536 15.3459   1
  -3   4   8 95.1853 5.35853   1
  -3   4   9  231.07 15.0701   1
  -3   4  10 30.3456 3.16846   1
  -3   4  11 37.0925 2.47967   1
  -3   4  12 204.821 26.6504   1
  -3   4  13 29.8301 2.82205   1
  -3   4  14 80.1105 5.41519   1
  -3   4  15 134.117 8.80302   1
  -3   4  16 5.64453 2.85715   1
  -3   4  17 87.7572 5.87374   1
  -3   4  18 5.30628 1.23135   1
  -3   4  19 23.7593 2.70886   1
  -3   4  20 1.00347 1.12587   1
  -3   4  21 47.8089 4.28597   1
  -3   4  22 17.2647  1.5526   1
  -3   4  23 62.3896 5.23428   1
  -3   5   0 2.99461 1.35101   1
  -3   5   1 7.49245 0.76891   1
  -3   5   2   2.255  0.3853   1
  -3   5   3 62.2887 4.25049   1
  -3   5   4 388.241 70.5758   1
  -3   5   5 568.819 42.1636   1
  -3   5   6  541.60  103.16   1
  -3   5   7 273.247 27.0263   1
  -3   5   8  218.96 14.7294   1
  -3   5   9  7.0593 0.73011   1
  -3   5  10  55.356 7.77218   1
  -3   5  11  11.407 0.92807   1
  -3   5  12 189.832 16.8794   1
  -3   5  13 1.86238 0.87558   1
  -3   5  14 168.745 12.8434   1
  -3   5  15 6.45448 1.03449   1
  -3   5  16 12.0045 3.60427   1
  -3   5  17 10.7334 1.28582   1
  -3   5  18 12.7731 2.86864   1
  -3   5  19 104.199 11.1591   1
  -3   5  20 65.1543 4.14651   1
  -3   5  21  62.728 4.00516   1
  -3   5  22  14.429 1.34399   1
  -3   5  23 8.28033  1.4038   1
  -3   6   0 24.8209 4.66548   1
  -3   6   1 3.13109  0.3806   1
  -3   6   2 12.0494 1.95421   1
  -3   6   3 324.726 22.0553   1
  -3   6   4 53.8695  3.6787   1
  -3   6   5 969.722   51.60   1
  -3   6   6 5.87794 0.88046   1
  -3   6   7 404.833 21.5987   1
  -3   6   8 60.9962 4.65123   1
  -3   6   9 48.7168 3.95046   1
  -3   6  10 18.1433 1.09851   1
  -3   6  11 59.8696 3.63259   1
  -3   6  12 0.26599 0.40838   1
  -3   6  13 56.5978 3.91237   1
  -3   6  14 40.0534  2.4397   1
  -3   6  15 27.0798 1.84906   1
  -3   6  16 161.532 9.70028   1
  -3   6  17 8.52752  1.2326   1
  -3   6  18 74.1879 4.14202   1
  -3   6  19 0.78447 0.72581   1
  -3   6  20 18.7196 1.61257   1
  -3   6  21 3.59104  0.8875   1
  -3   6  22 27.6535 2.80951   1
  -3   7   0 1077.63 93.2196   1
  -3   7   1 4.62751 0.49707   1
  -3   7   2 666.618 35.5718   1
  -3   7   3 113.416 7.52248   1
  -3   7   4 8.65059 0.66851   1
  -3   7   5 79.7749 5.21021   1
  -3   7   6 44.0283 2.49692   1
  -3   7   7 69.2063 4.57929   1
  -3   7   8 387.706 18.9905   1
  -3   7   9 148.784 7.16946   1
  -3   7  10 78.7371 3.86388   1
  -3   7  11 98.6737 4.81622   1
  -3   7  12 28.8548 1.64637   1
  -3   7  13 22.0551 2.22422   1
  -3   7  14 1.37083 0.67443   1
  -3   7  15 32.3456 2.12266   1
  -3   7  16  1.6516 0.87035   1
  -3   7  17 146.685 7.84315   1
  -3   7  18 18.3885  1.4278   1
  -3   7  19 77.3226 8.13656   1
  -3   7  20 19.9958 1.85554   1
  -3   7  21 0.74658 1.11628   1
  -3   8   0 113.776 7.32197   1
  -3   8   1 501.641 72.2982   1
  -3   8   2 476.956 31.9645   1
  -3   8   3 225.387 12.0905   1
  -3   8   4 278.496 13.6305   1
  -3   8   5 1.98731 0.53162   1
  -3   8   6 60.3896 3.22566   1
  -3   8   7  20.693 1.22077   1
  -3   8   8  91.995 6.38029   1
  -3   8   9  5.7926 0.75727   1
  -3   8  10 146.639 7.00247   1
  -3   8  11 21.3261 1.32817   1
  -3   8  12 48.7631 3.13938   1
  -3   8  13 23.5859 2.40397   1
  -3   8  14 26.2973  1.8422   1
  -3   8  15 154.559 15.1739   1
  -3   8  16 34.2203 2.25387   1
  -3   8  17 41.3764 3.46142   1
  -3   8  18 9.87198 1.05565   1
  -3   8  19 2.05102 0.75185   1
  -3   8  20 2.91703 0.88626   1
  -3   9   0 0.87143  0.3966   1
  -3   9   1 235.779 14.1682   1
  -3   9   2 3.68448 0.54789   1
  -3   9   3 234.577 18.6035   1
  -3   9   4 2.48522 0.80177   1
  -3   9   5 203.263 10.9696   1
  -3   9   6 14.0631 1.21274   1
  -3   9   7 101.123 4.92097   1
  -3   9   8 21.2811 1.45236   1
  -3   9   9 12.7809 1.26646   1
  -3   9  10 31.5135 1.78212   1
  -3   9  11 13.4885  1.2612   1
  -3   9  12 73.4352 4.14247   1
  -3   9  13 35.4446    2.80   1
  -3   9  14 65.3826 4.79724   1
  -3   9  15-0.16183 1.26296   1
  -3   9  16 34.5759 2.76528   1
  -3   9  17 7.39319 0.96686   1
  -3   9  18 34.5151  2.6149   1
  -3   9  19 0.71783  0.9597   1
  -3  10   0 135.994 7.55569   1
  -3  10   1  41.841 2.28119   1
  -3  10   2 24.7155 2.68173   1
  -3  10   3 132.883  6.8158   1
  -3  10   4 110.928 5.02975   1
  -3  10   5  135.46 8.22575   1
  -3  10   6  80.153 3.95753   1
  -3  10   7 14.2563 0.99618   1
  -3  10   8 0.45957 0.49149   1
  -3  10   9 13.2226 1.16239   1
  -3  10  10 1.18201 0.76249   1
  -3  10  11 122.878 7.38315   1
  -3  10  12 2.16508 0.80456   1
  -3  10  13 147.956 8.87807   1
  -3  10  14 17.1524 1.40027   1
  -3  10  15 21.9803 1.78859   1
  -3  10  16  7.7212 0.97436   1
  -3  10  17 0.54894 1.56834   1
  -3  10  18 5.63039 1.03781   1
  -3  11   0 126.042 7.00179   1
  -3  11   1  9.9318 1.03965   1
  -3  11   2 167.768 10.4896   1
  -3  11   3 31.2737 1.83049   1
  -3  11   4 92.6412 4.69252   1
  -3  11   5 0.81214 0.46503   1
  -3  11   6  67.769  3.3797   1
  -3  11   7  3.1286 0.59393   1
  -3  11   8 53.3455 3.09435   1
  -3  11   9 9.20325 1.22766   1
  -3  11  10 34.7292 2.98134   1
  -3  11  11 58.3513 3.79952   1
  -3  11  12  19.127 2.25674   1
  -3  11  13 50.2205 3.68015   1
  -3  11  14 12.6927 1.39367   1
  -3  11  15 17.3015 1.35461   1
  -3  11  16 6.44941 1.09758   1
  -3  11  17 19.0562 2.52002   1
  -3  12   0 3.02694 0.68619   1
  -3  12   1 113.586 6.31937   1
  -3  12   2 73.6446 5.09905   1
  -3  12   3 46.2414  2.5409   1
  -3  12   4 10.1103 1.01642   1
  -3  12   5 25.2939 1.53233   1
  -3  12   6  1.7671 0.74835   1
  -3  12   7 23.2342 1.91685   1
  -3  12   8 70.2623 5.07297   1
  -3  12   9 20.7913 2.65309   1
  -3  12  10 149.189 7.96487   1
  -3  12  11 0.51154 0.70951   1
  -3  12  12 23.6709 1.70243   1
  -3  12  13  3.6391  1.2026   1
  -3  12  14 8.46023  1.8893   1
  -3  12  15 0.69976 1.06923   1
  -3  13   0  80.082 6.90323   1
  -3  13   1 40.5799 2.53914   1
  -3  13   2 95.2597 5.32526   1
  -3  13   3 7.10421  0.8851   1
  -3  13   4 0.64173 0.82642   1
  -3  13   5 57.3724 4.74398   1
  -3  13   6 5.13691 0.81406   1
  -3  13   7 136.324 8.90647   1
  -3  13   8 0.73894 0.85564   1
  -3  13   9 43.2422 2.62923   1
  -3  13  10 3.85621  0.8031   1
  -3  13  11 12.8594 1.15303   1
  -3  13  12 9.95088 2.24805   1
  -3  13  13 23.6338 1.94055   1
  -3  14   0 81.8335 5.11562   1
  -3  14   1 16.7469  3.4573   1
  -3  14   2 3.04348 1.00019   1
  -3  14   3 2.21617 1.20408   1
  -3  14   4 32.9759 2.64287   1
  -3  14   5  1.4498 0.98797   1
  -3  14   6 84.3917 8.37315   1
  -3  14   7 43.3438 3.26134   1
  -3  14   8 31.1996 2.55268   1
  -3  14   9 79.0846 5.33232   1
  -3  14  10 2.85195 1.39148   1
  -3  14  11 13.3309 2.11144   1
  -3  14  12   2.181 1.28677   1
  -3  15   0 0.46841 0.91152   1
  -3  15   1 122.952 10.3585   1
  -3  15   2 3.31329 1.32887   1
  -3  15   3 21.9059 2.56471   1
  -3  15   4 97.4918 8.34262   1
  -3  15   5 0.80798 0.85483   1
  -3  15   6 68.6267 4.70434   1
  -3  15   7 0.87513 1.11286   1
  -3  15   8 8.38141 1.63259   1
  -3  15   9 1.12902 1.17231   1
  -3  16   0 6.64266 1.47488   1
  -3  16   1 40.1716 4.04106   1
  -3  16   2 1.69968 1.23434   1
  -3  16   3 94.1529 7.99613   1
  -2 -17   7 7.89015 1.95292   1
  -2 -17   8 41.8939 5.09444   1
  -2 -17   9 0.81916 1.46323   1
  -2 -17  10 44.9692 5.38314   1
  -2 -17  11 6.41226 1.81018   1
  -2 -17  12  21.962 3.28514   1
  -2 -17  13 2.73777 1.51446   1
  -2 -17  14 12.1315 2.17369   1
  -2 -17  15 0.35922 1.19502   1
  -2 -16   5 26.6738  3.8952   1
  -2 -16   6 3.29701 1.76829   1
  -2 -16   8 1.08063 1.65309   1
  -2 -16   9 96.3464 10.5581   1
  -2 -16  10 39.5141 5.11532   1
  -2 -16  11 21.2316 3.29385   1
  -2 -16  12 40.1992 5.06152   1
  -2 -16  13  0.7001 1.47491   1
  -2 -16  14 23.1131 3.44061   1
  -2 -16  15 13.3214 2.42815   1
  -2 -16  16 50.4136 5.86513   1
  -2 -16  17 34.7697 4.35866   1
  -2 -16  18  55.869 6.26796   1
  -2 -16  19 0.54005 1.24994   1
  -2 -15   1 5.64254 1.01723   1
  -2 -15   2  101.61   8.087   1
  -2 -15   3 11.5767 1.62621   1
  -2 -15   4 80.6467 5.69657   1
  -2 -15   5 113.903 12.3589   1
  -2 -15   6 23.8894 3.70635   1
  -2 -15   7  29.787  4.3178   1
  -2 -15   8 0.38271 1.76754   1
  -2 -15   9 1.57801 1.80611   1
  -2 -15  10  2.7424 1.79283   1
  -2 -15  11 37.9634 4.99986   1
  -2 -15  12 13.8016  2.6984   1
  -2 -15  13 186.702 19.6206   1
  -2 -15  14 0.93424 1.36585   1
  -2 -15  15 132.876 14.1192   1
  -2 -15  16 31.6768 4.29112   1
  -2 -15  17 16.2992 2.68899   1
  -2 -15  18 4.37088 1.57344   1
  -2 -15  19 7.63081 1.81104   1
  -2 -15  20 1.37414 1.21278   1
  -2 -15  21 11.3278 1.99302   1
  -2 -14   1 6.63149 1.12632   1
  -2 -14   2 31.1197 2.64863   1
  -2 -14   3 23.2122 2.20798   1
  -2 -14   4 39.1884 3.20523   1
  -2 -14   5 17.3398 2.87673   1
  -2 -14   6 140.381 9.58679   1
  -2 -14   7 4.76907 1.21172   1
  -2 -14   8 95.3298 6.68428   1
  -2 -14   9 1.86167 1.61559   1
  -2 -14  10 11.6941 2.57524   1
  -2 -14  11 4.78646 1.88134   1
  -2 -14  12 40.8425 5.32984   1
  -2 -14  13 60.0334 7.06953   1
  -2 -14  14 167.829 17.7902   1
  -2 -14  15 61.7055 7.18978   1
  -2 -14  16 40.4892 5.15265   1
  -2 -14  17 13.7995 2.64189   1
  -2 -14  18 2.47443 1.53862   1
  -2 -14  19 23.2587  3.4251   1
  -2 -14  20  0.8656 1.25566   1
  -2 -14  21 47.6752 5.55039   1
  -2 -14  22 0.47194  1.1315   1
  -2 -13   1 48.1143 4.23008   1
  -2 -13   2 23.5439  2.1888   1
  -2 -13   3 59.0689 4.40586   1
  -2 -13   4 45.1305 3.53999   1
  -2 -13   5 132.712  17.813   1
  -2 -13   6 81.2573 5.80753   1
  -2 -13   7 17.4122 7.15076   1
  -2 -13   8  18.746 1.86827   1
  -2 -13   9 0.65902 1.58602   1
  -2 -13  10  32.733 3.32783   1
  -2 -13  11 65.0355  9.1432   1
  -2 -13  12 107.549  17.131   1
  -2 -13  13 60.4087 6.05392   1
  -2 -13  14 127.998 8.86398   1
  -2 -13  15 10.7259 2.41121   1
  -2 -13  16  68.233 7.82643   1
  -2 -13  17  14.067  2.6371   1
  -2 -13  18  18.295 3.01276   1
  -2 -13  19 0.84896 1.36347   1
  -2 -13  20 11.8834 2.33059   1
  -2 -13  21 4.96811 1.59049   1
  -2 -13  22 32.2594 4.09273   1
  -2 -13  23 38.6427 4.58153   1
  -2 -12   1 265.638 17.9887   1
  -2 -12   2 92.4704 7.54215   1
  -2 -12   3 9.43729  3.8548   1
  -2 -12   4 7.19581 1.14869   1
  -2 -12   5 21.7743 2.02674   1
  -2 -12   6 0.10762 0.73868   1
  -2 -12   7 162.327 17.4559   1
  -2 -12   8 27.8606 2.41955   1
  -2 -12   9 478.124  32.457   1
  -2 -12  10 9.22484 4.20636   1
  -2 -12  11 94.1405 6.65338   1
  -2 -12  12  52.458 3.26281   1
  -2 -12  13 5.19629 0.97704   1
  -2 -12  14 1.45726 0.62938   1
  -2 -12  15  55.788 4.34378   1
  -2 -12  16  3.5024 0.71466   1
  -2 -12  17 96.6406 9.63758   1
  -2 -12  18 130.195 7.44943   1
  -2 -12  19 9.68245  1.2236   1
  -2 -12  20 76.9715 6.15806   1
  -2 -12  21 3.10858 1.05368   1
  -2 -12  22 5.56326 0.91375   1
  -2 -12  23 0.64747 1.12696   1
  -2 -12  24 39.6622 4.62625   1
  -2 -11   1 56.0221 6.57403   1
  -2 -11   2 386.812 21.2521   1
  -2 -11   3 47.4356 2.89392   1
  -2 -11   4 216.118 11.9656   1
  -2 -11   5 9.50811 1.17103   1
  -2 -11   6 16.0555 1.60928   1
  -2 -11   7 0.37587 0.61499   1
  -2 -11   8 13.8783 1.95787   1
  -2 -11   9 109.443 6.36453   1
  -2 -11  10 532.511  47.823   1
  -2 -11  11  167.79 9.63499   1
  -2 -11  12 188.878 13.1817   1
  -2 -11  13 43.3653 2.75657   1
  -2 -11  14 49.9692  3.1172   1
  -2 -11  15 39.3924 2.54105   1
  -2 -11  16 19.4093 2.24224   1
  -2 -11  17 59.0322 5.44689   1
  -2 -11  18 33.7701 3.10771   1
  -2 -11  19 68.4693 6.29087   1
  -2 -11  20 1.87806 0.60932   1
  -2 -11  21 77.0469 5.38361   1
  -2 -11  22 44.2951 3.66963   1
  -2 -11  23 49.2592 3.55517   1
  -2 -11  24 36.2568 3.00772   1
  -2 -11  25 6.56546 0.83243   1
  -2 -10   1  68.892 6.53736   1
  -2 -10   2 2.71704 0.55198   1
  -2 -10   3 11.4538 0.98822   1
  -2 -10   4 13.5457 2.26068   1
  -2 -10   5  97.163 10.5796   1
  -2 -10   6 304.523 16.8063   1
  -2 -10   7 206.076 10.2666   1
  -2 -10   8 246.256 14.1092   1
  -2 -10   9 2.35865 0.63843   1
  -2 -10  10 61.5335 3.75924   1
  -2 -10  11 47.8724 2.97885   1
  -2 -10  12 160.614 12.4152   1
  -2 -10  13 13.2155 2.01841   1
  -2 -10  14 143.928 12.5002   1
  -2 -10  15   8.493 0.87646   1
  -2 -10  16 12.4694 1.67245   1
  -2 -10  17 70.0948 6.98678   1
  -2 -10  18 11.7679 1.16186   1
  -2 -10  19 112.319 6.50573   1
  -2 -10  20 63.4221 5.59032   1
  -2 -10  21 42.2777 2.65329   1
  -2 -10  22 32.3172 2.58836   1
  -2 -10  23 29.3216 4.26438   1
  -2 -10  24 0.29367 0.58926   1
  -2 -10  25 24.4898 2.26226   1
  -2 -10  26 1.19128 0.85034   1
  -2  -9   1 11.3629 0.94222   1
  -2  -9   2 6.58152  0.6691   1
  -2  -9   3 225.758 12.5903   1
  -2  -9   4 2.87705 1.11947   1
  -2  -9   5  456.16 25.2491   1
  -2  -9   6 2.36011 1.07066   1
  -2  -9   7 231.012 12.9025   1
  -2  -9   8 6.45392 0.66556   1
  -2  -9   9 134.016 8.92885   1
  -2  -9  10 1.97926 1.00257   1
  -2  -9  11 114.594 6.27555   1
  -2  -9  12 91.6973 4.66815   1
  -2  -9  13 60.0291 4.68492   1
  -2  -9  14 227.678 11.6041   1
  -2  -9  15 19.9013 1.15691   1
  -2  -9  16 19.0996 1.27072   1
  -2  -9  17 3.22667 0.52973   1
  -2  -9  18 5.94059 0.65396   1
  -2  -9  19 0.81479 0.45132   1
  -2  -9  20 199.041 10.1972   1
  -2  -9  21 1.35213 0.48262   1
  -2  -9  22 193.672 14.8399   1
  -2  -9  23 2.42385 0.74426   1
  -2  -9  24 2.90435 0.69615   1
  -2  -9  25  3.2716 0.73412   1
  -2  -9  26 1.74476 0.58364   1
  -2  -9  27 13.8743  1.4326   1
  -2  -8   1 4.62351 2.32695   1
  -2  -8   2 30.2605 1.93872   1
  -2  -8   3 4.58413 2.21502   1
  -2  -8   4  281.34 17.8773   1
  -2  -8   5 271.036 17.2467   1
  -2  -8   6 588.979 37.1613   1
  -2  -8   7 317.731 20.1399   1
  -2  -8   8 132.474 10.1737   1
  -2  -8   9  114.36 6.63233   1
  -2  -8  10 4.89807 0.67235   1
  -2  -8  11 80.4459 7.46103   1
  -2  -8  12 3.68894 1.35966   1
  -2  -8  13 73.7821 3.76722   1
  -2  -8  14 8.36673 0.68271   1
  -2  -8  15 135.608 12.9127   1
  -2  -8  16 16.4886 1.26062   1
  -2  -8  17 191.418 10.9727   1
  -2  -8  18 47.3437 4.30728   1
  -2  -8  19 60.0702 3.82976   1
  -2  -8  20 40.2444 4.21295   1
  -2  -8  21 5.94834 0.80057   1
  -2  -8  22 20.9885 1.61957   1
  -2  -8  23 17.6232 1.79491   1
  -2  -8  24 19.9767  3.7205   1
  -2  -8  25 18.9371 2.50436   1
  -2  -8  26 31.9046 2.74505   1
  -2  -8  27 0.33606 0.47207   1
  -2  -7   1  127.92 11.7612   1
  -2  -7   2 530.221 47.7206   1
  -2  -7   3 258.087 23.4972   1
  -2  -7   4 397.781 35.9823   1
  -2  -7   5 20.9763 2.17962   1
  -2  -7   6 136.214 12.5342   1
  -2  -7   7 9.64592 1.23411   1
  -2  -7   8 488.039 43.8727   1
  -2  -7   9 15.6343 1.70361   1
  -2  -7  10 396.815 25.1184   1
  -2  -7  11 4.60359 1.13241   1
  -2  -7  12 40.3359 2.47698   1
  -2  -7  13 72.5325 4.16959   1
  -2  -7  14 13.5897 1.03065   1
  -2  -7  15 101.898 10.1704   1
  -2  -7  16 101.827 5.42886   1
  -2  -7  17 153.547 7.97355   1
  -2  -7  18 90.9387 4.78397   1
  -2  -7  19 80.9632 7.59704   1
  -2  -7  20  4.9737 0.72498   1
  -2  -7  21 16.4547 1.36361   1
  -2  -7  22 6.83017   0.834   1
  -2  -7  23 31.2185 2.13293   1
  -2  -7  24 2.72754 0.60877   1
  -2  -7  25  63.945 4.47284   1
  -2  -7  26 1.52461 0.63118   1
  -2  -7  27 28.3763 2.45942   1
  -2  -6   1 564.903 37.2066   1
  -2  -6   2 10.5922  0.9145   1
  -2  -6   3 571.376  37.697   1
  -2  -6   4 13.8994  1.5688   1
  -2  -6   5 601.083 39.6061   1
  -2  -6   6 75.9941 7.15668   1
  -2  -6   7 311.139 28.4109   1
  -2  -6   8 330.457 30.0813   1
  -2  -6   9 120.522 11.1306   1
  -2  -6  10 170.529  15.583   1
  -2  -6  11 49.2127 3.28183   1
  -2  -6  12 33.4679 3.25837   1
  -2  -6  13 16.2933 1.27354   1
  -2  -6  14 157.548  10.901   1
  -2  -6  15 6.78003 1.45928   1
  -2  -6  16 423.896 23.5266   1
  -2  -6  17 3.16986 0.54423   1
  -2  -6  18 155.881 9.18429   1
  -2  -6  19 7.54493 0.82878   1
  -2  -6  20 8.96877 0.92039   1
  -2  -6  21 4.19565 0.68364   1
  -2  -6  22 17.1418 3.15302   1
  -2  -6  23 13.0154 1.16911   1
  -2  -6  24 28.4204 2.80247   1
  -2  -6  25 42.1869 3.06043   1
  -2  -6  26 8.66613 1.09667   1
  -2  -6  27 42.2289 3.50084   1
  -2  -5   1 317.841 21.3508   1
  -2  -5   2 261.639 17.6716   1
  -2  -5   3 102.504  7.0472   1
  -2  -5   4 184.239 12.5252   1
  -2  -5   5 487.918 32.5153   1
  -2  -5   6 289.792 19.4877   1
  -2  -5   7 665.119 93.9202   1
  -2  -5   8   42.44 6.02287   1
  -2  -5   9 131.813 11.0676   1
  -2  -5  10 41.8081 4.05526   1
  -2  -5  11 124.233 11.4466   1
  -2  -5  12 38.5448 3.72256   1
  -2  -5  13 460.474 41.2247   1
  -2  -5  14 14.5996 1.53701   1
  -2  -5  15 184.344 17.9492   1
  -2  -5  16 93.5782 9.19638   1
  -2  -5  17 39.3951 3.69151   1
  -2  -5  18 77.3558 4.68587   1
  -2  -5  19 29.1796 2.78759   1
  -2  -5  20 20.8709 1.88706   1
  -2  -5  21 14.6162  2.2974   1
  -2  -5  22  38.517 3.44195   1
  -2  -5  23 0.41909 0.50561   1
  -2  -5  24 48.0545 3.45526   1
  -2  -5  25 1.09368 1.23861   1
  -2  -5  26 38.2809  3.2751   1
  -2  -5  27 4.29031 0.77511   1
  -2  -4   1 269.309 18.3779   1
  -2  -4   2 1603.33  102.82   1
  -2  -4   3 18.3877 2.46788   1
  -2  -4   4 751.687 50.3174   1
  -2  -4   5 22.9199 5.07993   1
  -2  -4   6 149.166 10.9154   1
  -2  -4   7 24.0758 1.77647   1
  -2  -4   8 336.935  22.618   1
  -2  -4   9 22.6866 3.29441   1
  -2  -4  10 324.733 19.7665   1
  -2  -4  11  216.09 23.0979   1
  -2  -4  12 79.3702 7.40663   1
  -2  -4  13 435.691  39.111   1
  -2  -4  14 59.1744 5.03188   1
  -2  -4  15 155.424 10.7607   1
  -2  -4  16 61.8124 4.43029   1
  -2  -4  17 11.9761 1.04103   1
  -2  -4  18 0.17407 0.41833   1
  -2  -4  19  117.64  10.048   1
  -2  -4  20  15.685 1.27681   1
  -2  -4  21 147.861 13.7703   1
  -2  -4  22  3.6622 0.89665   1
  -2  -4  23 7.49882 1.33888   1
  -2  -4  24 8.28429 1.06213   1
  -2  -4  25  5.0908 1.63161   1
  -2  -4  26 39.9517 3.39321   1
  -2  -4  27 41.1698  3.4673   1
  -2  -3   1 894.682 97.6219   1
  -2  -3   2 409.529 27.9579   1
  -2  -3   3 3427.75 212.794   1
  -2  -3   4 1280.90 113.252   1
  -2  -3   5 646.062 46.1052   1
  -2  -3   6 37.7626 2.71322   1
  -2  -3   7  57.494 4.44672   1
  -2  -3   8 8.96394 0.78877   1
  -2  -3   9 2.27268 0.52552   1
  -2  -3  10 967.092 63.1138   1
  -2  -3  11 223.515 14.9392   1
  -2  -3  12 1263.19 82.1263   1
  -2  -3  13  8.0414 1.26502   1
  -2  -3  14  125.27 10.3848   1
  -2  -3  15  139.43 20.4928   1
  -2  -3  16 26.8078 4.53684   1
  -2  -3  17 21.4593 2.20659   1
  -2  -3  18 99.2848 5.95361   1
  -2  -3  19 2.82129 0.62961   1
  -2  -3  20 39.5852 2.55586   1
  -2  -3  21 49.6032 4.26379   1
  -2  -3  22 12.5494 1.31808   1
  -2  -3  23 108.923 8.49274   1
  -2  -3  24 8.34097 1.01851   1
  -2  -3  25 45.0921 3.82772   1
  -2  -3  26-0.20836 0.57807   1
  -2  -3  27 15.4953 1.66387   1
  -2  -2   1 1304.46 84.6015   1
  -2  -2   2 699.122  61.923   1
  -2  -2   3 1921.09 111.919   1
  -2  -2   4 90.8266 8.57228   1
  -2  -2   5  367.50 25.2828   1
  -2  -2   6 17.2587 1.35888   1
  -2  -2   7 337.889 30.6903   1
  -2  -2   8 2.70983  0.5025   1
  -2  -2   9 611.069 35.7122   1
  -2  -2  10 97.5468 6.68719   1
  -2  -2  11 361.258 23.9817   1
  -2  -2  12 310.667 22.7269   1
  -2  -2  13 264.211 25.3631   1
  -2  -2  14 86.5481 4.76405   1
  -2  -2  15 109.347 9.06574   1
  -2  -2  16 22.8988 1.84802   1
  -2  -2  17 2.47807 0.48882   1
  -2  -2  18 119.598 7.95588   1
  -2  -2  19 1.05336 0.45998   1
  -2  -2  20 83.1932 5.00121   1
  -2  -2  21 2.55715 0.64288   1
  -2  -2  22 29.1094  7.3592   1
  -2  -2  23 7.60686 0.97328   1
  -2  -2  24 71.9956 4.92964   1
  -2  -2  25 18.0886 1.90006   1
  -2  -2  26 48.5614 4.07495   1
  -2  -2  27 4.44158 0.82899   1
  -2  -1   1 4.63925 0.36412   1
  -2  -1   2 123.441 7.72199   1
  -2  -1   3 4.76458 0.91853   1
  -2  -1   4 238.221 16.7026   1
  -2  -1   5 62.6939 4.48391   1
  -2  -1   6 1511.79 97.0508   1
  -2  -1   7 672.752 44.7359   1
  -2  -1   8 345.531 20.6409   1
  -2  -1   9 965.112 63.1446   1
  -2  -1  10 43.6892 3.08513   1
  -2  -1  11 179.795 12.0789   1
  -2  -1  12 53.9711 3.74921   1
  -2  -1  13 133.036 8.88575   1
  -2  -1  14 1.91223 0.34799   1
  -2  -1  15 404.844 44.8643   1
  -2  -1  16 10.7712 1.73607   1
  -2  -1  17 110.284 6.58165   1
  -2  -1  18 1.52715 0.73499   1
  -2  -1  19 1.80004 0.57351   1
  -2  -1  20 21.6697 2.75386   1
  -2  -1  21 59.4961 4.19002   1
  -2  -1  22 89.4325 10.3622   1
  -2  -1  23 112.387 7.52196   1
  -2  -1  24 36.3392 3.21662   1
  -2  -1  25 1.95707 0.73631   1
  -2  -1  26 9.76385 1.22064   1
  -2   0   1 1523.75 102.032   1
  -2   0   2   71.53 4.32324   1
  -2   0   3 809.803 48.8658   1
  -2   0   4 473.172 27.3273   1
  -2   0   5 24.8153 1.84486   1
  -2   0   6 2303.90 261.184   1
  -2   0   7 595.422 39.9101   1
  -2   0   8 2846.21 160.358   1
  -2   0   9 29.9905 2.19276   1
  -2   0  10 171.699 11.6085   1
  -2   0  11 195.275 13.0789   1
  -2   0  12 37.0732 2.64794   1
  -2   0  13 37.8965 2.70407   1
  -2   0  14 254.747 15.9921   1
  -2   0  15 1.66645 0.71208   1
  -2   0  16 105.025 18.1047   1
  -2   0  17   85.15 7.94672   1
  -2   0  18 18.7549 2.44719   1
  -2   0  19 132.635 21.9993   1
  -2   0  20 4.34671  0.8726   1
  -2   0  21 60.2513 4.21961   1
  -2   0  22 2.24546 0.76152   1
  -2   0  23 36.0756 3.23211   1
  -2   0  24 2.21532 0.74225   1
  -2   0  25 43.1141 3.68606   1
  -2   0  26 1.00473 0.64245   1
  -2   1   0 126.623 6.31848   1
  -2   1   1  362.82 18.0491   1
  -2   1   2 13.9693 2.27223   1
  -2   1   3 1026.69 83.5441   1
  -2   1   4 5.06653 0.41535   1
  -2   1   5 892.414 59.2213   1
  -2   1   6 102.766 7.20174   1
  -2   1   7 331.549 46.3133   1
  -2   1   8 467.158 31.2652   1
  -2   1  10 307.141 20.4774   1
  -2   1  11 430.438 37.4991   1
  -2   1  12 99.5854 8.53234   1
  -2   1  13 3.46978 0.80436   1
  -2   1  14 76.5255 4.70527   1
  -2   1  15 9.36098  1.7661   1
  -2   1  16 67.7083 4.17736   1
  -2   1  17 28.1071 1.94431   1
  -2   1  18 138.865 8.25241   1
  -2   1  20 172.112 13.7527   1
  -2   1  21  48.708   4.186   1
  -2   1  22 31.2167 2.87878   1
  -2   1  23 16.0497 1.76282   1
  -2   1  24 0.49005 0.67898   1
  -2   1  25 5.66738  0.9378   1
  -2   2   0 55.5067 2.81218   1
  -2   2   1 172.001 9.64899   1
  -2   2   2 4892.02 238.423   1
  -2   2   3 1906.18 104.606   1
  -2   2   4 1696.41 90.7798   1
  -2   2   5 1104.71 140.089   1
  -2   2   6 15.6969 1.69251   1
  -2   2   7 173.276 27.5652   1
  -2   2   8 4.04527  0.4543   1
  -2   2   9 274.807 42.1623   1
  -2   2  10 57.5193 4.00287   1
  -2   2  11 650.487  42.526   1
  -2   2  12 24.2675 3.81249   1
  -2   2  13 143.546 15.8953   1
  -2   2  14 6.00787 0.73081   1
  -2   2  16 88.0894 8.03515   1
  -2   2  17 93.8008 5.66963   1
  -2   2  18  108.86 9.76391   1
  -2   2  19 132.432  7.8646   1
  -2   2  20 31.3855 2.17644   1
  -2   2  21 7.36514  0.8776   1
  -2   2  22 12.8543  1.5083   1
  -2   2  23 0.69053  0.6871   1
  -2   3   0  47.952 2.40192   1
  -2   3   1 36.0955 1.81601   1
  -2   3   2 939.754 48.2335   1
  -2   3   3 79.2937  5.8272   1
  -2   3   4 2965.47 171.918   1
  -2   3   5 247.801 40.7337   1
  -2   3   6 857.696 56.4165   1
  -2   3   7 37.3396 3.31898   1
  -2   3   8 224.274 15.0625   1
  -2   3   9  214.05 16.4739   1
  -2   3  10 153.021 8.49338   1
  -2   3  11  39.724 2.33022   1
  -2   3  12 75.4698  12.286   1
  -2   3  13 16.1895 1.77642   1
  -2   3  14 65.3783 4.46079   1
  -2   3  15 109.483 7.23707   1
  -2   3  16 21.9997 2.38111   1
  -2   3  17 189.139  15.258   1
  -2   3  18 4.33452 1.16574   1
  -2   3  19 91.4888 7.59893   1
  -2   3  20 1.56987 1.00011   1
  -2   3  21   26.05 2.79677   1
  -2   3  22 0.45897 1.08108   1
  -2   4   0 7.12948 0.56524   1
  -2   4   1 2928.81  142.03   1
  -2   4   2 45.3813 2.67922   1
  -2   4   3  342.69 31.3835   1
  -2   4   4 542.752 33.1155   1
  -2   4   5 169.402 11.5368   1
  -2   4   6  658.09 36.1293   1
  -2   4   7 563.427 30.8855   1
  -2   4   8 66.1812 5.07619   1
  -2   4   9 102.599 5.74323   1
  -2   4  10 8.88194 0.70456   1
  -2   4  11 2.45391 0.47145   1
  -2   4  12 181.581 11.9226   1
  -2   4  13 1.50056 0.83511   1
  -2   4  14 375.226 24.2275   1
  -2   4  15 4.07502 2.10765   1
  -2   4  16 119.376 7.84364   1
  -2   4  17 17.0986 1.59168   1
  -2   4  18  6.1491 1.30496   1
  -2   4  19 20.3722 2.27213   1
  -2   4  20 17.6024 2.08842   1
  -2   4  21 20.5959 2.27143   1
  -2   4  22   58.85 5.04602   1
  -2   4  23 24.7318 2.60743   1
  -2   5   0 64.7439 3.47645   1
  -2   5   1 169.211 12.4113   1
  -2   5   2 9.99451 1.59943   1
  -2   5   3  434.73 29.0762   1
  -2   5   4 425.466 24.7513   1
  -2   5   5 732.503 56.4455   1
  -2   5   6 114.229 7.63238   1
  -2   5   7 514.557 33.3215   1
  -2   5   8 38.5796 2.69435   1
  -2   5   9 95.0983 6.37119   1
  -2   5  10  11.969 1.03087   1
  -2   5  11 18.3342 1.26033   1
  -2   5  12  11.116 1.36175   1
  -2   5  13  103.17 16.8202   1
  -2   5  14 95.1508 13.8959   1
  -2   5  15 138.585  9.5862   1
  -2   5  16 104.798 6.92566   1
  -2   5  17 18.1583 1.76951   1
  -2   5  18 24.7573 2.12768   1
  -2   5  19 0.27718  1.0969   1
  -2   5  20 14.8174 1.40684   1
  -2   5  21 1.46397 0.81475   1
  -2   5  22 44.9614 4.47616   1
  -2   5  23 0.65763   1.039   1
  -2   6   0 1398.44 123.865   1
  -2   6   1 81.3581 7.64744   1
  -2   6   2 927.448 83.1373   1
  -2   6   3 158.298 10.5273   1
  -2   6   4 243.917 18.0838   1
  -2   6   5 260.704 14.0679   1
  -2   6   6 88.4838  4.8777   1
  -2   6   7 4.87345 1.19803   1
  -2   6   8 107.261 5.67924   1
  -2   6   9 1.98123 0.93342   1
  -2   6  10 112.649 10.4869   1
  -2   6  11 301.943  16.301   1
  -2   6  12 22.7449 4.49816   1
  -2   6  13 260.259 26.8143   1
  -2   6  14 4.58552 0.90944   1
  -2   6  15 28.4494 3.37115   1
  -2   6  16 0.93211 0.65942   1
  -2   6  17   21.46 1.57302   1
  -2   6  18 2.08985 0.72706   1
  -2   6  19 84.9841 6.71793   1
  -2   6  20 3.12379 1.40503   1
  -2   6  21 35.0975 2.52018   1
  -2   6  22 14.5632  1.7243   1
  -2   7   0 138.456 9.20374   1
  -2   7   1 40.2941  3.7944   1
  -2   7   2 247.836 15.1768   1
  -2   7   3 617.316 32.9617   1
  -2   7   4 95.1435 5.21414   1
  -2   7   5 218.544 11.7631   1
  -2   7   6  63.532  3.8091   1
  -2   7   7 14.3877 1.81566   1
  -2   7   8 210.241 10.0511   1
  -2   7   9 11.9742 1.61973   1
  -2   7  10 204.823 9.77728   1
  -2   7  11 2.71063 0.60296   1
  -2   7  12 63.6894  4.4991   1
  -2   7  13 2.08429 0.81533   1
  -2   7  14 40.5099 2.51377   1
  -2   7  15 43.3899 4.48014   1
  -2   7  16 69.0812 3.90452   1
  -2   7  17 45.5092 3.82826   1
  -2   7  18 28.5911 1.97504   1
  -2   7  19  13.214 1.21924   1
  -2   7  20 0.59637 0.82019   1
  -2   7  21 7.75268 1.35886   1
  -2   8   0 474.787 25.4047   1
  -2   8   1 1105.01 58.6099   1
  -2   8   2 5.98061   1.822   1
  -2   8   3 68.6096 3.80137   1
  -2   8   4 82.1198 4.50905   1
  -2   8   5 2.49753 0.34637   1
  -2   8   6   16.18 1.65956   1
  -2   8   7  141.99 7.66796   1
  -2   8   8  1.2078 0.43362   1
  -2   8   9 282.648 17.5772   1
  -2   8  10 187.621 10.0528   1
  -2   8  11 46.4595 4.89669   1
  -2   8  12 135.594 7.31736   1
  -2   8  13 1.08514 0.67619   1
  -2   8  14 10.3245 1.07019   1
  -2   8  15 6.25804 1.29845   1
  -2   8  16 16.1314 1.36329   1
  -2   8  17 8.51523 1.84083   1
  -2   8  18 61.7293 3.73064   1
  -2   8  19 0.44423 0.74146   1
  -2   8  20 40.0789 4.20844   1
  -2   9   0 199.942 13.4149   1
  -2   9   1 31.9888  1.9781   1
  -2   9   2 322.998 17.7723   1
  -2   9   3 7.75788 0.59241   1
  -2   9   4 110.399 5.26658   1
  -2   9   5 36.6713 4.03339   1
  -2   9   6 12.1935 1.15638   1
  -2   9   7 275.012 13.0485   1
  -2   9   8 8.31815 0.73603   1
  -2   9   9  115.80 6.30105   1
  -2   9  10 6.79029 0.94429   1
  -2   9  11 26.4234 2.14066   1
  -2   9  12  1.5973  0.9464   1
  -2   9  13 85.8676 4.75424   1
  -2   9  14 2.36496 0.80278   1
  -2   9  15 91.5805 5.06852   1
  -2   9  16 7.06181 1.51323   1
  -2   9  17 9.86085 1.06583   1
  -2   9  18 4.22201  1.0232   1
  -2   9  19 2.15253 0.87233   1
  -2  10   0 57.7279 3.10928   1
  -2  10   1 5.05227 0.70159   1
  -2  10   2 60.6817 2.71736   1
  -2  10   3 7.62667 0.94778   1
  -2  10   4 164.007 7.46423   1
  -2  10   5  29.934 2.15845   1
  -2  10   6  115.04 5.55848   1
  -2  10   7 0.71075 0.52749   1
  -2  10   8 54.9445 3.19774   1
  -2  10   9 33.3564 3.21371   1
  -2  10  10 68.5663 4.35054   1
  -2  10  11 32.3596  2.1473   1
  -2  10  12  61.252 5.22614   1
  -2  10  13 17.8289 1.43306   1
  -2  10  14 21.1886 1.59747   1
  -2  10  15 7.73825 1.62586   1
  -2  10  16  2.0445 0.79213   1
  -2  10  17  13.916 1.46521   1
  -2  10  18 1.93095 1.11796   1
  -2  11   0 0.46517 0.44555   1
  -2  11   1 2.24777 0.47062   1
  -2  11   2 7.35288 0.73933   1
  -2  11   3 156.877 7.83694   1
  -2  11   4 29.8146 1.65955   1
  -2  11   5 284.582 13.4185   1
  -2  11   6 104.066 5.66771   1
  -2  11   7 22.6514 2.64335   1
  -2  11   8 36.8653 2.30369   1
  -2  11   9 2.82549 1.42993   1
  -2  11  10 34.5613 2.23081   1
  -2  11  11 16.5066 1.36566   1
  -2  11  12 56.9786 3.36677   1
  -2  11  13 22.1877 2.36611   1
  -2  11  14 28.6793 1.95755   1
  -2  11  15 0.71481  0.9201   1
  -2  11  16  17.151 1.60063   1
  -2  12   0  44.561 3.21676   1
  -2  12   1 43.2265  2.9652   1
  -2  12   2 17.0162  1.2871   1
  -2  12   3 49.0288 3.66855   1
  -2  12   4 10.1035 0.95204   1
  -2  12   5 52.8032 4.30862   1
  -2  12   6 7.47372 0.89311   1
  -2  12   7 122.528 6.62224   1
  -2  12   8 3.09708 0.74852   1
  -2  12   9  103.10 5.60939   1
  -2  12  10 2.41038 0.77719   1
  -2  12  11 16.3801 1.52679   1
  -2  12  12  6.5289 1.63573   1
  -2  12  13 8.67966 0.99394   1
  -2  12  14 1.89618 0.90366   1
  -2  12  15  29.827 3.44869   1
  -2  13   0 175.866 10.2387   1
  -2  13   1 28.1073 3.91409   1
  -2  13   2  85.703 4.57435   1
  -2  13   3 27.7372 2.30898   1
  -2  13   4 25.5647 1.96889   1
  -2  13   5 19.8613 1.46072   1
  -2  13   6 45.5685  2.7248   1
  -2  13   7 8.44091 1.09109   1
  -2  13   8 83.8484 4.62399   1
  -2  13   9 24.4074 2.30883   1
  -2  13  10 30.6493 2.02026   1
  -2  13  11 9.73766 1.03156   1
  -2  13  12  0.7133 0.82505   1
  -2  13  13 7.70798 1.09018   1
  -2  14   0 18.1258 1.63894   1
  -2  14   1 173.635 10.0523   1
  -2  14   2 16.3008 2.14284   1
  -2  14   3  50.369  4.7827   1
  -2  14   4 32.8441 8.57802   1
  -2  14   5 1.29599 0.81574   1
  -2  14   6 82.6513 9.00788   1
  -2  14   7 6.31335 0.92607   1
  -2  14   8 34.0557 2.13754   1
  -2  14   9 22.1952 1.55589   1
  -2  14  10 8.83426 1.29985   1
  -2  14  11-0.02317 1.34085   1
  -2  15   0  1.5584 0.91192   1
  -2  15   1 24.0379 2.75097   1
  -2  15   2 1.37004 1.20832   1
  -2  15   3 127.781 10.7139   1
  -2  15   4 13.6353 1.97734   1
  -2  15   5 89.2251 7.88254   1
  -2  15   6-0.66943 1.15031   1
  -2  15   7 5.69196 1.58449   1
  -2  15   8 18.1748 2.51399   1
  -2  15   9 9.43795 1.70851   1
  -2  16   0 43.0131 4.20031   1
  -2  16   1 0.85324 1.22016   1
  -2  16   2 52.1259 4.83711   1
  -2  16   3 14.6504   1.999   1
  -1 -17   6 3.21185 1.75562   1
  -1 -17   7 3.61442 1.79171   1
  -1 -17   8-0.53282 1.37284   1
  -1 -17   9 0.66492 1.42881   1
  -1 -17  10 11.8331 2.47599   1
  -1 -17  11 140.143  14.801   1
  -1 -17  13 131.555 13.8951   1
  -1 -17  14 22.0718 3.32378   1
  -1 -17  15 4.08243 1.57684   1
  -1 -17  16 10.2098 1.95249   1
  -1 -17  17 5.80253 1.60718   1
  -1 -16   3 10.8896   2.353   1
  -1 -16   4 59.1569 6.90179   1
  -1 -16   5  8.1216 2.17316   1
  -1 -16   6 8.82501 2.24817   1
  -1 -16   7 14.0339  2.7905   1
  -1 -16   8 18.1722 3.14697   1
  -1 -16   9 30.9735 4.33907   1
  -1 -16  10 20.8119 3.35927   1
  -1 -16  13 87.5284 9.65889   1
  -1 -16  14 1.67353   1.607   1
  -1 -16  16  1.1392 1.45346   1
  -1 -16  17 14.5503 2.56294   1
  -1 -16  18 13.6522 2.48447   1
  -1 -16  19 24.1672 3.34472   1
  -1 -16  20 20.5505  2.9806   1
  -1 -15   1 69.8869 6.08033   1
  -1 -15   2  26.928 2.49711   1
  -1 -15   3   1.014 0.96034   1
  -1 -15   4 33.7357 2.92208   1
  -1 -15   5-0.07088  1.2875   1
  -1 -15   6 72.5676 6.63511   1
  -1 -15   7 3.24023 3.07614   1
  -1 -15   8 84.9023 8.52733   1
  -1 -15   9-0.18442 1.55409   1
  -1 -15  10 84.2594 9.51186   1
  -1 -15  11 0.96383 1.68155   1
  -1 -15  12   52.72 6.40417   1
  -1 -15  13 26.2377 3.98221   1
  -1 -15  14 58.6696 6.94121   1
  -1 -15  15 63.5024 7.36866   1
  -1 -15  16 37.9419 4.90918   1
  -1 -15  17 19.9045 3.15099   1
  -1 -15  18 1.31801 1.38785   1
  -1 -15  19  3.2221 1.53288   1
  -1 -15  20 0.43132 1.29195   1
  -1 -15  21 55.1723 6.22164   1
  -1 -14   1 68.7758 3.99677   1
  -1 -14   2 3.32844 0.78432   1
  -1 -14   3 5.08388 0.86236   1
  -1 -14   4-0.18272 1.28626   1
  -1 -14   5 40.3545 3.32297   1
  -1 -14   6 45.4303 3.63658   1
  -1 -14   7  174.54 12.0692   1
  -1 -14   8 54.9397  4.8971   1
  -1 -14   9 79.8248 7.94511   1
  -1 -14  10 16.0952 1.76326   1
  -1 -14  11 6.96032 1.23592   1
  -1 -14  12 27.6852 4.56744   1
  -1 -14  13 8.65553 1.72372   1
  -1 -14  14 81.0103 7.40015   1
  -1 -14  15 5.33763 0.89032   1
  -1 -14  16  75.207 5.75224   1
  -1 -14  17 0.93507 0.96536   1
  -1 -14  18 29.2564 4.05353   1
  -1 -14  19 1.91356 1.51882   1
  -1 -14  20 31.1914 4.18004   1
  -1 -14  21 9.92557 2.07499   1
  -1 -14  22 43.2405 5.10137   1
  -1 -14  23 26.7531 3.47373   1
  -1 -13   1  40.605 2.57933   1
  -1 -13   2 13.7028 1.22583   1
  -1 -13   3 50.9926 3.36401   1
  -1 -13   4 28.3898 2.82644   1
  -1 -13   5 36.6131 3.97157   1
  -1 -13   6 23.8225 2.05533   1
  -1 -13   7 79.4567 11.5751   1
  -1 -13   8 15.6046 1.72674   1
  -1 -13   9 172.467 11.9147   1
  -1 -13  10 20.0927 1.62648   1
  -1 -13  11 122.808 7.44307   1
  -1 -13  12 1.84517 0.73387   1
  -1 -13  13 28.9493 3.28693   1
  -1 -13  14 34.3807 2.37154   1
  -1 -13  15 19.9692 2.39201   1
  -1 -13  16 13.9757 1.30225   1
  -1 -13  17  47.327 3.03001   1
  -1 -13  18 29.0051 2.69065   1
  -1 -13  19 55.2747 7.30098   1
  -1 -13  20 76.8521  5.7455   1
  -1 -13  21 18.5086 1.90337   1
  -1 -13  22 31.9742 4.13903   1
  -1 -13  23 0.49934 1.24533   1
  -1 -13  24 15.9184 2.50829   1
  -1 -12   1 9.43085 2.03774   1
  -1 -12   2 26.8352 2.63698   1
  -1 -12   3 16.2598 1.29681   1
  -1 -12   4 280.281 15.4467   1
  -1 -12   5 0.82793 0.60019   1
  -1 -12   6 273.984 15.0551   1
  -1 -12   7 4.22878 0.70569   1
  -1 -12   8 28.2714 3.34778   1
  -1 -12   9 45.5599  2.9285   1
  -1 -12  10 57.0737 3.54244   1
  -1 -12  11 67.4941 4.13625   1
  -1 -12  12 139.103  8.0603   1
  -1 -12  13 6.23364 1.00616   1
  -1 -12  14 9.42369 1.82236   1
  -1 -12  15 17.9388 1.49824   1
  -1 -12  16 5.85155 0.89886   1
  -1 -12  17 201.304 14.8811   1
  -1 -12  18 6.65593 1.90002   1
  -1 -12  19 159.661 14.1242   1
  -1 -12  20 6.29803 1.14839   1
  -1 -12  21 23.4442 2.23847   1
  -1 -12  22 4.43151 1.26946   1
  -1 -12  23 14.2415 2.44005   1
  -1 -12  24 16.1105  2.5137   1
  -1 -12  25   19.83 2.75792   1
  -1 -11   1 208.276 11.5226   1
  -1 -11   2 103.399 5.86302   1
  -1 -11   3 78.1178 4.82099   1
  -1 -11   4 0.81966  0.7141   1
  -1 -11   5 28.9035 3.19311   1
  -1 -11   6 15.3898 1.19268   1
  -1 -11   7 194.496 10.9451   1
  -1 -11   8 293.693 14.5269   1
  -1 -11   9 136.179  7.7803   1
  -1 -11  10  165.28 10.1861   1
  -1 -11  11 34.8433 2.54625   1
  -1 -11  12 19.6199 1.58925   1
  -1 -11  13 29.0428 1.97458   1
  -1 -11  14 50.1169 2.67815   1
  -1 -11  15 29.4902  2.2178   1
  -1 -11  16 127.298 8.28852   1
  -1 -11  17  5.0596 0.76428   1
  -1 -11  18 101.147 5.86837   1
  -1 -11  19 140.164 8.02026   1
  -1 -11  20 39.4666 2.30681   1
  -1 -11  21 25.6441 1.60341   1
  -1 -11  22 6.78371 0.82234   1
  -1 -11  23 1.49007 0.54793   1
  -1 -11  24 1.88666 1.13903   1
  -1 -11  25 31.0431 3.84648   1
  -1 -11  26 2.74113  1.2865   1
  -1 -10   1 101.762 7.42817   1
  -1 -10   2 118.814 10.3709   1
  -1 -10   3 397.582 32.1067   1
  -1 -10   4 33.7025 2.10386   1
  -1 -10   5 308.095 16.9845   1
  -1 -10   6  3.4968  1.2021   1
  -1 -10   7 64.4965 5.39111   1
  -1 -10   8 9.69579 0.87025   1
  -1 -10   9 98.1973 5.00203   1
  -1 -10  10 5.61156 0.57244   1
  -1 -10  11 168.307 8.36563   1
  -1 -10  12 4.49556 0.71805   1
  -1 -10  13 42.8223 2.32192   1
  -1 -10  14 121.981  6.1379   1
  -1 -10  15 24.6601 1.50672   1
  -1 -10  16 171.496 10.5655   1
  -1 -10  17 70.0499 5.65919   1
  -1 -10  18 18.8192 1.80452   1
  -1 -10  19 13.6862 1.05731   1
  -1 -10  20 22.1397 1.45987   1
  -1 -10  21 5.61951 0.94785   1
  -1 -10  22 131.995 8.96294   1
  -1 -10  23 2.34345 0.62813   1
  -1 -10  24 30.6348 2.20521   1
  -1 -10  25 0.64967 0.60371   1
  -1 -10  26 0.70427 0.54812   1
  -1  -9   1  3.8196 0.47944   1
  -1  -9   2 227.584 13.8619   1
  -1  -9   3 0.64026 0.35689   1
  -1  -9   4 269.681 16.0215   1
  -1  -9   5 74.4688 3.98337   1
  -1  -9   6 356.684 18.2368   1
  -1  -9   7 117.818 6.84844   1
  -1  -9   8 108.686 8.32289   1
  -1  -9   9 7.12633 0.91547   1
  -1  -9  10 5.42265  1.4368   1
  -1  -9  11 77.2866 4.86507   1
  -1  -9  12 5.45946 0.54899   1
  -1  -9  13 388.322 24.9303   1
  -1  -9  14 63.8587 3.32237   1
  -1  -9  15 186.624 9.15038   1
  -1  -9  16 0.40522 0.36201   1
  -1  -9  17 30.7228 1.92583   1
  -1  -9  18  32.004 1.89388   1
  -1  -9  19   62.35 3.84218   1
  -1  -9  20 4.58909 0.62286   1
  -1  -9  21 44.2626 2.74334   1
  -1  -9  22 8.36165  0.9429   1
  -1  -9  23 7.34805 1.25786   1
  -1  -9  24  43.256 3.18071   1
  -1  -9  25 9.47002 1.64613   1
  -1  -9  26 40.2951 2.90406   1
  -1  -8   1 64.0115 6.01911   1
  -1  -8   2 48.1986 3.42813   1
  -1  -8   3 407.264 33.2865   1
  -1  -8   4 1121.19 70.5911   1
  -1  -8   5 307.035 19.5716   1
  -1  -8   6 455.378 39.4523   1
  -1  -8   7 24.9336 1.58962   1
  -1  -8   8 2.89332 0.42997   1
  -1  -8   9 22.8899 1.64618   1
  -1  -8  10 65.8681 3.91917   1
  -1  -8  11 27.1268 1.76026   1
  -1  -8  12 434.151 21.3482   1
  -1  -8  13 45.2272  3.0866   1
  -1  -8  14 322.846 21.7632   1
  -1  -8  15 188.728 9.48592   1
  -1  -8  16 58.1729  3.2784   1
  -1  -8  17 17.6477 1.18059   1
  -1  -8  18  4.3448 0.55927   1
  -1  -8  19 8.95805 0.78424   1
  -1  -8  20 7.04367 0.85208   1
  -1  -8  21 81.7769 5.15185   1
  -1  -8  22  9.2037 1.51935   1
  -1  -8  23 61.4509 8.17628   1
  -1  -8  24 0.36532 0.49449   1
  -1  -8  25 36.1324 2.38274   1
  -1  -8  26 11.6107 1.02533   1
  -1  -8  27 44.5215 3.15235   1
  -1  -7   1 573.464 51.6965   1
  -1  -7   2 28.5104 2.81597   1
  -1  -7   3 98.4697   9.184   1
  -1  -7   4-0.03045  0.3348   1
  -1  -7   5 174.643 16.0657   1
  -1  -7   6 20.6078 2.08646   1
  -1  -7   7 648.034 58.2773   1
  -1  -7   8 41.7585 3.97611   1
  -1  -7   9  174.98 11.2515   1
  -1  -7  10 227.894 13.0372   1
  -1  -7  11 16.0986 1.31674   1
  -1  -7  12  240.10 12.5223   1
  -1  -7  13  101.55 5.77267   1
  -1  -7  14 79.4866  5.2117   1
  -1  -7  15 67.7835  5.1033   1
  -1  -7  16 165.585 9.40719   1
  -1  -7  17 0.26862 0.34968   1
  -1  -7  18  156.75 9.79649   1
  -1  -7  19   6.868 0.80177   1
  -1  -7  20 9.05053 0.92778   1
  -1  -7  21 2.14274 0.58244   1
  -1  -7  22 8.74908  0.9385   1
  -1  -7  23 15.9252 2.08691   1
  -1  -7  24 99.1266  8.1961   1
  -1  -7  25 52.0779 3.70981   1
  -1  -7  26 42.3237 4.38838   1
  -1  -7  27  29.261 2.20104   1
  -1  -6   1 230.023 15.4851   1
  -1  -6   2 1065.69 241.428   1
  -1  -6   3  169.74  11.502   1
  -1  -6   4 24.1596 1.74806   1
  -1  -6   5 6.06469  0.5838   1
  -1  -6   6 11.9755 1.31578   1
  -1  -6   7 242.118 22.3025   1
  -1  -6   8 130.758 9.57339   1
  -1  -6   9 1172.65  109.36   1
  -1  -6  10 184.553 13.3239   1
  -1  -6  11 363.693 23.1579   1
  -1  -6  12 8.42357  1.2035   1
  -1  -6  13 32.9879 2.07224   1
  -1  -6  14 50.2994  3.6764   1
  -1  -6  15 181.005 35.8918   1
  -1  -6  16   6.902 1.56215   1
  -1  -6  17 178.627 18.1297   1
  -1  -6  18 17.1446 1.97868   1
  -1  -6  19  14.461 1.45416   1
  -1  -6  20 48.2974 3.49281   1
  -1  -6  21  1.5199 0.55426   1
  -1  -6  22  53.744 3.34281   1
  -1  -6  23 8.58714 0.91454   1
  -1  -6  24  72.041 4.83232   1
  -1  -6  25 5.81142  0.7475   1
  -1  -6  26 54.7477 3.33449   1
  -1  -6  27-0.40892 0.70295   1
  -1  -5   1  518.72 29.1283   1
  -1  -5   2 1461.85 124.603   1
  -1  -5   3 6.42477 0.57976   1
  -1  -5   4  14.624 1.41067   1
  -1  -5   5  22.521 1.37389   1
  -1  -5   6 69.3225 4.03307   1
  -1  -5   7 2.46958 0.29906   1
  -1  -5   8 1014.28 90.6469   1
  -1  -5   9 84.1473 5.07909   1
  -1  -5  10 1067.16 75.1852   1
  -1  -5  11  245.56 17.6538   1
  -1  -5  12 189.949 11.9556   1
  -1  -5  13 104.537 9.58037   1
  -1  -5  14  4.1142 0.63254   1
  -1  -5  15 51.3618 5.78198   1
  -1  -5  16 8.37399 0.95844   1
  -1  -5  17 68.1227 4.18343   1
  -1  -5  18 41.2867 2.65739   1
  -1  -5  19 86.4205 7.22121   1
  -1  -5  20 1.57849  0.5269   1
  -1  -5  21 114.892 6.81213   1
  -1  -5  22 23.6086 3.79804   1
  -1  -5  23 68.8608 7.64366   1
  -1  -5  24 18.3166 1.78687   1
  -1  -5  25 12.8641 1.12143   1
  -1  -5  26 3.58638 0.64509   1
  -1  -5  27 8.28547 1.05663   1
  -1  -4   1 21.5184 1.31959   1
  -1  -4   2 53.6296 3.60151   1
  -1  -4   3 1576.70 85.0224   1
  -1  -4   4 437.481 24.9221   1
  -1  -4   5 1805.86 89.2968   1
  -1  -4   6 424.823 28.1758   1
  -1  -4   7  7.5186 0.91839   1
  -1  -4   8 287.662 17.1712   1
  -1  -4   9 4.18026 1.15987   1
  -1  -4  10 299.515 21.6076   1
  -1  -4  11 229.146 13.4899   1
  -1  -4  12 616.581 43.6825   1
  -1  -4  13 126.694 11.6071   1
  -1  -4  14 302.387 33.3004   1
  -1  -4  15 16.3813 2.28208   1
  -1  -4  16 5.31318 0.81968   1
  -1  -4  17 67.3801  8.8329   1
  -1  -4  18  30.445 3.32861   1
  -1  -4  19 23.7356 2.95422   1
  -1  -4  20 175.868 13.0723   1
  -1  -4  21 29.7403 2.04483   1
  -1  -4  22 58.0919 4.65359   1
  -1  -4  23 54.4009 3.37113   1
  -1  -4  24 0.85823 0.52761   1
  -1  -4  25 24.0428 1.69429   1
  -1  -4  26-0.05778 0.69783   1
  -1  -4  27 19.2765 1.90026   1
  -1  -3   1 22.4928 1.38298   1
  -1  -3   2 29.2861 2.38289   1
  -1  -3   3 125.125 7.42232   1
  -1  -3   4 29.2508 1.67765   1
  -1  -3   5 2228.11 251.501   1
  -1  -3   6 692.619 35.9317   1
  -1  -3   7 1489.35 84.7678   1
  -1  -3   8  108.06 6.62169   1
  -1  -3   9 358.544 21.2904   1
  -1  -3  10 161.539   14.53   1
  -1  -3  11 356.297 20.9077   1
  -1  -3  12 231.309 15.3809   1
  -1  -3  13 302.408 27.3441   1
  -1  -3  14 9.54545 1.25348   1
  -1  -3  15 57.0564 4.13019   1
  -1  -3  16  2.2151 0.53977   1
  -1  -3  17 13.6803 1.75476   1
  -1  -3  18 146.238 8.63433   1
  -1  -3  19 11.2828 1.44692   1
  -1  -3  20 304.099 20.0116   1
  -1  -3  21 8.07112 0.87399   1
  -1  -3  22 57.5176 7.07475   1
  -1  -3  23 0.39071 0.50771   1
  -1  -3  24 2.43077 0.57837   1
  -1  -3  25 4.77771  0.6929   1
  -1  -3  26 23.4268 1.87258   1
  -1  -3  27 6.48585 0.94028   1
  -1  -2   1 6.85446  0.7208   1
  -1  -2   2 1311.62 63.8151   1
  -1  -2   3 5.93585  0.3797   1
  -1  -2   4 3967.39 195.298   1
  -1  -2   5 338.964 18.1469   1
  -1  -2   6 1056.82 86.3773   1
  -1  -2   7 956.968  55.731   1
  -1  -2   8 371.975 22.2517   1
  -1  -2   9 238.592 14.3315   1
  -1  -2  10 290.607  25.472   1
  -1  -2  11  52.717 3.21931   1
  -1  -2  12 93.3813 6.33319   1
  -1  -2  13 101.577 18.4966   1
  -1  -2  14 4.57331 0.75322   1
  -1  -2  15 292.027 37.2443   1
  -1  -2  16 3.39468 0.66717   1
  -1  -2  17 253.199 14.9128   1
  -1  -2  18 4.15297  0.6059   1
  -1  -2  19 39.9303 2.56763   1
  -1  -2  20 13.8429 1.17225   1
  -1  -2  21 21.2887 1.56412   1
  -1  -2  22 27.6212 2.59423   1
  -1  -2  23 77.4865 8.16346   1
  -1  -2  24  16.266 1.31452   1
  -1  -2  25 29.5541 4.14834   1
  -1  -2  26 15.2232 1.68057   1
  -1  -2  27 1.17437 0.59361   1
  -1  -1   1 3243.24 159.939   1
  -1  -1   2 435.872 29.1792   1
  -1  -1   3 116.048 6.99201   1
  -1  -1   4  73.271 5.72037   1
  -1  -1   5 125.994  7.7906   1
  -1  -1   6 1251.09 71.9911   1
  -1  -1   7 1227.15 79.6108   1
  -1  -1   8 2367.69 132.605   1
  -1  -1   9 117.492  7.1334   1
  -1  -1  10 512.157 30.0554   1
  -1  -1  11 97.0518 5.82283   1
  -1  -1  12  6.0106 0.64871   1
  -1  -1  13 36.6188 2.62789   1
  -1  -1  14 75.8846 8.60792   1
  -1  -1  16 369.984  52.219   1
  -1  -1  17 97.1513 5.84327   1
  -1  -1  18 132.595 8.70059   1
  -1  -1  19 125.236 10.5488   1
  -1  -1  20 1.56417 0.50184   1
  -1  -1  21 23.7616  1.7519   1
  -1  -1  22 1.26693 0.49684   1
  -1  -1  23 19.7702  1.4765   1
  -1  -1  24 5.11019  0.7923   1
  -1  -1  25 53.4171 4.46232   1
  -1  -1  26 2.78734 0.74829   1
  -1   0   1 2218.14 114.107   1
  -1   0   2  734.94 71.1836   1
  -1   0   3 3540.70 232.033   1
  -1   0   4 109.484 8.96429   1
  -1   0   5 2228.70 227.563   1
  -1   0   6 592.287 69.4429   1
  -1   0   7 746.379 49.7111   1
  -1   0   8 236.046 16.1327   1
  -1   0   9 227.639 13.6219   1
  -1   0  10 10.7714 1.36396   1
  -1   0  11 191.615 11.3286   1
  -1   0  12 17.3456 2.48054   1
  -1   0  13 137.624 9.17795   1
  -1   0  14 476.148 29.6921   1
  -1   0  16 375.478 51.3718   1
  -1   0  17 2.91329 0.69999   1
  -1   0  18 34.5679 3.92808   1
  -1   0  19 8.01011 0.84243   1
  -1   0  20 19.7496 1.47976   1
  -1   0  21 4.66153 0.79273   1
  -1   0  22 84.7321 6.44285   1
  -1   0  23 13.5778 1.61068   1
  -1   0  24 30.9156 2.84929   1
  -1   0  25 16.1981 1.78525   1
  -1   0  26 2.73681 0.68506   1
  -1   1   0 3552.82 159.797   1
  -1   1   1 180.557  10.193   1
  -1   1   2 21.7209 1.31277   1
  -1   1   3 598.908 50.8078   1
  -1   1   4 1494.46 80.6886   1
  -1   1   5 654.058 44.1545   1
  -1   1   6 1940.07 167.947   1
  -1   1   7 411.994 27.8871   1
  -1   1   8 118.206 8.15504   1
  -1   1   9 202.904 13.7403   1
  -1   1  10 42.5247 8.41743   1
  -1   1  11  234.23 15.5962   1
  -1   1  13 271.238 41.6494   1
  -1   1  14 22.2416 2.16583   1
  -1   1  15 142.682 8.56222   1
  -1   1  16 24.9667 2.60166   1
  -1   1  17 102.198 6.18462   1
  -1   1  18 105.591 7.56931   1
  -1   1  19 97.6255 12.4218   1
  -1   1  20 32.6806 5.84788   1
  -1   1  21 15.9883 1.98398   1
  -1   1  22 1.98276 0.78782   1
  -1   1  23 0.65964 0.70831   1
  -1   1  24 20.8522  2.0884   1
  -1   1  25 3.28514 0.75417   1
  -1   2   0 1385.91  71.885   1
  -1   2   1 3087.56 131.657   1
  -1   2   2 5549.71 256.227   1
  -1   2   3 786.471  52.906   1
  -1   2   4 2423.02 126.488   1
  -1   2   5 69.7323  4.9369   1
  -1   2   6 50.6108 3.60995   1
  -1   2   7 0.54166 0.30898   1
  -1   2   8 25.5763 2.08788   1
  -1   2   9 28.2454 7.54822   1
  -1   2  10 586.019 38.4986   1
  -1   2  11  102.76 16.0783   1
  -1   2  12 491.803 34.8853   1
  -1   2  13 234.181 19.1326   1
  -1   2  14 32.4442 2.14199   1
  -1   2  15 106.447 6.42862   1
  -1   2  16 5.02954 1.26764   1
  -1   2  17 23.5138 1.73464   1
  -1   2  18 29.5204 2.73087   1
  -1   2  19 58.0024 3.36928   1
  -1   2  20 10.8616 2.39957   1
  -1   2  21 81.6946 6.68782   1
  -1   2  22 1.72057 0.76835   1
  -1   2  23 24.4736 2.38543   1
  -1   2  24 12.7917 1.46278   1
  -1   3   0 42.8457  2.4715   1
  -1   3   1 4075.23 185.462   1
  -1   3   2 81.3103 4.85273   1
  -1   3   3 4573.41 393.128   1
  -1   3   4 5.53261 0.60637   1
  -1   3   5 119.358 8.28643   1
  -1   3   6 28.0653  2.4194   1
  -1   3   7  7.2432 0.70981   1
  -1   3   8 211.334 11.7894   1
  -1   3   9 206.162 12.8712   1
  -1   3  10 331.467 21.8641   1
  -1   3  11 85.0316  5.7467   1
  -1   3  12 264.529 16.5898   1
  -1   3  13 2.75897 0.58462   1
  -1   3  14 131.736 7.08724   1
  -1   3  15 0.74205 0.47519   1
  -1   3  16 109.609 6.73979   1
  -1   3  17 4.09691 0.70158   1
  -1   3  18 71.2596 4.39293   1
  -1   3  19 6.89258 0.80937   1
  -1   3  20 15.8807   1.333   1
  -1   3  21 9.56538 1.55731   1
  -1   4   0 1311.21  85.562   1
  -1   4   1 544.023 37.4697   1
  -1   4   2 197.275 11.4196   1
  -1   4   3 532.277 48.5482   1
  -1   4   4 176.227 12.0734   1
  -1   4   5 305.289 20.6096   1
  -1   4   6 187.014 10.5202   1
  -1   4   7 153.828 8.61226   1
  -1   4   8 1.14164 0.98343   1
  -1   4   9 317.965   17.44   1
  -1   4  10 32.0075 3.49452   1
  -1   4  11 326.863 43.3901   1
  -1   4  12 13.9678 1.46916   1
  -1   4  13 133.632 8.80763   1
  -1   4  14 46.9748 3.96188   1
  -1   4  15 71.1976 6.93486   1
  -1   4  16 39.8317  8.2968   1
  -1   4  17 24.0795 2.05364   1
  -1   4  18  7.4521  1.3925   1
  -1   4  19 4.75112 1.26023   1
  -1   4  20 23.2659 2.63055   1
  -1   4  21 4.80429 1.23594   1
  -1   4  22 84.6189 6.92066   1
  -1   5   0 1214.70 66.2943   1
  -1   5   1 26.3314 1.57398   1
  -1   5   2 49.5101 2.90826   1
  -1   5   3 67.7357 4.76406   1
  -1   5   4 124.809 9.94384   1
  -1   5   5 37.6632 2.22017   1
  -1   5   6 858.903 47.5291   1
  -1   5   7 155.894 9.33555   1
  -1   5   8 347.405 29.4821   1
  -1   5   9 48.0081 3.29421   1
  -1   5  10 1.49398  0.5908   1
  -1   5  11 79.6431 5.40355   1
  -1   5  12 23.7519 1.92401   1
  -1   5  13 180.223 20.7129   1
  -1   5  14 115.187 12.0021   1
  -1   5  15 96.2094 9.92994   1
  -1   5  16 4.06996 0.90689   1
  -1   5  17 13.2245 1.50259   1
  -1   5  18 12.5644 3.39209   1
  -1   5  19 25.9138 2.82773   1
  -1   5  20 8.84644 1.14126   1
  -1   5  21  68.982 4.34577   1
  -1   5  22 9.91148 1.49203   1
  -1   6   0 62.5514 5.92741   1
  -1   6   1 3.33544 0.39678   1
  -1   6   2 52.2115 3.57594   1
  -1   6   3  16.443 1.29575   1
  -1   6   4 52.9817 3.61609   1
  -1   6   5 413.092 24.2836   1
  -1   6   6 140.842 7.66305   1
  -1   6   7 171.151 16.8708   1
  -1   6   8 412.018 44.2863   1
  -1   6   9 2.48122 0.65195   1
  -1   6  10 272.496 17.7533   1
  -1   6  11 3.38034 2.15338   1
  -1   6  12 48.8484 3.88753   1
  -1   6  13  1.2086  0.7221   1
  -1   6  14 36.2103 5.51377   1
  -1   6  15 2.14262 0.84492   1
  -1   6  16 63.2411 4.36839   1
  -1   6  17 6.87658 0.97714   1
  -1   6  18 40.0336 2.48484   1
  -1   6  19 43.2774 2.62014   1
  -1   6  20 5.63459  1.0637   1
  -1   6  21  61.367 5.19037   1
  -1   7   0  460.57 61.9253   1
  -1   7   1 576.276 37.3704   1
  -1   7   2 520.001 30.4469   1
  -1   7   3 236.101 18.8304   1
  -1   7   4 70.0027 3.87775   1
  -1   7   5 87.1634  4.7912   1
  -1   7   6 127.561    6.69   1
  -1   7   7 177.249 9.24008   1
  -1   7   8 6.96995  1.0981   1
  -1   7   9 240.523 12.9146   1
  -1   7  10 17.8857 1.31068   1
  -1   7  11 146.543 7.91759   1
  -1   7  12 121.446 8.67391   1
  -1   7  13 13.0265 1.26248   1
  -1   7  14 9.25663 1.15223   1
  -1   7  15 0.52094 0.67572   1
  -1   7  16 8.88263 1.00476   1
  -1   7  17 9.49299 1.03906   1
  -1   7  18 108.938 7.24258   1
  -1   7  19 5.60614 0.84894   1
  -1   7  20 73.9531 6.15167   1
  -1   7  21 2.98524 1.18828   1
  -1   8   0 5.73732 0.82837   1
  -1   8   1 57.1212 3.24429   1
  -1   8   2 536.301 31.1845   1
  -1   8   3 14.5244 1.45967   1
  -1   8   4 507.547 26.9677   1
  -1   8   5 2.14702 0.95539   1
  -1   8   6 4.44944 0.48503   1
  -1   8   7 187.006 22.0196   1
  -1   8   8 4.54064 0.65777   1
  -1   8   9 321.442 17.0873   1
  -1   8  10 99.1525 5.44765   1
  -1   8  11 23.5761 1.65886   1
  -1   8  12 23.0149 1.65012   1
  -1   8  13 2.45725 0.74704   1
  -1   8  14 6.92718 1.54766   1
  -1   8  15 78.6486 4.39726   1
  -1   8  16  13.122 1.37232   1
  -1   8  17 88.2553 4.84888   1
  -1   8  18 12.8033 1.16287   1
  -1   8  19 15.0559 2.85196   1
  -1   8  20 13.0527 1.39147   1
  -1   9   0  43.199 2.26452   1
  -1   9   1 298.199 15.8883   1
  -1   9   2 87.7534  3.7965   1
  -1   9   3  7.4384  0.5982   1
  -1   9   4 304.827  13.782   1
  -1   9   5 2.07161 0.81981   1
  -1   9   6 265.186 14.1757   1
  -1   9   7 19.2069 1.39725   1
  -1   9   8 51.5084 2.98523   1
  -1   9   9 2.63722 0.65133   1
  -1   9  10 37.0791  2.3149   1
  -1   9  11 15.7086 1.27967   1
  -1   9  12 88.2354 4.89475   1
  -1   9  13 2.12386 0.74596   1
  -1   9  14 40.5347 2.54808   1
  -1   9  15 22.8919 1.71165   1
  -1   9  16 4.30749 0.87593   1
  -1   9  17 57.7062 3.71276   1
  -1   9  18 2.52108 0.94714   1
  -1   9  19 29.5417  3.3804   1
  -1  10   0 26.9099 1.41222   1
  -1  10   1  27.019 1.47041   1
  -1  10   2 7.94711 0.81686   1
  -1  10   3 132.673 6.07622   1
  -1  10   4 3.08645 0.67023   1
  -1  10   5 272.444 16.3888   1
  -1  10   6 70.6253  6.9069   1
  -1  10   7 146.902 9.45476   1
  -1  10   8 68.1482 5.68823   1
  -1  10   9  6.2146 2.05029   1
  -1  10  10 1.14597 0.71739   1
  -1  10  11 0.73111 0.73543   1
  -1  10  12 26.1642 1.85742   1
  -1  10  13 19.4063 2.91585   1
  -1  10  14 132.415 7.09816   1
  -1  10  15 5.90159  1.7745   1
  -1  10  16 38.7788 4.49852   1
  -1  10  17 8.22704 3.54211   1
  -1  11   0 204.509 9.31434   1
  -1  11   1 24.3859 1.47768   1
  -1  11   2 26.2089 1.52435   1
  -1  11   3 198.859 9.91599   1
  -1  11   4 16.4747 1.24382   1
  -1  11   5 155.923 8.33671   1
  -1  11   6 47.5217 3.17244   1
  -1  11   7 14.0332 2.02201   1
  -1  11   8 12.1888 1.66419   1
  -1  11   9 16.7959 3.14097   1
  -1  11  10-0.29415 1.18771   1
  -1  11  11 84.2879 4.68049   1
  -1  11  12 6.27653 1.59206   1
  -1  11  13 48.2254 2.87752   1
  -1  11  14 14.3181 1.24741   1
  -1  11  15 13.2887 1.44432   1
  -1  11  16 12.3286 1.34601   1
  -1  12   0   82.50  4.9936   1
  -1  12   1 7.89813 1.96196   1
  -1  12   2 216.892 10.7764   1
  -1  12   3 11.5048 1.87955   1
  -1  12   4 97.2962  5.4891   1
  -1  12   5 4.74125 0.73743   1
  -1  12   6 28.0365 2.60288   1
  -1  12   7 4.76253 0.80924   1
  -1  12   8 46.1152 2.78358   1
  -1  12   9 1.78828 0.74766   1
  -1  12  10 48.8707 2.92022   1
  -1  12  11  27.766 1.93868   1
  -1  12  12 11.9857 1.13191   1
  -1  12  13 36.3942 2.74899   1
  -1  12  14 1.91264 1.17952   1
  -1  13   0 6.93382 1.06731   1
  -1  13   1 168.303 9.72246   1
  -1  13   2  47.653 2.87692   1
  -1  13   3 70.6406 4.89374   1
  -1  13   4 19.8809 1.45525   1
  -1  13   5 8.51731 0.94058   1
  -1  13   6   4.777 0.82099   1
  -1  13   7 10.9408 1.09306   1
  -1  13   8 44.4643 2.68553   1
  -1  13   9 19.9328 1.58337   1
  -1  13  10 60.5074 3.44386   1
  -1  13  11  1.2465 0.88199   1
  -1  13  12 20.4654 2.95608   1
  -1  13  13 5.99273 1.60136   1
  -1  14   0 74.1945 5.42151   1
  -1  14   1 73.8905 6.78693   1
  -1  14   2  4.2872 1.29103   1
  -1  14   3 7.96183 1.18301   1
  -1  14   4 3.79575 0.74169   1
  -1  14   5 23.4325 1.62939   1
  -1  14   6 10.7995 1.53219   1
  -1  14   7 88.0974 4.80768   1
  -1  14   8 0.49308 0.67641   1
  -1  14   9 44.7045 12.3652   1
  -1  14  10 25.3246 2.04626   1
  -1  14  11 13.4374 2.10687   1
  -1  15   0 99.4844 8.49013   1
  -1  15   1 3.05723 1.25614   1
  -1  15   2 64.2865 5.78431   1
  -1  15   3 0.98317 1.16866   1
  -1  15   4 30.8982 3.38034   1
  -1  15   5 18.9072 1.74873   1
  -1  15   6 19.0696 2.62833   1
  -1  15   7 22.4194 2.88562   1
  -1  15   8 12.3657 1.97778   1
  -1  16   0  15.699 2.05187   1
  -1  16   1 2.25175 1.22538   1
  -1  16   2 12.6144  1.8775   1
   0 -18   6 2.60763 1.50254   1
   0 -18   7  160.82 16.6968   1
   0 -18   8 0.07551 1.40442   1
   0 -18  10 9.84138 2.18182   1
   0 -18  11  4.1455 1.64001   1
   0 -18  12 10.1822 2.13789   1
   0 -18  13 64.2543 7.17469   1
   0 -17   4 44.1727 5.25894   1
   0 -17   5  6.9444   2.006   1
   0 -17   6 20.4311 3.27476   1
   0 -17   7 2.59534 1.61696   1
   0 -17   8 29.1274 4.03075   1
   0 -17   9 26.3791 3.77679   1
   0 -17  11  76.175 8.49874   1
   0 -17  12 10.4596 2.30313   1
   0 -17  13 33.1907 4.35683   1
   0 -17  14 19.6273 3.10535   1
   0 -17  15 5.45766 1.77732   1
   0 -17  16 0.52378 1.33371   1
   0 -16   1 22.1402 2.46605   1
   0 -16   2 22.5204 2.66941   1
   0 -16   3 52.1973 5.12573   1
   0 -16   4 51.9366 3.97393   1
   0 -16   5  16.055 1.75611   1
   0 -16   6 80.0986 13.9426   1
   0 -16   7 11.2772 1.48589   1
   0 -16   8 43.2313 3.47487   1
   0 -16   9 2.39654 1.17668   1
   0 -16  10 45.5871 3.58287   1
   0 -16  11   7.787 3.59025   1
   0 -16  12 70.4979 15.6035   1
   0 -16  13 4.05774 1.03149   1
   0 -16  14 27.6642  2.7519   1
   0 -16  15 2.45958 0.93263   1
   0 -16  16 13.4922 1.54168   1
   0 -16  17 39.8726 4.97502   1
   0 -16  18 44.7525 5.38203   1
   0 -16  19  57.329 6.50545   1
   0 -15   1 46.5323 12.3947   1
   0 -15   2 1.00978 1.35321   1
   0 -15   3 140.302 18.5336   1
   0 -15   4 1.47882 1.69003   1
   0 -15   5 56.6312 14.1931   1
   0 -15   6 0.52142 0.96255   1
   0 -15   7 45.2404 11.8762   1
   0 -15   8 7.08009 2.50882   1
   0 -15   9 93.3393  7.8873   1
   0 -15  10  12.977 1.93931   1
   0 -15  11 49.6262 3.89631   1
   0 -15  12 20.2206 2.07428   1
   0 -15  13 2.48325 0.79548   1
   0 -15  14 77.3048 4.64994   1
   0 -15  15 2.52581 0.80061   1
   0 -15  16 73.1576 4.40116   1
   0 -15  17 20.4916 1.64346   1
   0 -15  18 39.6125 3.28989   1
   0 -15  19 1.67035 0.86967   1
   0 -15  20 41.0029   5.009   1
   0 -15  21 3.75898 1.48516   1
   0 -15  22 41.1915 4.86955   1
   0 -14   1 3.34936 1.03348   1
   0 -14   2 14.4755 1.67302   1
   0 -14   4 58.7934 4.45555   1
   0 -14   5 102.542  15.221   1
   0 -14   6 151.709 12.5424   1
   0 -14   7 223.742 15.3228   1
   0 -14   8 14.6227 2.88445   1
   0 -14   9 20.1501 3.12246   1
   0 -14  10  17.315 2.72142   1
   0 -14  11 1.08529 0.71802   1
   0 -14  12  3.3557 0.83905   1
   0 -14  13 103.209 9.32727   1
   0 -14  14 3.38048 0.83887   1
   0 -14  15 220.555 12.5067   1
   0 -14  16 42.2704 4.06912   1
   0 -14  17 67.4168   4.839   1
   0 -14  18 40.2969 3.41236   1
   0 -14  19 4.61911 1.09188   1
   0 -14  20 1.84889 0.88704   1
   0 -14  21 8.55024 2.40085   1
   0 -14  22 18.5922 2.84718   1
   0 -14  23 15.3327  2.5162   1
   0 -13   1 14.2711 2.47797   1
   0 -13   2 30.5366 2.68869   1
   0 -13   3 14.5539 2.75187   1
   0 -13   4 45.7341 3.62279   1
   0 -13   5 19.3645 6.06905   1
   0 -13   7  1.8027 0.70994   1
   0 -13   8 184.459 13.8161   1
   0 -13   9 10.0121  1.5014   1
   0 -13  10 17.3068 1.46889   1
   0 -13  11 13.3438 1.63142   1
   0 -13  12 10.7815 1.11164   1
   0 -13  13 45.4026 3.67437   1
   0 -13  14 86.8235 5.19455   1
   0 -13  15 59.5261 7.20459   1
   0 -13  16 57.2851 4.54646   1
   0 -13  17 54.0824 3.40395   1
   0 -13  18 2.70475 1.01815   1
   0 -13  19 69.8848 9.15691   1
   0 -13  20 0.59861 1.30782   1
   0 -13  21 24.7191 2.31829   1
   0 -13  22 1.32912 0.82851   1
   0 -13  23 12.5401 1.42305   1
   0 -13  24 4.39691 1.48269   1
   0 -12   1 286.883 15.8253   1
   0 -12   2 7.19925 0.77073   1
   0 -12   3 248.424 12.4054   1
   0 -12   4 12.6852 1.22242   1
   0 -12   5 51.0892 3.29754   1
   0 -12   6 7.20982 0.78958   1
   0 -12   7 14.9247 2.16529   1
   0 -12   8 49.2847 3.11764   1
   0 -12   9 42.1106 4.70216   1
   0 -12  10  180.26 11.9723   1
   0 -12  11 30.4543 2.12369   1
   0 -12  12 100.513 12.7167   1
   0 -12  13 3.89042    1.79   1
   0 -12  14 40.9511 3.96371   1
   0 -12  15 1.44071 0.67001   1
   0 -12  16 93.8412 9.99907   1
   0 -12  17-0.24409 1.09125   1
   0 -12  18 134.969 17.3028   1
   0 -12  19 17.3815  1.8944   1
   0 -12  20 22.9511 2.65955   1
   0 -12  21 28.3372 2.57106   1
   0 -12  22 0.82776  0.7974   1
   0 -12  23 6.14465 1.04485   1
   0 -12  24 5.37057 0.93957   1
   0 -12  25 36.5967 4.37321   1
   0 -11   1 100.654 5.16717   1
   0 -11   2 237.767 17.7706   1
   0 -11   3 513.177 35.2592   1
   0 -11   4 123.254 9.21543   1
   0 -11   5 80.7625 6.33487   1
   0 -11   6 4.07265 0.92616   1
   0 -11   7  16.068 1.16602   1
   0 -11   8 8.07774 0.77995   1
   0 -11   9 118.122 6.18938   1
   0 -11  10 2.37638 0.62116   1
   0 -11  11 583.294 42.2076   1
   0 -11  12  14.629  1.2547   1
   0 -11  13  172.64 9.98088   1
   0 -11  14 32.0814 2.21347   1
   0 -11  15 1.58597 0.64706   1
   0 -11  16 49.1483  3.4332   1
   0 -11  17 12.9462  2.6605   1
   0 -11  18 41.9888 3.47249   1
   0 -11  19 62.1209 6.33709   1
   0 -11  20 18.5734 2.55096   1
   0 -11  21 1.84044 0.77223   1
   0 -11  22 38.6466 3.14459   1
   0 -11  23 11.1863   1.872   1
   0 -11  24 76.2354   7.644   1
   0 -11  25 3.98738 1.35441   1
   0 -11  26 29.1715 3.58104   1
   0 -10   1 35.3724 1.98617   1
   0 -10   2 244.323 12.2897   1
   0 -10   3 1.39131 0.42765   1
   0 -10   4 136.254  9.5129   1
   0 -10   5 19.8707 1.50002   1
   0 -10   6 170.115 10.0577   1
   0 -10   7 28.9753 1.98955   1
   0 -10   8 103.063 6.20675   1
   0 -10   9 70.4408 3.80662   1
   0 -10  10 39.9994 3.96281   1
   0 -10  11 129.217 9.34419   1
   0 -10  12 56.1346  3.4775   1
   0 -10  13 187.441 10.8501   1
   0 -10  14 112.655 6.61747   1
   0 -10  15 133.743 6.85667   1
   0 -10  16 6.42883 0.65697   1
   0 -10  17 21.6097 1.39999   1
   0 -10  18 44.6322 2.51067   1
   0 -10  19 23.9205 1.57429   1
   0 -10  20  15.121 1.42231   1
   0 -10  21 79.8448  6.5093   1
   0 -10  22 1.31918  0.4733   1
   0 -10  23 47.6379 3.17033   1
   0 -10  24  26.583 2.17636   1
   0 -10  25   10.23 0.96536   1
   0 -10  26 38.2409 3.11909   1
   0  -9   1 142.315 6.66838   1
   0  -9   2 25.8418 2.47895   1
   0  -9   3 35.6298 1.88492   1
   0  -9   4  99.644 4.99986   1
   0  -9   5 71.3437 4.11316   1
   0  -9   6 329.129 21.8769   1
   0  -9   7 76.2024 4.67788   1
   0  -9   8 218.402 24.9511   1
   0  -9   9 18.2184 1.58382   1
   0  -9  10 107.501 8.04013   1
   0  -9  11 1.40763 0.49572   1
   0  -9  12 253.812 12.5748   1
   0  -9  13 19.1549  1.1421   1
   0  -9  14 280.592 13.7836   1
   0  -9  15 60.4476 2.93813   1
   0  -9  16 49.0214 2.97519   1
   0  -9  17 2.69396 0.48691   1
   0  -9  18 1.04696 0.43419   1
   0  -9  19 1.67782 0.46455   1
   0  -9  20 7.82713 0.83883   1
   0  -9  21 140.383 9.51102   1
   0  -9  22 39.4067 3.75684   1
   0  -9  23  186.07 10.7328   1
   0  -9  24 6.28489 1.20534   1
   0  -9  25 6.35143 1.46611   1
   0  -9  26 6.87651 0.77494   1
   0  -9  27 0.89119 0.85876   1
   0  -8   1 130.859 8.49143   1
   0  -8   2 5.16275 1.02689   1
   0  -8   3  9.0858 1.04943   1
   0  -8   4 3.61991 0.69477   1
   0  -8   5 350.082 30.5277   1
   0  -8   6 13.2318  1.0648   1
   0  -8   7  852.51 53.7376   1
   0  -8   8 31.4366 1.97073   1
   0  -8   9 315.046 17.9875   1
   0  -8  10 49.8042 2.51651   1
   0  -8  11  38.488  2.4916   1
   0  -8  12 117.263 6.18973   1
   0  -8  13 76.7369 5.63813   1
   0  -8  14 104.089 5.40695   1
   0  -8  15 88.6596 5.36741   1
   0  -8  16 50.5124 2.91194   1
   0  -8  17  0.6877 0.66571   1
   0  -8  18 82.0932 6.68257   1
   0  -8  19 9.81166 1.07918   1
   0  -8  20  97.828 6.48261   1
   0  -8  21 1.26293 0.56763   1
   0  -8  22 46.2324 3.57474   1
   0  -8  23 5.58423 0.77644   1
   0  -8  24  52.681 6.86768   1
   0  -8  25 11.5415 1.33902   1
   0  -8  26 35.3789 2.27914   1
   0  -8  27 9.48812 1.58499   1
   0  -7   1 38.9566 2.69399   1
   0  -7   2 390.535 25.5552   1
   0  -7   3 105.687 9.85016   1
   0  -7   4 401.066 36.5418   1
   0  -7   5 104.504 9.70187   1
   0  -7   6 65.5048 4.87032   1
   0  -7   7 154.309 11.2231   1
   0  -7   8 126.462  7.3656   1
   0  -7   9 616.819 50.7627   1
   0  -7  10 277.543 21.5102   1
   0  -7  11 518.279 32.7238   1
   0  -7  12 20.5139 1.50524   1
   0  -7  13 28.4348 1.45441   1
   0  -7  14 72.0548 3.78982   1
   0  -7  15 12.6617 1.09164   1
   0  -7  16 13.7954 1.21047   1
   0  -7  17 186.009 14.3888   1
   0  -7  18 0.51004 0.41648   1
   0  -7  19 138.104 10.4913   1
   0  -7  20 66.5215 4.07844   1
   0  -7  21 18.7565 1.81018   1
   0  -7  22 91.5204 5.45916   1
   0  -7  23 1.96025  0.5961   1
   0  -7  24 19.0923 1.46945   1
   0  -7  25 2.71015  1.4206   1
   0  -7  26 17.5051 1.40184   1
   0  -7  27 3.60289 0.59783   1
   0  -6   1 125.589 8.56361   1
   0  -6   2 561.724 102.228   1
   0  -6   3 134.348 7.68472   1
   0  -6   4 417.128 36.2524   1
   0  -6   5 69.2261 5.22546   1
   0  -6   6 482.552 76.2728   1
   0  -6   7  1.2012 0.99557   1
   0  -6   8 853.644 60.4808   1
   0  -6   9 47.6772 8.46961   1
   0  -6  10 487.855 27.8279   1
   0  -6  11 45.4219 2.72688   1
   0  -6  12 118.207 6.82407   1
   0  -6  13  1.9553 1.87548   1
   0  -6  14 37.3453 2.41217   1
   0  -6  15 34.1752 2.61804   1
   0  -6  16 23.1719 1.42189   1
   0  -6  17 307.335 18.0093   1
   0  -6  18  25.988 3.14636   1
   0  -6  19 187.831 13.9772   1
   0  -6  20 14.1073 1.20376   1
   0  -6  21  8.1765 0.90383   1
   0  -6  22 0.56311 0.52335   1
   0  -6  23 25.0524 1.96183   1
   0  -6  24 7.00518 0.83453   1
   0  -6  25 83.6272 4.93862   1
   0  -6  26 6.16967 0.73481   1
   0  -6  27 16.6495 1.25805   1
   0  -5   1 723.864 48.6545   1
   0  -5   2 8.67196 0.57673   1
   0  -5   3 200.622  11.553   1
   0  -5   4 26.8841 1.60976   1
   0  -5   5 910.551 46.4313   1
   0  -5   6 94.6616 6.29156   1
   0  -5   7 1269.10 73.1228   1
   0  -5   8 591.945 34.6726   1
   0  -5   9 256.551   20.38   1
   0  -5  10 393.478 28.2497   1
   0  -5  11 6.59155  1.4924   1
   0  -5  12 34.6539 2.11907   1
   0  -5  13 2.75267  1.4681   1
   0  -5  14 98.9445  9.7286   1
   0  -5  15 10.6117 3.36744   1
   0  -5  16 271.224 18.2628   1
   0  -5  17 0.41796  0.3998   1
   0  -5  18 151.156 9.00622   1
   0  -5  19 47.2627 4.55349   1
   0  -5  20 74.2394 4.83331   1
   0  -5  21 35.3782  2.3688   1
   0  -5  22 38.3475 2.51139   1
   0  -5  23 4.54904 0.71869   1
   0  -5  24 2.34291 0.67167   1
   0  -5  25 11.4149 1.54436   1
   0  -5  26  1.2621 0.50966   1
   0  -5  27   40.87 2.87755   1
   0  -4   2 1607.41 90.9929   1
   0  -4   3 995.613 58.0411   1
   0  -4   4 149.778 8.06822   1
   0  -4   5 955.411 52.8568   1
   0  -4   6 13.4929 0.91973   1
   0  -4   7 1098.58 60.1746   1
   0  -4   8  257.46  13.513   1
   0  -4   9  216.30 18.1051   1
   0  -4  10 26.2125 1.66587   1
   0  -4  11  137.43 10.0128   1
   0  -4  12 85.9035 10.4227   1
   0  -4  13 360.483 41.3454   1
   0  -4  14  114.06  6.6315   1
   0  -4  15 162.413 11.2715   1
   0  -4  16 51.6371 4.35063   1
   0  -4  17 23.8126 2.59823   1
   0  -4  18  47.237 3.81549   1
   0  -4  19  31.014 4.75567   1
   0  -4  20 85.6415 6.22294   1
   0  -4  21 23.3011 2.65125   1
   0  -4  22  79.378 7.77087   1
   0  -4  23 1.00541  0.6027   1
   0  -4  24 18.7676 1.46132   1
   0  -4  25 2.26408 0.77242   1
   0  -4  26 11.3366 2.56115   1
   0  -4  27 11.9207 1.32139   1
   0  -3   1 3.15401 0.44385   1
   0  -3   2 682.183 49.7021   1
   0  -3   3  146.15 7.27212   1
   0  -3   4 9319.84 858.177   1
   0  -3   5 36.5668 2.36423   1
   0  -3   6 2185.67 106.796   1
   0  -3   7 227.981 13.8722   1
   0  -3   8  114.80 6.11917   1
   0  -3   9 164.959 9.92931   1
   0  -3  10  73.441 6.94076   1
   0  -3  11 57.8227 5.38147   1
   0  -3  12  401.72 65.1915   1
   0  -3  13 231.028 16.5018   1
   0  -3  14  55.779 5.41153   1
   0  -3  15 361.604 24.7458   1
   0  -3  16 0.69969 0.44379   1
   0  -3  17 122.084 8.45812   1
   0  -3  18 0.60683 0.63271   1
   0  -3  19  67.995 7.85724   1
   0  -3  20 1.21913 0.50509   1
   0  -3  21 48.6871 4.42108   1
   0  -3  22 7.07117 0.82684   1
   0  -3  23 22.2853 1.63801   1
   0  -3  24 13.6002 1.17335   1
   0  -3  25 19.6546 1.96341   1
   0  -3  26 27.1644 1.81764   1
   0  -3  27 14.1226  1.5278   1
   0  -2   1 3371.47 166.968   1
   0  -2   2  821.03 38.8249   1
   0  -2   3 3204.65 136.086   1
   0  -2   4 2443.15 157.434   1
   0  -2   5 431.377 26.2393   1
   0  -2   6 923.528 54.0636   1
   0  -2   7 346.012 21.5012   1
   0  -2   8 6.29896 0.50266   1
   0  -2   9   76.57 4.68418   1
   0  -2  10 198.954 16.7395   1
   0  -2  11 14.8176 2.36003   1
   0  -2  12 950.365 54.7733   1
   0  -2  13 19.0485 3.96496   1
   0  -2  14 321.692 22.1467   1
   0  -2  15 11.9018 1.15972   1
   0  -2  16 65.5476 4.71372   1
   0  -2  17 41.6262 2.68298   1
   0  -2  18 69.7879 4.26764   1
   0  -2  19 42.7961  3.9281   1
   0  -2  20 40.3295  4.2084   1
   0  -2  21 14.6097 1.23568   1
   0  -2  22 3.93031 0.75079   1
   0  -2  23 32.5873 2.16176   1
   0  -2  24 1.70884 0.73284   1
   0  -2  25 77.7184 4.58518   1
   0  -2  26  1.1778 0.46855   1
   0  -1   1  353.40 21.2609   1
   0  -1   2 112.497 5.88772   1
   0  -1   3 2425.36 125.041   1
   0  -1   4 1731.74 77.2023   1
   0  -1   5 1246.97 87.9643   1
   0  -1   6 29.0654 1.70003   1
   0  -1   7 651.646 52.2065   1
   0  -1   8 606.042 36.8624   1
   0  -1   9  476.15 28.1403   1
   0  -1  10 79.4694   6.787   1
   0  -1  11 103.296 6.18563   1
   0  -1  12 13.7277 1.69109   1
   0  -1  13 104.546 6.18673   1
   0  -1  14 226.502 18.5171   1
   0  -1  15 245.749 19.2173   1
   0  -1  16 335.321 22.8558   1
   0  -1  17 44.7146 2.91565   1
   0  -1  18 45.9625 2.92025   1
   0  -1  19 8.73417 0.89098   1
   0  -1  20  1.8356 0.54165   1
   0  -1  21 5.16357 0.71751   1
   0  -1  22 52.2929 6.49818   1
   0  -1  23 6.08145 0.89387   1
   0  -1  24 130.188 8.75892   1
   0  -1  25 13.9764 1.45639   1
   0  -1  26 23.7061 1.92556   1
   0   0   1 71.1181 5.57408   1
   0   0   2 2600.04 131.269   1
   0   0   3 339.073 24.5445   1
   0   0   4 6527.56 347.204   1
   0   0   5 68.4127 5.99688   1
   0   0   6  449.24 32.7327   1
   0   0   7  45.694 3.26361   1
   0   0   8 2886.15 211.679   1
   0   0   9 651.662 43.1088   1
   0   0  10 81.4209 7.69525   1
   0   0  11 664.831 108.194   1
   0   0  12 135.551 8.00622   1
   0   0  13  198.60 30.0602   1
   0   0  14 11.8595 1.20586   1
   0   0  15 88.2248 7.32302   1
   0   0  16 32.5215 2.91881   1
   0   0  17 135.461 8.93276   1
   0   0  18 9.99032 1.19157   1
   0   0  19 67.0518 4.09346   1
   0   0  20 32.9779 2.21005   1
   0   0  21 18.1509 1.70708   1
   0   0  22 52.0807 3.77652   1
   0   0  23 9.13725 1.07635   1
   0   0  24 42.6303 3.11636   1
   0   0  25 11.3555 1.14142   1
   0   1   0  427.20 23.6051   1
   0   1   1 1591.63 76.1624   1
   0   1   2 2554.47 118.437   1
   0   1   3 4878.98 269.212   1
   0   1   4 489.074  28.174   1
   0   1   5 19.0759 1.52398   1
   0   1   6 156.036 10.8953   1
   0   1   7 785.052 51.9577   1
   0   1   8 585.732 95.5114   1
   0   1  10  644.49 75.0831   1
   0   1  11 83.4155 5.68201   1
   0   1  12 336.001 25.6673   1
   0   1  13 159.125 10.0686   1
   0   1  14 133.581 20.5928   1
   0   1  15 173.023 14.0502   1
   0   1  16 14.2139 1.56144   1
   0   1  17  5.7719 0.90822   1
   0   1  18 11.5729 1.44055   1
   0   1  19 18.2705 3.24613   1
   0   1  20 26.2642 5.77596   1
   0   1  21 135.109   9.171   1
   0   1  22 4.45369 0.95631   1
   0   1  23 76.3411 5.27777   1
   0   1  24 7.96986 1.84529   1
   0   1  25 9.34594 1.15895   1
   0   2   0 216.833 13.0616   1
   0   2   1 123.748 7.43857   1
   0   2   2 202.707 10.6364   1
   0   2   3 1015.50  56.391   1
   0   2   4  219.40 23.4287   1
   0   2   5 1531.77 98.2873   1
   0   2   6  58.117 4.10114   1
   0   2   7  152.46 18.9965   1
   0   2   8 55.4159 6.40431   1
   0   2   9 63.8949 4.42104   1
   0   2  10 925.839 60.3449   1
   0   2  11 335.955 22.0985   1
   0   2  12 431.714 87.4559   1
   0   2  13 94.8559 9.94835   1
   0   2  14  3.2947  0.5459   1
   0   2  15 3.77214 1.22684   1
   0   2  16 6.48251  1.1508   1
   0   2  18 203.748 16.2929   1
   0   2  19 5.87531 1.50611   1
   0   2  20 161.842 11.5457   1
   0   2  21 13.4396 2.38078   1
   0   2  22 9.51352  2.1743   1
   0   2  23 24.7706 2.01357   1
   0   2  24 3.13094 0.75809   1
   0   3   0 689.377  36.209   1
   0   3   1 3.69302 0.44526   1
   0   3   2 1442.79 111.601   1
   0   3   3 303.667 17.5154   1
   0   3   4 1300.17  147.43   1
   0   3   5 1086.79 70.9328   1
   0   3   6 18.1703   1.399   1
   0   3   7 669.452 48.9087   1
   0   3   8 2.83022 0.46712   1
   0   3   9 219.687 14.6417   1
   0   3  10  6.5245 1.02403   1
   0   3  11 233.066 24.1847   1
   0   3  12 0.96812 0.45868   1
   0   3  13 208.529 19.8603   1
   0   3  14 4.42326 0.61904   1
   0   3  15 51.5754 2.91457   1
   0   3  16 22.5349 2.73128   1
   0   3  17 12.0673 1.10651   1
   0   3  18 68.9708 7.88135   1
   0   3  19 22.8451 4.58393   1
   0   3  20 63.5501 4.52473   1
   0   3  21 23.3368 1.99411   1
   0   3  22 37.0495 2.78105   1
   0   4   0 1084.10 59.6035   1
   0   4   1 6.23412 1.10758   1
   0   4   2 89.9662 5.27091   1
   0   4   3 137.169  10.352   1
   0   4   4 158.238 10.8407   1
   0   4   5 33.6057 2.79782   1
   0   4   6 872.481 47.5579   1
   0   4   7 2.30298  0.3997   1
   0   4   8 848.367  163.46   1
   0   4   9 209.342 22.3107   1
   0   4  10 130.785 14.7797   1
   0   4  11 73.6458 6.01467   1
   0   4  12 1.97436 0.73576   1
   0   4  13 10.5518 1.36017   1
   0   4  14 37.6271  2.7721   1
   0   4  15 86.1875 13.6942   1
   0   4  16 82.1391 8.31838   1
   0   4  17 134.503 18.9015   1
   0   4  18 2.88725 1.11423   1
   0   4  19 47.1014 4.25399   1
   0   4  20 24.9212 2.15951   1
   0   4  21 23.8362 3.14178   1
   0   4  22 3.15783 1.26822   1
   0   5   0 1.08379 0.25816   1
   0   5   1 963.516  53.061   1
   0   5   2 0.90716 0.29561   1
   0   5   3 125.069  7.0997   1
   0   5   4 213.623 13.0353   1
   0   5   5 147.781 8.28509   1
   0   5   6 672.883 36.6871   1
   0   5   7 318.097 32.4426   1
   0   5   8 279.753  37.689   1
   0   5   9 57.5502 4.94628   1
   0   5  10 34.8506 3.16273   1
   0   5  11 1.93928 0.72087   1
   0   5  12 40.9535   3.683   1
   0   5  13-0.05491 0.87177   1
   0   5  14 154.824 10.0924   1
   0   5  15 9.22466  2.0289   1
   0   5  16 136.753 8.90788   1
   0   5  17  18.486 2.13975   1
   0   5  18  30.719 6.39953   1
   0   5  19 13.9794 1.81264   1
   0   5  20 9.03176 0.98806   1
   0   5  21   31.49 2.35326   1
   0   6   0  135.62 9.21913   1
   0   6   1 181.044 10.1776   1
   0   6   2 70.8424 4.02887   1
   0   6   3 378.123 20.8667   1
   0   6   4 59.5457 3.34124   1
   0   6   5  506.61 27.1089   1
   0   6   6 5.64321 0.90531   1
   0   6   7 384.972 34.5227   1
   0   6   8 2.36955 0.64144   1
   0   6   9 121.502 10.0309   1
   0   6  10 3.59273  0.8445   1
   0   6  11 44.5069 3.96294   1
   0   6  12 26.0054 2.61998   1
   0   6  13 65.6461 5.91836   1
   0   6  14 89.7357 6.01949   1
   0   6  15 36.9356 2.82242   1
   0   6  16 47.2492 4.12489   1
   0   6  17 3.54182 0.78317   1
   0   6  18 46.9837 2.80885   1
   0   6  19 5.86891  1.6924   1
   0   6  20 54.5104 6.07217   1
   0   6  21 1.13964  1.0225   1
   0   7   0 102.156 12.7785   1
   0   7   1 0.81992 0.29459   1
   0   7   2 296.475  20.666   1
   0   7   3 82.8124 4.57122   1
   0   7   4 775.211 41.1997   1
   0   7   5 62.8801 4.16523   1
   0   7   6 191.351 11.6479   1
   0   7   7 20.4188 1.52666   1
   0   7   8 2.10849  2.6476   1
   0   7   9 61.8526 3.94839   1
   0   7  10 42.3028 3.74209   1
   0   7  11 91.1281 5.66228   1
   0   7  12 68.6758 6.55211   1
   0   7  13 46.6696 3.06751   1
   0   7  14 2.01577 0.79377   1
   0   7  15 66.4594 3.83191   1
   0   7  16 16.5868 1.48201   1
   0   7  17 95.5338 5.20921   1
   0   7  18 2.95607  0.8036   1
   0   7  19 43.0519 4.22985   1
   0   7  20 1.17789 0.99687   1
   0   8   0 179.167  9.6679   1
   0   8   1 637.727 47.3753   1
   0   8   2 384.188 20.5081   1
   0   8   3 138.911 10.3774   1
   0   8   4 166.492 10.6246   1
   0   8   5 7.00393 1.73787   1
   0   8   6  49.903 5.68753   1
   0   8   7  29.968 2.10159   1
   0   8   8 66.1018  4.1857   1
   0   8   9 38.7094 5.28568   1
   0   8  10 125.369 6.80287   1
   0   8  11 31.1726 3.05464   1
   0   8  12 112.513 6.13173   1
   0   8  13  45.562 2.77109   1
   0   8  14 28.8813 2.97634   1
   0   8  15 7.09944  0.9451   1
   0   8  16 10.1478 1.71577   1
   0   8  17 25.9585 1.85116   1
   0   8  18 26.3538 2.18155   1
   0   8  19 34.3589 6.96318   1
   0   9   0 12.4439 0.90958   1
   0   9   1 459.677 24.9806   1
   0   9   2 3.02044 1.64123   1
   0   9   3 395.573 21.8765   1
   0   9   4 8.84381 0.81959   1
   0   9   5 56.2407 3.60398   1
   0   9   6 2.60241 0.67795   1
   0   9   7 20.1299 1.63599   1
   0   9   8 73.3126 4.61455   1
   0   9   9 90.3473 5.01396   1
   0   9  10  25.683 1.81891   1
   0   9  11 47.0972 3.79738   1
   0   9  12 12.9221 1.18961   1
   0   9  13 4.09682 1.13485   1
   0   9  14 103.339 5.63793   1
   0   9  15 4.66037 0.88357   1
   0   9  16  88.256 5.39045   1
   0   9  17   2.469 0.96661   1
   0   9  18 3.10489 0.88277   1
   0  10   0 306.268 15.3069   1
   0  10   1 39.3824 2.17544   1
   0  10   2 87.6847 5.34371   1
   0  10   3 29.7749 2.27574   1
   0  10   4  28.763 1.90942   1
   0  10   5 62.5913 3.98168   1
   0  10   6  95.924 5.98774   1
   0  10   7   40.81 2.93673   1
   0  10   8 24.8183 2.43616   1
   0  10   9 27.5637 1.90903   1
   0  10  10 7.56654 0.96235   1
   0  10  11 104.524 6.61855   1
   0  10  12 5.42081  0.9915   1
   0  10  13 90.4277 6.37035   1
   0  10  14 1.23821 0.78538   1
   0  10  15  18.892 1.44934   1
   0  10  16 4.68002   1.907   1
   0  10  17 7.99298  1.8747   1
   0  11   0  49.692 2.68291   1
   0  11   1 12.8736 0.99777   1
   0  11   2 25.3392 1.55786   1
   0  11   3 24.6615 1.53519   1
   0  11   4 120.989 8.17113   1
   0  11   5 35.0058 2.19499   1
   0  11   6 139.981 7.55984   1
   0  11   7 14.5492 2.53608   1
   0  11   8 44.3615 2.70558   1
   0  11   9 26.6923 1.89052   1
   0  11  10  18.364  2.4411   1
   0  11  11 8.94274 1.03257   1
   0  11  12 35.8779 2.30607   1
   0  11  13 43.5938 2.67433   1
   0  11  14 38.3936 2.83634   1
   0  11  15 32.7972 2.52087   1
   0  12   1 67.3041 3.55828   1
   0  12   2 8.49236 0.91981   1
   0  12   3 10.5077 0.96863   1
   0  12   4  19.942 1.90138   1
   0  12   5 55.9077 4.46052   1
   0  12   6 10.9623 1.40711   1
   0  12   7 76.2923 4.28519   1
   0  12   8 37.1739  2.3723   1
   0  12   9 9.08375 1.10617   1
   0  12  10 126.132 9.58009   1
   0  12  11 0.70881 0.72437   1
   0  12  12 43.3452 3.16087   1
   0  12  13 0.27328 0.86027   1
   0  12  14 2.31755 1.39065   1
   0  13   0 119.117 6.66126   1
   0  13   1 66.8054 3.90951   1
   0  13   2 105.195 5.69474   1
   0  13   3 50.8381 2.97173   1
   0  13   4 1.32343 0.65312   1
   0  13   5 12.0484 1.10806   1
   0  13   6 8.63253 0.95272   1
   0  13   7 59.9092 3.42994   1
   0  13   8 1.16578 0.70743   1
   0  13   9 118.318 6.33661   1
   0  13  10 1.45129  1.1364   1
   0  13  11 37.4029 5.48033   1
   0  13  12   8.482 1.77268   1
   0  14   0  65.394 4.11726   1
   0  14   1 29.3188 2.17111   1
   0  14   2 86.5752 5.29316   1
   0  14   3 4.87198 0.77894   1
   0  14   4 46.1844 2.72097   1
   0  14   5 17.8614 1.36145   1
   0  14   6   32.58 2.40661   1
   0  14   7 47.0051 2.74673   1
   0  14   8 28.5786 2.24129   1
   0  14   9 32.1955 4.44759   1
   0  14  10 13.3785 2.05006   1
   0  15   0 11.5493  1.7297   1
   0  15   1 9.24141 1.61433   1
   0  15   2 22.6893 2.58177   1
   0  15   3 32.6936 3.46436   1
   0  15   4 29.6726  4.9292   1
   0  15   5 36.9199 3.30529   1
   0  15   6 50.3268 7.38453   1
   0  15   7 3.87052 1.15667   1
   0  16   0 10.9342 1.63483   1
   1 -18   6  27.609 3.55435   1
   1 -18   7  1.0399 1.32529   1
   1 -18   8 16.7926 2.64147   1
   1 -18   9 14.7264 2.56389   1
   1 -18  10 29.7592 3.87195   1
   1 -18  11 44.1534  5.2177   1
   1 -18  12 14.6815 2.35986   1
   1 -18  13 30.9612 3.98715   1
   1 -17   3 45.5715 4.28547   1
   1 -17   4 32.2677  2.6916   1
   1 -17   5 78.5394 6.68863   1
   1 -17   6 57.2553 4.24171   1
   1 -17   7 14.8413 1.63681   1
   1 -17   8 14.6264 2.13473   1
   1 -17   9   0.583 0.82774   1
   1 -17  10 10.5873 1.36744   1
   1 -17  11 2.64936 0.97756   1
   1 -17  12 71.5744 18.2487   1
   1 -17  13 1.45138 1.60727   1
   1 -17  14  123.73 13.1128   1
   1 -17  15 0.63964 1.21234   1
   1 -17  16 15.2011 2.63953   1
   1 -17  17 13.6999 2.42969   1
   1 -17  18   13.61 2.40797   1
   1 -16   1  5.8003 1.33949   1
   1 -16   2 25.4627 4.40906   1
   1 -16   3 163.354 11.1821   1
   1 -16   4 3.55998 1.03446   1
   1 -16   5 147.803  23.763   1
   1 -16   6 0.53221 0.92225   1
   1 -16   7 7.64923 1.29487   1
   1 -16   8 0.92229 0.96737   1
   1 -16   9 1.93563 1.14743   1
   1 -16  10 8.34433 2.63455   1
   1 -16  11 69.6769 5.99311   1
   1 -16  12 37.9616 3.19496   1
   1 -16  13 70.0118 7.72503   1
   1 -16  14 61.8887 3.78617   1
   1 -16  15 13.5904 1.52772   1
   1 -16  16 39.1619 2.57107   1
   1 -16  17 10.2102 1.40472   1
   1 -16  18 16.7899 4.84509   1
   1 -16  19 1.36521 0.82399   1
   1 -16  20 34.2866 4.27162   1
   1 -15   1 1.06035 0.92986   1
   1 -15   2  65.983 5.91335   1
   1 -15   3 1.53314 1.56502   1
   1 -15   4 34.6351 2.94543   1
   1 -15   5 13.9995 4.46472   1
   1 -15   6 46.6124 5.10036   1
   1 -15   7 75.3543  10.966   1
   1 -15   8 45.9603  4.2009   1
   1 -15   9 54.0359 3.40009   1
   1 -15  10  0.6509 0.74096   1
   1 -15  11 19.6665 1.64235   1
   1 -15  12 1.03088 0.73476   1
   1 -15  13 73.0512 4.43961   1
   1 -15  14 10.8394 1.18452   1
   1 -15  15 148.305 8.54829   1
   1 -15  16 0.68744 0.69964   1
   1 -15  17 59.1146 3.63025   1
   1 -15  18 19.2668 3.11704   1
   1 -15  19 3.49383 0.97973   1
   1 -15  20  4.3155 1.01287   1
   1 -15  21 2.00413 0.85763   1
   1 -15  22 12.1346 2.31039   1
   1 -14   1  141.01 9.80602   1
   1 -14   2 96.8844 6.90283   1
   1 -14   3 29.9478 5.44492   1
   1 -14   4 22.3618 2.36661   1
   1 -14   5 2.05341 0.81593   1
   1 -14   6 26.1508 4.22075   1
   1 -14   7 4.52601 1.38634   1
   1 -14   8 138.153 8.03024   1
   1 -14   9 0.31482 0.69662   1
   1 -14  10 166.968 11.6578   1
   1 -14  11 1.85774 0.76231   1
   1 -14  12 26.2907 3.99303   1
   1 -14  13 23.6484 2.12449   1
   1 -14  14 30.6152 3.03335   1
   1 -14  15 95.5743 5.65245   1
   1 -14  16 77.0008 4.64561   1
   1 -14  17 27.9896 2.57132   1
   1 -14  18  14.593 1.74294   1
   1 -14  19 2.32869 0.92986   1
   1 -14  20 5.12094 2.24938   1
   1 -14  21 30.9264 2.71389   1
   1 -14  22 0.41382 0.72063   1
   1 -14  23  77.098 7.57568   1
   1 -13   1  116.16 6.89196   1
   1 -13   2 0.65423 0.67997   1
   1 -13   3 37.5006 2.58468   1
   1 -13   4 0.69336 0.86837   1
   1 -13   5 40.1818 4.15594   1
   1 -13   6 26.5961 2.05164   1
   1 -13   7 82.5765 4.91297   1
   1 -13   8 59.3455 4.43829   1
   1 -13   9 52.0954 3.69715   1
   1 -13  10 68.4802 4.73977   1
   1 -13  11 47.1207 3.08906   1
   1 -13  12  100.60 8.93585   1
   1 -13  13 40.5052 3.85228   1
   1 -13  14 63.3263 3.90149   1
   1 -13  15 1.86845 0.72335   1
   1 -13  16 31.1308 4.69411   1
   1 -13  17  13.773 2.79279   1
   1 -13  18 48.6515  4.9944   1
   1 -13  19 0.28669 1.32393   1
   1 -13  20 54.0709 10.0457   1
   1 -13  21 4.72296 1.05453   1
   1 -13  22 22.6977 2.15042   1
   1 -13  23 44.4312 8.30335   1
   1 -13  24 17.7029 4.67042   1
   1 -12   1 3.87586 0.77675   1
   1 -12   2 27.2562 2.00573   1
   1 -12   3 97.1249 5.84637   1
   1 -12   4 65.9126 4.09689   1
   1 -12   5 151.497 15.2182   1
   1 -12   6 25.7789 1.65038   1
   1 -12   7 44.4814 2.55286   1
   1 -12   8 0.64462 0.60945   1
   1 -12   9 85.8044   4.592   1
   1 -12  10 1.78096  0.5754   1
   1 -12  11 285.674 14.6013   1
   1 -12  12  1.4234 0.76938   1
   1 -12  13 163.158 11.7694   1
   1 -12  14  7.2355 0.92835   1
   1 -12  15 9.02557 1.03465   1
   1 -12  16 14.6705 1.33603   1
   1 -12  17 1.81684 0.70928   1
   1 -12  18  51.035 10.8094   1
   1 -12  19 38.7401 7.54069   1
   1 -12  20 78.9777 7.55491   1
   1 -12  21 36.2029 8.67982   1
   1 -12  22 32.5376 4.33174   1
   1 -12  23 1.25385 0.58898   1
   1 -12  24  16.139 2.35224   1
   1 -12  25 4.27236  1.9262   1
   1 -11   1 1.59687 0.48679   1
   1 -11   2 207.031 10.4926   1
   1 -11   3  0.3617 0.43939   1
   1 -11   4  25.806 1.58109   1
   1 -11   5 1.94734 0.60294   1
   1 -11   6 95.4308 5.07433   1
   1 -11   7  1.5482 0.70578   1
   1 -11   8 396.159 24.1553   1
   1 -11   9 44.8101  2.5383   1
   1 -11  10 197.111 10.1248   1
   1 -11  11 228.488  11.742   1
   1 -11  12 16.0133 2.19832   1
   1 -11  13 55.1836 3.43438   1
   1 -11  14 4.94421  0.7671   1
   1 -11  15 2.08239 0.64515   1
   1 -11  16 16.1077 1.35793   1
   1 -11  17 63.6976 3.88152   1
   1 -11  18 1.35151 0.64613   1
   1 -11  19 192.341 16.8128   1
   1 -11  20 14.3663 1.33244   1
   1 -11  21 88.0363 6.21012   1
   1 -11  22 10.3896  1.1133   1
   1 -11  23 13.2895 1.90764   1
   1 -11  24 1.65287 0.80844   1
   1 -11  25 6.39883 1.02218   1
   1 -11  26 10.8907 1.34845   1
   1 -10   1 146.593 7.53813   1
   1 -10   2 123.693  6.3946   1
   1 -10   3 376.265 19.0459   1
   1 -10   4 221.135 11.2757   1
   1 -10   5   82.47  5.0337   1
   1 -10   6 48.4535 3.08423   1
   1 -10   7 2.30716 0.53221   1
   1 -10   8 146.122  8.6825   1
   1 -10   9  104.57 8.13237   1
   1 -10  10 269.437  12.913   1
   1 -10  11 102.094 5.00032   1
   1 -10  12 111.107 5.39396   1
   1 -10  13  14.249 1.64836   1
   1 -10  14 55.3942 3.58717   1
   1 -10  15 75.1509 4.52603   1
   1 -10  16 72.5332 7.10793   1
   1 -10  17 11.1961  1.9151   1
   1 -10  18 53.0805 3.48241   1
   1 -10  19 5.63759 0.84243   1
   1 -10  20 33.3206 2.35377   1
   1 -10  21 53.3489 3.46196   1
   1 -10  22 26.3288 1.95959   1
   1 -10  23 66.0331 6.96987   1
   1 -10  24 9.69936 1.31751   1
   1 -10  25 15.4627 1.64847   1
   1 -10  26 0.16243 0.65409   1
   1  -9   1 150.087 8.12059   1
   1  -9   2 21.4562 1.40566   1
   1  -9   3 8.25825 1.40128   1
   1  -9   4 9.85868 0.81915   1
   1  -9   5 511.922 33.8723   1
   1  -9   6  39.794 2.92685   1
   1  -9   7 1150.22 75.7347   1
   1  -9   8 2.00852 1.22554   1
   1  -9   9 137.626  8.9778   1
   1  -9  10 68.5883 5.05503   1
   1  -9  11 2.15498 0.44422   1
   1  -9  12 44.2886 2.92583   1
   1  -9  13 72.0162  3.9207   1
   1  -9  14 30.6693 1.92518   1
   1  -9  15 122.297 6.67403   1
   1  -9  16 105.572 6.00587   1
   1  -9  17 19.3163 1.27062   1
   1  -9  18 132.137 9.33193   1
   1  -9  19 0.91918 0.45309   1
   1  -9  20 77.4182 4.45283   1
   1  -9  21 0.65853  0.4736   1
   1  -9  22 44.6986 2.82217   1
   1  -9  23 1.26914 0.57056   1
   1  -9  24 21.3818 1.56583   1
   1  -9  25 5.33046 0.69687   1
   1  -9  26 15.7106 1.22281   1
   1  -9  27 8.63573  1.5224   1
   1  -8   1 0.34165 0.29824   1
   1  -8   2 136.755  7.4768   1
   1  -8   3 31.8572 1.84096   1
   1  -8   4 1144.88 113.124   1
   1  -8   5 214.142 18.9753   1
   1  -8   6 466.956 32.3571   1
   1  -8   7 259.232 27.5925   1
   1  -8   8 19.2999 2.49481   1
   1  -8   9 22.2817 2.02952   1
   1  -8  10 37.0367 3.05694   1
   1  -8  11 6.75158  1.1143   1
   1  -8  12 48.0389 3.08068   1
   1  -8  13 333.655 16.9699   1
   1  -8  14 2.34348 0.67439   1
   1  -8  15 335.945 16.1451   1
   1  -8  16 23.0632 1.91576   1
   1  -8  17 51.9968 2.93258   1
   1  -8  18 2.35728  0.4758   1
   1  -8  19 27.1628 2.18658   1
   1  -8  20 5.72374 0.64999   1
   1  -8  21 75.9412 8.41474   1
   1  -8  22 36.0496 2.37779   1
   1  -8  23 28.8707 1.98379   1
   1  -8  24 24.4327 1.72344   1
   1  -8  25  0.1614 0.47974   1
   1  -8  26 17.0445 1.79523   1
   1  -8  27 0.28147 0.58531   1
   1  -7   1 144.958 23.3434   1
   1  -7   3 10.4562 1.06877   1
   1  -7   4 208.521 22.6091   1
   1  -7   6 1262.75 131.401   1
   1  -7   7 334.058 35.6698   1
   1  -7   8 517.329 29.4372   1
   1  -7   9 77.3689 5.13493   1
   1  -7  10 48.7011 3.52407   1
   1  -7  11 169.331 9.69463   1
   1  -7  12 40.6143  3.3446   1
   1  -7  13 1.54712 0.47974   1
   1  -7  14  166.52 8.53491   1
   1  -7  15 6.22807 0.98724   1
   1  -7  16 218.553 11.2883   1
   1  -7  17 227.529 15.5279   1
   1  -7  18 45.8341  3.6672   1
   1  -7  19 184.421 9.77575   1
   1  -7  20 1.07147  0.5813   1
   1  -7  21 2.70178 0.76714   1
   1  -7  22 0.41919 0.75521   1
   1  -7  23 1.70256 0.59032   1
   1  -7  24 0.59756 0.52874   1
   1  -7  25 93.4191 5.89127   1
   1  -7  26 1.95958 0.64936   1
   1  -7  27 76.7515 12.7778   1
   1  -6   1 2541.10 325.426   1
   1  -6   2 55.1326 4.09339   1
   1  -6   3 2583.59  215.10   1
   1  -6   4 10.1036 1.47072   1
   1  -6   5 43.0396 4.98071   1
   1  -6   6 95.7008 7.12837   1
   1  -6   7 4.02572 0.48759   1
   1  -6   8   33.32  3.1083   1
   1  -6   9 1019.27 71.8781   1
   1  -6  10 120.947 7.86209   1
   1  -6  11 376.171 26.6668   1
   1  -6  12  302.53 17.2116   1
   1  -6  13 26.5554 1.56044   1
   1  -6  14  186.17 21.3187   1
   1  -6  15 8.02394 1.48084   1
   1  -6  16 139.559 7.96346   1
   1  -6  17 47.0263 3.97966   1
   1  -6  18 115.146 6.86709   1
   1  -6  19 3.83914 0.66619   1
   1  -6  20 56.7838 3.54541   1
   1  -6  21 30.6054 2.98249   1
   1  -6  22 14.1637 1.46715   1
   1  -6  23 26.3395  2.1654   1
   1  -6  24 13.7858 1.20291   1
   1  -6  25 24.2474 2.10663   1
   1  -6  26 15.8671 2.57562   1
   1  -6  27   34.22 4.69527   1
   1  -5   1 215.885 16.1054   1
   1  -5   2 2002.77 116.295   1
   1  -5   4 882.494 93.4178   1
   1  -5   5 135.071 7.84908   1
   1  -5   6 57.8056 3.10267   1
   1  -5   7  54.853 5.84704   1
   1  -5   8 27.4519 2.31268   1
   1  -5   9 456.266 87.2136   1
   1  -5  10 1.74812 0.44182   1
   1  -5  11 531.817 30.3232   1
   1  -5  12  24.795 1.95247   1
   1  -5  13 188.639  11.562   1
   1  -5  14 8.87803  0.8031   1
   1  -5  15 177.864  10.606   1
   1  -5  16 114.841 6.90303   1
   1  -5  17 109.422 6.54243   1
   1  -5  18 63.6305 5.92569   1
   1  -5  19 24.9706 3.05422   1
   1  -5  20 5.18769 0.74243   1
   1  -5  21 3.66105  1.4178   1
   1  -5  22 23.0458 3.01579   1
   1  -5  23  3.1052 0.67491   1
   1  -5  24 101.356 5.95967   1
   1  -5  25 0.23617 0.49599   1
   1  -5  26 51.7951 7.48126   1
   1  -5  27 1.27738   0.479   1
   1  -4   1  483.30 23.8905   1
   1  -4   2 1542.24 158.248   1
   1  -4   3 69.6061 8.05708   1
   1  -4   4 1066.43 51.8867   1
   1  -4   5 22.6112 1.61101   1
   1  -4   6 572.487 39.9109   1
   1  -4   7  0.4724 0.15352   1
   1  -4   8 88.8704 5.53479   1
   1  -4   9 10.9006 2.28527   1
   1  -4  10 178.193 12.9774   1
   1  -4  11 253.405  14.628   1
   1  -4  12 498.611 35.3862   1
   1  -4  13 429.158 30.3726   1
   1  -4  14 184.097 11.0073   1
   1  -4  15 134.253 8.03513   1
   1  -4  16 0.74481 0.42389   1
   1  -4  17 8.42644 1.58238   1
   1  -4  18 0.56831 0.43475   1
   1  -4  19  38.439 2.51489   1
   1  -4  20 3.83553 0.72979   1
   1  -4  21  170.37 9.94417   1
   1  -4  22 2.62078 0.80023   1
   1  -4  23 69.6649 5.81649   1
   1  -4  24 26.7002 1.85726   1
   1  -4  25 5.49395 0.73381   1
   1  -4  26 19.2595 2.22418   1
   1  -4  27 11.0783 1.07459   1
   1  -3   1 11.1208 1.44171   1
   1  -3   2  1.7552  0.3879   1
   1  -3   3 369.133 41.2987   1
   1  -3   4 254.273 13.6803   1
   1  -3   5 1954.33 154.425   1
   1  -3   6 882.154 45.2781   1
   1  -3   7 462.541  24.153   1
   1  -3   8 366.733  19.114   1
   1  -3   9 1.57685 0.87392   1
   1  -3  10 90.4492 6.16885   1
   1  -3  11 1.46774  0.3538   1
   1  -3  12 609.765 43.1885   1
   1  -3  13 31.6521 2.45605   1
   1  -3  14 529.803 31.4042   1
   1  -3  15 8.10206 1.30258   1
   1  -3  16 46.0809 4.80325   1
   1  -3  17 14.8186 1.19741   1
   1  -3  18 1.86529 0.50696   1
   1  -3  19 56.1454 6.15131   1
   1  -3  20 55.8022 3.49109   1
   1  -3  21 51.7744 3.23577   1
   1  -3  22 66.3552 4.04749   1
   1  -3  23 46.0966 2.91107   1
   1  -3  24 6.74929 0.89329   1
   1  -3  25 31.9713 3.75623   1
   1  -3  26 0.34999 0.43688   1
   1  -3  27 20.0172 2.42179   1
   1  -2   2 56.5677  3.6403   1
   1  -2   3 84.3237 4.67983   1
   1  -2   4  4.2563 0.29829   1
   1  -2   5 998.871 51.0463   1
   1  -2   6 304.759  16.198   1
   1  -2   7 812.841 61.3984   1
   1  -2   8 3.21273 0.34536   1
   1  -2   9 761.166 63.1482   1
   1  -2  10 152.899 9.51932   1
   1  -2  11 618.667 35.7826   1
   1  -2  12 101.569 7.40699   1
   1  -2  13 78.9448 5.76239   1
   1  -2  14 40.8116 2.60303   1
   1  -2  15 24.5467 2.65815   1
   1  -2  16 50.6892 3.19802   1
   1  -2  17 78.4195 4.78389   1
   1  -2  18 62.7114 5.14114   1
   1  -2  19 7.65279 0.83451   1
   1  -2  20 93.5228 9.87972   1
   1  -2  21 9.77323 0.96694   1
   1  -2  22 78.3291 4.73247   1
   1  -2  23 2.24411 0.67125   1
   1  -2  24 45.5661 4.22624   1
   1  -2  25 0.58537 0.45579   1
   1  -2  26 24.7981 4.14343   1
   1  -1   1 163.062 9.12278   1
   1  -1   2 5368.26 244.895   1
   1  -1   3 49.8162 2.93107   1
   1  -1   4 46.7566 2.50977   1
   1  -1   5  321.19 18.6044   1
   1  -1   6 11.3033 1.24737   1
   1  -1   7 646.725 43.1918   1
   1  -1   8 1589.05 221.425   1
   1  -1   9  480.93 34.6791   1
   1  -1  10 603.141 37.2219   1
   1  -1  11 291.784 17.1136   1
   1  -1  12 21.8117 2.68314   1
   1  -1  13 96.2031 10.4645   1
   1  -1  14 0.69581 0.40293   1
   1  -1  15  47.532 4.07264   1
   1  -1  17 164.038 13.6568   1
   1  -1  18 12.9506 2.18077   1
   1  -1  19 123.558 7.63744   1
   1  -1  20 24.1569  2.1082   1
   1  -1  21 20.3392 1.54867   1
   1  -1  22 31.2812 2.10272   1
   1  -1  23  9.6417 1.86178   1
   1  -1  24 34.8051 2.64637   1
   1  -1  25 25.4569 2.93598   1
   1  -1  26 14.3173 1.52195   1
   1   0   0 201.894 14.1079   1
   1   0   1 8.26276 0.84351   1
   1   0   2 337.587  17.636   1
   1   0   3 293.839 20.9646   1
   1   0   4 256.831  21.657   1
   1   0   5 1155.26 109.224   1
   1   0   6 515.567   43.87   1
   1   0   7 3.60116 0.42003   1
   1   0   8 1756.89 112.734   1
   1   0   9 48.1833 3.39658   1
   1   0  10 899.818 58.7423   1
   1   0  11 49.3176 9.32348   1
   1   0  12 17.8568 1.43927   1
   1   0  13 2.98674 0.46447   1
   1   0  14 40.4751 2.94411   1
   1   0  15  161.90 13.1645   1
   1   0  16 170.219 11.4582   1
   1   0  17  97.454 6.65613   1
   1   0  18 52.7499 3.31225   1
   1   0  19 32.3672 2.18548   1
   1   0  20 2.94653 1.81032   1
   1   0  21 56.6557 4.11745   1
   1   0  22 6.89119 0.99601   1
   1   0  23 60.5644 4.28325   1
   1   0  24 2.36514 0.67854   1
   1   0  25 19.7026 1.65033   1
   1   1   0 1766.95 83.5829   1
   1   1   1 2051.94 108.246   1
   1   1   2 178.361 10.7006   1
   1   1   3 10.6224 0.82049   1
   1   1   4 535.066 36.4142   1
   1   1   5 1055.57 69.2189   1
   1   1   6 134.859 9.39248   1
   1   1   7 2369.32 150.927   1
   1   1   8 3.97488 0.48661   1
   1   1   9 176.424 11.8886   1
   1   1  10 135.997 9.15506   1
   1   1  11 12.5791 2.82533   1
   1   1  12 239.458 15.7549   1
   1   1  13 137.956 12.2672   1
   1   1  14 40.6634 3.55797   1
   1   1  15 26.3797 2.47032   1
   1   1  16  41.666 3.66684   1
   1   1  18 212.877 17.0138   1
   1   1  19 6.19213 1.63037   1
   1   1  20 119.664 19.7203   1
   1   1  21 1.20872 0.73124   1
   1   1  22 15.9867 1.55615   1
   1   1  23 7.94539 1.03063   1
   1   1  24 3.60181 0.75382   1
   1   2   0 721.868 36.4442   1
   1   2   1 120.013 6.34896   1
   1   2   2 978.206 74.6005   1
   1   2   3 523.581 35.6079   1
   1   2   4 3014.28 319.587   1
   1   2   5 619.527  72.043   1
   1   2   6 159.357 29.3867   1
   1   2   7 565.761 61.2138   1
   1   2   8 6.02759 0.62345   1
   1   2   9  202.71 19.7943   1
   1   2  10 108.697 10.3034   1
   1   2  11  73.981 8.00125   1
   1   2  12 14.4643 2.12827   1
   1   2  13  214.51 12.7982   1
   1   2  14 61.0597 3.79967   1
   1   2  15 201.479 11.9569   1
   1   2  16 20.1904 2.07146   1
   1   2  17 26.2657 2.53261   1
   1   2  18  15.778 1.79805   1
   1   2  19 30.3755 2.86295   1
   1   2  20 63.5495 4.55628   1
   1   2  21 56.5834 8.75892   1
   1   2  22 27.3493 4.06735   1
   1   2  23 6.56109 0.92876   1
   1   2  24 4.26114 0.72396   1
   1   3   0 158.648 9.32852   1
   1   3   1 872.281 68.6342   1
   1   3   2 1574.06 194.526   1
   1   3   3 69.7819 4.93199   1
   1   3   4 2326.38 147.397   1
   1   3   5 9.22756 0.83454   1
   1   3   6 511.277 54.1049   1
   1   3   7 39.3534  2.7987   1
   1   3   8 17.8381 2.15078   1
   1   3   9 8.99156  0.8722   1
   1   3  10 179.497 11.8789   1
   1   3  11 138.468 8.79353   1
   1   3  12  254.29 15.1432   1
   1   3  13 39.8069  2.5763   1
   1   3  14 23.9591 1.72289   1
   1   3  15   43.16 3.01934   1
   1   3  16  2.8598 0.74138   1
   1   3  17 170.104 10.0276   1
   1   3  18 24.0127 2.40384   1
   1   3  19 66.4668 5.54043   1
   1   3  20 0.88865 0.73109   1
   1   3  21 7.72709  1.0396   1
   1   3  22 3.80649 1.53586   1
   1   3  23 15.0285 1.40259   1
   1   4   0 144.963 8.43176   1
   1   4   1 461.508  36.889   1
   1   4   2 76.2119 6.67655   1
   1   4   3 2043.10 258.221   1
   1   4   4 8.70518 1.32957   1
   1   4   5 531.445  35.182   1
   1   4   6 187.299 12.5697   1
   1   4   7 38.4099 2.72423   1
   1   4   8 223.964 14.8285   1
   1   4   9 85.2168 5.75621   1
   1   4  10  37.124  2.5382   1
   1   4  11 23.3701 1.63319   1
   1   4  12 87.7869 8.55159   1
   1   4  13 0.14978 0.51501   1
   1   4  14 249.842 14.7218   1
   1   4  15 1.14953 0.56874   1
   1   4  16 134.225 7.12542   1
   1   4  17  7.6702 0.82275   1
   1   4  18 19.7677 1.53647   1
   1   4  19  9.6829 1.31935   1
   1   4  21 2.12607  1.2283   1
   1   4  22 20.7537 2.79017   1
   1   5   0 1779.20 152.225   1
   1   5   1 453.124 42.5795   1
   1   5   2   15.52 1.58521   1
   1   5   3 240.587 16.1589   1
   1   5   4 3.18601 0.43415   1
   1   5   5 284.517 28.8346   1
   1   5   6 216.247 16.7013   1
   1   5   7 251.115 49.4979   1
   1   5   8 23.9865 2.94985   1
   1   5   9 146.008 9.22942   1
   1   5  10 49.8056 4.33769   1
   1   5  11 57.4899 4.96811   1
   1   5  12 22.0787 2.34483   1
   1   5  13 75.9306 6.40478   1
   1   5  14 37.4994 3.51254   1
   1   5  15  111.27 19.8662   1
   1   5  16 75.8518 5.12339   1
   1   5  17 36.6789 2.76028   1
   1   5  18 18.5418 2.59634   1
   1   5  19 1.44252 0.78928   1
   1   5  20 7.22671   1.053   1
   1   5  21 0.36353 0.98159   1
   1   6   0 1463.92 94.6614   1
   1   6   1 4.55038 0.48626   1
   1   6   2 295.469  35.601   1
   1   6   3 1.25655 0.32965   1
   1   6   4 25.9155 1.61391   1
   1   6   5 11.7692 1.06857   1
   1   6   6 230.057 14.6769   1
   1   6   7 43.5753 3.82973   1
   1   6   8 310.771 25.2082   1
   1   6   9 36.3792 3.30204   1
   1   6  10  24.829 2.47875   1
   1   6  11 103.952 8.59059   1
   1   6  12 2.43248 0.97008   1
   1   6  13 161.003 13.0143   1
   1   6  14 15.1557 5.15465   1
   1   6  15 62.3114 6.67221   1
   1   6  16 5.13793 0.93144   1
   1   6  17 20.8119   2.629   1
   1   6  18  0.4123 0.68018   1
   1   6  19  32.561 4.22884   1
   1   6  20 4.25726 0.92695   1
   1   7   0 36.4318 3.52868   1
   1   7   1 629.256 39.8396   1
   1   7   2 143.337 9.26244   1
   1   7   3 197.148 12.6144   1
   1   7   4 159.819 9.21782   1
   1   7   5 2.12622 0.45048   1
   1   7   6  33.903 3.98015   1
   1   7   7 0.74704 0.46573   1
   1   7   8 53.3706 3.44589   1
   1   7   9 38.4137 3.61109   1
   1   7  10 242.166 14.5059   1
   1   7  11 7.03669 0.93564   1
   1   7  12 206.192  12.342   1
   1   7  13   33.79  2.3021   1
   1   7  14 27.7854  2.5653   1
   1   7  15 15.7332 2.79822   1
   1   7  16 4.70729 0.92166   1
   1   7  17 0.17151 0.69161   1
   1   7  18 24.4149 1.70088   1
   1   7  19 17.4894  2.1359   1
   1   8   0 27.7731   1.968   1
   1   8   1 152.189 8.78911   1
   1   8   2 91.6807 5.26597   1
   1   8   3 333.896 18.6006   1
   1   8   4 121.466 6.87292   1
   1   8   5  132.88  8.1081   1
   1   8   6 5.43584 1.05011   1
   1   8   7 26.0179 1.91116   1
   1   8   8 101.094 6.22044   1
   1   8   9 91.6087 5.66927   1
   1   8  10 83.1416 5.20016   1
   1   8  11 150.197 9.07658   1
   1   8  12 14.3137  1.3676   1
   1   8  13  23.829 1.75709   1
   1   8  14 4.80979 0.94539   1
   1   8  15 0.52877 0.88513   1
   1   8  16 39.3927 2.44639   1
   1   8  17 4.74058  0.8522   1
   1   8  18 55.5944 3.81116   1
   1   9   0 219.631 12.2683   1
   1   9   1 2.14533 0.51481   1
   1   9   2 144.179 8.10099   1
   1   9   3 50.2838 3.01374   1
   1   9   4 51.3092 4.15163   1
   1   9   5 39.6547 6.08269   1
   1   9   6 41.1995 2.78219   1
   1   9   7 42.8358 2.89618   1
   1   9   8 38.3989 2.71083   1
   1   9   9 102.184 10.0777   1
   1   9  10 5.44914 1.33286   1
   1   9  11 112.288 8.14778   1
   1   9  12-0.54601 1.19984   1
   1   9  13 49.9501 2.99623   1
   1   9  14 3.09922 0.82243   1
   1   9  15  17.068 1.36147   1
   1   9  16-0.00756 1.27582   1
   1   9  17 18.3913 2.74094   1
   1  10   0 89.6468 7.63387   1
   1  10   1 5.84691 0.73253   1
   1  10   2   4.634 1.42574   1
   1  10   3 22.2383 3.03951   1
   1  10   4  33.085 2.32718   1
   1  10   5 46.5066 3.08713   1
   1  10   6 314.826 18.7449   1
   1  10   7  2.6177 2.61179   1
   1  10   8 216.618 12.9352   1
   1  10   9 35.0756 2.39086   1
   1  10  10 6.35978 0.93907   1
   1  10  11 1.67487 1.09923   1
   1  10  12 4.28511 1.09256   1
   1  10  13 1.99223 0.80071   1
   1  10  14 61.1132  5.8824   1
   1  10  15 33.8318  4.5374   1
   1  10  16 38.5689 4.24093   1
   1  11   0 62.2761 6.22453   1
   1  11   1 99.6292 5.64537   1
   1  11   2 20.5196 1.53793   1
   1  11   3 24.7022 3.36376   1
   1  11   4 78.5517 5.68135   1
   1  11   5 75.9967 4.77685   1
   1  11   6 25.2137 1.79283   1
   1  11   7 112.929 6.14937   1
   1  11   8 7.28012 0.95437   1
   1  11   9 32.2383 3.03037   1
   1  11  10 29.9893 2.03372   1
   1  11  11 3.67293 0.84802   1
   1  11  12 59.7477 3.38425   1
   1  11  13 2.73275 1.11516   1
   1  11  14 22.6611 3.43344   1
   1  11  15 0.82404 1.27619   1
   1  12   0 8.14314 0.90509   1
   1  12   1 1.32071 0.68326   1
   1  12   2 99.8826 5.76711   1
   1  12   3 54.1879 4.48037   1
   1  12   4 89.4196 4.93008   1
   1  12   5 162.721  11.545   1
   1  12   6 0.80964 0.67227   1
   1  12   7 70.8847 3.99205   1
   1  12   8 3.91893 0.81008   1
   1  12   9 16.6514 2.40229   1
   1  12  10 7.47114 0.93889   1
   1  12  11 20.6778 3.40433   1
   1  12  12 1.57631  0.8986   1
   1  12  13 37.7992 4.51711   1
   1  13   0 63.4937  4.9574   1
   1  13   1 9.23851 1.28979   1
   1  13   2 159.159 8.45963   1
   1  13   3 8.13873 0.89723   1
   1  13   4 68.6797 3.93529   1
   1  13   5  1.9014 0.72534   1
   1  13   6 19.4958 1.47855   1
   1  13   7 0.01869 0.66902   1
   1  13   8  38.588 2.69273   1
   1  13   9 12.0866 1.36814   1
   1  13  10 45.7979  5.0603   1
   1  13  11 27.1739 2.55119   1
   1  14   0 3.13011 0.74407   1
   1  14   1 146.637 8.71089   1
   1  14   2 22.5879 1.82571   1
   1  14   3 53.5033 3.46102   1
   1  14   4 39.2678 2.36831   1
   1  14   5  10.241 0.98963   1
   1  14   6 24.0567 2.00712   1
   1  14   7 6.89032 1.05945   1
   1  14   8 24.7304 2.01576   1
   1  14   9 9.79674  1.8756   1
   1  15   0 25.5267 1.93612   1
   1  15   1 110.074 6.57722   1
   1  15   2 8.47692 1.21276   1
   1  15   3 26.7392 2.55448   1
   1  15   4  2.1534 0.89091   1
   1  15   5 24.8374  2.4079   1
   1  15   6 1.76074  1.2665   1
   2 -18   7  21.473 3.00779   1
   2 -18   8 35.6054 4.29962   1
   2 -18   9 0.94296 1.19738   1
   2 -18  10 18.6178 2.79599   1
   2 -18  11 1.97785 1.24968   1
   2 -18  12  37.937 4.56656   1
   2 -18  13 8.01105  1.8388   1
   2 -17   2 8.07919 1.47415   1
   2 -17   3 78.0433 6.69414   1
   2 -17   4 0.15389 1.24803   1
   2 -17   5 36.8875 2.97917   1
   2 -17   6 0.25223 0.88457   1
   2 -17   7 12.4989 1.43928   1
   2 -17   8 0.48697 0.87506   1
   2 -17   9 52.0812 5.09348   1
   2 -17  10 0.81068 1.00007   1
   2 -17  11 78.2968 18.3232   1
   2 -17  12 36.2537 4.49732   1
   2 -17  13 48.9841 4.40281   1
   2 -17  14 33.8665 4.26619   1
   2 -17  15 7.87311 1.23806   1
   2 -17  16 4.03232 1.04659   1
   2 -17  17 5.30867 1.01957   1
   2 -17  18  4.4559 1.16145   1
   2 -16   1  5.9464 1.39339   1
   2 -16   2 37.2053 3.00262   1
   2 -16   3 2.91265 0.98999   1
   2 -16   4 62.8405 4.87425   1
   2 -16   5  54.186 4.93722   1
   2 -16   6 42.6696 12.1283   1
   2 -16   7 15.9391 2.07537   1
   2 -16   8 16.7822 1.80592   1
   2 -16   9 10.1819 1.43334   1
   2 -16  10 21.7216 1.94816   1
   2 -16  11 69.2391 4.67186   1
   2 -16  12 35.0912 2.40223   1
   2 -16  13 101.695 5.94075   1
   2 -16  14 4.20565 0.85132   1
   2 -16  15  31.417 2.20789   1
   2 -16  16 5.76335 0.87782   1
   2 -16  17 14.1578 1.27051   1
   2 -16  18 11.6409 1.45896   1
   2 -16  19 31.1313 2.64265   1
   2 -16  20 5.39214 1.01802   1
   2 -15   1 22.2433 2.11281   1
   2 -15   2 65.2669 4.06088   1
   2 -15   3 37.3929 2.78761   1
   2 -15   4 71.9277    4.43   1
   2 -15   5 4.89074 1.10429   1
   2 -15   6 21.8301 1.80376   1
   2 -15   7 0.96581 0.80915   1
   2 -15   8 67.5287 7.69517   1
   2 -15   9 15.5079 1.80127   1
   2 -15  10 170.301 13.6548   1
   2 -15  11  1.4663 0.72234   1
   2 -15  12 69.1702 5.11766   1
   2 -15  13 20.4492 2.17981   1
   2 -15  14 6.28923 0.94841   1
   2 -15  15 31.3372 2.23289   1
   2 -15  16  13.931 1.82101   1
   2 -15  17 17.8105 1.48586   1
   2 -15  18 43.8976 5.43175   1
   2 -15  19 22.6551 3.37298   1
   2 -15  20 9.13035 3.48824   1
   2 -15  21 49.5337 3.81516   1
   2 -15  22 0.32515 0.75367   1
   2 -14   1 30.8595 2.22998   1
   2 -14   2 1.05193 0.75223   1
   2 -14   3 2.37684 1.17514   1
   2 -14   4 0.96226 0.76942   1
   2 -14   5 129.688 7.65813   1
   2 -14   6 8.14126 1.87262   1
   2 -14   7 257.887 16.8443   1
   2 -14   8 56.0386 4.26227   1
   2 -14   9 52.4006 3.08216   1
   2 -14  10 30.1728 1.95521   1
   2 -14  11 2.94722 0.69052   1
   2 -14  12 2.31283 0.76868   1
   2 -14  13 31.5716 2.24859   1
   2 -14  14 49.6666 3.19601   1
   2 -14  15 19.3605 2.14747   1
   2 -14  16 128.305 10.3767   1
   2 -14  17 9.16191 1.08263   1
   2 -14  18 63.7476 11.4433   1
   2 -14  19 5.45506  1.1383   1
   2 -14  20 13.4557 4.54326   1
   2 -14  21 2.69633 0.91255   1
   2 -14  22 27.7336 2.40056   1
   2 -14  23 7.11284 1.92236   1
   2 -13   1 91.1197 5.50273   1
   2 -13   2 38.7269 2.46357   1
   2 -13   3 2.15281 0.92801   1
   2 -13   4 2.94946 1.12999   1
   2 -13   5 6.68961 0.96524   1
   2 -13   6 82.4321 7.27991   1
   2 -13   7  244.84 12.5037   1
   2 -13   8 156.016 8.09984   1
   2 -13   9 251.793 12.8305   1
   2 -13  10 3.07218 0.85813   1
   2 -13  11 25.1865 1.88057   1
   2 -13  12 30.6973 3.85143   1
   2 -13  13 3.47237 0.87981   1
   2 -13  14 6.93806 0.95753   1
   2 -13  15 79.0791 4.76069   1
   2 -13  16 1.13959 0.77046   1
   2 -13  17 124.981 7.43813   1
   2 -13  18 19.1383  2.0376   1
   2 -13  19 35.9753 3.09788   1
   2 -13  20 82.6774 6.17054   1
   2 -13  21 3.40063 0.97752   1
   2 -13  22 33.7696 2.81319   1
   2 -13  23 1.75298 0.78128   1
   2 -13  24 2.07205 0.76212   1
   2 -12   1 11.8516 0.96459   1
   2 -12   2 206.027 11.2495   1
   2 -12   3 10.5234  0.8974   1
   2 -12   4 238.736 12.0579   1
   2 -12   5 8.13945 1.22752   1
   2 -12   6 77.0248 4.15875   1
   2 -12   7 0.59828 0.50509   1
   2 -12   8 73.9703 4.29341   1
   2 -12   9 7.46172 0.96316   1
   2 -12  10 155.418 10.7136   1
   2 -12  11  33.467 2.02548   1
   2 -12  12 86.1796 4.57686   1
   2 -12  13 61.9542 4.22436   1
   2 -12  14 6.55317 1.02325   1
   2 -12  15 45.4146 2.94285   1
   2 -12  16 1.90058 0.71561   1
   2 -12  17 53.0289 4.94071   1
   2 -12  18 21.7897 2.38624   1
   2 -12  19 124.326 9.07149   1
   2 -12  20 9.81968 1.93624   1
   2 -12  21 53.2034  3.4431   1
   2 -12  22 4.78532 1.21346   1
   2 -12  23 6.34186 1.05704   1
   2 -12  24 12.3894 1.45934   1
   2 -12  25 9.09945 2.28446   1
   2 -11   1 32.1669 3.33668   1
   2 -11   2 2.52629 0.48978   1
   2 -11   3 534.548 49.7437   1
   2 -11   4 105.318 7.81376   1
   2 -11   5 453.432 32.9321   1
   2 -11   6 54.0371  3.7279   1
   2 -11   7 7.55249 0.73807   1
   2 -11   8 6.77591 1.07751   1
   2 -11   9 5.24497 0.75732   1
   2 -11  10  137.71 7.17718   1
   2 -11  11 42.5974 2.25962   1
   2 -11  12 238.604 12.1215   1
   2 -11  13 24.6093 1.59892   1
   2 -11  14 62.2371  3.9454   1
   2 -11  15 8.40309 1.09138   1
   2 -11  16 49.3458 4.24543   1
   2 -11  17 18.8707 1.74746   1
   2 -11  18  127.68 10.3435   1
   2 -11  19 17.0752 1.49831   1
   2 -11  20 68.5899 6.95686   1
   2 -11  21 17.3996 1.49875   1
   2 -11  22 2.59107 0.73442   1
   2 -11  23 9.91949 1.71937   1
   2 -11  24 0.06317 0.72305   1
   2 -11  25 21.4955 3.97492   1
   2 -10   1 155.763 8.01345   1
   2 -10   2 161.943 8.26486   1
   2 -10   3 308.384 16.9072   1
   2 -10   4 80.9725 4.43131   1
   2 -10   5 209.557  10.715   1
   2 -10   6 7.40762  1.0652   1
   2 -10   7 144.637 7.75643   1
   2 -10   8 7.05196 0.70077   1
   2 -10   9 62.4184 3.60753   1
   2 -10  10 7.69191 0.65172   1
   2 -10  11 78.4485 3.89359   1
   2 -10  12 86.6877 5.37546   1
   2 -10  13 188.576 9.02793   1
   2 -10  14 53.3744 4.18191   1
   2 -10  15 128.707 6.75445   1
   2 -10  16 35.1781 3.09759   1
   2 -10  17 9.61398 1.03978   1
   2 -10  18 67.6463 7.33509   1
   2 -10  19 1.79921 0.66807   1
   2 -10  20 40.7546 3.88107   1
   2 -10  21 5.78593  0.8542   1
   2 -10  22 33.6417 2.34507   1
   2 -10  23-0.25324 1.14662   1
   2 -10  24 30.9923 3.58981   1
   2 -10  25 11.1642    1.99   1
   2 -10  26 26.9876 5.23777   1
   2  -9   1 71.3109 6.77999   1
   2  -9   2 126.755 7.26295   1
   2  -9   3 1.91907 1.61241   1
   2  -9   4 405.492 24.4488   1
   2  -9   5  36.476 2.03969   1
   2  -9   6  415.75 24.2083   1
   2  -9   7 165.189 9.76024   1
   2  -9   8 57.0622 3.18984   1
   2  -9   9 118.011 6.36955   1
   2  -9  10 8.20222 1.31237   1
   2  -9  11  6.1886 0.65813   1
   2  -9  12 37.4623 2.73739   1
   2  -9  13 128.046 6.75094   1
   2  -9  14  38.438 2.04845   1
   2  -9  15 502.961 24.0808   1
   2  -9  16 7.63237 1.08906   1
   2  -9  17 116.868 14.3638   1
   2  -9  18 2.43801 0.94948   1
   2  -9  19 8.81923  1.3119   1
   2  -9  20 14.8403 1.15123   1
   2  -9  21 13.9001 1.04294   1
   2  -9  22 20.0588 1.32888   1
   2  -9  23 129.826 7.74768   1
   2  -9  24 27.1966 2.43874   1
   2  -9  25 19.0215 1.88262   1
   2  -9  26 24.8128 2.18835   1
   2  -8   1 942.451  58.523   1
   2  -8   2 99.3956 7.34504   1
   2  -8   3 2.06721 0.64394   1
   2  -8   4 5.17642  1.0745   1
   2  -8   5 10.3347 0.83054   1
   2  -8   6 377.539 26.2126   1
   2  -8   7 316.736 22.0163   1
   2  -8   8 542.539 37.3652   1
   2  -8   9 86.1671 6.16143   1
   2  -8  10 112.132 10.7117   1
   2  -8  11 102.348 5.54249   1
   2  -8  12 156.672 9.46586   1
   2  -8  13 59.6473 3.77428   1
   2  -8  14 255.828 13.4355   1
   2  -8  15 2.01979 0.60667   1
   2  -8  16 106.994 5.58151   1
   2  -8  17 16.9172  1.1506   1
   2  -8  18 23.8107 1.50019   1
   2  -8  19 45.2224 2.52283   1
   2  -8  20 5.14598 0.63034   1
   2  -8  21 46.9799  2.9769   1
   2  -8  22 0.50321 0.56346   1
   2  -8  23   56.50 3.46501   1
   2  -8  24 0.57606 0.51043   1
   2  -8  25  62.098 3.72422   1
   2  -8  26 1.21579 0.48912   1
   2  -7   1 129.735 11.7471   1
   2  -7   2 91.4029 6.70538   1
   2  -7   3 1673.26 173.325   1
   2  -7   4 84.9968 9.45597   1
   2  -7   5 394.885 42.1451   1
   2  -7   6 74.3126 8.26899   1
   2  -7   7 18.9733  1.5997   1
   2  -7   8 293.346 20.4835   1
   2  -7   9 221.695 23.8901   1
   2  -7  10 23.1333 1.88361   1
   2  -7  11 609.619  79.633   1
   2  -7  12  43.894 2.83179   1
   2  -7  13  74.437 3.93728   1
   2  -7  14  282.00 13.1197   1
   2  -7  15 8.80481 1.06642   1
   2  -7  16 99.8871 5.58027   1
   2  -7  17 5.22723 0.67148   1
   2  -7  18 14.4742 1.27079   1
   2  -7  19 6.67256 0.68906   1
   2  -7  20 69.8662 6.27273   1
   2  -7  21 5.47979 1.04851   1
   2  -7  22  84.475 6.18403   1
   2  -7  23 24.6787 1.78404   1
   2  -7  24 29.3017 1.98638   1
   2  -7  25 23.6005 1.67287   1
   2  -7  26 17.7339 1.31833   1
   2  -7  27 12.7268 1.81041   1
   2  -6   1 102.168 11.3517   1
   2  -6   2 174.712 19.1787   1
   2  -6   3 95.4656 10.6535   1
   2  -6   4 12.9174 1.79457   1
   2  -6   5 112.647 12.4541   1
   2  -6   6  384.08 41.2166   1
   2  -6   7  50.031  5.6847   1
   2  -6   8 221.314 16.0428   1
   2  -6   9 557.123 38.5508   1
   2  -6  10 12.6172 1.78642   1
   2  -6  11 1042.34 94.8036   1
   2  -6  12 5.03434 1.34661   1
   2  -6  13 119.452 16.0694   1
   2  -6  14 45.9143 4.67612   1
   2  -6  15 5.87026 0.55564   1
   2  -6  16 15.9774 1.57034   1
   2  -6  17 116.537 8.81765   1
   2  -6  18 119.775 7.10903   1
   2  -6  19 176.301 10.3218   1
   2  -6  20  31.574 2.16441   1
   2  -6  21 6.36946 0.83776   1
   2  -6  22 14.3586  2.3627   1
   2  -6  23 0.80401  0.5553   1
   2  -6  24 53.3559 4.96379   1
   2  -6  25 9.70832 1.75838   1
   2  -6  26  55.108 6.99068   1
   2  -6  27 1.76301 0.82183   1
   2  -5   1 530.185 57.2102   1
   2  -5   2 1852.21 188.891   1
   2  -5   3 472.903 51.2172   1
   2  -5   4 464.786 50.2627   1
   2  -5   5 15.0324 1.97373   1
   2  -5   6 24.5501 2.96654   1
   2  -5   7 158.475 18.8806   1
   2  -5   8 769.018 136.059   1
   2  -5   9  4.1945 0.56465   1
   2  -5  10 993.447 56.1434   1
   2  -5  11 9.72249 0.76916   1
   2  -5  12 113.085  6.5497   1
   2  -5  13 194.049 11.8697   1
   2  -5  14 35.9853 2.33809   1
   2  -5  15 76.3179 4.66371   1
   2  -5  16 33.7442 2.26932   1
   2  -5  17 14.1676 1.17469   1
   2  -5  18 2.76267 0.61157   1
   2  -5  19 96.6162 11.3191   1
   2  -5  20 0.88772  0.5685   1
   2  -5  21 161.451 10.9147   1
   2  -5  22  0.5886 0.55364   1
   2  -5  23  56.701 4.61375   1
   2  -5  24 5.27326 0.95544   1
   2  -5  25 5.28815 0.70659   1
   2  -5  26 11.7379 1.62368   1
   2  -4   1 925.637 98.2251   1
   2  -4   2 52.1841  6.0337   1
   2  -4   3 43.7557  5.1235   1
   2  -4   4 152.726  17.139   1
   2  -4   5 714.768 40.8756   1
   2  -4   6 78.8014 5.43299   1
   2  -4   7 1442.90 108.161   1
   2  -4   8 472.434 68.1739   1
   2  -4   9 170.445 28.6137   1
   2  -4  10 568.842 52.7608   1
   2  -4  11 4.21677 0.90873   1
   2  -4  12 90.4178  6.8802   1
   2  -4  13 20.6461 1.48284   1
   2  -4  14 49.1402 4.13525   1
   2  -4  15 1.05439 0.48021   1
   2  -4  16 160.866 10.0185   1
   2  -4  17 7.96748 1.01046   1
   2  -4  18  97.084   5.847   1
   2  -4  19 23.0271 1.69202   1
   2  -4  20 36.9822 2.45158   1
   2  -4  21 41.6201  2.7255   1
   2  -4  22  60.376 4.17399   1
   2  -4  23 34.9351 3.23825   1
   2  -4  24 27.9896 1.92328   1
   2  -4  25 7.89777 1.04927   1
   2  -4  26 0.11503 0.43341   1
   2  -3   1 23.8433 2.84561   1
   2  -3   2 803.062 86.2725   1
   2  -3   3 688.969  35.836   1
   2  -3   4  913.68 66.3604   1
   2  -3   5 2120.83  103.96   1
   2  -3   6  2.8398 0.46415   1
   2  -3   7 1482.41 116.069   1
   2  -3   8 3.71694 0.47339   1
   2  -3   9 120.147 8.84917   1
   2  -3  10 47.0561 4.62922   1
   2  -3  11 99.0443 14.1269   1
   2  -3  12 22.2295 2.04338   1
   2  -3  13 385.835 22.1168   1
   2  -3  14 113.087 6.83503   1
   2  -3  15 112.795 7.16566   1
   2  -3  16 47.6586 3.73205   1
   2  -3  17  2.4988 0.86399   1
   2  -3  18 48.8311 3.10806   1
   2  -3  19 22.9865 1.89492   1
   2  -3  20 95.7232 5.85167   1
   2  -3  21 24.4881 2.08844   1
   2  -3  22 83.0861 5.52707   1
   2  -3  23 0.22812 0.54476   1
   2  -3  24 13.2421  1.1283   1
   2  -3  25 2.60904 0.56734   1
   2  -3  26 8.39018  0.8024   1
   2  -2   1 284.729 20.0927   1
   2  -2   2 314.342 16.9882   1
   2  -2   3 58.1747 4.05088   1
   2  -2   4 3727.88 193.773   1
   2  -2   5 22.1744 1.80894   1
   2  -2   6 3661.18 205.902   1
   2  -2   7 118.917 8.15976   1
   2  -2   8 166.583 20.7328   1
   2  -2   9 245.579 27.3164   1
   2  -2  10 13.0323 1.28547   1
   2  -2  11 76.6004 9.03514   1
   2  -2  12 76.9306 6.71797   1
   2  -2  13 76.1418 5.35287   1
   2  -2  14 41.7483 3.03257   1
   2  -2  15 175.992 12.0627   1
   2  -2  16 3.29598 0.54875   1
   2  -2  17 169.372 9.97681   1
   2  -2  18 5.46093 0.74034   1
   2  -2  19 113.698 6.75163   1
   2  -2  20 11.0803 1.89819   1
   2  -2  21 35.4993 2.36964   1
   2  -2  22 2.33317 0.64128   1
   2  -2  23 13.3293  1.2516   1
   2  -2  24 8.45496 0.87339   1
   2  -2  25 14.7467 1.40427   1
   2  -1   1 1874.64  112.42   1
   2  -1   2  425.94 32.0328   1
   2  -1   3 1330.52 72.3436   1
   2  -1   4 904.557 58.3451   1
   2  -1   5 352.458 20.2182   1
   2  -1   6 932.537 76.9339   1
   2  -1   7 283.919 19.2321   1
   2  -1   8 358.806 40.4742   1
   2  -1   9 45.6313 4.90356   1
   2  -1  10  229.51 23.2607   1
   2  -1  11 2.53238 0.40598   1
   2  -1  12 120.445 23.8907   1
   2  -1  13 3.53537 0.57573   1
   2  -1  14 79.5578 5.55334   1
   2  -1  15 33.3787 2.49823   1
   2  -1  16 217.331 28.3055   1
   2  -1  17 102.711 6.71787   1
   2  -1  18 134.015 7.92882   1
   2  -1  19  43.117 2.79337   1
   2  -1  20 3.16244 0.64618   1
   2  -1  21 7.51662 0.87361   1
   2  -1  22 0.27987 0.52231   1
   2  -1  23 19.1865 1.75896   1
   2  -1  24 8.93937 1.05638   1
   2  -1  25 47.4818 9.42288   1
   2   0   0 3414.49 199.076   1
   2   0   1 7992.09  433.39   1
   2   0   2 722.714 41.2016   1
   2   0   3 1385.29  106.96   1
   2   0   4 91.1605 6.45562   1
   2   0   5  7.1384 1.10022   1
   2   0   6 12.6309  1.7448   1
   2   0   7 619.242 41.0722   1
   2   0   8  8.6377 1.16228   1
   2   0   9 1082.60 215.176   1
   2   0  10 45.5676  6.1384   1
   2   0  11 60.1685 4.13266   1
   2   0  12 135.539 11.2025   1
   2   0  14 126.611 8.68689   1
   2   0  15 80.8525 9.32377   1
   2   0  16 120.812   8.198   1
   2   0  17 60.5022 4.25362   1
   2   0  18 128.617 16.1481   1
   2   0  19 0.68581  1.0121   1
   2   0  20 39.9254 3.08018   1
   2   0  21  2.0431 0.97185   1
   2   0  22 12.3449 1.35151   1
   2   0  23 6.17693 0.92311   1
   2   0  24 25.7744 2.07546   1
   2   1   0 2275.19 198.274   1
   2   1   1 51.8416 5.19994   1
   2   1   2 5189.83 330.032   1
   2   1   3 174.456 12.1957   1
   2   1   4 1174.49  254.91   1
   2   1   5 248.871  16.992   1
   2   1   6 2.89317 0.52793   1
   2   1   7 164.027 11.1317   1
   2   1   8  3.2222 1.59448   1
   2   1   9 151.775 10.9361   1
   2   1  10 176.348 11.7314   1
   2   1  11 174.947  11.571   1
   2   1  12 107.592  6.8669   1
   2   1  13 266.631 21.5975   1
   2   1  14 45.9348 3.97953   1
   2   1  15 294.256 19.8235   1
   2   1  16 64.5424  5.4348   1
   2   1  17 47.6292 4.13233   1
   2   1  18 1.53831 0.73905   1
   2   1  19 5.53019 0.96877   1
   2   1  20 1.76462 0.97775   1
   2   1  21 35.3349 2.77647   1
   2   1  22 47.8117 3.50134   1
   2   1  23 28.6042 2.25803   1
   2   1  24 33.5205 2.50135   1
   2   2   0 453.498 73.4304   1
   2   2   1 94.4815 6.67183   1
   2   2   2 503.079 87.0224   1
   2   2   3 250.234 17.1675   1
   2   2   4 915.794 101.058   1
   2   2   5  245.34 42.2006   1
   2   2   6 550.548 45.0378   1
   2   2   7 34.6787 2.82918   1
   2   2   8 55.5065  3.8542   1
   2   2   9 32.2964 3.87032   1
   2   2  10 92.0836  6.2057   1
   2   2  11 160.852 12.4073   1
   2   2  12 506.017 30.0106   1
   2   2  13 61.4058 5.20189   1
   2   2  14 153.773  12.486   1
   2   2  15 7.52441 1.09834   1
   2   2  16 0.89665  0.6554   1
   2   2  17  30.023 2.83738   1
   2   2  18 4.70269 0.96297   1
   2   2  19 84.3872 6.92252   1
   2   2  20 28.7183 2.37844   1
   2   2  21 41.7086 3.14754   1
   2   2  22 0.90436 0.96834   1
   2   2  23 20.6356 1.77805   1
   2   3   0 3.84247 0.66531   1
   2   3   1 117.268 8.18087   1
   2   3   2 7.56418 1.85245   1
   2   3   3 984.839 125.129   1
   2   3   4 11.4326 0.95585   1
   2   3   5 843.608 104.466   1
   2   3   6 51.6346 3.60042   1
   2   3   7 25.7761  4.8782   1
   2   3   8 81.3271 5.52355   1
   2   3   9 18.8717 1.52662   1
   2   3  10 119.703 7.65904   1
   2   3  11 148.966 8.95475   1
   2   3  12 224.139 13.3208   1
   2   3  13 42.5493 7.16199   1
   2   3  14 218.416 12.8945   1
   2   3  15 0.95973 0.58439   1
   2   3  16 36.6823 3.31311   1
   2   3  17 0.08373 0.69259   1
   2   3  18 3.85205 0.88593   1
   2   3  19 7.91058 1.17388   1
   2   3  20 48.5285 11.4466   1
   2   3  21 12.8064 1.34433   1
   2   3  22 56.8314 6.25064   1
   2   4   0 1065.91 121.976   1
   2   4   1 315.559  21.382   1
   2   4   2 110.808 10.7364   1
   2   4   3 70.5053 9.13185   1
   2   4   5 72.6267 4.98144   1
   2   4   6 177.656 11.8541   1
   2   4   7 290.951 19.1732   1
   2   4   8 110.551 10.9528   1
   2   4   9 452.257 47.9876   1
   2   4  10 59.7183 3.72496   1
   2   4  11 219.981 13.0738   1
   2   4  12  54.243 3.40727   1
   2   4  13 30.2138 2.08217   1
   2   4  14 6.75698  0.7954   1
   2   4  15 35.7672 2.41521   1
   2   4  16 5.50765 0.79585   1
   2   4  17 93.5489 5.57038   1
   2   4  18 63.1406  5.2635   1
   2   4  19 13.2895 1.55087   1
   2   4  20 34.5484 5.88091   1
   2   4  21 5.10447 1.45449   1
   2   4  22 24.1305   3.057   1
   2   5   0 817.471 118.209   1
   2   5   1 225.648 18.7757   1
   2   5   2 561.125 37.0132   1
   2   5   3 6.61418 0.91856   1
   2   5   4 34.4624 6.89648   1
   2   5   5 33.7273 2.42572   1
   2   5   6 55.0203 6.14975   1
   2   5   7 90.9448 5.84868   1
   2   5   8 468.866 47.0517   1
   2   5   9 48.9857  4.2793   1
   2   5  10 285.415  23.042   1
   2   5  11 21.7069 2.30191   1
   2   5  13 80.0607 6.73344   1
   2   5  14 3.30892 1.10532   1
   2   5  15 96.4694 7.99836   1
   2   5  16 23.2719 4.40913   1
   2   5  17 22.8971 1.98102   1
   2   5  18 1.17574 0.70204   1
   2   5  19 19.8184 2.33886   1
   2   5  20  5.7909 1.56324   1
   2   5  21 45.8144 5.11012   1
   2   6   0 21.3095 1.60566   1
   2   6   1 192.638 25.2485   1
   2   6   2  14.841 1.68162   1
   2   6   3 53.6653 3.03731   1
   2   6   4 29.3366 1.75454   1
   2   6   5 168.639 10.3087   1
   2   6   6  279.04   32.63   1
   2   6   7  122.98 11.4524   1
   2   6   8  309.48 25.0129   1
   2   6   9 5.19893 0.98355   1
   2   6  10 109.386 9.01951   1
   2   6  11 0.96394 0.88916   1
   2   6  12 32.7426 3.22696   1
   2   6  13 7.96786  1.3724   1
   2   6  14 37.6205 2.70308   1
   2   6  15 4.16171 0.82424   1
   2   6  16 68.9658 3.89137   1
   2   6  17 25.7147  1.7877   1
   2   6  18 35.0468 2.20916   1
   2   6  19 20.0188 2.29606   1
   2   6  20 7.65204 1.64305   1
   2   7   0  79.254 5.19666   1
   2   7   1 40.2463 2.73674   1
   2   7   2  3.0551 0.62134   1
   2   7   3 193.014 10.8653   1
   2   7   4 32.8971 2.21361   1
   2   7   5 280.762   33.71   1
   2   7   6 3.03176 2.26953   1
   2   7   7 177.945 18.6121   1
   2   7   8 18.6876 2.18093   1
   2   7   9 90.7958 5.62872   1
   2   7  10  10.408 1.10368   1
   2   7  11 79.8472 5.02117   1
   2   7  12 20.9747 1.73366   1
   2   7  13 45.7695 6.95819   1
   2   7  14 19.2706 3.12085   1
   2   7  15 3.94633 0.84289   1
   2   7  16 16.6602 2.68763   1
   2   7  17 0.79244 0.72786   1
   2   7  18  53.579 3.68713   1
   2   8   0 87.7312 5.03897   1
   2   8   1 48.9932 3.13107   1
   2   8   2 267.805 19.5096   1
   2   8   3 18.6998 1.35407   1
   2   8   4 271.531 34.1042   1
   2   8   5 171.113 10.3438   1
   2   8   6  89.993 5.57134   1
   2   8   7 48.3119 3.18058   1
   2   8   8 15.0077 1.33953   1
   2   8   9  18.371 2.63096   1
   2   8  10 23.4131 1.94845   1
   2   8  11 60.5987 3.93686   1
   2   8  12 23.8269 2.84556   1
   2   8  13 47.8313 2.88515   1
   2   8  14 0.80521 1.11595   1
   2   8  15 30.3459 2.74363   1
   2   8  16 7.81299 0.94538   1
   2   8  17 42.1858 4.06642   1
   2   8  18 11.5682 1.96649   1
   2   9   0 57.4739 3.39457   1
   2   9   1 46.2792 4.28973   1
   2   9   2 272.912 20.8459   1
   2   9   3 148.103  8.4147   1
   2   9   4 97.8924 9.74405   1
   2   9   5 30.2046 2.74917   1
   2   9   6 37.1854 5.19006   1
   2   9   7 1.11543  0.6902   1
   2   9   8 117.788  7.1884   1
   2   9   9 1.60624 0.75065   1
   2   9  10 71.4044 4.54285   1
   2   9  11 1.29351 0.77851   1
   2   9  12 16.3956 1.37236   1
   2   9  13 9.55973 1.06321   1
   2   9  14 18.5152 2.04042   1
   2   9  15 27.2639  2.2777   1
   2   9  16 31.5915 3.64474   1
   2   9  17  32.882 3.66513   1
   2  10   0 82.7638 6.09771   1
   2  10   1 166.779 9.28727   1
   2  10   2 3.87688 1.67359   1
   2  10   3 179.525 10.7603   1
   2  10   4 59.3601 3.79733   1
   2  10   5 147.549 8.88628   1
   2  10   6 16.8631 1.56982   1
   2  10   7 58.6886 3.82051   1
   2  10   8  2.6444 0.82991   1
   2  10   9 13.2346 1.33642   1
   2  10  10 10.5316 1.11084   1
   2  10  11 14.3069 1.26705   1
   2  10  12 36.1335 5.24988   1
   2  10  13 13.0009 1.29118   1
   2  10  14  56.854  8.5938   1
   2  10  15 2.21212 0.90951   1
   2  11   0 58.4164 4.05712   1
   2  11   1 124.508 11.5778   1
   2  11   2 8.55723 2.13656   1
   2  11   3 7.12289 0.94328   1
   2  11   4 60.7088 5.95904   1
   2  11   5  19.937 1.63249   1
   2  11   6 79.5518 14.4889   1
   2  11   7 117.572 20.3346   1
   2  11   8  8.6633 2.05839   1
   2  11   9 32.0117 4.38687   1
   2  11  10 2.05572 0.75703   1
   2  11  11  5.7851 0.88947   1
   2  11  12 5.00299 1.50731   1
   2  11  13 54.8195 4.71419   1
   2  11  14 3.07111 1.41027   1
   2  12   0 96.5934 5.53046   1
   2  12   1 57.7991 4.16984   1
   2  12   2 92.5477 5.67001   1
   2  12   3 32.7984 4.74419   1
   2  12   4 87.1457 5.37703   1
   2  12   5 3.01022 1.34953   1
   2  12   6 25.7488 1.83648   1
   2  12   7 14.5241 2.41644   1
   2  12   8 13.3629 2.88645   1
   2  12   9 1.04682  1.2009   1
   2  12  10 51.8821 3.65127   1
   2  12  11  40.305 6.38587   1
   2  12  12 30.4485  4.5205   1
   2  13   0 34.7837 6.57382   1
   2  13   1 143.218  11.452   1
   2  13   2 3.74128 2.08844   1
   2  13   3 96.1013 6.34203   1
   2  13   4 1.12834 1.20045   1
   2  13   5 9.07967 1.97131   1
   2  13   6  31.265 2.50192   1
   2  13   7 5.99507 1.09141   1
   2  13   8 36.9017 2.76436   1
   2  13   9 15.0883  1.4697   1
   2  13  10 36.5621 2.69881   1
   2  14   0  48.026  4.1385   1
   2  14   1 72.1447 5.94852   1
   2  14   2  49.735 4.29253   1
   2  14   3 78.9841 6.46531   1
   2  14   4 12.2311 1.33344   1
   2  14   5 5.11707 1.12806   1
   2  14   6  0.6825 1.56612   1
   2  14   7  10.376 1.19016   1
   2  14   8 1.16171 1.35307   1
   2  15   0 44.9878 3.84859   1
   2  15   1 1.13751 0.82346   1
   2  15   2 9.08951 1.27703   1
   2  15   3 4.89293 1.01847   1
   2  15   4 38.8447 3.38317   1
   3 -17   1 3.56787 1.21256   1
   3 -17   2 6.82402 1.40519   1
   3 -17   3 1.55911 1.13694   1
   3 -17   4 42.2801 4.04086   1
   3 -17   5 1.71764 1.11953   1
   3 -17   6 143.132 11.7697   1
   3 -17   7 15.3238 1.94982   1
   3 -17   8   56.89 5.07994   1
   3 -17   9 6.14004 1.14961   1
   3 -17  10 0.39887 0.80855   1
   3 -17  11 23.9519 3.32229   1
   3 -17  12 4.94523 0.82013   1
   3 -17  13 67.9877 4.44751   1
   3 -17  14 29.6737 2.58361   1
   3 -17  15 28.7539 6.03357   1
   3 -17  16 0.61572 0.76941   1
   3 -17  17 15.7582 2.05435   1
   3 -17  18 7.90073 1.40446   1
   3 -16   1 1.68788 1.11053   1
   3 -16   2 11.9601 3.69286   1
   3 -16   3 35.5849 5.91244   1
   3 -16   4 113.941 19.7568   1
   3 -16   5  74.219 5.18015   1
   3 -16   6 61.3904   4.383   1
   3 -16   7 7.70586 1.07502   1
   3 -16   8 8.96782 1.35883   1
   3 -16   9 1.68107 0.95785   1
   3 -16  10 23.8915  4.6236   1
   3 -16  11 4.87832  0.8714   1
   3 -16  12 71.5865  6.8863   1
   3 -16  13 18.2031    3.82   1
   3 -16  14 61.6762 3.75517   1
   3 -16  15 33.2276 2.77386   1
   3 -16  16 23.0956  1.7912   1
   3 -16  17  1.4783 0.87101   1
   3 -16  18 16.8725  4.8417   1
   3 -16  19 9.27221 1.25212   1
   3 -15   1  40.516 3.20374   1
   3 -15   2 22.3293 2.11033   1
   3 -15   3 4.50116 1.12498   1
   3 -15   4 11.3115  1.4516   1
   3 -15   5 119.215 8.02118   1
   3 -15   6 2.02264 0.77058   1
   3 -15   7  290.27 16.6809   1
   3 -15   8 10.8037 1.21741   1
   3 -15   9 31.1908 1.97437   1
   3 -15  10 36.3542 2.19233   1
   3 -15  11 5.60331 0.79072   1
   3 -15  12 14.4451  1.3306   1
   3 -15  13 16.4477 1.84726   1
   3 -15  14 6.25089 1.83758   1
   3 -15  15 68.5575 5.83062   1
   3 -15  16 103.035 5.99997   1
   3 -15  17 11.8662  1.2209   1
   3 -15  18 115.938 17.5193   1
   3 -15  19 3.06005 0.93108   1
   3 -15  20 7.83623 1.16547   1
   3 -15  21 1.80511 0.99889   1
   3 -14   1 28.6425 2.00372   1
   3 -14   2 314.491 16.9621   1
   3 -14   3 53.5309 4.07721   1
   3 -14   4  73.963 4.55481   1
   3 -14   5 2.01733 1.25705   1
   3 -14   6 11.2435  1.2074   1
   3 -14   7 19.7144 2.84177   1
   3 -14   8 35.2427 3.47332   1
   3 -14   9 192.272 9.83338   1
   3 -14  10 127.822 6.64349   1
   3 -14  11 68.1334 3.70006   1
   3 -14  12 2.08204 0.65831   1
   3 -14  13 12.8272  1.0856   1
   3 -14  14 65.4405 4.02066   1
   3 -14  15 92.3073 6.07733   1
   3 -14  16 1.30761 0.71934   1
   3 -14  17  144.82 8.31278   1
   3 -14  18 1.68042 0.94099   1
   3 -14  19 35.9926 8.89898   1
   3 -14  20 16.0522 2.86472   1
   3 -14  21 0.76036  0.8056   1
   3 -14  22   41.61 5.05518   1
   3 -14  23 2.01303 0.84247   1
   3 -13   1  82.172 4.68754   1
   3 -13   2 10.0188 1.43077   1
   3 -13   3 35.8761 2.48713   1
   3 -13   4 89.0468 4.64288   1
   3 -13   5 42.3316  2.8181   1
   3 -13   6 240.647 19.1514   1
   3 -13   7 0.43893 0.57866   1
   3 -13   8 42.8788 2.46767   1
   3 -13   9 81.9243 4.38638   1
   3 -13  10 11.4204 1.83087   1
   3 -13  11 16.0113  1.4469   1
   3 -13  12 121.442 6.83409   1
   3 -13  13 4.78847 0.72666   1
   3 -13  14 138.249 7.95357   1
   3 -13  15 62.2521 3.84348   1
   3 -13  16 16.4344 1.41629   1
   3 -13  17 164.164 10.4919   1
   3 -13  18 1.48622 0.94411   1
   3 -13  19 27.0303 2.50168   1
   3 -13  20 3.34029 0.99105   1
   3 -13  21 2.29374 0.91054   1
   3 -13  22 0.42262 0.73915   1
   3 -13  23 30.7449 7.00029   1
   3 -13  24 5.74866 1.05149   1
   3 -12   1 240.718 13.1032   1
   3 -12   2 9.26584 0.92911   1
   3 -12   3  171.64 8.65295   1
   3 -12   4   5.359 0.65364   1
   3 -12   5 39.6643 5.10238   1
   3 -12   6 21.6926 1.54054   1
   3 -12   7 50.9227 2.84787   1
   3 -12   8 22.2924 1.48255   1
   3 -12   9  69.739 3.76638   1
   3 -12  10 59.3495 3.26302   1
   3 -12  11 19.4408 1.36328   1
   3 -12  12 241.951 15.6559   1
   3 -12  13 7.04687 0.92389   1
   3 -12  14 160.637 9.28175   1
   3 -12  15 11.5801 1.73006   1
   3 -12  16 6.19915 0.90312   1
   3 -12  17 0.82284 0.67381   1
   3 -12  18 12.5068 1.51699   1
   3 -12  19 22.1292  2.1713   1
   3 -12  20 94.8246 5.83312   1
   3 -12  21 29.7181  2.1281   1
   3 -12  22 33.6988 2.31173   1
   3 -12  23 8.70912 0.92819   1
   3 -12  24 0.32924 0.50319   1
   3 -11   1 1.27918 0.74569   1
   3 -11   2 84.0493 5.82179   1
   3 -11   3 163.312  8.3731   1
   3 -11   4 94.2322 5.68519   1
   3 -11   5 243.539 12.9698   1
   3 -11   6 23.4666 1.57899   1
   3 -11   7 26.5062 1.62355   1
   3 -11   8 7.73743 0.68738   1
   3 -11   9 45.4189 3.11671   1
   3 -11  10 2.24926 0.45612   1
   3 -11  11 304.935  15.531   1
   3 -11  12 0.62333 0.68505   1
   3 -11  13 255.288 13.0287   1
   3 -11  14 17.2374 3.12272   1
   3 -11  15 40.0612 6.71289   1
   3 -11  16 26.1334 1.90455   1
   3 -11  17 5.07602 1.22843   1
   3 -11  18 22.1415 2.92068   1
   3 -11  19 6.57245 0.93892   1
   3 -11  20 47.3745 3.11559   1
   3 -11  21 9.22589 1.22666   1
   3 -11  22 62.9716 8.27779   1
   3 -11  23 4.18746 0.81738   1
   3 -11  24 39.0457  9.4388   1
   3 -11  25 0.35079 0.63775   1
   3 -10   1 36.0348 2.22311   1
   3 -10   2 432.572 41.9524   1
   3 -10   3 1.12295 0.39184   1
   3 -10   4 140.236  8.6979   1
   3 -10   5 32.8719 1.76308   1
   3 -10   6 22.6358 2.21334   1
   3 -10   7 6.85587 0.80904   1
   3 -10   8 158.596 8.46087   1
   3 -10   9 22.2112 1.66039   1
   3 -10  10 291.922 15.3435   1
   3 -10  11 165.179 12.1963   1
   3 -10  12 67.7418 6.91572   1
   3 -10  13 137.992 7.28216   1
   3 -10  14 2.37325 0.62262   1
   3 -10  15 28.6879 1.76128   1
   3 -10  16 1.17174 0.50885   1
   3 -10  17 44.9713 3.01161   1
   3 -10  18 2.66202 0.67883   1
   3 -10  19 46.6659 3.57933   1
   3 -10  20 3.89514 0.75304   1
   3 -10  21 52.2496 3.38189   1
   3 -10  22 26.0655 2.25092   1
   3 -10  23 50.5067 3.77062   1
   3 -10  24 15.2162 5.40426   1
   3 -10  25 22.6096 5.29735   1
   3  -9   1 190.319 10.5782   1
   3  -9   2  57.707 4.09079   1
   3  -9   3 125.081 6.48229   1
   3  -9   4 77.3797 4.07389   1
   3  -9   5 70.7503 5.05034   1
   3  -9   6 172.173 10.1592   1
   3  -9   7 37.3815 4.76531   1
   3  -9   8 345.401 18.1935   1
   3  -9   9 51.7514  2.9586   1
   3  -9  10 172.381 9.59028   1
   3  -9  11 19.5993 1.34558   1
   3  -9  12 75.7748 4.11723   1
   3  -9  13 1.63833 0.57877   1
   3  -9  14 140.117 6.82202   1
   3  -9  15 21.0992 1.30374   1
   3  -9  16 101.861 11.5284   1
   3  -9  17 30.4001 2.18983   1
   3  -9  18 11.6934 1.15926   1
   3  -9  19 21.9822 2.48307   1
   3  -9  20 16.1757 1.71669   1
   3  -9  21 29.3744 2.95533   1
   3  -9  22 31.5781 2.22008   1
   3  -9  23 67.7667 8.43356   1
   3  -9  24 6.12684 1.39805   1
   3  -9  25 42.5172 3.39798   1
   3  -9  26 0.38919 0.75792   1
   3  -8   1 62.4231 4.11055   1
   3  -8   2 6.05703 0.59955   1
   3  -8   4 7.40828 1.56397   1
   3  -8   5 480.263 47.3302   1
   3  -8   6 25.1558 1.63094   1
   3  -8   7 882.185 142.594   1
   3  -8   8 40.4035 3.07071   1
   3  -8   9 254.225 17.5957   1
   3  -8  10 84.4326 5.10416   1
   3  -8  11 43.0699 2.81132   1
   3  -8  12 5.49834 0.58632   1
   3  -8  13 48.8969 2.74602   1
   3  -8  14 48.7456 2.52489   1
   3  -8  15 42.5007 2.52866   1
   3  -8  16 160.217 9.78842   1
   3  -8  17 11.9277 1.32919   1
   3  -8  18 62.4681 5.95966   1
   3  -8  19 0.29067 0.44436   1
   3  -8  20 42.3236 4.42688   1
   3  -8  21  1.8534 0.50986   1
   3  -8  22  105.13 6.16851   1
   3  -8  23 1.57334  0.5687   1
   3  -8  24  38.346 4.12163   1
   3  -8  25 3.81862  0.8579   1
   3  -8  26 4.17149 1.58627   1
   3  -7   1 35.8943   2.766   1
   3  -7   2 78.8763 5.79577   1
   3  -7   3 17.5723 1.50658   1
   3  -7   4 7.82797 0.83634   1
   3  -7   5 109.131 7.91206   1
   3  -7   6  503.54 50.1697   1
   3  -7   7 345.833  24.063   1
   3  -7   8 697.123 47.9278   1
   3  -7   9 204.883 14.2941   1
   3  -7  10 12.4202  2.2561   1
   3  -7  11 118.037 7.19641   1
   3  -7  12 31.8437 2.18017   1
   3  -7  13 115.245 6.14291   1
   3  -7  14 13.1977 0.86722   1
   3  -7  15 48.9143 2.50752   1
   3  -7  16 4.29564 0.50852   1
   3  -7  17 94.5288 4.99364   1
   3  -7  18 63.0529 4.71338   1
   3  -7  19  190.34 9.75642   1
   3  -7  20 57.3963 3.57692   1
   3  -7  21 37.7407 3.37068   1
   3  -7  22 6.29676 1.01172   1
   3  -7  23 0.61979  0.5381   1
   3  -7  24 9.72603 1.43298   1
   3  -7  25   5.613 1.03573   1
   3  -7  26 27.8974 5.18569   1
   3  -6   1 183.383 13.2907   1
   3  -6   2 784.937 82.7878   1
   3  -6   3 745.082 78.6761   1
   3  -6   4 980.349 102.674   1
   3  -6   5 123.885  13.602   1
   3  -6   6 98.3776 10.8361   1
   3  -6   7 26.5231  3.2016   1
   3  -6   8 215.664 16.0818   1
   3  -6   9 5.84515   1.168   1
   3  -6  10 673.711 46.2554   1
   3  -6  11 13.4242 1.28854   1
   3  -6  12 165.058 9.99024   1
   3  -6  13  62.908 4.78852   1
   3  -6  14 5.52954 0.51303   1
   3  -6  15 128.264 6.97609   1
   3  -6  16 48.8317 3.53675   1
   3  -6  17 39.5218 4.30898   1
   3  -6  18 130.568  8.6485   1
   3  -6  19 77.6751 5.00499   1
   3  -6  20 9.48825 1.33639   1
   3  -6  21  109.94 6.77779   1
   3  -6  22 1.56197 0.61614   1
   3  -6  23 14.4016 1.23177   1
   3  -6  24  1.0523  0.5201   1
   3  -6  25 6.75328 0.77048   1
   3  -6  26 6.01893 0.96626   1
   3  -5   1 1171.78 122.172   1
   3  -5   2 7.91811 1.26963   1
   3  -5   3 1984.78 203.222   1
   3  -5   4 81.4917  9.1286   1
   3  -5   5 656.735 69.7096   1
   3  -5   6 45.9341 5.26816   1
   3  -5   7 159.353 11.6481   1
   3  -5   8 21.4732 1.74932   1
   3  -5   9 62.1524 5.11757   1
   3  -5  10 253.185 14.4755   1
   3  -5  11 96.0966 5.59031   1
   3  -5  12 225.962 24.3273   1
   3  -5  13 80.3847 7.62416   1
   3  -5  14 27.1013 2.92744   1
   3  -5  15 0.22417 0.30351   1
   3  -5  16 124.704 6.62738   1
   3  -5  17   24.83 1.59012   1
   3  -5  18  307.59 17.8897   1
   3  -5  19   0.794 0.55278   1
   3  -5  20 50.9331 3.21593   1
   3  -5  21  0.2478 0.75653   1
   3  -5  22  0.0745 0.52092   1
   3  -5  23 21.2152 1.60654   1
   3  -5  24 23.5494 1.67238   1
   3  -5  25 31.5438  2.8301   1
   3  -5  26 17.1369 4.89962   1
   3  -4   1  96.508 5.91556   1
   3  -4   2 792.183 84.2361   1
   3  -4   3 660.956 70.7059   1
   3  -4   4 1518.46 97.2418   1
   3  -4   5 647.201 49.9713   1
   3  -4   6  112.03 8.31662   1
   3  -4   7 447.591 32.1993   1
   3  -4   8 9.29004 0.90639   1
   3  -4   9 157.709 22.2331   1
   3  -4  10 15.9212 4.33184   1
   3  -4  11 46.2954 3.45944   1
   3  -4  12 1.28227 0.46951   1
   3  -4  13 258.937 16.9629   1
   3  -4  14 83.9126 5.11052   1
   3  -4  15 357.687 18.8793   1
   3  -4  16 41.9943 2.42342   1
   3  -4  17 31.6432 1.92104   1
   3  -4  18 15.6798 1.70251   1
   3  -4  19 0.51379 0.54446   1
   3  -4  20 44.6827 2.87532   1
   3  -4  21 39.9809  2.6076   1
   3  -4  22 51.0936 7.06009   1
   3  -4  23  11.158 1.94998   1
   3  -4  24 22.4949  1.6036   1
   3  -4  25 9.82837 1.36285   1
   3  -4  26 18.7505 2.30861   1
   3  -3   1 200.465 12.2581   1
   3  -3   2 42.1178  2.6689   1
   3  -3   3 93.0542 5.00908   1
   3  -3   4 427.715 22.3707   1
   3  -3   5 4.14136 0.56455   1
   3  -3   6 2281.47 129.149   1
   3  -3   7 25.6773   2.044   1
   3  -3   8 307.966 22.2445   1
   3  -3   9 43.2333 3.28026   1
   3  -3  10 33.4952 3.50905   1
   3  -3  11 152.967 11.0022   1
   3  -3  12 110.284 5.80628   1
   3  -3  13 133.438 8.04434   1
   3  -3  14 271.993 16.0631   1
   3  -3  15 226.955 11.9996   1
   3  -3  16 19.7342 1.33068   1
   3  -3  17 141.822 9.55935   1
   3  -3  18 6.07634 1.33667   1
   3  -3  19 7.95289  1.2687   1
   3  -3  20 1.82887 0.61216   1
   3  -3  21 19.9254 1.55826   1
   3  -3  22  2.0308 0.86227   1
   3  -3  23 87.6259  5.1681   1
   3  -3  24 6.84336 0.79062   1
   3  -3  25 29.1726   2.365   1
   3  -2   1 1239.27  62.575   1
   3  -2   2 93.3293 5.11212   1
   3  -2   3 1087.79 97.6066   1
   3  -2   4 112.472 6.02884   1
   3  -2   5 237.156 13.5211   1
   3  -2   6  353.30 23.8204   1
   3  -2   7 68.5255 5.14353   1
   3  -2   8 270.644 21.5717   1
   3  -2   9 150.141 14.9233   1
   3  -2  10 117.224 12.3201   1
   3  -2  11 4.39817 1.07922   1
   3  -2  12 280.733  19.171   1
   3  -2  13 43.4328  4.7653   1
   3  -2  14 350.642 23.6908   1
   3  -2  15 0.67446 0.43553   1
   3  -2  16   82.63 4.50902   1
   3  -2  17 0.91675  0.5132   1
   3  -2  18 25.4805 2.20705   1
   3  -2  19 28.9829 2.03989   1
   3  -2  20  32.099 2.50549   1
   3  -2  21 45.8856 5.44083   1
   3  -2  22 7.34183 1.13677   1
   3  -2  23 27.5814 1.88096   1
   3  -2  24 0.99717 0.50032   1
   3  -2  25 30.3873 3.61607   1
   3  -1   1 1869.06 136.813   1
   3  -1   2 889.432 80.8671   1
   3  -1   3 1457.28 93.7666   1
   3  -1   4 5.06773 0.52178   1
   3  -1   5 152.302 10.4649   1
   3  -1   6 4.03698 1.68473   1
   3  -1   7 16.1089 1.23316   1
   3  -1   8   0.613 0.28189   1
   3  -1   9 530.112 34.8153   1
   3  -1  10  52.818 3.96542   1
   3  -1  11 828.036 58.3521   1
   3  -1  12  82.926 8.11071   1
   3  -1  13 83.4863 12.7385   1
   3  -1  14 63.3712 5.82803   1
   3  -1  15 1.24633 0.42873   1
   3  -1  16 72.8148 5.07195   1
   3  -1  17 41.7628   4.819   1
   3  -1  18 47.2274 3.02901   1
   3  -1  19 20.9419 1.61562   1
   3  -1  20 23.8946 1.77384   1
   3  -1  21 3.39143 0.70668   1
   3  -1  22 38.2914 2.90419   1
   3  -1  23 9.44747  1.1103   1
   3  -1  24 50.6791 3.58283   1
   3   0   0  666.88  52.589   1
   3   0   1  60.126 3.58337   1
   3   0   2 1621.41 178.444   1
   3   0   3 26.8485 4.36009   1
   3   0   4 529.594 35.4794   1
   3   0   5 7.10591 0.67614   1
   3   0   6 26.8937  1.9574   1
   3   0   7 275.198 18.4052   1
   3   0   8 143.888  20.847   1
   3   0   9 487.082 86.5524   1
   3   0  10 204.939 13.5451   1
   3   0  11 288.489 23.5215   1
   3   0  12 41.2206  3.6003   1
   3   0  13 65.0339 7.00119   1
   3   0  14 2.75044  0.6617   1
   3   0  15 59.2237 4.21049   1
   3   0  16 2.18712 0.53562   1
   3   0  17 107.386  7.2823   1
   3   0  18 7.50304  1.1383   1
   3   0  19 61.1041 5.29114   1
   3   0  20 8.31356 1.13619   1
   3   0  21 12.3357 1.35094   1
   3   0  22 23.0496  2.1439   1
   3   0  23 14.4198 2.22242   1
   3   0  24 37.8932 2.75649   1
   3   1   0 739.734 61.8272   1
   3   1   1 1717.66 311.641   1
   3   1   2 305.733 20.8652   1
   3   1   3 107.506 10.2501   1
   3   1   4 114.794 19.0175   1
   3   1   5 2.67788 0.55127   1
   3   1   6 190.986 14.1893   1
   3   1   7 240.785 16.0738   1
   3   1   8  481.82 50.3557   1
   3   1   9 8.65057 0.90241   1
   3   1  10 502.731 26.7963   1
   3   1  11 63.4643 5.38662   1
   3   1  12 183.123 14.9181   1
   3   1  13 28.3639 2.63557   1
   3   1  14 55.7638  3.9883   1
   3   1  15 6.02446 1.30377   1
   3   1  16 19.8652 2.08389   1
   3   1  17 14.6906   1.682   1
   3   1  18 9.19588 1.26113   1
   3   1  19 63.7555 5.15304   1
   3   1  20 18.9954 1.79514   1
   3   1  21 85.3087 8.14366   1
   3   1  22 5.29872 1.09179   1
   3   1  23 38.2972 2.81848   1
   3   2   0 66.5396 4.68745   1
   3   2   1 94.5554 12.1957   1
   3   2   2 138.147 9.51767   1
   3   2   3 349.927 36.4739   1
   3   2   4 98.6369 9.18317   1
   3   2   5 708.348 73.3946   1
   3   2   6 229.178 15.3089   1
   3   2   7 461.381 30.3404   1
   3   2   8 274.522 20.6665   1
   3   2   9 85.6826 5.78524   1
   3   2  10 27.5156  1.9679   1
   3   2  11 50.5833 4.35445   1
   3   2  12 33.6822 3.03332   1
   3   2  13 72.5791 6.07382   1
   3   2  14  143.21 11.6067   1
   3   2  15 18.5513 2.01137   1
   3   2  16 58.8208 4.99873   1
   3   2  17 2.59228 0.83103   1
   3   2  18 20.8031  2.1978   1
   3   2  19 7.11054  1.0797   1
   3   2  20 55.2872 4.01412   1
   3   2  21  10.618 2.74412   1
   3   2  22 72.3778 7.80006   1
   3   2  23 5.08064 1.43544   1
   3   3   0 341.707 23.0812   1
   3   3   1 23.2287  1.7249   1
   3   3   2 12.0935 1.52433   1
   3   3   3 417.385 27.7834   1
   3   3   4 241.417 16.1575   1
   3   3   5 346.853 22.9764   1
   3   3   6 363.766 23.9784   1
   3   3   7 96.7235 13.8598   1
   3   3   8 47.3674  3.3188   1
   3   3   9 164.311  12.694   1
   3   3  10-0.10358 1.15962   1
   3   3  11  271.19 16.0661   1
   3   3  12 1.46662 0.50735   1
   3   3  13 93.1732 7.67478   1
   3   3  14 1.37566 0.73598   1
   3   3  15 7.59716  1.1578   1
   3   3  16 6.49551 1.09557   1
   3   3  17 33.4583 3.08336   1
   3   3  18 41.8827 3.67451   1
   3   3  19 69.6263 5.74322   1
   3   3  20 56.5621  4.0631   1
   3   3  21 10.6793 1.21448   1
   3   3  22 22.9845 3.01304   1
   3   4   0 7.80605 0.73777   1
   3   4   1 16.3382 4.14223   1
   3   4   2 181.117 12.1846   1
   3   4   3 401.047 26.5276   1
   3   4   4 803.627 99.7987   1
   3   4   5 0.76848 0.37277   1
   3   4   6 555.244 36.2427   1
   3   4   7 140.834 9.33903   1
   3   4   8 115.567 8.75585   1
   3   4   9  19.585 4.77764   1
   3   4  10 41.8992 3.06714   1
   3   4  11  1.9413 0.52228   1
   3   4  12 53.5364 3.39201   1
   3   4  13 20.4306  3.0197   1
   3   4  14  39.808 3.92762   1
   3   4  15 113.998 9.23567   1
   3   4  16 12.4903 1.55535   1
   3   4  17 83.3457 5.53867   1
   3   4  18-0.07995 0.63447   1
   3   4  19 33.5478 3.01371   1
   3   4  20 1.15703 0.69236   1
   3   4  21 21.1635  2.8611   1
   3   5   0 13.1456 1.11631   1
   3   5   1 313.079 35.3263   1
   3   5   2 259.276  17.191   1
   3   5   3 34.3769 5.69917   1
   3   5   4  88.666 5.98802   1
   3   5   5 150.302 9.96397   1
   3   5   6    8.19 0.82453   1
   3   5   7 321.205 26.0707   1
   3   5   8 146.268  8.7763   1
   3   5   9 84.4657 6.74818   1
   3   5  10 186.859 11.0858   1
   3   5  11 7.75864 0.88687   1
   3   5  12 12.1068 1.36904   1
   3   5  13 0.86811 0.62958   1
   3   5  14 16.0193 1.37005   1
   3   5  15 1.43823   0.676   1
   3   5  16 133.098 7.53372   1
   3   5  17  8.1509 1.58932   1
   3   5  20 1.77736 1.13374   1
   3   6   0 687.839 44.9037   1
   3   6   1 230.604 15.2262   1
   3   6   2 414.217 35.2875   1
   3   6   3 164.007 9.43407   1
   3   6   4 3.59837 0.57428   1
   3   6   5  262.53 15.8388   1
   3   6   6 14.8315 1.25915   1
   3   6   7 205.286  12.366   1
   3   6   8 14.7104 1.25303   1
   3   6   9 55.1389 4.20939   1
   3   6  10 15.1573 1.34477   1
   3   6  11 24.8098 1.97696   1
   3   6  12 17.2155 2.88112   1
   3   6  13 65.8907 9.97189   1
   3   6  14  93.774 5.77969   1
   3   6  15 54.9258 6.01258   1
   3   6  16 51.2699 3.71069   1
   3   6  17 6.21412 0.83969   1
   3   6  18 11.5527 2.00116   1
   3   7   0 306.289 21.1397   1
   3   7   1  8.7401 1.09737   1
   3   7   2  409.70 60.4156   1
   3   7   3 1.04191 0.82558   1
   3   7   4 167.621 13.6969   1
   3   7   5 2.71842 0.58253   1
   3   7   6 63.8084 5.47165   1
   3   7   7 26.5738 1.96453   1
   3   7   8 41.7304 2.81389   1
   3   7   9 28.5848 2.14336   1
   3   7  10 34.7563 2.50612   1
   3   7  11 51.0733 3.37927   1
   3   7  12 14.8382 2.16181   1
   3   7  13  78.231 5.22265   1
   3   7  14 0.61374 0.74255   1
   3   7  15 53.4905 3.10777   1
   3   7  16 0.76536  0.6676   1
   3   7  17 30.3894 3.04177   1
   3   7  18 1.25788 1.16625   1
   3   8   0 7.88688 2.04733   1
   3   8   1 102.119 7.18077   1
   3   8   2 90.5242 7.35986   1
   3   8   3 289.506 23.3537   1
   3   8   4 271.644 21.8901   1
   3   8   5 97.5865 8.09913   1
   3   8   6 31.9857 3.11517   1
   3   8   7 6.35567 1.36435   1
   3   8   8 0.67598 1.26972   1
   3   8   9 0.72842 0.70887   1
   3   8  10 89.7325 5.55421   1
   3   8  11 6.01683 2.05015   1
   3   8  12 195.971 11.6457   1
   3   8  13 6.03713 1.42623   1
   3   8  14 39.2379 3.07121   1
   3   8  15 23.0537 3.18094   1
   3   8  16 1.24365 0.87693   1
   3   8  17 8.76335 1.63461   1
   3   9   0 3.03715 2.99742   1
   3   9   1 158.022 10.9199   1
   3   9   2 5.78337 0.98379   1
   3   9   3 86.4568 7.20486   1
   3   9   4 10.4171 1.45633   1
   3   9   5 86.4604 7.23765   1
   3   9   6 0.26861 0.99096   1
   3   9   7  64.129  5.5554   1
   3   9   8 8.79186 1.52337   1
   3   9   9  31.029 3.19034   1
   3   9  10 62.0355 5.40744   1
   3   9  11 24.6974 2.80715   1
   3   9  12 47.1527  4.2681   1
   3   9  13 17.1115 1.68002   1
   3   9  14 15.1083 1.53913   1
   3   9  15 10.8046 2.67676   1
   3   9  16 20.2191  2.6111   1
   3  10   0 246.759 16.8044   1
   3  10   1 39.0521 3.09412   1
   3  10   2 49.0489 4.33656   1
   3  10   3 39.4381 3.64277   1
   3  10   4 15.2375 1.86712   1
   3  10   5 1.66599 1.06745   1
   3  10   6 35.0563 3.45964   1
   3  10   7 38.8732 3.70151   1
   3  10   8 36.5288 3.54742   1
   3  10   9 123.787   10.06   1
   3  10  10  2.7397 1.27776   1
   3  10  11 42.2729 4.01749   1
   3  10  12 5.62108 1.11677   1
   3  10  13 19.2232 2.62434   1
   3  10  14 0.13484 0.84973   1
   3  11   0 107.183 7.98069   1
   3  11   1 123.367 10.0344   1
   3  11   2 7.74888 1.31708   1
   3  11   3-0.32061  0.9484   1
   3  11   4  16.547 1.99433   1
   3  11   5  3.5807 1.18146   1
   3  11   6 118.368 9.63555   1
   3  11   7  4.3883  1.3358   1
   3  11   8 82.9511 6.90434   1
   3  11   9 1.52043 0.98208   1
   3  11  10 19.2967 1.79963   1
   3  11  11 22.7777  1.9891   1
   3  11  12 20.2558 2.05193   1
   3  12   0 5.77515 1.13047   1
   3  12   1 23.3722 2.51533   1
   3  12   2 0.17567 1.01744   1
   3  12   3 59.9988 5.19082   1
   3  12   4 0.57237 1.07447   1
   3  12   5 50.1326 4.50753   1
   3  12   6 43.2961 4.63333   1
   3  12   7  22.601 2.04345   1
   3  12   8 73.6514 4.96467   1
   3  12   9 16.8416 1.64059   1
   3  12  10 16.0114 5.15664   1
   3  12  11 6.28996 1.56152   1
   3  13   0  43.024 3.86116   1
   3  13   1 1.32613 1.00261   1
   3  13   2 18.7113 1.78447   1
   3  13   3  60.459 4.15668   1
   3  13   4 14.0174 1.46204   1
   3  13   5 84.0394 5.57862   1
   3  13   6  5.8383 1.04392   1
   3  13   7 16.4859 1.57222   1
   3  13   8 0.91958  1.0222   1
   3  13   9 27.9214 3.24562   1
   3  14   0 38.8242 3.50942   1
   3  14   1 4.44888 1.10881   1
   3  14   2 82.3518 6.71694   1
   3  14   3  6.0612 1.23855   1
   3  14   4  36.543 2.69296   1
   3  14   5 9.14546 1.57549   1
   3  14   6 24.1917  2.6092   1
   3  15   0 0.74653 0.86214   1
   3  15   1 49.6813 4.19408   1
   3  15   2 29.7659 2.77256   1
   4 -17   1 56.1176 5.01607   1
   4 -17   2  1.1341 1.10638   1
   4 -17   3 32.4392 5.94123   1
   4 -17   4 19.8402 6.53604   1
   4 -17   5 36.6427  5.6204   1
   4 -17   6 58.9851 5.24952   1
   4 -17   7 19.4331 1.87072   1
   4 -17   8  22.804 2.46754   1
   4 -17   9-0.73798 0.99307   1
   4 -17  10 11.5211 1.63776   1
   4 -17  11-0.50485 0.90449   1
   4 -17  12  48.218 3.35281   1
   4 -17  13 0.88472 0.96755   1
   4 -17  14 82.0248 7.72532   1
   4 -17  15 2.60424 1.09717   1
   4 -17  16  52.076 5.08644   1
   4 -17  17  4.2764 1.11422   1
   4 -16   1  35.861 3.66611   1
   4 -16   2 19.5725 3.06626   1
   4 -16   3  39.194 3.07784   1
   4 -16   4 9.75471 1.38138   1
   4 -16   5 66.3196 7.37552   1
   4 -16   6 1.02387 0.96154   1
   4 -16   7 60.2204 4.65779   1
   4 -16   8 1.95502 0.96277   1
   4 -16   9 23.2434 2.16359   1
   4 -16  10 0.75696 1.74695   1
   4 -16  11  28.524 1.98576   1
   4 -16  12 33.7181 4.34884   1
   4 -16  13 73.4754 4.53037   1
   4 -16  14 52.9138 3.92616   1
   4 -16  15 38.1517 3.42503   1
   4 -16  16 16.1338 1.34908   1
   4 -16  17 2.09672 0.84441   1
   4 -16  18 16.7394 1.70196   1
   4 -16  19-0.67906  0.8615   1
   4 -15   1 22.0146 1.68781   1
   4 -15   2 84.2676 4.77107   1
   4 -15   3 9.21848 2.24939   1
   4 -15   4  203.91 16.8665   1
   4 -15   5 51.7425 3.82808   1
   4 -15   6  19.004 2.89061   1
   4 -15   7 17.8701 2.04113   1
   4 -15   8 8.17885 1.27544   1
   4 -15   9 26.5291 2.55634   1
   4 -15  10 44.5225 2.80084   1
   4 -15  11 59.9348 3.79468   1
   4 -15  12 87.5527 4.59502   1
   4 -15  13  79.362  4.7274   1
   4 -15  14 2.08344 0.71533   1
   4 -15  15 79.7902 5.49916   1
   4 -15  16 19.0864 1.52898   1
   4 -15  17 37.0265 3.08606   1
   4 -15  18 0.28704 0.87314   1
   4 -15  19 9.72734 1.51856   1
   4 -15  20 2.54527 0.85339   1
   4 -15  21   9.937 1.47193   1
   4 -14   1 72.5161 4.19877   1
   4 -14   2 15.0665 1.53264   1
   4 -14   3 1.42067 0.70376   1
   4 -14   4 2.86895 0.99656   1
   4 -14   5 3.40566 0.99148   1
   4 -14   6 87.4834 6.01331   1
   4 -14   7 34.5027  2.7972   1
   4 -14   8 234.443 21.1341   1
   4 -14   9  1.0815 0.66011   1
   4 -14  10  72.765 3.92012   1
   4 -14  11 48.6677 2.74805   1
   4 -14  12 29.7009 1.88053   1
   4 -14  13 0.99063  0.5962   1
   4 -14  14 59.6305 3.25049   1
   4 -14  15  0.7859 0.68958   1
   4 -14  16 36.9983 2.46433   1
   4 -14  17 91.1807 13.8275   1
   4 -14  18  7.0712 1.20393   1
   4 -14  19 79.7177 5.88829   1
   4 -14  20 0.97604 1.51032   1
   4 -14  21 3.40415 1.40809   1
   4 -14  22 0.53693  0.7936   1
   4 -13   1 304.567 17.1157   1
   4 -13   2 1.67468 0.65084   1
   4 -13   3 151.295 8.31841   1
   4 -13   4 8.50842 0.92998   1
   4 -13   5 6.84164 1.09197   1
   4 -13   6 7.59775  1.1598   1
   4 -13   7 19.6793 2.22221   1
   4 -13   8 56.6916 3.43273   1
   4 -13   9 363.687 18.4081   1
   4 -13  10 57.0396 3.37018   1
   4 -13  11 130.727 7.34807   1
   4 -13  12  31.508 1.94979   1
   4 -13  13 14.8729 1.15219   1
   4 -13  14 71.5926 4.74939   1
   4 -13  15 0.61571 0.67022   1
   4 -13  16 54.6245 3.41655   1
   4 -13  17 20.5864 2.11406   1
   4 -13  18 21.8179 2.18692   1
   4 -13  19 3.25335  1.7165   1
   4 -13  20 53.2328 4.08374   1
   4 -13  21 35.2173 2.88994   1
   4 -13  22 65.6178 4.83171   1
   4 -13  23 8.45952 1.28655   1
   4 -12   1 31.5139 2.07482   1
   4 -12   2 18.1129 1.48064   1
   4 -12   3 14.0926 1.19632   1
   4 -12   4 15.5746 2.25085   1
   4 -12   5 85.8619 4.85531   1
   4 -12   6 110.834 8.40294   1
   4 -12   7 121.898 6.92777   1
   4 -12   8 33.7411 2.00542   1
   4 -12   9 101.529 8.64272   1
   4 -12  10 6.45733 0.75781   1
   4 -12  11 207.623 12.3219   1
   4 -12  12  0.6474 0.53004   1
   4 -12  13 103.128 5.40231   1
   4 -12  14 0.93261 0.62613   1
   4 -12  15 3.38046 1.21257   1
   4 -12  16  39.296 2.60338   1
   4 -12  17 15.1919 1.69896   1
   4 -12  18 53.2322 5.85646   1
   4 -12  19 82.7853 5.54899   1
   4 -12  20 27.1569 1.99827   1
   4 -12  21 21.5263 1.65346   1
   4 -12  22 48.0059 3.06567   1
   4 -12  23 0.62925 0.48976   1
   4 -12  24 27.9608 2.23256   1
   4 -11   1 1.20467 0.77455   1
   4 -11   2 194.996  10.671   1
   4 -11   3 12.8164 2.11126   1
   4 -11   4 467.289  25.621   1
   4 -11   5 1.22872 0.71715   1
   4 -11   6 108.384 5.69428   1
   4 -11   7 17.8717 1.73739   1
   4 -11   8 31.9891 1.75133   1
   4 -11   9 0.93675    0.43   1
   4 -11  10 152.313 8.58353   1
   4 -11  11 20.6902 3.28803   1
   4 -11  12 126.104 8.80484   1
   4 -11  13 182.628 10.8612   1
   4 -11  14 14.4227 1.25213   1
   4 -11  15 35.1577 2.34657   1
   4 -11  16 1.05341  0.6507   1
   4 -11  17 2.59604 0.83761   1
   4 -11  18 -0.2189 0.96656   1
   4 -11  19 107.275 6.56138   1
   4 -11  20 3.37592 0.73902   1
   4 -11  21 174.514 14.0313   1
   4 -11  22 0.44483 0.52768   1
   4 -11  23 8.53333  1.1374   1
   4 -11  24 8.82335  2.7027   1
   4 -10   1  4.5794 0.62605   1
   4 -10   2 1.12527 1.74733   1
   4 -10   3 65.6142  4.3593   1
   4 -10   4 92.6765 4.83349   1
   4 -10   5 634.513 34.5228   1
   4 -10   6 166.661 8.52124   1
   4 -10   7 241.386 11.6322   1
   4 -10   8 74.2349  3.9695   1
   4 -10   9 7.88512 0.67224   1
   4 -10  10 97.0475 4.73607   1
   4 -10  11 1.06635 0.41304   1
   4 -10  12 82.1339 4.55931   1
   4 -10  13 25.8008 1.81634   1
   4 -10  14 56.8006 3.71443   1
   4 -10  15 1.80882 0.54132   1
   4 -10  16  88.873 14.1752   1
   4 -10  17 38.0481 3.26138   1
   4 -10  18  84.718 9.15914   1
   4 -10  19 22.0414 2.22853   1
   4 -10  20 19.3993 1.58888   1
   4 -10  21 15.0025 3.44095   1
   4 -10  22 16.3635 1.60142   1
   4 -10  23 20.7013 2.79106   1
   4 -10  24 9.35995 1.25349   1
   4 -10  25 20.3499 2.48002   1
   4  -9   1 230.328  17.107   1
   4  -9   2 123.949 7.76813   1
   4  -9   3 139.549 9.42581   1
   4  -9   4 19.3115 2.27295   1
   4  -9   5 120.074 6.18974   1
   4  -9   6 0.33965 0.34314   1
   4  -9   7 480.152 43.7515   1
   4  -9   8 11.7079 1.10651   1
   4  -9   9 318.225 15.2318   1
   4  -9  10 0.51506 0.35266   1
   4  -9  11  2.9236 0.51556   1
   4  -9  12 51.8867 2.66884   1
   4  -9  13 10.3734 0.80303   1
   4  -9  14 69.9657 3.79975   1
   4  -9  15 189.346 14.1956   1
   4  -9  16 87.9158 6.55556   1
   4  -9  17 77.9857 6.42411   1
   4  -9  18 95.1342 8.78443   1
   4  -9  19 0.76923 0.62694   1
   4  -9  20 31.2946 2.22856   1
   4  -9  21 1.68146 0.61785   1
   4  -9  22 17.7992 2.24506   1
   4  -9  23 0.46837 0.71917   1
   4  -9  24 41.7133 6.70703   1
   4  -9  25 0.56315 0.62846   1
   4  -8   1 6.03452 1.16655   1
   4  -8   2 275.911 14.0928   1
   4  -8   3 0.56413 0.44434   1
   4  -8   4 78.8236  6.0061   1
   4  -8   5 9.67731 1.13937   1
   4  -8   6 325.384 16.5233   1
   4  -8   7 122.491 7.26718   1
   4  -8   8 323.652  18.839   1
   4  -8   9 210.007 15.4367   1
   4  -8  10 36.9364 2.78664   1
   4  -8  11 27.4293 1.66459   1
   4  -8  12 3.49173 0.46684   1
   4  -8  13 29.4104 2.16367   1
   4  -8  14 1.23995 0.48326   1
   4  -8  15 245.497 16.9188   1
   4  -8  16 10.4166 1.09066   1
   4  -8  17 186.581 14.8805   1
   4  -8  18 0.50568 0.58694   1
   4  -8  19 27.2508 2.75531   1
   4  -8  20 13.5786  1.8744   1
   4  -8  21 7.16278 0.92199   1
   4  -8  22 19.3119 2.54277   1
   4  -8  23 18.2435 1.88927   1
   4  -8  24 15.9841 1.67578   1
   4  -8  25 12.7654 1.65882   1
   4  -7   1 423.163 29.8372   1
   4  -7   2 255.115   18.14   1
   4  -7   3 598.627 107.606   1
   4  -7   4 357.981 20.2897   1
   4  -7   5  91.279 5.33001   1
   4  -7   6 227.809 12.9844   1
   4  -7   7 10.3344  1.3442   1
   4  -7   8 79.7287 5.70482   1
   4  -7   9 0.14091 0.45292   1
   4  -7  10 115.099 9.30631   1
   4  -7  11 12.6404 1.20045   1
   4  -7  12 294.657 15.3959   1
   4  -7  13 14.7006 1.93943   1
   4  -7  14 159.376  9.9207   1
   4  -7  15 102.655 6.47135   1
   4  -7  16 29.4079 1.75454   1
   4  -7  17 50.5005 4.66413   1
   4  -7  18 35.1324 2.04968   1
   4  -7  19 12.3695  1.3279   1
   4  -7  20 21.1637 2.53778   1
   4  -7  21 23.7532  1.7287   1
   4  -7  22 0.56501 0.55069   1
   4  -7  23 36.5711 3.55128   1
   4  -7  24 1.53675  0.5203   1
   4  -7  25 34.0771 2.79278   1
   4  -6   1 259.531 18.5704   1
   4  -6   2 4.32856 0.58685   1
   4  -6   3 486.973 90.9014   1
   4  -6   4 3.00075 0.60927   1
   4  -6   5 485.364  51.366   1
   4  -6   6 11.3464 1.10988   1
   4  -6   7 125.051 12.6566   1
   4  -6   8 21.6201 2.80079   1
   4  -6   9 15.1874   1.384   1
   4  -6  10  238.28 16.4848   1
   4  -6  11 126.836 7.70932   1
   4  -6  12 251.235 16.0858   1
   4  -6  13 150.762 8.38444   1
   4  -6  14 53.1093 3.15203   1
   4  -6  15 26.3783 2.15458   1
   4  -6  16  26.131 1.91516   1
   4  -6  17 2.53973 0.51079   1
   4  -6  18 123.797  12.329   1
   4  -6  19 3.08654 0.68903   1
   4  -6  20 90.8753 9.91693   1
   4  -6  21 0.38544 0.56672   1
   4  -6  22 4.78316 0.74396   1
   4  -6  23 7.89003 0.87406   1
   4  -6  24 6.25704  0.9053   1
   4  -6  25 29.6412 2.49852   1
   4  -5   1 62.7512 7.03166   1
   4  -5   2 2072.88 142.585   1
   4  -5   3 378.236 30.8674   1
   4  -5   4 439.962 31.2559   1
   4  -5   5 199.155 37.1634   1
   4  -5   6 20.1035 1.50406   1
   4  -5   7 22.9572 1.48717   1
   4  -5   8  8.3323 1.18857   1
   4  -5   9 133.038 7.69534   1
   4  -5  10 133.795 11.6916   1
   4  -5  11 487.791 45.3024   1
   4  -5  12  4.6091 0.67906   1
   4  -5  13 336.278 16.1411   1
   4  -5  14 48.8156 2.52117   1
   4  -5  15 71.5781 3.56577   1
   4  -5  16 13.9038 1.01215   1
   4  -5  17 17.4111 1.20828   1
   4  -5  18 0.88012 0.54349   1
   4  -5  19  12.872 1.19548   1
   4  -5  20   29.51 2.75371   1
   4  -5  21 26.3222 1.92193   1
   4  -5  22 60.9516 6.41878   1
   4  -5  23 18.1562  2.4354   1
   4  -5  24 41.0517 2.55938   1
   4  -5  25 0.56017 0.64975   1
   4  -4   1 326.142 23.7762   1
   4  -4   2 449.143 26.5236   1
   4  -4   3 5.69481 0.67168   1
   4  -4   4 142.715  14.504   1
   4  -4   5 22.6509 2.13356   1
   4  -4   6 272.147 17.8714   1
   4  -4   7 4.50282 1.61036   1
   4  -4   8 532.503 30.6508   1
   4  -4   9 99.5212 8.60326   1
   4  -4  10 275.114 19.5593   1
   4  -4  11 157.778 8.25321   1
   4  -4  12 86.1952 7.78482   1
   4  -4  13 35.5614 1.88104   1
   4  -4  14 102.522 5.63937   1
   4  -4  15 29.5842 2.25287   1
   4  -4  16   38.24 4.61191   1
   4  -4  17 100.854 6.04163   1
   4  -4  18 0.55941 0.53972   1
   4  -4  19 47.2338 3.02629   1
   4  -4  20 2.90935 0.66096   1
   4  -4  21 18.6737 2.05051   1
   4  -4  22 4.67623 0.74203   1
   4  -4  23  75.283 8.37427   1
   4  -4  24 3.04994 0.58185   1
   4  -4  25 54.5415 7.18334   1
   4  -3   1 986.183 50.1099   1
   4  -3   2 1.01884 0.72123   1
   4  -3   3 259.913 14.4708   1
   4  -3   4 75.7697 5.68536   1
   4  -3   5 83.0784 11.0847   1
   4  -3   6 282.906 19.5171   1
   4  -3   7 179.155 13.5557   1
   4  -3   8 212.654 20.4269   1
   4  -3   9 253.718 15.3878   1
   4  -3  10 112.736 8.16155   1
   4  -3  11 80.8307 16.5783   1
   4  -3  12 179.309 11.5993   1
   4  -3  13 0.74653 0.36753   1
   4  -3  14 312.665 16.9658   1
   4  -3  15 8.35322 1.21425   1
   4  -3  16 51.4351 3.26525   1
   4  -3  17 0.55139 0.52399   1
   4  -3  18 1.15069 0.56616   1
   4  -3  19 6.00402 0.82304   1
   4  -3  20 52.2057 7.41897   1
   4  -3  21 54.1821 6.07625   1
   4  -3  22 88.9384 8.66782   1
   4  -3  23 51.0987 3.11546   1
   4  -3  24 3.96478 0.65662   1
   4  -3  25 16.3425  2.0385   1
   4  -2   1 5.09541 0.75002   1
   4  -2   2 189.524 11.2179   1
   4  -2   3 5.21928  0.6695   1
   4  -2   4 198.055 11.8556   1
   4  -2   5 827.283 54.2322   1
   4  -2   6 355.725  24.947   1
   4  -2   7 1006.88 89.9376   1
   4  -2   8 11.3765 0.89454   1
   4  -2   9 226.919 15.1325   1
   4  -2  10 122.251 8.89956   1
   4  -2  11 71.2809 11.3379   1
   4  -2  12 1.50045 0.50284   1
   4  -2  13 140.413 8.33863   1
   4  -2  14 2.09136 0.47005   1
   4  -2  15 68.8036 3.80609   1
   4  -2  16 66.5407 7.15696   1
   4  -2  17 17.0346 2.00273   1
   4  -2  18 117.862 7.02297   1
   4  -2  19 7.25656 0.90518   1
   4  -2  20 45.7896 5.00049   1
   4  -2  21-0.15474 0.89775   1
   4  -2  22 36.5354  2.3651   1
   4  -2  23 0.23692 0.45434   1
   4  -2  24 31.3666 2.34962   1
   4  -1   1 19.2374  1.2044   1
   4  -1   2  221.17 15.0676   1
   4  -1   3 88.9891 6.14042   1
   4  -1   4 197.732 24.5996   1
   4  -1   5  67.281 3.83827   1
   4  -1   6  373.90 24.5151   1
   4  -1   7 32.0463 3.14509   1
   4  -1   8  565.08 50.7547   1
   4  -1   9 124.419 9.00381   1
   4  -1  10 267.709 15.0094   1
   4  -1  11 206.743 11.5489   1
   4  -1  12 4.55999 0.69212   1
   4  -1  13 73.3508 5.11255   1
   4  -1  14 3.46616 0.54399   1
   4  -1  15 13.8605 1.67252   1
   4  -1  16 8.25766 1.01349   1
   4  -1  17 75.4314 4.59343   1
   4  -1  18 0.39695 0.54981   1
   4  -1  19  185.72  10.798   1
   4  -1  20 21.4445 1.61251   1
   4  -1  21 58.5839 4.19044   1
   4  -1  22 11.2261 2.60423   1
   4  -1  23 1.33662 0.64631   1
   4   0   0 82.7036 10.1787   1
   4   0   1 1350.45 87.3129   1
   4   0   2 245.718 16.6677   1
   4   0   3 746.604 59.9707   1
   4   0   4 251.197 18.5678   1
   4   0   5 3.48133 0.43347   1
   4   0   6  308.49 36.2913   1
   4   0   7 12.1658 1.40384   1
   4   0   8 383.485 34.5439   1
   4   0   9 78.1752  6.8266   1
   4   0  10 333.453 27.0841   1
   4   0  11 7.04273  0.9216   1
   4   0  12 62.7225 6.17388   1
   4   0  13 5.71777 1.68751   1
   4   0  14 13.0479 1.09699   1
   4   0  15  31.966 3.09282   1
   4   0  16 87.1581  12.571   1
   4   0  17 72.7643 5.08336   1
   4   0  18 111.095 15.4002   1
   4   0  19 42.1429 8.35781   1
   4   0  20 6.87632 1.40855   1
   4   0  21 15.7815 1.55213   1
   4   0  22 0.57268 0.62598   1
   4   0  23 18.6129 1.80081   1
   4   1   0 13.3827  1.0752   1
   4   1   1 598.825 51.9174   1
   4   1   2 62.1676 7.26123   1
   4   1   3 899.658 80.7807   1
   4   1   4 93.2868 6.38456   1
   4   1   5  335.52 22.2722   1
   4   1   6 6.87404 0.70278   1
   4   1   7 134.732 9.00007   1
   4   1   8 107.849 7.22026   1
   4   1   9 280.235 22.8279   1
   4   1  10 26.0718 2.41272   1
   4   1  11 96.6291 7.99384   1
   4   1  12 10.0855 1.25943   1
   4   1  13  8.8377 1.20902   1
   4   1  14  90.181 7.43217   1
   4   1  15 10.7573 1.37526   1
   4   1  16 132.342 10.6727   1
   4   1  17 5.24415 0.95952   1
   4   1  18 70.6601 5.85781   1
   4   1  19 0.44957  0.7085   1
   4   1  20  33.582 2.66009   1
   4   1  21 0.36779 0.65082   1
   4   1  22 24.7513 3.21437   1
   4   2   0 395.813 31.9016   1
   4   2   1 2.73349 0.40249   1
   4   2   2 339.517 43.8544   1
   4   2   3  91.215 8.57413   1
   4   2   4 472.929 53.8643   1
   4   2   5 540.154 35.4337   1
   4   2   6  390.79 46.6929   1
   4   2   7 138.173 15.6761   1
   4   2   8 12.2245 1.41013   1
   4   2   9 2.18847 0.57429   1
   4   2  10 10.8737 1.30299   1
   4   2  11 76.6593 6.40412   1
   4   2  12 23.7946 2.32955   1
   4   2  13 204.713 16.4487   1
   4   2  14 4.87843 0.98091   1
   4   2  15 145.917 11.7478   1
   4   2  16 34.4773 3.18451   1
   4   2  17 17.1491 1.95913   1
   4   2  18 24.2859   2.417   1
   4   2  19 17.2299 2.75228   1
   4   2  20  6.0221  1.8048   1
   4   2  21 31.3762 2.43579   1
   4   2  22 12.7232 2.06802   1
   4   3   0 136.456 9.25316   1
   4   3   1 87.1795 5.95647   1
   4   3   2 177.301 13.1179   1
   4   3   3 115.059 9.33392   1
   4   3   4 375.734  38.553   1
   4   3   5 249.389 17.9603   1
   4   3   6 423.345 38.9875   1
   4   3   7 0.76972 0.39445   1
   4   3   8 133.725 8.16625   1
   4   3   9 23.3834 1.68145   1
   4   3  10 9.18338 1.19828   1
   4   3  11 9.52677 1.27023   1
   4   3  12 56.6713 4.86065   1
   4   3  13 62.8348  5.3413   1
   4   3  14 156.487 12.5898   1
   4   3  15 65.3827 5.50852   1
   4   3  16 34.5403 3.17361   1
   4   3  17 28.7127 2.72157   1
   4   3  18 0.23854 0.67997   1
   4   3  19 24.2925 2.32903   1
   4   3  20 0.46948 0.68708   1
   4   3  21 25.9059  3.2817   1
   4   4   0 250.489 16.6804   1
   4   4   1 769.517 50.2645   1
   4   4   2  19.536 1.53481   1
   4   4   3 152.132 13.9227   1
   4   4   4 257.079 23.2231   1
   4   4   5 104.692 7.00448   1
   4   4   6  3.0608 0.47595   1
   4   4   7 91.9054 5.61111   1
   4   4   8  10.993 1.53866   1
   4   4   9 56.2921 3.55373   1
   4   4  10 139.563 8.33741   1
   4   4  11 26.0534 1.91516   1
   4   4  12 223.813  25.723   1
   4   4  13 0.48838 0.71305   1
   4   4  14 38.0509  3.4234   1
   4   4  15-0.01784 0.68846   1
   4   4  16 37.3811 3.34651   1
   4   4  17 0.31878 0.65598   1
   4   4  18 60.5708 5.00301   1
   4   4  19 0.96278 0.67365   1
   4   4  20 17.1648 2.58131   1
   4   5   0  130.59 8.72982   1
   4   5   1 335.399 45.0069   1
   4   5   2 725.875 47.2502   1
   4   5   3 56.2637 3.70298   1
   4   5   4 103.015 6.58594   1
   4   5   5 9.96409 1.29641   1
   4   5   6 30.8936 2.07748   1
   4   5   7 161.894 9.66809   1
   4   5   8 3.86678 1.22537   1
   4   5   9 214.111 12.6656   1
   4   5  10 20.7886 1.61783   1
   4   5  11 56.7643 4.25141   1
   4   5  12 16.9186  1.4053   1
   4   5  13 39.8078 2.66153   1
   4   5  14 43.4074 3.78891   1
   4   5  15 59.7219 4.99551   1
   4   5  16 15.6067 1.78466   1
   4   5  17 28.3305  2.1863   1
   4   5  19 2.27771 1.22585   1
   4   6   0 470.655 29.3762   1
   4   6   1 47.4334 2.88278   1
   4   6   2 258.381  16.385   1
   4   6   3 43.6462  3.8467   1
   4   6   4 57.8666 4.99028   1
   4   6   5 3.97076 0.93207   1
   4   6   6 30.1303 2.92124   1
   4   6   7 1.34588 0.86526   1
   4   6   8 88.1919 7.39755   1
   4   6   9 111.561 9.21058   1
   4   6  10 125.742 10.3053   1
   4   6  11  106.77 8.81885   1
   4   6  12 24.7882 2.80383   1
   4   6  13 13.3988 1.82147   1
   4   6  14 1.42936 1.11349   1
   4   6  15 28.9114 2.90028   1
   4   6  16 0.73105 1.37305   1
   4   6  17 35.4465 3.91171   1
   4   7   0 60.0069 5.12221   1
   4   7   1 131.072 9.15403   1
   4   7   2 7.06204 1.05401   1
   4   7   3 63.1652 5.39348   1
   4   7   4 5.32116 1.00072   1
   4   7   5 50.9078 4.50394   1
   4   7   6 194.485 15.7242   1
   4   7   7 34.8528 3.38199   1
   4   7   8  96.822 8.07307   1
   4   7   9 0.82477 1.04075   1
   4   7  10 27.2221 2.93954   1
   4   7  11 0.22511 1.07357   1
   4   7  12 100.282 8.26001   1
   4   7  13 2.26544 1.14958   1
   4   7  14 69.1639 5.83933   1
   4   7  15 0.02296 0.86052   1
   4   7  16 3.26788 1.60501   1
   4   7  17 9.11525 1.79602   1
   4   8   0 39.4306 3.04819   1
   4   8   1 45.2127 3.42709   1
   4   8   2 1.03438 0.78359   1
   4   8   3 126.054 10.3147   1
   4   8   4 17.3695 1.96338   1
   4   8   5 93.5385   7.794   1
   4   8   6 3.36147  1.0956   1
   4   8   7 46.0253 4.21958   1
   4   8   8 12.2106  1.7131   1
   4   8   9 64.3233 5.57382   1
   4   8  10 26.3529 2.84408   1
   4   8  11 63.3345 5.46813   1
   4   8  12 21.5131  2.4046   1
   4   8  13 23.3552 2.65661   1
   4   8  14  9.3377 3.06067   1
   4   8  15 4.10225 0.95193   1
   4   8  16 7.53203 1.70303   1
   4   9   0 14.3396 1.50539   1
   4   9   1 7.66327 1.25025   1
   4   9   2 73.8416 6.25166   1
   4   9   3 0.60592  0.9039   1
   4   9   4 140.918 11.4583   1
   4   9   5 74.0604 6.31638   1
   4   9   6 57.5574 5.09692   1
   4   9   7 53.5726 4.78474   1
   4   9   8 7.68169 1.50321   1
   4   9   9 41.9473 3.95723   1
   4   9  10 12.8674 1.80617   1
   4   9  11 52.2914 4.66802   1
   4   9  12 8.62776 1.51847   1
   4   9  13 19.5135 1.78503   1
   4   9  14 0.03549 0.78737   1
   4  10   0 15.7702 4.12008   1
   4  10   1 24.0191 2.55435   1
   4  10   2  70.433 6.00509   1
   4  10   3 26.7286 2.85334   1
   4  10   4 50.0411 4.51647   1
   4  10   5 5.42939 1.32911   1
   4  10   6 65.6196 5.67312   1
   4  10   7-0.23248 1.09746   1
   4  10   8 97.2276 8.02873   1
   4  10   9-1.62528  1.0636   1
   4  10  10 27.3587 2.94199   1
   4  10  11 0.80229 0.94541   1
   4  10  12  7.2948 1.16213   1
   4  10  13 3.94528 1.53698   1
   4  11   0 15.5882 1.85011   1
   4  11   1 39.2506 3.65936   1
   4  11   2 2.26603 1.07998   1
   4  11   3 24.1768 2.72564   1
   4  11   4 4.91308 1.31914   1
   4  11   5 79.5388 6.69379   1
   4  11   6 8.02388   1.508   1
   4  11   7 81.9439 6.81989   1
   4  11   8 27.5649 2.95031   1
   4  11   9 17.4819 1.69475   1
   4  11  10 12.7587  1.4292   1
   4  11  11 0.13232 0.84624   1
   4  12   0 182.852 14.5812   1
   4  12   1 13.1817 1.74548   1
   4  12   2  39.549 3.67652   1
   4  12   3 52.6242 4.60921   1
   4  12   4 0.33301 1.10972   1
   4  12   5 75.0628 6.28193   1
   4  12   6  9.9047 1.57363   1
   4  12   7 29.7932 2.40212   1
   4  12   8 20.9513 1.89921   1
   4  12   9 8.93515 2.05131   1
   4  13   0 20.7566 2.36793   1
   4  13   1 6.11374 1.31876   1
   4  13   2 85.0989 6.99013   1
   4  13   3 17.4982 1.64219   1
   4  13   4 93.5639 6.12857   1
   4  13   5 0.32304 0.82642   1
   4  13   6 20.8141 1.81926   1
   4  13   7  15.502 2.29479   1
   4  14   0  3.5005 1.08496   1
   4  14   1 75.1804 6.17208   1
   4  14   2 18.7895 2.16186   1
   4  14   3 69.3749 5.68959   1
   4  14   4 26.5578 2.61146   1
   4  15   0 3.15746 0.96697   1
   5 -17   1 1.20251 1.47457   1
   5 -17   2 7.62036 3.58768   1
   5 -17   3 30.0748 3.16294   1
   5 -17   4 3.79725 1.03475   1
   5 -17   5 93.2912 9.87278   1
   5 -17   6 1.77622 0.92528   1
   5 -17   7 42.6158 3.23742   1
   5 -17   8 0.12837  0.8531   1
   5 -17   9 11.1361 1.34627   1
   5 -17  10 0.75366 0.77597   1
   5 -17  13 89.4707 8.35139   1
   5 -17  14 33.2473 3.51934   1
   5 -17  15 26.3841 2.96913   1
   5 -17  16 34.2822 3.57654   1
   5 -16   1  0.7082 0.95926   1
   5 -16   2  3.3212 2.46084   1
   5 -16   3 0.15321 0.96076   1
   5 -16   4 20.6583 1.99892   1
   5 -16   5 13.5297 2.31782   1
   5 -16   6 130.747 18.8513   1
   5 -16   7 31.8167 6.32975   1
   5 -16   8 81.2184 7.35279   1
   5 -16   9 10.4332 1.35014   1
   5 -16  10 5.73212 1.10969   1
   5 -16  11 19.0305 1.46916   1
   5 -16  12 4.65288 0.77363   1
   5 -16  13 71.1102 4.72163   1
   5 -16  14 10.0347 1.13526   1
   5 -16  15  55.044 5.44103   1
   5 -16  16  0.1723 1.03156   1
   5 -16  17 16.3302  2.1222   1
   5 -16  18 3.38968 1.09415   1
   5 -15   1 29.7503 2.07935   1
   5 -15   2 13.4151 1.23899   1
   5 -15   3 5.09908 1.34471   1
   5 -15   4 18.1534 1.85106   1
   5 -15   5 14.4501 1.62018   1
   5 -15   6 63.3551 6.52252   1
   5 -15   7  31.556 2.66715   1
   5 -15   8 115.279 7.71365   1
   5 -15   9 15.7547 1.65442   1
   5 -15  10 80.6014  4.6445   1
   5 -15  11 0.64271 0.63235   1
   5 -15  12 20.0805 2.11205   1
   5 -15  13 11.7398 1.77595   1
   5 -15  14 16.1099 2.69835   1
   5 -15  15 8.29887 1.61267   1
   5 -15  16 42.3902 4.37849   1
   5 -15  17 18.8543 2.51295   1
   5 -15  18 39.5404 4.07934   1
   5 -15  20 10.7312 1.58412   1
   5 -14   1 95.3402 5.57273   1
   5 -14   2 7.70773 0.95302   1
   5 -14   3 180.349 9.84397   1
   5 -14   4 4.17844 1.06159   1
   5 -14   5 30.4566 2.58046   1
   5 -14   6 1.09305 0.90019   1
   5 -14   7 23.4587 2.18755   1
   5 -14   8 15.7963 1.34829   1
   5 -14   9 192.181 15.9203   1
   5 -14  10  43.835 3.93231   1
   5 -14  11 128.223 7.18559   1
   5 -14  12 18.8463 1.46964   1
   5 -14  13 4.22777 0.76018   1
   5 -14  14 12.1748 1.30881   1
   5 -14  15 7.76445 1.06358   1
   5 -14  16 68.8532 5.16075   1
   5 -14  17 26.0525 2.35791   1
   5 -14  18 118.353 8.48658   1
   5 -14  19 14.4143 1.53669   1
   5 -14  20 41.5917 3.32335   1
   5 -14  21 10.8769 1.54784   1
   5 -13   1 20.8096 1.61345   1
   5 -13   2 59.7501 3.53847   1
   5 -13   3 18.2569 1.43922   1
   5 -13   4 72.2437 4.14338   1
   5 -13   5 19.6413 2.24648   1
   5 -13   6 98.6366 6.72066   1
   5 -13   7  66.682 3.93505   1
   5 -13   8 36.3242  2.3732   1
   5 -13   9 98.0759 5.60828   1
   5 -13  10 1.20787 0.63698   1
   5 -13  11 56.7424 7.22675   1
   5 -13  12 0.41629 0.58652   1
   5 -13  13 22.0237 2.81626   1
   5 -13  14 6.66959 1.03914   1
   5 -13  15 46.9943 2.98897   1
   5 -13  16 15.4612   1.708   1
   5 -13  17 73.7396 5.51201   1
   5 -13  18 73.2206 5.45843   1
   5 -13  19 65.3103 6.69314   1
   5 -13  20 9.62568 2.03314   1
   5 -13  21 9.54708 2.30308   1
   5 -13  22 1.97077 0.92775   1
   5 -12   1 36.1533 2.32476   1
   5 -12   2 115.477 6.44306   1
   5 -12   3 31.0252  2.0455   1
   5 -12   4 141.326 7.77682   1
   5 -12   5 15.9954 1.27296   1
   5 -12   6 133.527 7.53966   1
   5 -12   7 0.54014 0.55218   1
   5 -12   8 95.8821 5.50992   1
   5 -12   9  4.7859 0.75893   1
   5 -12  10 43.5854 2.70813   1
   5 -12  11 17.0765  2.0935   1
   5 -12  12  31.288 2.03518   1
   5 -12  13 80.0267 4.76372   1
   5 -12  14  46.689 2.96293   1
   5 -12  15 65.3316 6.72362   1
   5 -12  16 50.9468 4.04266   1
   5 -12  17 11.7588 1.45416   1
   5 -12  18 3.94991 0.96526   1
   5 -12  19 33.5652  2.3263   1
   5 -12  20 0.21981 0.55968   1
   5 -12  21 98.5658 5.93773   1
   5 -12  22 0.70298 0.58449   1
   5 -12  23 18.3841  2.1223   1
   5 -11   1 50.8437 3.72802   1
   5 -11   2 0.11885 0.85331   1
   5 -11   3 113.487 6.32829   1
   5 -11   4 26.5977 2.75776   1
   5 -11   5 353.126 17.6873   1
   5 -11   6  69.633 4.61933   1
   5 -11   7 124.647 7.50683   1
   5 -11   8 14.2656  1.5901   1
   5 -11   9 4.33612 0.68838   1
   5 -11  10 20.8391 1.60472   1
   5 -11  11 1.03857 0.54531   1
   5 -11  12 167.382 10.6253   1
   5 -11  13 58.0498 3.56439   1
   5 -11  14 156.293 10.3135   1
   5 -11  15 4.52424 0.80889   1
   5 -11  16 66.3281 4.23978   1
   5 -11  17 18.4944 1.54557   1
   5 -11  18 29.9336 2.15139   1
   5 -11  19 6.92202 1.18968   1
   5 -11  20 22.9175 1.74884   1
   5 -11  21 5.11983 0.75305   1
   5 -11  22 13.9235 1.20807   1
   5 -11  23 22.1642 1.58528   1
   5 -10   1 34.7537   2.532   1
   5 -10   2 264.111 16.3707   1
   5 -10   3 226.859 11.4627   1
   5 -10   4 136.702 7.18614   1
   5 -10   5 196.957 10.6559   1
   5 -10   6 2.16695  0.8406   1
   5 -10   7 40.5928 3.15255   1
   5 -10   8 1.92237 0.62314   1
   5 -10   9  66.702 4.00608   1
   5 -10  10  8.2782  0.7666   1
   5 -10  11 140.988 14.6111   1
   5 -10  12 23.5354 1.72036   1
   5 -10  13 117.718 9.74217   1
   5 -10  14 86.1988 4.59896   1
   5 -10  15 78.7078 5.69466   1
   5 -10  16 10.0528 2.15129   1
   5 -10  17 36.2835 2.51068   1
   5 -10  18 11.2509 1.14384   1
   5 -10  19 4.92657 0.79822   1
   5 -10  20 57.6071 4.48247   1
   5 -10  21 0.56673 0.55316   1
   5 -10  22 33.5015 3.84487   1
   5 -10  23 0.01794 0.47889   1
   5 -10  24 20.8006 2.53905   1
   5  -9   1 28.5336 2.59292   1
   5  -9   2 258.077 14.1773   1
   5  -9   3 2.95547 0.56928   1
   5  -9   4 242.008 12.6173   1
   5  -9   5 9.04821  0.7334   1
   5  -9   6 108.879 5.62066   1
   5  -9   7 34.3217  1.7872   1
   5  -9   8 42.4539 2.38322   1
   5  -9   9 75.9559 4.96771   1
   5  -9  10 63.5597 3.46323   1
   5  -9  11 85.4048 5.77987   1
   5  -9  12 107.777 6.69512   1
   5  -9  13 55.4509 3.07023   1
   5  -9  14 21.6965 1.78002   1
   5  -9  15 122.684  11.179   1
   5  -9  16 2.67568 0.69607   1
   5  -9  17 104.313 16.9153   1
   5  -9  18 0.45219 0.59745   1
   5  -9  19 10.3406 1.71139   1
   5  -9  20-0.02252 0.94986   1
   5  -9  21  3.2453 0.68003   1
   5  -9  22 11.8082 1.10085   1
   5  -9  23 67.8906 7.27403   1
   5  -8   1 389.064 22.6373   1
   5  -8   2 52.6211 2.84275   1
   5  -8   3 47.4358 2.57692   1
   5  -8   4 12.3449 0.93654   1
   5  -8   5 24.7062 1.83389   1
   5  -8   6 107.019 5.98756   1
   5  -8   7 60.3023 3.20152   1
   5  -8   8 436.358 36.1611   1
   5  -8   9 26.2727 1.56408   1
   5  -8  10 196.849 10.3172   1
   5  -8  11 1.22238 0.37021   1
   5  -8  12 42.3551 2.22917   1
   5  -8  13 3.66706 0.97659   1
   5  -8  14  116.50 10.6179   1
   5  -8  15 2.44525 0.64302   1
   5  -8  16 108.976 6.72845   1
   5  -8  17 22.1913 1.76618   1
   5  -8  18 10.5582 3.14329   1
   5  -8  19 37.5723 5.89383   1
   5  -8  20 2.43221 0.66677   1
   5  -8  21 28.0898 2.40398   1
   5  -8  22  9.2322 1.28302   1
   5  -8  23 33.3546 5.00905   1
   5  -8  24 4.48981 0.87672   1
   5  -7   1 760.062 38.3246   1
   5  -7   2 17.5238 1.86974   1
   5  -7   3 13.6159 1.00734   1
   5  -7   4 68.1324 3.60193   1
   5  -7   5 20.1374  1.3693   1
   5  -7   6 0.93227  0.4759   1
   5  -7   7 370.164 18.7764   1
   5  -7   8 3.20676 0.42385   1
   5  -7   9 392.775 26.8677   1
   5  -7  10   74.85 4.06219   1
   5  -7  11 140.586  6.8595   1
   5  -7  12 137.767 7.72073   1
   5  -7  13 31.1625 2.36177   1
   5  -7  14  42.794 2.86717   1
   5  -7  15 6.89107 0.87002   1
   5  -7  16 21.5518 1.41745   1
   5  -7  17 5.68771 0.82046   1
   5  -7  18 41.6871 4.92723   1
   5  -7  19  1.2303 0.48828   1
   5  -7  20 91.7529 4.76646   1
   5  -7  21  4.0628 0.69502   1
   5  -7  22 79.6444 4.72204   1
   5  -7  23 7.82204 2.80482   1
   5  -7  24 16.9912 1.68578   1
   5  -6   1 11.4686  1.3189   1
   5  -6   2 460.931 36.4443   1
   5  -6   3 43.6229 3.30439   1
   5  -6   4 340.366 36.0124   1
   5  -6   5 79.9171 5.82594   1
   5  -6   6 9.01172 0.74947   1
   5  -6   7 176.449 10.0483   1
   5  -6   8 9.04986 0.76526   1
   5  -6   9 159.404 12.5723   1
   5  -6  10 199.978 11.9668   1
   5  -6  11 195.934 20.0654   1
   5  -6  12 45.9576 2.60619   1
   5  -6  13 149.095 10.1854   1
   5  -6  14 11.9277 0.84541   1
   5  -6  15 26.1149 2.72412   1
   5  -6  16 13.6562 1.03282   1
   5  -6  17 14.6664 1.08518   1
   5  -6  18 7.79604 0.76238   1
   5  -6  19 77.1483  4.0883   1
   5  -6  20 29.3715 2.05313   1
   5  -6  21 61.4391 6.00225   1
   5  -6  22 38.8302  2.4916   1
   5  -6  23 3.58768 0.60809   1
   5  -6  24 15.7867 1.60205   1
   5  -5   1 41.0967 3.62672   1
   5  -5   2 180.028 10.5934   1
   5  -5   3 9.07596 0.72882   1
   5  -5   4 522.398 32.8502   1
   5  -5   5  74.585  5.6212   1
   5  -5   6 246.368 14.2396   1
   5  -5   7 68.7456 3.51932   1
   5  -5   8 96.2191 6.62409   1
   5  -5   9 26.0039 6.17854   1
   5  -5  10 377.623  22.305   1
   5  -5  11 78.8799 6.02066   1
   5  -5  12 247.173  12.755   1
   5  -5  13 8.59094 0.67593   1
   5  -5  14 4.46468 0.50779   1
   5  -5  15 3.07531 0.49829   1
   5  -5  16  0.4185 0.40523   1
   5  -5  17 76.0164 6.30177   1
   5  -5  18 39.4031 4.19378   1
   5  -5  19 148.878 23.3917   1
   5  -5  20 18.1906 2.61228   1
   5  -5  21 55.6101 3.42239   1
   5  -5  22 1.11973 0.53968   1
   5  -5  23 15.2208 1.22219   1
   5  -5  24 4.13666 0.83315   1
   5  -4   1 75.7691 5.16328   1
   5  -4   2 13.9669 0.98076   1
   5  -4   3 900.407 60.8348   1
   5  -4   4 2.12253 0.39245   1
   5  -4   5  514.77 29.6892   1
   5  -4   6 301.454 17.4662   1
   5  -4   7  176.25 14.6543   1
   5  -4   8 219.238 16.3949   1
   5  -4   9 86.4185 12.0158   1
   5  -4  10 10.7065 1.44338   1
   5  -4  11 28.7298 1.96423   1
   5  -4  12 27.1651 1.57302   1
   5  -4  13 17.1912 1.06209   1
   5  -4  14 188.198 9.04608   1
   5  -4  15 4.81435 0.59147   1
   5  -4  16 137.293 7.10811   1
   5  -4  17 8.94421 0.96726   1
   5  -4  18 37.4406 2.49363   1
   5  -4  19 16.4828 1.36841   1
   5  -4  20 30.1205 2.97275   1
   5  -4  21 8.05241 0.97898   1
   5  -4  22  52.146 3.20692   1
   5  -4  23 7.54116 1.01419   1
   5  -4  24 15.6945 2.06499   1
   5  -3   1 112.489 8.28157   1
   5  -3   2 142.248 11.0463   1
   5  -3   3 56.8562 4.73887   1
   5  -3   4 2.01055 0.60626   1
   5  -3   5 255.403 14.8894   1
   5  -3   6 842.281 60.8902   1
   5  -3   7 734.411 47.1446   1
   5  -3   8  138.99 9.90494   1
   5  -3   9 359.783  17.888   1
   5  -3  10 113.979 6.41731   1
   5  -3  11 12.2558 1.04059   1
   5  -3  12 28.1857  1.5443   1
   5  -3  13 8.20904 0.66028   1
   5  -3  14 1.01813 0.41243   1
   5  -3  15 161.525 15.3769   1
   5  -3  16 34.5023 4.03162   1
   5  -3  17 145.619 8.54986   1
   5  -3  18 91.4942 8.95682   1
   5  -3  19 5.23558 1.07101   1
   5  -3  20  31.322 2.14992   1
   5  -3  21 0.61472 0.52659   1
   5  -3  22  19.496 1.97383   1
   5  -3  23 4.12593 0.63649   1
   5  -2   1  381.80  19.596   1
   5  -2   2 828.669 53.4675   1
   5  -2   3 140.634  13.251   1
   5  -2   4  302.61 19.7848   1
   5  -2   5 222.636 15.3833   1
   5  -2   6 343.306 24.2247   1
   5  -2   7 139.753 9.99311   1
   5  -2   8 287.879 26.4248   1
   5  -2   9 27.7946  1.9307   1
   5  -2  10 39.1225 3.77297   1
   5  -2  11 2.89256 0.46601   1
   5  -2  12 18.3529 1.19103   1
   5  -2  13 259.844 13.3275   1
   5  -2  14 30.3136  2.3451   1
   5  -2  15 201.286 11.8756   1
   5  -2  16 11.0922 1.09352   1
   5  -2  17 29.5406 3.92958   1
   5  -2  18 0.20419 0.62493   1
   5  -2  19 33.9463 2.53586   1
   5  -2  20 0.69965 0.54895   1
   5  -2  21 49.6963 3.06295   1
   5  -2  22 3.74873 0.86965   1
   5  -2  23 16.3136 1.78579   1
   5  -1   1 87.6681 5.49171   1
   5  -1   2 234.714 13.0723   1
   5  -1   3  558.38 30.6166   1
   5  -1   4 144.559 9.58287   1
   5  -1   5 551.347   46.45   1
   5  -1   6 34.1892 3.28358   1
   5  -1   7 18.1157 1.42713   1
   5  -1   8  139.80 11.3117   1
   5  -1   9 2.50206 0.43279   1
   5  -1  10 227.775 12.7144   1
   5  -1  11 18.6812  1.0745   1
   5  -1  12 104.289 5.60239   1
   5  -1  13  1.1978 0.45512   1
   5  -1  14 50.0346 3.60319   1
   5  -1  15 21.8531 3.51614   1
   5  -1  16 108.871 6.49661   1
   5  -1  17 25.5354 1.86795   1
   5  -1  18 98.4017 5.87263   1
   5  -1  19 13.2873 1.33976   1
   5  -1  20 11.3352 1.27284   1
   5  -1  21 8.01021 1.02092   1
   5  -1  22 0.77607 0.59579   1
   5   0   0 295.588 27.6157   1
   5   0   1 587.912 50.8842   1
   5   0   2  654.38 35.7976   1
   5   0   3 924.463 60.2645   1
   5   0   4 6.21805 1.42448   1
   5   0   5 272.684 18.0265   1
   5   0   7 6.27699 1.53897   1
   5   0   8  2.6903 0.60111   1
   5   0   9 52.4306 4.48281   1
   5   0  10 10.1416 0.91536   1
   5   0  11 316.211 16.1132   1
   5   0  12 99.4102 5.13298   1
   5   0  13  131.51 8.88247   1
   5   0  14 69.0431 5.50518   1
   5   0  15  1.5419 0.61696   1
   5   0  16 42.3977 3.11234   1
   5   0  17 3.27081 0.87287   1
   5   0  18 50.9174 5.92044   1
   5   0  19 15.5702 1.59456   1
   5   0  20 33.6348 2.62145   1
   5   0  21 1.23764 0.64544   1
   5   0  22 12.9499   1.261   1
   5   1   0 585.433 32.1045   1
   5   1   1  55.099 3.82722   1
   5   1   2 690.047 45.2117   1
   5   1   3 15.0658 1.24216   1
   5   1   4 192.931 17.4138   1
   5   1   5 0.98221 0.66229   1
   5   1   6 49.5321 4.81652   1
   5   1   7 59.6081 5.06493   1
   5   1   8 76.4225  6.4121   1
   5   1   9 181.766 14.7978   1
   5   1  10 25.5317 2.44531   1
   5   1  11 123.354 10.0814   1
   5   1  12 1.26868 0.70791   1
   5   1  13 94.0799 5.84634   1
   5   1  14 5.53469 1.02654   1
   5   1  15 102.489 8.36818   1
   5   1  16-0.01834 0.69049   1
   5   1  17 46.2395 4.01315   1
   5   1  18  10.321 1.25585   1
   5   1  19 8.98887 1.21071   1
   5   1  20 6.61855 0.95572   1
   5   1  21 13.7415 1.35433   1
   5   2   0 190.299 18.2708   1
   5   2   1 525.562 34.5368   1
   5   2   2 180.717 12.0427   1
   5   2   3 25.6415 1.91761   1
   5   2   4  152.82 10.1552   1
   5   2   5 11.0198 3.67426   1
   5   2   6 86.5801 5.55744   1
   5   2   7 15.1763 1.59028   1
   5   2   8 94.2151 7.80614   1
   5   2   9 1.06515 0.64438   1
   5   2  10 134.546 10.9675   1
   5   2  11 10.2594  1.3167   1
   5   2  12 122.828  10.001   1
   5   2  13 32.5061 3.05298   1
   5   2  14 91.6112 7.52795   1
   5   2  15 30.4481 2.88959   1
   5   2  16 26.2155  2.5801   1
   5   2  17 4.90638  0.9691   1
   5   2  18 0.60582 0.67765   1
   5   2  19 11.3202 1.66913   1
   5   2  20 0.83459 0.66915   1
   5   3   0 2.17936 0.41858   1
   5   3   1 142.786 9.54026   1
   5   3   2 5.68657 1.28272   1
   5   3   3 58.5242 4.02522   1
   5   3   4 0.41341 0.37548   1
   5   3   5 219.197 13.7455   1
   5   3   6 42.4852 3.70264   1
   5   3   7  215.14 17.4396   1
   5   3   8 38.6025 3.42156   1
   5   3   9 31.2072 2.87358   1
   5   3  10 61.9947 5.25711   1
   5   3  11 19.0604 2.07098   1
   5   3  12 135.681 10.9668   1
   5   3  13 56.5086 4.83512   1
   5   3  14 59.7157  5.0527   1
   5   3  15 8.69291  1.2749   1
   5   3  16 13.7949 1.65973   1
   5   3  17  2.1895 0.79421   1
   5   3  18 21.0436 2.11217   1
   5   3  19 2.22273 0.72388   1
   5   3  20 43.6324 4.94502   1
   5   4   0 39.3467 2.79202   1
   5   4   1  31.014  2.2766   1
   5   4   2 12.4929  2.6413   1
   5   4   3 54.7336 5.82579   1
   5   4   4 191.553 25.7878   1
   5   4   5  67.105 4.14644   1
   5   4   6 55.2608 3.96609   1
   5   4   7 132.548 10.2801   1
   5   4   8  0.3068 0.68641   1
   5   4   9  187.37 11.1044   1
   5   4  10 3.77294 0.88869   1
   5   4  11 100.689 8.23707   1
   5   4  12-0.10428 0.69871   1
   5   4  13 36.4811 3.30518   1
   5   4  14 6.51164 1.10758   1
   5   4  15 32.0514 2.95543   1
   5   4  16 5.22455  0.9806   1
   5   4  17 22.0618 2.20232   1
   5   4  18 12.2958  1.4009   1
   5   4  19 12.8239 2.11828   1
   5   5   0 195.975 15.6796   1
   5   5   1 95.5512 7.98355   1
   5   5   2 59.0382 3.67326   1
   5   5   3 10.9719 1.10247   1
   5   5   4 52.3723 3.37248   1
   5   5   5 10.8205 1.54427   1
   5   5   6 146.341 8.73253   1
   5   5   7 7.47348 2.93559   1
   5   5   8 188.778 27.6272   1
   5   5   9  31.702 2.21906   1
   5   5  10 106.526 6.40288   1
   5   5  11 87.8295 13.7164   1
   5   5  12 17.7369 1.98167   1
   5   5  13 2.38333 0.85211   1
   5   5  14 1.02677 0.75641   1
   5   5  15 3.01977 0.84144   1
   5   5  16 6.02337 1.03714   1
   5   5  17 74.7176 6.02917   1
   5   6   0 2.22283  0.6183   1
   5   6   1 344.993  27.881   1
   5   6   2 4.65605 0.91614   1
   5   6   3 166.928 13.5915   1
   5   6   4 8.27584   1.227   1
   5   6   5 1.46361 0.91292   1
   5   6   6 126.121 10.3349   1
   5   6   7 26.2018 2.79969   1
   5   6   8 191.208 15.4066   1
   5   6   9 126.777 10.3566   1
   5   6  10 24.3984 2.76278   1
   5   6  11 6.60984 1.38609   1
   5   6  12 7.79289 1.48878   1
   5   6  16 44.0559 4.68864   1
   5   6  17 6.14772 1.39808   1
   5   7   0 103.468   7.251   1
   5   7   1 30.2103 2.86256   1
   5   7   2 35.3417 3.28753   1
   5   7   3   96.00 7.97476   1
   5   7   4 9.32285 1.38475   1
   5   7   5 196.528 15.8479   1
   5   7   6 9.84456 1.53108   1
   5   7   7 89.4908 7.48833   1
   5   7   8 5.40334 1.34886   1
   5   7   9 50.4566 4.56507   1
   5   7  10 10.0694 1.64636   1
   5   7  11 41.6425 3.88618   1
   5   7  12-0.49866 1.08222   1
   5   7  13 20.4072 2.25739   1
   5   7  15 9.10262  1.8492   1
   5   7  16 34.4794 3.78205   1
   5   8   0 8.36686 1.20624   1
   5   8   1 4.68071 1.02864   1
   5   8   2  91.166 7.59769   1
   5   8   3 2.34567 1.05865   1
   5   8   4 241.535 19.3739   1
   5   8   5 30.6062 3.16457   1
   5   8   6 92.5959 7.73285   1
   5   8   7 51.9964 4.67192   1
   5   8   8 4.31543  1.2916   1
   5   8   9 1.02675 1.11205   1
   5   8  10 0.97783 1.08565   1
   5   8  11 8.89361 1.50969   1
   5   8  12 23.6654   2.648   1
   5   8  13 98.3433 7.96309   1
   5   8  14 6.81813 1.75627   1
   5   9   0 8.60947 1.32679   1
   5   9   1 4.56523 1.12101   1
   5   9   2 80.5128 6.76837   1
   5   9   3 32.4421 3.25433   1
   5   9   4 110.519 9.08413   1
   5   9   5 94.8725 7.89398   1
   5   9   6 37.4514 3.67107   1
   5   9   7 7.95781 1.54876   1
   5   9   8 15.9668 2.02302   1
   5   9   9 5.08084  1.3936   1
   5   9  10  42.794 3.94451   1
   5   9  11 1.74596 1.13971   1
   5   9  12 31.7256  3.0957   1
   5   9  13 1.35384 1.40524   1
   5  10   0 33.5246 3.25098   1
   5  10   1 208.427 16.6592   1
   5  10   2 1.83883 1.09846   1
   5  10   3 75.8702 6.39531   1
   5  10   4 8.54484  1.5021   1
   5  10   5 16.0916 2.00638   1
   5  10   6  0.4201 1.17437   1
   5  10   7 42.6626 3.98765   1
   5  10   8 0.54226 1.15358   1
   5  10   9 41.7576 3.84711   1
   5  10  10 14.8496 1.84979   1
   5  10  11 10.0074 4.53929   1
   5  11   0 171.191  13.693   1
   5  11   1 6.77471 1.39256   1
   5  11   2 104.588 8.54157   1
   5  11   3 22.4242 2.55997   1
   5  11   4 8.92743 1.54186   1
   5  11   5 16.6011 2.02671   1
   5  11   6 4.05562 1.28975   1
   5  11   7 27.5157 2.87445   1
   5  11   8 12.8566   1.692   1
   5  11   9 35.7122 6.99067   1
   5  12   0 109.169 8.86283   1
   5  12   1 8.06088  1.4546   1
   5  12   2 26.0642 2.80785   1
   5  12   3 4.95159 1.31105   1
   5  12   4 9.49822 1.55265   1
   5  12   5  5.7261 1.31325   1
   5  12   6  35.507 3.30769   1
   5  12   7 0.09649 0.84993   1
   5  13   0 3.36596 1.17821   1
   5  13   1 27.3322 2.80751   1
   5  13   2-0.25352 0.98668   1
   5  13   3   43.75 5.14552   1
   5  13   4 6.03361  1.0075   1
   5  14   0  5.6868 1.18202   1
   5  14   1 18.7096 2.11719   1
   6 -17   1 2.14145 1.48109   1
   6 -17   2 56.9629 6.03818   1
   6 -17   3-0.20468 1.46085   1
   6 -17   4  23.246 3.31042   1
   6 -17   5  0.3515 1.49074   1
   6 -17   6 26.8806 3.54453   1
   6 -17   7 3.32393 1.55614   1
   6 -17   8 84.7281 8.50598   1
   6 -17   9  4.1309  1.5241   1
   6 -17  10 35.3353 4.03149   1
   6 -17  11 8.24337 1.70703   1
   6 -17  13 46.4281 4.62672   1
   6 -17  14 1.38029 0.95044   1
   6 -17  15  55.203 5.30046   1
   6 -16   1 11.8064 1.41861   1
   6 -16   2-0.32327 1.21148   1
   6 -16   3 25.5641 2.78914   1
   6 -16   4  15.717 1.67553   1
   6 -16   5 76.2944   9.116   1
   6 -16   6 74.8796 15.2759   1
   6 -16   7 30.2166 2.54121   1
   6 -16   8 42.9038 4.15653   1
   6 -16   9 0.22818 0.84198   1
   6 -16  10 10.1874 2.27211   1
   6 -16  11 0.55353 1.13804   1
   6 -16  12 26.0973 2.24023   1
   6 -16  13-0.04774 0.97177   1
   6 -16  14 63.3709 6.10111   1
   6 -16  15 10.9282 1.64333   1
   6 -16  16 61.2815 5.86931   1
   6 -16  17 9.86601  1.4806   1
   6 -15   1 9.60209 1.78596   1
   6 -15   2 10.2138 1.07513   1
   6 -15   3  67.427 7.71288   1
   6 -15   4 24.6423 2.25258   1
   6 -15   5 129.248 9.98639   1
   6 -15   6 1.01151 0.89651   1
   6 -15   7 54.3169 3.95654   1
   6 -15   8 12.9727 1.47488   1
   6 -15   9 13.3351 1.83177   1
   6 -15  10 4.78238 0.91708   1
   6 -15  11 26.4159 1.86283   1
   6 -15  12 15.5371 1.25611   1
   6 -15  13 49.8079 3.91821   1
   6 -15  14 41.4835 4.63107   1
   6 -15  15  28.629 3.23254   1
   6 -15  16 42.2037 4.29953   1
   6 -15  17  3.2406 1.09547   1
   6 -15  18 43.9048 4.38343   1
   6 -15  19  0.5356 0.89093   1
   6 -14   1 0.60806 0.69071   1
   6 -14   2 57.5861 3.42885   1
   6 -14   3 1.00891 0.68705   1
   6 -14   4 44.9199 2.77933   1
   6 -14   5 8.68603 1.30463   1
   6 -14   6 74.1898 5.18588   1
   6 -14   7 27.6962 2.41315   1
   6 -14   8 24.4149 2.16992   1
   6 -14   9 90.6546 5.18888   1
   6 -14  10  1.1124   0.786   1
   6 -14  11 70.0322 5.21305   1
   6 -14  12 1.72688 0.63545   1
   6 -14  13 23.0371 1.98143   1
   6 -14  14 12.3521 1.27089   1
   6 -14  15 45.5825 4.67612   1
   6 -14  16  0.6815 1.05415   1
   6 -14  17 106.099 9.86723   1
   6 -14  18  21.403 2.59599   1
   6 -14  19 39.4343 3.99703   1
   6 -14  20 17.6972 2.18557   1
   6 -13   1 203.329 11.0683   1
   6 -13   2 282.901 15.3111   1
   6 -13   3 98.7703 5.57386   1
   6 -13   4 51.2126 3.30853   1
   6 -13   5 9.48165 1.01233   1
   6 -13   6 4.35351 1.01762   1
   6 -13   7 9.68591  1.2641   1
   6 -13   8 72.8181 4.27252   1
   6 -13   9  11.126 1.07095   1
   6 -13  10  213.22 11.7814   1
   6 -13  11 0.08356 0.59427   1
   6 -13  12 75.7103 5.48715   1
   6 -13  13 46.9427 5.01166   1
   6 -13  14 13.1052 1.34472   1
   6 -13  15 34.0446 3.75764   1
   6 -13  16 19.0887 2.57039   1
   6 -13  17 9.90422 1.62516   1
   6 -13  18  19.938 2.51388   1
   6 -13  19  17.569 2.29312   1
   6 -13  20 0.68683 0.83604   1
   6 -13  21 36.0412 3.59117   1
   6 -12   1 112.367 6.27191   1
   6 -12   2  2.8297 0.78254   1
   6 -12   3 74.2323 6.75357   1
   6 -12   4 6.09071 0.81928   1
   6 -12   5 111.445 6.18608   1
   6 -12   6 7.22342 1.08329   1
   6 -12   7 52.6734 5.26372   1
   6 -12   8 34.9179 3.34456   1
   6 -12   9 8.90561 1.58313   1
   6 -12  10 72.5432 11.7613   1
   6 -12  11 40.1067 5.60379   1
   6 -12  12 64.9133 4.41716   1
   6 -12  13 65.8682 4.47634   1
   6 -12  14 50.8441 10.7891   1
   6 -12  15 5.95532 1.51148   1
   6 -12  16  45.676 4.71178   1
   6 -12  17 11.3157 1.82817   1
   6 -12  18 22.0445 1.96709   1
   6 -12  19 4.61132 0.87232   1
   6 -12  20 21.3716 2.49424   1
   6 -12  21 3.63051 0.73021   1
   6 -12  22  30.598 2.32783   1
   6 -11   1 27.6047 1.88874   1
   6 -11   2 122.651 6.83818   1
   6 -11   3 90.6892  5.1247   1
   6 -11   4 46.4328 2.83177   1
   6 -11   5 106.214 9.67451   1
   6 -11   6  0.8363 0.45713   1
   6 -11   7 67.6323 4.04704   1
   6 -11   8  9.8703 0.96859   1
   6 -11   9 27.9744 1.90206   1
   6 -11  10 31.4419 2.69072   1
   6 -11  11 139.755 12.1193   1
   6 -11  12 3.28317 0.82901   1
   6 -11  13 234.268 15.3976   1
   6 -11  14 45.6912 3.57883   1
   6 -11  15 33.5304 4.20829   1
   6 -11  16 3.91702 0.89518   1
   6 -11  17 3.87536 0.77523   1
   6 -11  18 0.15967  0.5957   1
   6 -11  19 9.48709 2.41411   1
   6 -11  20 46.0014 2.95756   1
   6 -11  21 52.1807 3.89125   1
   6 -11  22 94.5428 6.60548   1
   6 -10   1 1.88227 0.72541   1
   6 -10   2 18.1917 1.22997   1
   6 -10   3 3.79828 0.54727   1
   6 -10   4 234.511 11.7984   1
   6 -10   5 14.9472 0.96218   1
   6 -10   6  498.91 22.9229   1
   6 -10   7 6.61756 0.61285   1
   6 -10   8 64.0152 3.44676   1
   6 -10   9 87.4695 7.15417   1
   6 -10  10 10.6789 2.55647   1
   6 -10  11  36.377 6.29321   1
   6 -10  12  78.523 7.08112   1
   6 -10  13 13.4567 1.99045   1
   6 -10  14 75.0119 5.55219   1
   6 -10  15 47.8801 3.81436   1
   6 -10  16 0.66485  0.6192   1
   6 -10  17 85.8277 6.31247   1
   6 -10  18 7.82297 1.18925   1
   6 -10  19 41.9482 3.26232   1
   6 -10  20 0.67842 0.53746   1
   6 -10  21 23.8256 2.44594   1
   6 -10  22 0.73628 0.47754   1
   6 -10  23 46.2591 4.88561   1
   6  -9   1 408.666 20.5459   1
   6  -9   2 34.6343 2.03289   1
   6  -9   3 25.5623  1.5687   1
   6  -9   4 27.3747 1.47821   1
   6  -9   5 8.49636 1.21283   1
   6  -9   6 60.2022 2.93252   1
   6  -9   7 170.852  7.9354   1
   6  -9   8 151.017 7.76048   1
   6  -9   9 288.449  15.072   1
   6  -9  10 224.049 11.5584   1
   6  -9  11 0.67819 0.50952   1
   6  -9  12 70.1899 7.63779   1
   6  -9  13 56.3835 4.28656   1
   6  -9  14 10.4317 1.08445   1
   6  -9  15 0.51179 0.58667   1
   6  -9  16 48.7757 3.22461   1
   6  -9  17 2.41448 0.69429   1
   6  -9  18 84.9451 9.38677   1
   6  -9  19 37.6395 3.78709   1
   6  -9  20 32.2071 2.67329   1
   6  -9  21 61.0367 4.50388   1
   6  -9  22 4.25667 0.67261   1
   6  -8   1 164.317 10.1675   1
   6  -8   2 62.1791 3.30246   1
   6  -8   3 170.103 8.64806   1
   6  -8   4 46.2426 2.51623   1
   6  -8   5 67.2156 4.35618   1
   6  -8   6 1.20059 0.35501   1
   6  -8   7 258.865 14.2703   1
   6  -8   8 27.2472 1.46634   1
   6  -8   9 414.044 24.9139   1
   6  -8  10 3.58817 0.53441   1
   6  -8  11 75.7633 4.07876   1
   6  -8  12 1.03909 0.62055   1
   6  -8  13  1.7839 0.78668   1
   6  -8  14 30.1655 3.92357   1
   6  -8  15 19.2071 1.58586   1
   6  -8  16 148.344 15.2921   1
   6  -8  17 44.0109 3.29106   1
   6  -8  18 82.6731 8.36549   1
   6  -8  19 8.30249 1.68476   1
   6  -8  20  16.812 3.14459   1
   6  -8  21 1.17523 0.56565   1
   6  -8  22 23.2631 2.11455   1
   6  -8  23 2.43933 1.01627   1
   6  -7   1 3.67736 0.55062   1
   6  -7   2 172.933 11.7399   1
   6  -7   3 15.4724 2.33874   1
   6  -7   4 136.277 8.14067   1
   6  -7   5 18.8647 1.38522   1
   6  -7   6 261.786 15.3547   1
   6  -7   7 57.2923 3.28927   1
   6  -7   8  165.54 8.33268   1
   6  -7   9 139.717 7.62563   1
   6  -7  10 32.5115  1.9036   1
   6  -7  11 78.8504 6.10923   1
   6  -7  12 4.36898 0.83476   1
   6  -7  13 40.5172 2.73885   1
   6  -7  14 0.18734 0.51658   1
   6  -7  15  52.459 3.43107   1
   6  -7  16 0.50615 0.88971   1
   6  -7  17 91.3973 10.6624   1
   6  -7  18 3.66106 0.73581   1
   6  -7  19 88.9113 12.1839   1
   6  -7  20 11.4243 1.33171   1
   6  -7  21 35.3376 3.54847   1
   6  -7  22 15.1042  2.3481   1
   6  -7  23 0.43339 0.86202   1
   6  -6   1 63.6332 4.39143   1
   6  -6   2 96.9321 5.87167   1
   6  -6   3 196.873  11.672   1
   6  -6   4 354.043 20.8225   1
   6  -6   5 139.499 9.67737   1
   6  -6   6 416.512 24.3654   1
   6  -6   7 18.9637 1.70343   1
   6  -6   8 54.7222 3.92851   1
   6  -6   9 3.64325 0.82071   1
   6  -6  10 10.3968  1.3513   1
   6  -6  11 9.45439 1.21349   1
   6  -6  12 176.475 8.47818   1
   6  -6  13 9.92297 0.82282   1
   6  -6  14 154.523 9.37021   1
   6  -6  15 23.8904 1.49476   1
   6  -6  16 10.7767 0.89738   1
   6  -6  17 51.0302 3.27776   1
   6  -6  18 7.16778 1.01481   1
   6  -6  19 52.2426 2.86086   1
   6  -6  20 32.5489 3.02098   1
   6  -6  21 35.4318  2.7536   1
   6  -6  22 5.52472 0.71198   1
   6  -6  23  11.348 1.83948   1
   6  -5   1 62.7299 4.08859   1
   6  -5   2 2.76456 0.44729   1
   6  -5   3 708.721 49.6213   1
   6  -5   4  8.8812 1.45441   1
   6  -5   5  652.88 45.4542   1
   6  -5   6 3.79432 1.19218   1
   6  -5   7 59.4373 11.1438   1
   6  -5   8 44.3497 3.00049   1
   6  -5   9 20.7728 1.23192   1
   6  -5  10 48.8412 2.40623   1
   6  -5  11  56.045 3.22832   1
   6  -5  12 72.1098 3.58121   1
   6  -5  13 27.9754 1.69658   1
   6  -5  14 132.391 6.86042   1
   6  -5  15 15.1769 1.63608   1
   6  -5  16 77.9884 5.88603   1
   6  -5  17 3.96099  0.8434   1
   6  -5  18 44.7027 2.74748   1
   6  -5  19 3.93883 1.21949   1
   6  -5  20 39.6948 2.74573   1
   6  -5  21 6.03752 0.76109   1
   6  -5  22 17.0028  1.2974   1
   6  -5  23 2.08356 0.92646   1
   6  -4   1 34.5887 2.48116   1
   6  -4   2 690.428 61.8651   1
   6  -4   3 180.637 10.5559   1
   6  -4   4 99.2869 6.27789   1
   6  -4   5 240.057 13.8329   1
   6  -4   6 39.1032 3.06568   1
   6  -4   7 39.0174 2.39691   1
   6  -4   8 46.4293 2.74651   1
   6  -4   9 43.0648 3.02219   1
   6  -4  10 0.82779 0.27978   1
   6  -4  11 183.202 12.4662   1
   6  -4  12 5.22751 0.55829   1
   6  -4  13 145.392 7.53838   1
   6  -4  14 3.79375 0.55728   1
   6  -4  15 68.2436 4.47578   1
   6  -4  16 21.3161 1.39817   1
   6  -4  17 71.2452 4.33941   1
   6  -4  18 22.1746 2.03467   1
   6  -4  19 17.0676 2.20608   1
   6  -4  20 6.86422 1.13723   1
   6  -4  21 0.08458  0.4594   1
   6  -4  22  20.009 1.44636   1
   6  -4  23 2.58804 0.97254   1
   6  -3   1 58.7656 3.66378   1
   6  -3   2 440.094 27.8567   1
   6  -3   3 224.308 17.3125   1
   6  -3   4 206.917 11.9945   1
   6  -3   5   14.09 1.03711   1
   6  -3   6 100.899 5.91086   1
   6  -3   7 113.582 6.45036   1
   6  -3   8 225.438 12.5777   1
   6  -3   9 22.4018 1.38461   1
   6  -3  10 90.4728 4.08054   1
   6  -3  11 1.24613 0.32246   1
   6  -3  12 19.7145 1.49242   1
   6  -3  13 95.7458  5.0458   1
   6  -3  14 82.0426 4.34705   1
   6  -3  15 176.138 10.3091   1
   6  -3  16 51.1766  3.2345   1
   6  -3  17 31.5328 2.75964   1
   6  -3  18 0.14006 0.52864   1
   6  -3  19 4.02488  0.7105   1
   6  -3  20 2.13763 0.57238   1
   6  -3  21 28.6779 1.90324   1
   6  -3  22   0.681 0.42611   1
   6  -2   1 499.737 38.9048   1
   6  -2   2 60.1093 3.62115   1
   6  -2   3 19.7502 1.67683   1
   6  -2   4  103.54 11.8659   1
   6  -2   5 139.626 9.15396   1
   6  -2   6  13.691 1.71305   1
   6  -2   7 312.813 19.2119   1
   6  -2   8 62.1448 6.19718   1
   6  -2   9 5.67144 0.68393   1
   6  -2  10 247.609 12.2717   1
   6  -2  11 1.36011 0.35074   1
   6  -2  12  142.12  8.3327   1
   6  -2  13 19.5035 1.45093   1
   6  -2  14 47.7349 3.50874   1
   6  -2  15 0.46586 0.51878   1
   6  -2  16 67.6598 6.99871   1
   6  -2  17 8.18719 0.92727   1
   6  -2  18 39.6715 2.58616   1
   6  -2  19  5.3311 0.76176   1
   6  -2  20 6.50315 0.76555   1
   6  -2  21 16.7376 1.27351   1
   6  -2  22  9.5265 1.05557   1
   6  -1   1 277.934 17.3126   1
   6  -1   2 311.187 20.8088   1
   6  -1   3 62.2011 5.41622   1
   6  -1   4  16.261 1.15378   1
   6  -1   5 72.7838 3.71815   1
   6  -1   6 37.8643 3.21867   1
   6  -1   7 238.866 16.1612   1
   6  -1   8 5.19736 0.50908   1
   6  -1   9 179.518 8.38655   1
   6  -1  10 5.58773 0.78386   1
   6  -1  11 108.942 7.13753   1
   6  -1  12  78.195 3.98124   1
   6  -1  13 124.386 8.41107   1
   6  -1  14 63.3383 4.46051   1
   6  -1  15 22.2352 1.69025   1
   6  -1  16 1.36117 0.65138   1
   6  -1  17  0.8613 0.55064   1
   6  -1  18 17.5502 1.40803   1
   6  -1  19 9.66766 1.75384   1
   6  -1  20 83.4763 5.70121   1
   6  -1  21 6.09467 1.21454   1
   6   0   0 323.451 24.6012   1
   6   0   1 5.30723  0.8665   1
   6   0   2 302.142 19.6029   1
   6   0   3 58.2841 3.94683   1
   6   0   4 215.411 11.4777   1
   6   0   5 1.87946 0.42029   1
   6   0   6 25.3387 1.78447   1
   6   0   7 3.48879 0.90486   1
   6   0   8 37.1944 2.15774   1
   6   0   9 223.508 11.0256   1
   6   0  10 232.245 11.5923   1
   6   0  11 185.219 27.3814   1
   6   0  12 69.4242 3.97454   1
   6   0  13 16.8195 1.24879   1
   6   0  14 9.61685 1.07123   1
   6   0  15 12.1316 2.06442   1
   6   0  16 1.21407 0.74891   1
   6   0  17 68.2661  12.651   1
   6   0  18 0.71459 0.67462   1
   6   0  19 60.4483 4.26242   1
   6   0  20   11.03 3.28018   1
   6   0  21 15.7625 1.67991   1
   6   1   0 46.0006 2.67339   1
   6   1   1 244.413 13.4174   1
   6   1   2 37.0301 2.18736   1
   6   1   3 410.538 27.3468   1
   6   1   4 85.5611 5.41419   1
   6   1   5 12.7921  2.3217   1
   6   1   6 180.158 11.1279   1
   6   1   7 1.15663  0.8478   1
   6   1   8 140.307 6.99886   1
   6   1   9   10.91 0.77845   1
   6   1  10  133.59 9.55224   1
   6   1  11 0.66766 0.80723   1
   6   1  12 122.095 9.52166   1
   6   1  13 1.63933 0.59286   1
   6   1  14 25.4674 2.51886   1
   6   1  15 5.81346 1.06072   1
   6   1  16 6.45347 1.08897   1
   6   1  17 32.2464 2.55495   1
   6   1  18 22.9903 1.99959   1
   6   1  19 38.1247 5.37855   1
   6   1  20 18.3057 1.59725   1
   6   2   0  12.576 1.09326   1
   6   2   1   43.74 2.55617   1
   6   2   2 35.1661  3.6729   1
   6   2   3 111.993 7.13539   1
   6   2   4 11.4233 1.32986   1
   6   2   5 243.224 19.7205   1
   6   2   6 4.81323 0.84289   1
   6   2   7 268.461 17.0812   1
   6   2   8 86.1275 5.71052   1
   6   2   9 93.6959 7.71898   1
   6   2  10 48.0264 4.07515   1
   6   2  11 8.12554 0.91053   1
   6   2  12  3.4031 1.18445   1
   6   2  13 17.3946  1.4974   1
   6   2  14 36.3564 3.32708   1
   6   2  15 30.2335 2.85304   1
   6   2  16 75.7524 6.20627   1
   6   2  17 0.46454  0.6772   1
   6   2  18 34.5343 4.04014   1
   6   2  19 8.68064 1.06449   1
   6   3   0 141.579 8.97849   1
   6   3   1 1.26193 0.95864   1
   6   3   2 2.72433 0.62215   1
   6   3   3 9.57851 1.13224   1
   6   3   4 68.8928 5.80053   1
   6   3   5 207.234 16.7852   1
   6   3   6 291.917 23.4956   1
   6   3   7 211.915 13.4729   1
   6   3   8 66.3109 5.58976   1
   6   3   9 31.5869 2.95791   1
   6   3  10 9.93466 1.33949   1
   6   3  11  14.673 1.30901   1
   6   3  12 0.33496 0.56512   1
   6   3  13 57.9973 3.73151   1
   6   3  14 1.78132 0.62834   1
   6   3  15 80.5794 6.59559   1
   6   3  16 5.69379 1.05347   1
   6   3  17 38.2559 3.36437   1
   6   3  18 22.5917 1.91174   1
   6   4   0 72.6593 5.98828   1
   6   4   1 56.9903 3.55831   1
   6   4   2 152.227 9.11967   1
   6   4   3 1.57896  0.7277   1
   6   4   4  173.34 10.3173   1
   6   4   5 1.34609 2.17785   1
   6   4   6 142.799 11.5974   1
   6   4   7 3.93649 0.90735   1
   6   4   8 93.7966 7.73217   1
   6   4   9 4.59056 0.98735   1
   6   4  10 40.6808 3.65275   1
   6   4  11  12.242 1.53179   1
   6   4  12 24.7426 4.42825   1
   6   4  13 50.9122 5.41348   1
   6   4  14 18.5419 1.74979   1
   6   4  15 23.6048 2.35399   1
   6   4  16  11.487 1.46599   1
   6   4  17 23.6784 2.25786   1
   6   5   0 0.42407 0.39592   1
   6   5   1 165.439 33.7816   1
   6   5   2 5.56363 1.59427   1
   6   5   3  386.82 26.2642   1
   6   5   4 19.2267 1.97508   1
   6   5   5 99.8634 7.69666   1
   6   5   6 59.9029 4.11539   1
   6   5   7 1.75758 0.74543   1
   6   5   8 38.1281 2.56999   1
   6   5   9  29.157 2.84683   1
   6   5  10 23.0856 2.39306   1
   6   5  11 47.2238  4.1366   1
   6   5  12 23.1108 1.95273   1
   6   5  13-0.12472 0.78621   1
   6   5  14 46.8122 4.00976   1
   6   5  15  7.0793 1.10672   1
   6   5  16 68.6931 5.56052   1
   6   6   0 159.987 12.9969   1
   6   6   1  170.34 13.8082   1
   6   6   2 101.451 6.14674   1
   6   6   3 177.146 12.9061   1
   6   6   4 11.0634 1.14405   1
   6   6   5 24.5141 1.84255   1
   6   6   6 5.31968 0.79883   1
   6   6   7  14.043 2.18876   1
   6   6   8 8.04653 0.96695   1
   6   6   9 76.8316 4.70723   1
   6   6  10 2.40493 0.70533   1
   6   6  11 85.8371 7.00158   1
   6   6  12 12.6309 1.18654   1
   6   7   0 172.524 13.9396   1
   6   7   1 18.0062 2.08689   1
   6   7   2 137.297 11.1646   1
   6   7   3 6.78467 1.25077   1
   6   7   4 96.2181 7.99281   1
   6   7   5 2.26451  1.1025   1
   6   7   6 48.7591 4.42562   1
   6   7   7 21.8706 2.42168   1
   6   7   8 18.1779 2.12163   1
   6   7   9 9.03422 1.49826   1
   6   7  10 5.98727 1.31472   1
   6   7  11 11.9976 1.72341   1
   6   8   0 42.2453 3.85616   1
   6   8   1 64.7286 5.55752   1
   6   8   2 59.3871 5.16995   1
   6   8   3 9.16629 1.46341   1
   6   8   4 14.1722 1.81523   1
   6   8   5 36.4118 3.51196   1
   6   8   6 9.70879 1.58472   1
   6   8   7 35.9063 3.52374   1
   6   8   8 26.3333 2.86582   1
   6   8   9-0.32141 1.07183   1
   6   8  10 69.6946 5.85805   1
   6   8  11 4.99088 1.21686   1
   6   8  12 72.4429 6.02705   1
   6   9   0 10.5242 1.55175   1
   6   9   1 18.7738 2.12552   1
   6   9   2 25.2531 2.73507   1
   6   9   3 80.3515 6.73605   1
   6   9   4 6.81164 1.43162   1
   6   9   5 83.5507 6.98184   1
   6   9   6 9.10615 1.56345   1
   6   9   7 22.3639 2.44973   1
   6   9   8 4.09227 1.27032   1
   6   9   9 17.7978 2.07724   1
   6   9  10  4.9826 1.23747   1
   6  10   0 53.4402  4.7195   1
   6  10   1  14.258 1.84324   1
   6  10   2 19.6867 2.22338   1
   6  10   3  1.5807 1.16369   1
   6  10   4 25.1103 2.81299   1
   6  10   5 -0.8078 1.09964   1
   6  10   6 33.3924 3.31001   1
   6  10   7 22.1222 2.52479   1
   6  10   8 20.5696 2.25462   1
   6  11   0 16.2295 1.98306   1
   6  11   1 49.0525 4.39435   1
   6  11   2  26.682  2.8609   1
   6  11   3 3.22453 1.24893   1
   6  11   4 21.3832 2.49124   1
   6  11   5 0.44521 1.10667   1
   6  11   6 36.9579 3.43864   1
   6  11   7-1.26808 0.98045   1
   6  12   0 11.2755 1.62454   1
   6  12   1 39.9682 3.69671   1
   6  12   2 2.36138 1.17285   1
   6  12   3  8.3615 1.42874   1
   6  12   4 3.08268 1.11552   1
   6  13   0 12.3185 1.61377   1
   6  13   1 10.5389 1.48209   1
   6  13   2  34.176 3.17175   1
   7 -17   2-0.43595 1.38218   1
   7 -17   3 38.8125 4.42657   1
   7 -17   4 14.3201 2.43001   1
   7 -17   6 31.5625 3.88794   1
   7 -17   7 8.09902 1.88309   1
   7 -17   8 22.2164  3.0755   1
   7 -16   1  24.877 2.40919   1
   7 -16   2 14.2582 1.58085   1
   7 -16   3 0.95231 0.89672   1
   7 -16   4-0.07569 1.82373   1
   7 -16   5 29.3899 2.75135   1
   7 -16   6 0.76591 0.83706   1
   7 -16   7 127.526  11.133   1
   7 -16   8 0.05745 1.07876   1
   7 -16   9  48.968 6.29796   1
   7 -16  10 3.33776 1.36356   1
   7 -16  11 2.85743 1.24362   1
   7 -16  12 9.94877 1.24214   1
   7 -16  13 34.1738 3.58189   1
   7 -16  14 20.1062 2.46938   1
   7 -16  15 85.8474 7.97767   1
   7 -15   1 0.18565 0.67951   1
   7 -15   2 55.1073  3.2694   1
   7 -15   3 0.92328 0.76736   1
   7 -15   4 12.3557 1.49766   1
   7 -15   5 8.33922 1.26621   1
   7 -15   6 18.7858 3.59351   1
   7 -15   7 24.0085 3.43748   1
   7 -15   8 52.5266 3.78144   1
   7 -15   9 27.6516 2.28028   1
   7 -15  10 47.2038 2.83523   1
   7 -15  11 43.2884 2.63423   1
   7 -15  12 14.3382 1.31876   1
   7 -15  13 47.9325 4.77448   1
   7 -15  14-1.05053  0.8895   1
   7 -15  15 33.0427  3.5191   1
   7 -15  16 2.15315 1.05229   1
   7 -15  17 23.4914 2.65222   1
   7 -14   1 43.2191 2.71316   1
   7 -14   2 47.1511  2.9393   1
   7 -14   3 69.7792   4.031   1
   7 -14   4 78.4026 4.47564   1
   7 -14   5 9.27304 1.36927   1
   7 -14   6 11.3053 1.39035   1
   7 -14   7 2.79427 0.92562   1
   7 -14   8 35.2064 2.75664   1
   7 -14   9 1.67458 0.73499   1
   7 -14  10 167.749 10.8961   1
   7 -14  11 8.54574 0.91891   1
   7 -14  12 95.3587 9.30447   1
   7 -14  13 3.52713 0.80771   1
   7 -14  14 3.31348 1.18475   1
   7 -14  15 13.9155 1.92403   1
   7 -14  16 3.03395 1.13729   1
   7 -14  17 22.7115 2.68148   1
   7 -14  18  27.113 2.95057   1
   7 -13   1 111.622 6.21825   1
   7 -13   2 0.77618 0.68588   1
   7 -13   3  55.314 3.30595   1
   7 -13   4 2.96479 0.73241   1
   7 -13   5  36.108 2.33231   1
   7 -13   6 1.08252 0.82021   1
   7 -13   7 72.0128 4.99951   1
   7 -13   8 2.57466 0.74712   1
   7 -13   9  104.40 5.90073   1
   7 -13  10 83.8303  11.496   1
   7 -13  11   67.47 3.93066   1
   7 -13  12 73.1947 9.69797   1
   7 -13  13 11.0511 1.80599   1
   7 -13  14 2.65852 1.18998   1
   7 -13  15 0.74403 1.08277   1
   7 -13  16 18.2909 2.37606   1
   7 -13  17-0.00672 0.92317   1
   7 -13  18 69.6965 6.60009   1
   7 -13  19 0.97827 0.89965   1
   7 -12   1 9.59694 2.05618   1
   7 -12   2 80.1614 4.59205   1
   7 -12   3 50.1062 3.64322   1
   7 -12   4 75.3411  4.3177   1
   7 -12   5   41.77 2.58424   1
   7 -12   6 19.2302 1.49227   1
   7 -12   7 76.7813 4.69313   1
   7 -12   8 24.4505 1.80365   1
   7 -12   9 79.8506 4.61068   1
   7 -12  10 26.0029 1.81728   1
   7 -12  11  31.987  2.7978   1
   7 -12  12 1.47573 0.72643   1
   7 -12  13 50.4697 5.16946   1
   7 -12  14 11.5751 1.85677   1
   7 -12  15 52.8521 5.31791   1
   7 -12  16  5.6896 1.38361   1
   7 -12  17 16.3064 1.64876   1
   7 -12  18 10.3492 1.20983   1
   7 -12  19  6.0211 1.78829   1
   7 -12  20 28.1142 4.58907   1
   7 -11   1 6.75975 1.75467   1
   7 -11   2 2.23107 1.19426   1
   7 -11   3 11.4063 1.07613   1
   7 -11   4 45.5961  2.7837   1
   7 -11   5 17.1472 1.37096   1
   7 -11   6 373.207 19.9649   1
   7 -11   7 38.7244  2.4489   1
   7 -11   8 167.434 10.9197   1
   7 -11   9 17.4586 2.02884   1
   7 -11  10 5.11418 0.80946   1
   7 -11  11  65.305  4.4399   1
   7 -11  12 13.7179 1.36625   1
   7 -11  13 11.7163 1.43149   1
   7 -11  14 39.2167 3.16002   1
   7 -11  15 25.5115 2.28343   1
   7 -11  16 11.9805 1.91783   1
   7 -11  17 64.9433 5.38666   1
   7 -11  18 4.56617 0.89606   1
   7 -11  19  41.054 3.13109   1
   7 -11  20-0.54303 0.74046   1
   7 -11  21 29.6649 5.31055   1
   7 -10   1 77.1029 5.49227   1
   7 -10   2 1.13051 0.74119   1
   7 -10   3 382.326  25.425   1
   7 -10   4 21.5036 1.65666   1
   7 -10   5 116.863  6.1336   1
   7 -10   6 146.984 13.0866   1
   7 -10   7  16.903 1.35426   1
   7 -10   8 45.6642 6.33643   1
   7 -10   9 60.8715 10.5603   1
   7 -10  10 0.91197 1.23631   1
   7 -10  11 23.5522 3.19905   1
   7 -10  12 70.9919 5.27318   1
   7 -10  13 5.06728 2.71245   1
   7 -10  14 171.676 30.3807   1
   7 -10  15 4.67248 0.99133   1
   7 -10  16 41.8115 5.67456   1
   7 -10  17-0.36724 0.88614   1
   7 -10  18 20.3484 2.17453   1
   7 -10  19 5.24054 0.89822   1
   7 -10  20 41.8162 3.16376   1
   7 -10  21 15.4335 1.44947   1
   7  -9   1 3.42519 0.64842   1
   7  -9   2 0.61717 0.63423   1
   7  -9   3 65.4236 4.30241   1
   7  -9   4 162.293 8.42672   1
   7  -9   5 253.404 13.0349   1
   7  -9   6 184.495 9.51417   1
   7  -9   7 122.392 6.38055   1
   7  -9   8 30.8941 1.99317   1
   7  -9   9  57.298 4.35085   1
   7  -9  10 80.0875  6.4648   1
   7  -9  11  57.529 5.22519   1
   7  -9  12 2.93942 0.80209   1
   7  -9  13 24.7129  3.0723   1
   7  -9  14 0.69402 0.84979   1
   7  -9  15 39.4333 4.63121   1
   7  -9  16 122.633 18.5282   1
   7  -9  17 70.1661 5.18701   1
   7  -9  18 77.0933 17.7143   1
   7  -9  19 10.1384 1.85095   1
   7  -9  20 4.14602 1.15782   1
   7  -9  21 3.44138  1.3433   1
   7  -9  22 2.72907 1.05978   1
   7  -8   1 56.8536  3.4736   1
   7  -8   2 584.509 48.9452   1
   7  -8   3 4.24194 0.54867   1
   7  -8   4 40.2987 2.29251   1
   7  -8   5 54.3337 2.82335   1
   7  -8   6  13.145  1.3329   1
   7  -8   7 26.1562 1.47435   1
   7  -8   8 201.037 10.4836   1
   7  -8   9 7.45613 1.62741   1
   7  -8  10  52.102 3.99335   1
   7  -8  11 70.4108 5.24764   1
   7  -8  12 1.55403 0.71605   1
   7  -8  13 98.3088 8.45293   1
   7  -8  14  7.7658 2.38716   1
   7  -8  15 53.4849 5.37477   1
   7  -8  16 9.82113 1.79524   1
   7  -8  17 55.1624 9.51163   1
   7  -8  18  1.1202 0.91022   1
   7  -8  19 51.4283 3.88398   1
   7  -8  20 3.64755  0.7781   1
   7  -8  21 11.6622 1.25521   1
   7  -8  22 3.73217 1.07854   1
   7  -7   1 242.779 13.9081   1
   7  -7   2 95.0044 5.43792   1
   7  -7   3 109.952  5.8199   1
   7  -7   4 39.0143 2.22734   1
   7  -7   5 73.5862 3.95058   1
   7  -7   6 26.7509 1.47032   1
   7  -7   7  5.6406 0.56477   1
   7  -7   8 184.482 10.9594   1
   7  -7   9  1.4284 0.46172   1
   7  -7  10  170.43 12.1549   1
   7  -7  11 2.02778 0.69641   1
   7  -7  12 35.2371 3.70257   1
   7  -7  13 1.37028 0.70658   1
   7  -7  14 79.3811 20.0358   1
   7  -7  15 19.4025 1.89133   1
   7  -7  16 96.1026 6.96385   1
   7  -7  17 19.1337 1.63581   1
   7  -7  18  12.247 1.18017   1
   7  -7  19  7.4204 1.39943   1
   7  -7  20 0.63235 0.52805   1
   7  -7  21 21.3463 1.98605   1
   7  -7  22 6.32404 1.39183   1
   7  -6   1 391.847 32.5713   1
   7  -6   2  126.85 7.56466   1
   7  -6   3 224.778 13.1635   1
   7  -6   4 12.0034 1.05444   1
   7  -6   5 101.214 7.78235   1
   7  -6   6 34.0859  1.9773   1
   7  -6   7  28.441 1.90903   1
   7  -6   8 1.50079 0.66585   1
   7  -6   9 41.3173 2.35916   1
   7  -6  10 14.6969 1.81579   1
   7  -6  11 164.684 35.7543   1
   7  -6  12 153.356 8.67584   1
   7  -6  13 125.786 7.11515   1
   7  -6  14 92.0969 5.88225   1
   7  -6  15 1.66121 0.51915   1
   7  -6  16 10.6383 0.99506   1
   7  -6  17 1.22333 0.62207   1
   7  -6  18 12.2695 0.96615   1
   7  -6  19 2.34655 0.49227   1
   7  -6  20 58.8642 5.64327   1
   7  -6  21 0.16271   0.618   1
   7  -6  22 48.5217 5.15363   1
   7  -5   1 10.4951 1.13753   1
   7  -5   2 91.2339 5.51717   1
   7  -5   3 29.8495 1.99867   1
   7  -5   4  426.60   21.33   1
   7  -5   5 56.1302 2.70947   1
   7  -5   6 73.5622  3.7715   1
   7  -5   7 82.1587 3.91815   1
   7  -5   8 6.56644 0.78883   1
   7  -5   9 69.0824 3.32024   1
   7  -5  10 8.57695 0.65828   1
   7  -5  11 140.866 9.78484   1
   7  -5  12 30.7911 2.48294   1
   7  -5  13 205.369 11.5622   1
   7  -5  14 2.23908 0.57327   1
   7  -5  15  43.576  3.2018   1
   7  -5  16 10.5322 0.89073   1
   7  -5  17 3.60372 0.56738   1
   7  -5  18 14.6212 1.45603   1
   7  -5  19 20.5043 1.91763   1
   7  -5  20 18.0481 1.37517   1
   7  -5  21 36.5939 2.28876   1
   7  -5  22  20.748 2.55335   1
   7  -4   1  34.241 2.24528   1
   7  -4   2 73.1296 3.85591   1
   7  -4   3 3.90148 0.74948   1
   7  -4   4 172.725 10.7838   1
   7  -4   5 12.7355 0.86781   1
   7  -4   6 146.371 6.79132   1
   7  -4   7 5.46886 0.50209   1
   7  -4   8 106.595 7.00529   1
   7  -4   9 14.3099 0.90828   1
   7  -4  10 177.185 9.80445   1
   7  -4  11 27.4348   1.566   1
   7  -4  12 90.9238 5.29619   1
   7  -4  13 16.8607 1.29848   1
   7  -4  14 24.1354 1.50657   1
   7  -4  15 22.8471 1.78998   1
   7  -4  16 14.2652 1.27906   1
   7  -4  17 30.3001 2.06301   1
   7  -4  18 4.40859 1.17265   1
   7  -4  19 29.6716 3.73637   1
   7  -4  20 0.69706 0.47987   1
   7  -4  21 36.5575 2.29431   1
   7  -3   1 340.963 20.1797   1
   7  -3   2 10.3421 0.87181   1
   7  -3   3 3.46824 0.41545   1
   7  -3   4 13.6632 1.00496   1
   7  -3   5  21.646 1.53041   1
   7  -3   6 37.0626 1.85044   1
   7  -3   7 436.842 21.5401   1
   7  -3   8 116.266 5.47631   1
   7  -3   9 199.581 9.22585   1
   7  -3  10 135.914 6.74297   1
   7  -3  11 3.33732  0.4672   1
   7  -3  12 33.3591    3.65   1
   7  -3  13 1.54866 0.47461   1
   7  -3  14 14.2541 1.06377   1
   7  -3  15 13.9908 1.06128   1
   7  -3  16 66.5012   4.045   1
   7  -3  17-0.03203 0.91179   1
   7  -3  18 81.2424 5.57241   1
   7  -3  19 15.4151 1.25226   1
   7  -3  20 18.2081 2.04889   1
   7  -3  21 16.5823 2.17303   1
   7  -2   1 100.314 4.70993   1
   7  -2   2 145.599 7.44147   1
   7  -2   3 49.4071 3.26211   1
   7  -2   4 5.84946 0.52518   1
   7  -2   5 57.9344 2.80722   1
   7  -2   6 0.80757  0.3387   1
   7  -2   7  266.44 12.3693   1
   7  -2   8 20.5076 1.27397   1
   7  -2   9 275.168 12.7028   1
   7  -2  10 31.9657 2.67446   1
   7  -2  11 33.9303 1.87789   1
   7  -2  12 5.66522 0.56756   1
   7  -2  13 13.3548 1.11505   1
   7  -2  14 63.5958 3.42152   1
   7  -2  15 48.2302 4.23561   1
   7  -2  16 22.3301  1.6647   1
   7  -2  17 31.3389 2.12254   1
   7  -2  18 10.7347 1.01117   1
   7  -2  19 6.22858 0.75207   1
   7  -2  20  42.925 4.73263   1
   7  -1   1 0.92657 0.31754   1
   7  -1   2  64.018 4.77753   1
   7  -1   3  0.9945 0.37224   1
   7  -1   4 225.875 12.6064   1
   7  -1   5 0.99188 0.31074   1
   7  -1   6 322.865 14.9761   1
   7  -1   7 15.4905 0.95383   1
   7  -1   8 77.5507 3.70345   1
   7  -1   9 66.2147 3.94362   1
   7  -1  10 24.2487 1.81064   1
   7  -1  11 53.2592 2.83543   1
   7  -1  12 44.3614 3.72226   1
   7  -1  13 8.03316 0.76849   1
   7  -1  14 6.90381 1.16983   1
   7  -1  15 25.6494 1.83505   1
   7  -1  16 2.55482  0.6598   1
   7  -1  17 116.135 13.8132   1
   7  -1  18  0.8716 0.63219   1
   7  -1  19 77.2645 5.28379   1
   7  -1  20 0.73768 0.58278   1
   7   0   0 8.03456  0.6743   1
   7   0   1 72.9905 4.65006   1
   7   0   2 43.7672 2.34512   1
   7   0   3 342.003 20.9545   1
   7   0   4 140.167 9.24476   1
   7   0   5 134.739 6.76545   1
   7   0   6 124.042 5.83096   1
   7   0   7 2.99732 0.64645   1
   7   0   8 35.3146 2.42968   1
   7   0   9 13.6544 1.01725   1
   7   0  10 31.7004 2.37955   1
   7   0  11 8.98179 0.74047   1
   7   0  12 121.474 8.71427   1
   7   0  13 5.41392 0.70236   1
   7   0  14 68.4388 15.2609   1
   7   0  15 8.86859 1.11795   1
   7   0  16 8.21461 1.07126   1
   7   0  17 15.4083 1.51263   1
   7   0  18 21.2013 1.81789   1
   7   0  19 30.7356 2.32567   1
   7   1   0 21.1586 1.41048   1
   7   1   1 98.9712 5.50808   1
   7   1   2 25.2578  1.6019   1
   7   1   3 275.454 37.2499   1
   7   1   4 25.6029 2.25177   1
   7   1   5 254.723 14.0533   1
   7   1   6 13.2782 0.91075   1
   7   1   7 58.2473 3.01998   1
   7   1   8 11.7631 1.06118   1
   7   1   9 30.2018 1.70212   1
   7   1  10 44.9527 2.39481   1
   7   1  11 44.3883 3.13709   1
   7   1  12 5.54247 0.78988   1
   7   1  13 24.5914 2.09924   1
   7   1  14 12.9355 1.56089   1
   7   1  15 17.8355  2.0134   1
   7   1  16 97.1745 6.65508   1
   7   1  17  14.457 2.11413   1
   7   1  18  61.804 4.30129   1
   7   2   0 246.676 20.1608   1
   7   2   1 5.33201 0.66623   1
   7   2   2 378.396 23.1139   1
   7   2   3 26.9949 4.02084   1
   7   2   4 74.5255 4.26045   1
   7   2   5 44.0177 2.63158   1
   7   2   6 26.5579 2.47961   1
   7   2   7 37.9735 2.23344   1
   7   2   8  75.844 4.16618   1
   7   2   9 14.7261 1.11252   1
   7   2  10 15.7196 1.36375   1
   7   2  11 40.7587 2.77147   1
   7   2  12 3.18377 0.70813   1
   7   2  13 110.234 6.73599   1
   7   2  14-0.09481 0.74479   1
   7   2  15 74.7285 6.13967   1
   7   2  16 0.11224 0.73916   1
   7   2  17 21.3799 1.81258   1
   7   3   0 76.7281 15.3603   1
   7   3   1 93.1282 5.84467   1
   7   3   2 64.7648 4.91595   1
   7   3   3 25.9445 3.13154   1
   7   3   4 93.9846 5.89008   1
   7   3   5 31.4506 4.23327   1
   7   3   6 115.498 6.23783   1
   7   3   7 0.76426 0.44873   1
   7   3   8 53.7946 3.31775   1
   7   3   9  6.6542 0.87702   1
   7   3  10 20.5337 1.70175   1
   7   3  11 1.21224   0.647   1
   7   3  12 41.2906  2.7988   1
   7   3  13  17.373 1.44059   1
   7   3  14  80.633 6.60099   1
   7   3  15 50.6011 4.29579   1
   7   3  16 34.6604  2.6139   1
   7   4   0 0.30741 0.38406   1
   7   4   1 126.973 6.87527   1
   7   4   2 9.23738  0.9575   1
   7   4   3 43.6864 5.31079   1
   7   4   4-0.21464 0.61683   1
   7   4   5 70.0629  5.1817   1
   7   4   6 2.81497 0.64698   1
   7   4   7 76.1108 4.82379   1
   7   4   8 15.8323 1.39213   1
   7   4   9 22.7244 1.83448   1
   7   4  10 49.7589 3.29786   1
   7   4  11 13.0394 1.23104   1
   7   4  12 88.4436 7.19519   1
   7   4  13  11.326 1.45684   1
   7   4  14 40.2468 3.52062   1
   7   4  15 2.31363 0.77991   1
   7   5   0 264.299 13.4395   1
   7   5   1   10.40 0.96913   1
   7   5   2 88.3977 5.36295   1
   7   5   3 91.3357 5.52502   1
   7   5   4  10.742 1.04056   1
   7   5   5 44.9459 3.96505   1
   7   5   6 0.96288 0.73122   1
   7   5   7 8.32556 1.35702   1
   7   5   8 5.81603  2.3466   1
   7   5   9 71.6694 4.54411   1
   7   5  10 3.21528 0.70257   1
   7   5  11 139.355 8.67159   1
   7   5  12 2.70993 0.83446   1
   7   5  13 30.8285 2.80239   1
   7   5  14  8.6452 1.14548   1
   7   6   0 145.824 8.65636   1
   7   6   1 34.0684 2.32033   1
   7   6   2 121.903 7.27423   1
   7   6   3 41.2562 2.71801   1
   7   6   4  14.004 1.33331   1
   7   6   5 1.26414 0.64904   1
   7   6   6 15.1547 2.09434   1
   7   6   7 19.6178 1.61599   1
   7   6   8  93.829 5.80513   1
   7   6   9 26.2313 1.96786   1
   7   6  10 82.6146 5.10892   1
   7   6  11  26.121 2.48281   1
   7   6  12 9.07059 1.15741   1
   7   7   0 5.31138 1.15543   1
   7   7   1 84.6149 7.07244   1
   7   7   2 21.2039 2.44021   1
   7   7   3 58.9099 5.14681   1
   7   7   4 26.8051 2.84924   1
   7   7   5 15.0451 1.87645   1
   7   7   6 14.2741 1.84977   1
   7   7   7 9.40463 2.50004   1
   7   7   8  53.206 3.50584   1
   7   8   0 3.23619 1.12495   1
   7   8   1 3.08966 1.11226   1
   7   8   2 5.97411 1.27014   1
   7   8   3 0.30191 1.01499   1
   7   8   4 36.5222 3.50588   1
   7   8   5 144.779 11.6439   1
   7   8   6 3.37049 0.86068   1
   7   8   7 181.246 14.4092   1
   7   8   8 15.5872 1.89491   1
   7   8   9 15.4725 1.84192   1
   7   9   0 26.8255 2.86731   1
   7   9   1 13.5802 1.83529   1
   7   9   2 12.0932 1.69411   1
   7   9   3 39.3165  3.6982   1
   7   9   4 60.3723 3.91507   1
   7   9   5 4.64841 1.28607   1
   7   9   6  63.364 5.37813   1
   7   9   7 4.83483 1.24581   1
   7   9   8 26.2744 2.69157   1
   7  10   0 0.71379 0.70433   1
   7  10   1   46.84 3.13476   1
   7  10   2  4.2796 1.27047   1
   7  10   3  27.482 2.85936   1
   7  10   4  85.986 7.06978   1
   7  10   5 3.37689 1.18851   1
   7  10   6 72.9848 6.03308   1
   7  11   0 5.20455 1.26165   1
   7  11   1 126.364 10.1291   1
   7  11   2 0.20199 1.06462   1
   7  11   3 71.9237 5.97328   1
   7  11   4 2.89635 1.11192   1
   7  12   0 40.8679 3.68782   1
   7  12   1 3.68306 1.14122   1
   7  12   2 51.5491 4.46874   1
   8 -16   1 2.09547 1.51235   1
   8 -16   2 7.30124 1.89907   1
   8 -16   3 0.69207 1.40232   1
   8 -16   4 66.1785 6.87847   1
   8 -16   5 1.45166 1.41533   1
   8 -16   6 76.1396 7.69011   1
   8 -16   7 18.3464 2.66987   1
   8 -16   8 19.5518 2.69694   1
   8 -16   9 27.4231 3.36184   1
   8 -16  13 8.13694 1.36225   1
   8 -15   1 20.8719 3.06129   1
   8 -15   2 6.96129 1.89309   1
   8 -15   3 2.33354 1.65178   1
   8 -15   4 0.66137 1.45378   1
   8 -15   5 21.4298 3.10509   1
   8 -15   6 58.1897 6.20487   1
   8 -15   7 66.1882 6.85741   1
   8 -15   8 80.2716 8.06334   1
   8 -15   9 9.43317 1.83206   1
   8 -15  10 32.6097 3.69718   1
   8 -15  11 16.4834 2.08676   1
   8 -15  12 23.2405 2.70013   1
   8 -15  13  2.4192 1.01574   1
   8 -15  14 22.1366 2.57134   1
   8 -15  15  0.1898 0.86121   1
   8 -14   1 22.7088 6.78599   1
   8 -14   2 1.59157 1.00552   1
   8 -14   3 88.2011 9.01824   1
   8 -14   4 10.1302 1.38761   1
   8 -14   5   75.25 7.82277   1
   8 -14   6  1.5323  1.3927   1
   8 -14   7 40.0887 4.62017   1
   8 -14   8 5.99469 1.59701   1
   8 -14   9 44.5348 5.26105   1
   8 -14  10 12.6206 1.39968   1
   8 -14  11 32.6326 3.53014   1
   8 -14  12 12.7589 1.79938   1
   8 -14  13 6.76021 1.31086   1
   8 -14  14 26.8207 3.04117   1
   8 -14  15 5.06034 1.24386   1
   8 -14  16 29.7542 3.16891   1
   8 -14  17 8.24702 1.37267   1
   8 -13   1 3.05205 1.05425   1
   8 -13   2 139.664 9.42054   1
   8 -13   3 14.3918 1.63144   1
   8 -13   4 87.5447 9.34147   1
   8 -13   5  13.128  2.1703   1
   8 -13   6 27.3221 3.57706   1
   8 -13   7 6.99033 1.76063   1
   8 -13   8 18.2107  1.7911   1
   8 -13   9 48.7035 4.19277   1
   8 -13  10 10.8984 4.92212   1
   8 -13  11 81.9371 7.83332   1
   8 -13  12-0.68517 1.01579   1
   8 -13  13 27.2796 3.20685   1
   8 -13  14 1.14242 1.03734   1
   8 -13  15 17.9605 2.28538   1
   8 -13  16 0.46525 0.96659   1
   8 -13  17 50.0726 4.87147   1
   8 -13  18 4.56627  1.0617   1
   8 -12   1  67.762 4.91535   1
   8 -12   2 105.178  7.2781   1
   8 -12   3 81.3376 12.4676   1
   8 -12   4 96.8553 18.2184   1
   8 -12   5  4.9857  1.0224   1
   8 -12   6 46.5776 5.44834   1
   8 -12   7 1.75311 0.83017   1
   8 -12   8 29.5309 5.94843   1
   8 -12   9 1.15302 0.80183   1
   8 -12  10 33.9361 3.78816   1
   8 -12  11 5.31099 1.42268   1
   8 -12  12 58.7413 5.88618   1
   8 -12  13 21.1861  2.7814   1
   8 -12  14 43.5251 4.48351   1
   8 -12  15 32.1125 3.49763   1
   8 -12  16 18.4269 2.43443   1
   8 -12  17 26.7116  3.1327   1
   8 -12  18 4.60913 0.81078   1
   8 -12  19 16.3102 1.74024   1
   8 -11   1 24.3015 2.24483   1
   8 -11   2 4.06087 1.24072   1
   8 -11   3 121.571 8.28109   1
   8 -11   4 1.64373 0.92872   1
   8 -11   5 197.373 13.1435   1
   8 -11   6 29.1185 2.13212   1
   8 -11   7 34.2184 3.82159   1
   8 -11   8 49.7218  6.0201   1
   8 -11   9 0.31404 0.71059   1
   8 -11  10 7.96202 1.66878   1
   8 -11  11 8.92632 1.70865   1
   8 -11  12  30.824 3.55758   1
   8 -11  13 30.5625 3.67492   1
   8 -11  14 160.913 17.7653   1
   8 -11  15  6.0447 0.97082   1
   8 -11  16 71.9346 18.4472   1
   8 -11  17 1.12265 0.67448   1
   8 -11  18 2.26639 0.72348   1
   8 -11  19 7.85911 0.98688   1
   8 -10   1 12.8512 1.50234   1
   8 -10   2 3.19994  0.9322   1
   8 -10   3 6.21261 1.18619   1
   8 -10   4 4.31789 0.96361   1
   8 -10   5 122.609 7.00938   1
   8 -10   6  91.321 7.71821   1
   8 -10   7 129.334 7.34633   1
   8 -10   8 14.3449 1.56329   1
   8 -10   9 20.9981  2.0339   1
   8 -10  10 28.8857 2.49821   1
   8 -10  11 41.0512 3.26684   1
   8 -10  12 5.53039 1.02876   1
   8 -10  13 115.196 16.6476   1
   8 -10  14 0.50104 0.69714   1
   8 -10  15 65.6394 4.86506   1
   8 -10  16 18.7279 2.94778   1
   8 -10  17 11.0587 1.30405   1
   8 -10  18 27.9371  2.9679   1
   8 -10  19  2.3642 0.71673   1
   8 -10  20 13.3302 1.32356   1
   8  -9   1  54.313 3.35704   1
   8  -9   2 216.492 29.9281   1
   8  -9   3 15.4957 1.95443   1
   8  -9   4 56.9067 5.02434   1
   8  -9   5 17.0065 1.41285   1
   8  -9   6 7.27099 0.86011   1
   8  -9   7 42.6731 3.69018   1
   8  -9   8 104.587 6.12805   1
   8  -9   9 5.08985 2.20906   1
   8  -9  10 142.883 10.1914   1
   8  -9  11 16.6371 2.30898   1
   8  -9  12 17.0166 1.75347   1
   8  -9  13 103.553 7.46245   1
   8  -9  14 0.38482 0.69161   1
   8  -9  15 35.1173 2.87652   1
   8  -9  16 12.5489 2.31968   1
   8  -9  17  10.195 1.26668   1
   8  -9  18 0.26976 0.57752   1
   8  -9  19 40.3289 3.07972   1
   8  -9  20 6.36581 0.92504   1
   8  -8   1 206.043 14.9678   1
   8  -8   2 44.0999 2.45444   1
   8  -8   3 53.9676  3.2947   1
   8  -8   4 35.3232 2.03996   1
   8  -8   5 15.4074 1.01769   1
   8  -8   6 3.92474 0.61939   1
   8  -8   7 13.2221 1.27219   1
   8  -8   8 78.3231 4.65722   1
   8  -8   9 16.7398 4.54388   1
   8  -8  10 262.755 50.6715   1
   8  -8  11 28.9244 8.35187   1
   8  -8  12 87.5943 11.7004   1
   8  -8  13 2.58362 1.58553   1
   8  -8  14 1.42982 0.74899   1
   8  -8  15 20.9318 2.00294   1
   8  -8  16 33.9154  4.4903   1
   8  -8  17 20.4181 2.57046   1
   8  -8  18 87.6965 14.1519   1
   8  -8  19 5.50728  1.6121   1
   8  -8  20 6.53716 1.66028   1
   8  -7   1 199.189 13.3363   1
   8  -7   2 91.4689 4.43591   1
   8  -7   3 126.659  6.0371   1
   8  -7   4 3.32571 0.55822   1
   8  -7   5 20.3603   1.224   1
   8  -7   6 20.8096 1.25056   1
   8  -7   7 107.457 6.26101   1
   8  -7   8 0.68008 0.51337   1
   8  -7   9 199.748 16.7509   1
   8  -7  10 0.84818  0.6782   1
   8  -7  11 79.1647 14.0368   1
   8  -7  12  44.355 3.50805   1
   8  -7  13 26.3398 2.32656   1
   8  -7  14 25.2628 6.47063   1
   8  -7  15  5.7262 1.19332   1
   8  -7  16 6.62691 1.22105   1
   8  -7  17 0.31579 0.69098   1
   8  -7  18 44.0338 3.39289   1
   8  -7  19 3.70101 0.83114   1
   8  -7  20 88.7649 9.06545   1
   8  -6   1 14.3688 0.92314   1
   8  -6   2 3.71248 1.16485   1
   8  -6   3 34.2696 2.62097   1
   8  -6   4 107.795 5.31388   1
   8  -6   5  12.082 0.85638   1
   8  -6   6 232.355 14.8015   1
   8  -6   7 45.4754 2.57789   1
   8  -6   8  35.126 2.67853   1
   8  -6   9 110.793 10.9848   1
   8  -6  10 4.29242 1.25689   1
   8  -6  11 44.5162 4.61762   1
   8  -6  12 17.9227   1.802   1
   8  -6  13 36.8316 3.01379   1
   8  -6  14 2.14202 1.38096   1
   8  -6  15 50.1165 3.86238   1
   8  -6  16 7.07078 1.26099   1
   8  -6  17 31.4063 3.19891   1
   8  -6  18 6.68664 1.07704   1
   8  -6  19 13.5815 2.15643   1
   8  -6  20 13.9728 2.10862   1
   8  -5   1 21.9159 1.20541   1
   8  -5   2 20.1412 1.22861   1
   8  -5   3 39.7093 2.49549   1
   8  -5   4 143.191 7.81769   1
   8  -5   5 25.4634 1.29035   1
   8  -5   6 324.885 14.0631   1
   8  -5   7 21.3125 1.20955   1
   8  -5   8 96.3358  7.3463   1
   8  -5   9 4.60415 0.55711   1
   8  -5  10 14.9997 1.07271   1
   8  -5  11 22.7185 1.60277   1
   8  -5  12  61.003  3.6486   1
   8  -5  13  25.587 1.99703   1
   8  -5  14 67.5368 3.93992   1
   8  -5  15 5.26611  0.7162   1
   8  -5  16 8.79997 1.17311   1
   8  -5  17 22.9496 1.58545   1
   8  -5  18 9.38899 1.73167   1
   8  -5  19 65.8185  4.4745   1
   8  -5  20 15.0613 2.23468   1
   8  -4   1 37.0328 1.99002   1
   8  -4   2 3.48851 0.39174   1
   8  -4   3 219.104 10.2904   1
   8  -4   4 2.13293 0.32701   1
   8  -4   5 245.709 11.2865   1
   8  -4   6 5.76079 0.49273   1
   8  -4   7 67.4536 4.58477   1
   8  -4   8 32.8444 1.83554   1
   8  -4   9 54.8749 2.87067   1
   8  -4  10 31.5339 2.08729   1
   8  -4  11 25.8812 1.81246   1
   8  -4  12 22.9934 1.62256   1
   8  -4  13 1.20572 0.51399   1
   8  -4  14 50.5149 3.56044   1
   8  -4  15 0.79861 0.49055   1
   8  -4  16 71.2835 6.36868   1
   8  -4  17  3.3646 0.75174   1
   8  -4  18 63.8377 11.7019   1
   8  -4  19 1.62892 0.59253   1
   8  -4  20 21.0926 2.61975   1
   8  -3   1 22.6933 1.27832   1
   8  -3   2 230.857 9.96543   1
   8  -3   3 40.1072 1.78092   1
   8  -3   4 149.057  7.1122   1
   8  -3   5 115.917 5.11099   1
   8  -3   6 24.2312 1.62742   1
   8  -3   7 128.688 7.00676   1
   8  -3   8 5.57741 0.59734   1
   8  -3   9 62.2747 3.25246   1
   8  -3  10 0.36603 0.41065   1
   8  -3  11 21.6423 1.35548   1
   8  -3  12 0.19952 0.47916   1
   8  -3  13  24.344  1.6941   1
   8  -3  14 5.16218 0.93259   1
   8  -3  15 79.9684 6.34911   1
   8  -3  16 33.5583 2.55748   1
   8  -3  17 74.0906 5.05998   1
   8  -3  18 26.0099 2.02408   1
   8  -3  19 9.58608  1.7468   1
   8  -2   1 40.2597 2.72879   1
   8  -2   2  161.27  7.4943   1
   8  -2   3  11.058 0.69234   1
   8  -2   4 47.9555 2.66686   1
   8  -2   5 5.79477 0.48789   1
   8  -2   6 92.4299 4.37603   1
   8  -2   7 5.49798 0.80414   1
   8  -2   8 146.108 7.25031   1
   8  -2   9 22.2668  1.8273   1
   8  -2  10 38.4049 2.11131   1
   8  -2  11 41.4442   4.127   1
   8  -2  12 3.73572 0.54547   1
   8  -2  13 28.0124 1.88008   1
   8  -2  14 21.0752 1.51765   1
   8  -2  15   48.04 3.45946   1
   8  -2  16 22.5425 1.89217   1
   8  -2  17   54.62 4.57826   1
   8  -2  18 2.27482 0.59974   1
   8  -2  19   23.90 2.82777   1
   8  -1   1 441.788 20.3115   1
   8  -1   2 2.47382 0.37477   1
   8  -1   3 211.426 9.21864   1
   8  -1   4 51.0231 2.74772   1
   8  -1   5 26.9149 1.63922   1
   8  -1   6 114.459 6.42696   1
   8  -1   7 8.07098 0.89684   1
   8  -1   8 21.7185 1.34145   1
   8  -1   9 12.5166 0.92028   1
   8  -1  10 11.1229 1.18689   1
   8  -1  11 12.6272 0.93228   1
   8  -1  12 102.919 5.13286   1
   8  -1  13 0.29172  0.4912   1
   8  -1  14 142.984 9.50829   1
   8  -1  15 7.07475  1.9721   1
   8  -1  16 30.7339  3.8557   1
   8  -1  17 3.08607 0.78574   1
   8  -1  18 2.86114 0.70273   1
   8   0   0 68.2105 3.29321   1
   8   0   1 132.412 6.18856   1
   8   0   2 23.7632 1.65045   1
   8   0   3 194.173 9.07345   1
   8   0   4 47.6243 2.36206   1
   8   0   5 47.7601  2.6426   1
   8   0   6 12.2656 1.18764   1
   8   0   7 9.66049 0.76827   1
   8   0   8 4.26784 0.54573   1
   8   0   9 53.2806 4.27917   1
   8   0  10 19.3891 1.25934   1
   8   0  11 152.994 7.53238   1
   8   0  12 26.6264  1.5728   1
   8   0  13 62.4579  3.5857   1
   8   0  14 14.2066 1.40651   1
   8   0  15 3.99191 0.86569   1
   8   0  16 15.6034  1.4919   1
   8   0  17 6.06259  0.9843   1
   8   1   0 55.8234  4.5474   1
   8   1   1 30.5146 1.75248   1
   8   1   2 272.115 16.5827   1
   8   1   3  3.2068 0.53892   1
   8   1   4 223.908 16.6766   1
   8   1   5 47.2883 4.32758   1
   8   1   6 7.03621 1.15407   1
   8   1   7 23.9679 1.61037   1
   8   1   8 0.94834 0.51647   1
   8   1   9 9.11113 0.95742   1
   8   1  10 49.9411 2.62527   1
   8   1  11   74.42 4.08191   1
   8   1  12 54.4312  3.5224   1
   8   1  13 124.728 9.34419   1
   8   1  14 1.23127 0.68163   1
   8   1  15 29.2647  2.2937   1
   8   1  16 2.77363 0.66034   1
   8   1  17 3.06395 0.71515   1
   8   2   0  92.444 5.14088   1
   8   2   1 4.51895 2.19492   1
   8   2   2 66.3054 6.96861   1
   8   2   3 6.75578 1.05686   1
   8   2   4 2.22138  0.5649   1
   8   2   5 72.5755 5.40317   1
   8   2   6 30.1711 2.21705   1
   8   2   7 30.1632 1.87469   1
   8   2   8 173.501 9.20212   1
   8   2   9 8.20221 1.31156   1
   8   2  10 112.117 6.87931   1
   8   2  11 17.0431 1.46784   1
   8   2  12 15.1973  3.5748   1
   8   2  13-0.32579 0.70703   1
   8   2  14  17.954 1.63173   1
   8   2  15 1.86185 1.50401   1
   8   2  16 42.9004 3.61336   1
   8   3   0  156.76 9.62439   1
   8   3   1 88.9193 6.60823   1
   8   3   2 1.34812  0.6859   1
   8   3   3 8.97152 0.96366   1
   8   3   4 42.5396 3.72142   1
   8   3   5 33.5445 2.02795   1
   8   3   6 6.02233 0.69536   1
   8   3   7 135.616 7.22698   1
   8   3   8 1.99599 0.88698   1
   8   3   9 80.1749 5.02003   1
   8   3  10  20.642 1.69984   1
   8   3  11 10.0172 1.31558   1
   8   3  12 34.3998 3.14111   1
   8   3  13 5.19622 1.00277   1
   8   3  14 30.0693 3.01765   1
   8   3  15 8.80297  1.1503   1
   8   4   0 106.939 6.71127   1
   8   4   1 5.97044 0.80109   1
   8   4   2 16.8559 2.75522   1
   8   4   3 0.92845 0.58215   1
   8   4   4 13.3436 1.22822   1
   8   4   5 44.1038 3.13044   1
   8   4   6 49.7354  5.6987   1
   8   4   7 141.303 7.49832   1
   8   4   8  29.154   2.156   1
   8   4   9 72.1559 4.55102   1
   8   4  10  1.6807 0.62265   1
   8   4  11 21.1655 2.20216   1
   8   4  12 0.40335 0.73389   1
   8   4  13 10.3658 1.27359   1
   8   5   0 6.47673 0.68782   1
   8   5   1 14.1474 1.81687   1
   8   5   2 81.4149 5.12423   1
   8   5   3  19.052 1.63781   1
   8   5   4 122.798   7.538   1
   8   5   5 0.20922 0.48309   1
   8   5   6 44.0331 2.53104   1
   8   5   7 11.0698 1.12863   1
   8   5   8 40.0918 2.73827   1
   8   5   9 2.13347 0.67383   1
   8   5  10  74.509 6.11139   1
   8   5  11 3.64863 0.93028   1
   8   6   0 0.50248 0.48457   1
   8   6   1  33.179 2.77659   1
   8   6   2   1.736  0.6727   1
   8   6   3 116.654 6.09131   1
   8   6   4 20.8463 3.89859   1
   8   6   5 92.3811 15.1079   1
   8   6   6 35.6932 2.51005   1
   8   6   7 14.0691 3.32886   1
   8   6   8  26.061 2.55744   1
   8   6   9 3.24972 0.84882   1
   8   6  10 27.5873 2.59049   1
   8   7   0 18.7433 1.80297   1
   8   7   1  87.842  5.4945   1
   8   7   2  34.189 2.47116   1
   8   7   3 61.0698 5.44615   1
   8   7   4 18.1765 1.55181   1
   8   7   5 31.9037 2.33647   1
   8   8   0 63.1027 5.20751   1
   8   8   1 7.23296 0.96398   1
   8   8   2 56.1053 3.66656   1
   8   8   3 13.8045 1.41971   1
   8   8   4 78.5974 6.51834   1
   8   8   5 6.85274 1.33372   1
   8   9   0 42.9299 2.90629   1
   8   9   1 30.1995 3.05249   1
   8   9   2 14.0308 1.84918   1
   8   9   3 32.6307 3.20864   1
   8   9   4 16.7724 1.97804   1
   8   9   5 17.2888 1.96011   1
   8  10   0 15.1839  1.8524   1
   8  10   1 44.3015  3.9645   1
   8  10   2 0.42105 1.05557   1
   8  10   3 79.4716 6.49728   1
   8  11   0 103.721 8.32932   1
   8  11   1 1.97225 1.01521   1
   9 -16   3 24.0797 3.24522   1
   9 -16   4 2.86634 1.51425   1
   9 -15   1 11.6331 2.21852   1
   9 -15   2  10.454 2.15806   1
   9 -15   3 17.8155 2.75804   1
   9 -15   4 16.6686 2.66696   1
   9 -15   5 45.6499 5.01123   1
   9 -15   6 4.17057 1.49597   1
   9 -15   7 36.5191 4.17231   1
   9 -15   8 18.4372  2.6107   1
   9 -15   9 26.0805 3.24646   1
   9 -15  12-0.75407 0.82235   1
   9 -14   1 2.28415 1.50888   1
   9 -14   2  125.07 12.3389   1
   9 -14   3 1.56138 1.42863   1
   9 -14   4 45.4198  5.1303   1
   9 -14   5 13.4066 2.38025   1
   9 -14   6 2.00337 1.32262   1
   9 -14   7 10.5567 2.00434   1
   9 -14   8 12.9771 2.12317   1
   9 -14   9 9.17545 1.70776   1
   9 -14  10 28.5855 3.10737   1
   9 -14  11 75.0391  7.0618   1
   9 -14  12  9.5708 1.44653   1
   9 -14  13 70.0197 6.59457   1
   9 -14  14 1.79533 0.94926   1
   9 -13   1 15.1401 3.55492   1
   9 -13   2  28.719 2.51852   1
   9 -13   3 62.0765 5.48364   1
   9 -13   4 103.604 7.07012   1
   9 -13   5 38.8181 2.99907   1
   9 -13   6 24.0069 3.19618   1
   9 -13   7 2.32396   1.283   1
   9 -13   8 10.2807 1.25415   1
   9 -13   9 10.1063 1.22318   1
   9 -13  10 64.2458    6.22   1
   9 -13  11 1.59949 0.92412   1
   9 -13  12 114.255 10.6029   1
   9 -13  13 1.44377 1.03437   1
   9 -13  14 28.3124  3.1247   1
   9 -13  15 16.3831 2.18181   1
   9 -13  16 4.12333 1.02145   1
   9 -12   1 106.568 7.32355   1
   9 -12   2 2.21788 0.97315   1
   9 -12   3 49.7333 6.40155   1
   9 -12   4 14.7194 1.62632   1
   9 -12   5 15.5921 1.61677   1
   9 -12   6 8.18849 1.15636   1
   9 -12   7 55.0058  4.6483   1
   9 -12   8 1.99019 0.83037   1
   9 -12   9 68.8439 6.73953   1
   9 -12  10 27.9785 3.25203   1
   9 -12  11 24.3104 2.96615   1
   9 -12  12 56.3617 5.58825   1
   9 -12  13 17.8158 2.31752   1
   9 -12  14 21.2367  2.6143   1
   9 -12  15 1.53087 0.94971   1
   9 -12  16 16.7974  2.2128   1
   9 -12  17 0.02121 0.80016   1
   9 -11   1   8.053  1.6887   1
   9 -11   2 19.2612  1.9083   1
   9 -11   3 12.0877 1.99889   1
   9 -11   4 7.60936 2.95563   1
   9 -11   5 27.4458 2.35997   1
   9 -11   6 24.8612 1.78697   1
   9 -11   7 97.6835 8.24592   1
   9 -11   8 35.4322 5.21989   1
   9 -11   9 80.4853 7.80544   1
   9 -11  10 3.63575 1.26709   1
   9 -11  11 14.2845 2.07846   1
   9 -11  12 1.83918 0.78116   1
   9 -11  13 36.5805 2.92514   1
   9 -11  14 5.40195 0.95058   1
   9 -11  15 53.2594 3.96589   1
   9 -11  16 3.78736 1.65422   1
   9 -11  17 13.2875 3.66883   1
   9 -10   1 9.92231 1.10049   1
   9 -10   2 27.3399 2.40695   1
   9 -10   3 1.24791 0.80905   1
   9 -10   4 51.6791 13.7992   1
   9 -10   5 2.21527 0.68617   1
   9 -10   6 109.325 6.25492   1
   9 -10   7 2.53991 0.68978   1
   9 -10   8 108.003 7.77526   1
   9 -10   9 1.01736 0.76381   1
   9 -10  10  59.037 4.44298   1
   9 -10  11 4.81582 0.97798   1
   9 -10  12 24.0779 3.28452   1
   9 -10  13 30.8811 3.04315   1
   9 -10  14 5.41381 1.17038   1
   9 -10  15 45.4005 8.65856   1
   9 -10  16 2.37189 0.71718   1
   9 -10  17  15.836 5.71679   1
   9 -10  18 3.19511 0.70238   1
   9  -9   1 2.37953 0.94329   1
   9  -9   2   13.89 1.77386   1
   9  -9   3 19.5376 1.51006   1
   9  -9   4 7.87331 0.91924   1
   9  -9   5 164.065 12.9219   1
   9  -9   6 30.9707 2.28939   1
   9  -9   7 104.847 7.29755   1
   9  -9   8 79.7227 5.05306   1
   9  -9   9 4.68238 2.69112   1
   9  -9  10 55.9016 5.83401   1
   9  -9  11 0.01536 1.05807   1
   9  -9  12 26.6944 2.35123   1
   9  -9  13 5.76655 2.33315   1
   9  -9  14 9.41321 1.23913   1
   9  -9  15 0.29165 0.66578   1
   9  -9  16 35.5279 9.25443   1
   9  -9  17 18.5378 2.94839   1
   9  -9  18 82.8864 9.88101   1
   9  -8   1 90.4355 9.22814   1
   9  -8   2 72.9896 3.57364   1
   9  -8   3  110.28 5.26612   1
   9  -8   4  5.7451 0.68981   1
   9  -8   5 46.2031 2.58905   1
   9  -8   6 0.44637 0.45607   1
   9  -8   7 58.4506 3.81526   1
   9  -8   8 10.5226 1.11495   1
   9  -8   9 142.661 10.4788   1
   9  -8  10-0.25456 0.92975   1
   9  -8  11 65.1946 7.91573   1
   9  -8  12 30.9641 2.63609   1
   9  -8  13 4.90191 2.13972   1
   9  -8  14 24.4012 2.17952   1
   9  -8  15 6.85665 1.06238   1
   9  -8  16 10.7451 1.53874   1
   9  -8  17 31.0673 2.54391   1
   9  -8  18 31.6059 3.66893   1
   9  -7   1 0.86118 0.43916   1
   9  -7   2  180.14 9.26767   1
   9  -7   3 1.14378 0.49612   1
   9  -7   4 144.228 9.28401   1
   9  -7   5 1.44406 0.48576   1
   9  -7   6 65.0395 4.31149   1
   9  -7   7 22.1014 1.85746   1
   9  -7   8 38.0365 2.96921   1
   9  -7   9 62.0457  5.5614   1
   9  -7  10 18.2827 1.86448   1
   9  -7  11 29.9981 5.04084   1
   9  -7  12 7.62933 3.87493   1
   9  -7  13 7.84282 1.15338   1
   9  -7  14 2.64709 2.19973   1
   9  -7  15  60.209 4.50416   1
   9  -7  16 0.16688 0.73289   1
   9  -7  17 94.8266 6.73311   1
   9  -7  18 1.30666 0.66898   1
   9  -6   1 175.849 8.29416   1
   9  -6   2 58.1916 3.01312   1
   9  -6   3 119.771 6.11643   1
   9  -6   4 102.173 5.46408   1
   9  -6   5 21.9926 1.68177   1
   9  -6   6 75.5865 5.00098   1
   9  -6   7 5.40628 0.76603   1
   9  -6   8 34.5484 2.27852   1
   9  -6   9 6.05553 0.79613   1
   9  -6  10 18.7333 3.32881   1
   9  -6  11 0.98308 0.73786   1
   9  -6  12 62.5015   9.971   1
   9  -6  13 20.1672 1.95218   1
   9  -6  14 95.0468 6.84379   1
   9  -6  15 9.22623 1.19432   1
   9  -6  16 13.4313 2.15637   1
   9  -6  17 6.83749 1.01563   1
   9  -6  18 5.76578 0.97349   1
   9  -5   1 12.3068 0.77486   1
   9  -5   2 7.35823  0.7877   1
   9  -5   3 140.874 6.11339   1
   9  -5   4 28.3013 1.68355   1
   9  -5   5 333.133 15.0688   1
   9  -5   6 2.23119 0.43827   1
   9  -5   7 57.9682  3.4807   1
   9  -5   8 38.8875 2.13031   1
   9  -5   9 8.75027 0.76796   1
   9  -5  10  11.491 1.43396   1
   9  -5  11 21.5394 1.57772   1
   9  -5  12 9.82263  0.9529   1
   9  -5  13 89.5713 8.05819   1
   9  -5  14 73.7337 4.26257   1
   9  -5  15 17.7684   1.339   1
   9  -5  16 82.1863 5.22134   1
   9  -5  17 1.39778 1.07516   1
   9  -5  18 8.37096 1.60174   1
   9  -4   1 12.6501 0.79331   1
   9  -4   2 37.0786 2.55381   1
   9  -4   3 37.3023 1.77693   1
   9  -4   4 55.0921 3.77396   1
   9  -4   5 33.1702 1.71206   1
   9  -4   6 67.5203 5.57965   1
   9  -4   7 23.0852 1.41141   1
   9  -4   8 21.3568 1.34915   1
   9  -4   9 41.4403 3.41157   1
   9  -4  10 0.63955 0.42892   1
   9  -4  11 91.9225 6.37967   1
   9  -4  12 3.15906 0.78735   1
   9  -4  13 90.5568 5.35455   1
   9  -4  14 0.96319 0.73194   1
   9  -4  15 35.1967 2.19218   1
   9  -4  16 0.06247 0.42605   1
   9  -4  17 17.2872 1.49325   1
   9  -4  18 9.79538 1.65498   1
   9  -3   1 203.805 8.78317   1
   9  -3   2 135.783  6.2725   1
   9  -3   3 4.87148 0.47908   1
   9  -3   4 45.6979 2.45862   1
   9  -3   5 12.1337 0.95226   1
   9  -3   6  17.737  1.1745   1
   9  -3   7 -0.3367 0.75203   1
   9  -3   8 59.2809  3.8242   1
   9  -3   9 0.75591 0.45189   1
   9  -3  10  109.67 11.5514   1
   9  -3  11 16.4074 1.12627   1
   9  -3  12 36.1564 3.42001   1
   9  -3  13 29.9274 3.54158   1
   9  -3  14 8.53387 1.46859   1
   9  -3  15 34.0523 2.40245   1
   9  -3  16 15.7531 2.84212   1
   9  -3  17 19.6382 1.62672   1
   9  -3  18 3.48768 1.04023   1
   9  -2   1 291.308  12.452   1
   9  -2   2 1.51495 0.54991   1
   9  -2   3 76.8835 4.07389   1
   9  -2   4 0.96012 0.38683   1
   9  -2   5 2.48692 0.47945   1
   9  -2   6  24.025 1.45729   1
   9  -2   7 26.7579 1.96445   1
   9  -2   8 91.3621 4.86964   1
   9  -2   9  109.99 6.38707   1
   9  -2  10  74.773 4.22421   1
   9  -2  11 17.0828 1.16245   1
   9  -2  12 32.7145 1.99397   1
   9  -2  13 0.27258 0.48178   1
   9  -2  14 23.7963 1.60675   1
   9  -2  15 0.25755 0.87372   1
   9  -2  16 29.7938 6.00297   1
   9  -2  17 0.23028 0.59368   1
   9  -1   1 32.5614 1.88471   1
   9  -1   2 16.8455  1.5215   1
   9  -1   3 60.6294 4.68839   1
   9  -1   4 2.59611 0.49741   1
   9  -1   5 48.7831 2.60003   1
   9  -1   6 11.5025 0.88557   1
   9  -1   7 42.1441 3.41011   1
   9  -1   8 0.48272 0.49903   1
   9  -1   9 90.5123  8.0525   1
   9  -1  10 1.07129 0.47223   1
   9  -1  11  104.38 5.17412   1
   9  -1  12 0.93506 0.44558   1
   9  -1  13 36.7261 5.23314   1
   9  -1  14 9.52628 1.07255   1
   9  -1  15 5.06819 1.47311   1
   9  -1  16 14.3882 1.56318   1
   9   0   0 24.2141 2.48082   1
   9   0   1 2.80076 0.48133   1
   9   0   2 19.1874 1.14129   1
   9   0   3 25.7107 1.65482   1
   9   0   4 94.8516 4.78552   1
   9   0   5 3.98221 0.56724   1
   9   0   6 154.239 8.27199   1
   9   0   7 56.6437 3.33261   1
   9   0   8 39.6253 2.87498   1
   9   0   9 19.5771 1.49098   1
   9   0  10 7.23493 1.04856   1
   9   0  11 20.1256 2.16664   1
   9   0  12 27.8787 1.59321   1
   9   0  13 41.6404 3.61537   1
   9   0  14 19.5272 1.99952   1
   9   0  15 14.5526   1.626   1
   9   1   0 0.84475 0.43119   1
   9   1   1 3.41021  0.6015   1
   9   1   2 74.5094 4.27272   1
   9   1   3 15.1301 1.05933   1
   9   1   4 84.3032 4.78731   1
   9   1   5 92.1429 4.63283   1
   9   1   6 17.3903 1.16631   1
   9   1   7 29.3717  1.6955   1
   9   1   8 40.0063 2.93686   1
   9   1   9 1.00042 0.46731   1
   9   1  10 107.034 5.72317   1
   9   1  11 0.63504 0.45886   1
   9   1  12 34.6232 3.12334   1
   9   1  13 1.87511 0.77985   1
   9   1  14 4.51688 0.91698   1
   9   1  15 3.72624 0.83796   1
   9   2   0 5.27098 1.01625   1
   9   2   1 36.1021  2.2632   1
   9   2   2 91.3093 9.52184   1
   9   2   3 57.9159  3.8706   1
   9   2   4 0.16772 0.43925   1
   9   2   5 129.686  6.7217   1
   9   2   6 24.5714 1.47791   1
   9   2   7 113.995 6.10867   1
   9   2   8 0.99418 0.51205   1
   9   2   9 28.1234 1.97074   1
   9   2  10 2.39057 0.89868   1
   9   2  11 8.24362  1.2408   1
   9   2  12 17.3864 1.89945   1
   9   2  13 12.3958 1.45936   1
   9   2  14 24.4822 2.31097   1
   9   3   0 62.9328 3.91304   1
   9   3   1 47.1891 3.49982   1
   9   3   2  54.382 3.20206   1
   9   3   3 29.1593 2.17373   1
   9   3   4  47.915 3.51727   1
   9   3   5 1.09402 0.80818   1
   9   3   6 45.7295 2.65417   1
   9   3   7 45.0703 3.20076   1
   9   3   8  36.298 3.08532   1
   9   3   9 74.0365 7.03445   1
   9   3  10 4.86396 1.04491   1
   9   3  11 6.77128 1.15318   1
   9   3  12 1.19905 0.74215   1
   9   3  13 6.84619 1.12452   1
   9   4   0 24.3828 2.98663   1
   9   4   1 83.9062 5.26924   1
   9   4   2 17.4298 1.51154   1
   9   4   3 5.34739 0.86616   1
   9   4   4 98.8577 5.33173   1
   9   4   5 1.76973 0.54451   1
   9   4   6  111.66 5.96699   1
   9   4   7 3.75546 0.61923   1
   9   4   8  18.039 1.77304   1
   9   4   9 0.01045  0.7218   1
   9   4  10 5.47939 1.05598   1
   9   4  11 3.27235 0.90781   1
   9   5   0 1.02494 0.62802   1
   9   5   1 116.009 7.12396   1
   9   5   2  3.4539 0.73805   1
   9   5   3 74.3517 4.68427   1
   9   5   4 0.67946 0.57537   1
   9   5   5 28.3305 1.78269   1
   9   5   6 6.23813 0.70389   1
   9   5   7 15.5738 1.76093   1
   9   5   8 10.0535 1.42336   1
   9   5   9 16.2905 1.87112   1
   9   5  10 16.5315 1.78384   1
   9   6   0 46.8386 6.97136   1
   9   6   1 10.7033 1.10315   1
   9   6   2 96.7007  5.9547   1
   9   6   3 76.3042  4.1477   1
   9   6   4   41.23 2.38225   1
   9   6   5 36.2403  3.2678   1
   9   6   6 0.40244 0.70306   1
   9   6   7 2.04426 0.76896   1
   9   6   8 0.81836 0.66219   1
   9   7   0 83.4712 5.19443   1
   9   7   1 5.93297 0.88697   1
   9   7   2 72.9771 6.47688   1
   9   7   3 5.45076 1.04346   1
   9   8   0 11.8075 1.63334   1
   9   8   1 24.2774 2.58764   1
   9   8   2 11.4914  1.1525   1
   9   9   0  57.851 4.94084   1
   9   9   1 22.2137 2.48042   1
   9   9   2 1.04313 0.99946   1
  10 -14   1 11.1658 2.17684   1
  10 -14   2 10.5171 2.02141   1
  10 -14   3  5.0727 1.62751   1
  10 -14   4 23.9168 3.18882   1
  10 -14   5 22.1158 3.04432   1
  10 -14   6   21.42 2.88199   1
  10 -14   7 15.9715  2.3277   1
  10 -14  11 2.53695 0.80977   1
  10 -13   1 38.6827  4.5196   1
  10 -13   2 4.39436 1.61626   1
  10 -13   3 77.5051 7.90469   1
  10 -13   4 1.38866 1.32061   1
  10 -13   5 35.2868 4.09246   1
  10 -13   6 2.09424 1.22965   1
  10 -13   7 23.5414 3.03501   1
  10 -13   9 43.1934 4.28264   1
  10 -13  10  5.5684 1.16525   1
  10 -13  11 37.4596 3.82747   1
  10 -13  12 55.5434 5.35544   1
  10 -13  13 4.97197 1.10804   1
  10 -12   1 4.78235 1.09162   1
  10 -12   2  39.111 6.34305   1
  10 -12   3  14.625 4.86368   1
  10 -12   4 95.0747 16.5248   1
  10 -12   5 21.5455 1.96332   1
  10 -12   6 36.6472 4.16491   1
  10 -12   7 19.8057 1.85859   1
  10 -12   8  3.7573 1.18825   1
  10 -12   9 36.9927 3.88545   1
  10 -12  10 7.75416 1.42066   1
  10 -12  11 37.5038 3.90146   1
  10 -12  12 4.63884    1.21   1
  10 -12  13 15.2516 1.95826   1
  10 -12  14 4.05214 1.02727   1
  10 -11   1  7.6616  1.2367   1
  10 -11   2 19.7278 5.29454   1
  10 -11   3 14.9545 1.60488   1
  10 -11   4 47.1914 5.38291   1
  10 -11   5 14.0242 1.89365   1
  10 -11   6 120.399 6.79543   1
  10 -11   7 2.15448 0.79566   1
  10 -11   8  78.109  7.5116   1
  10 -11   9 2.61767 1.10925   1
  10 -11  10 3.23078 1.20214   1
  10 -11  11 8.80463 1.58533   1
  10 -11  12 4.83695 1.75408   1
  10 -11  13 9.93972 3.18385   1
  10 -11  14 45.5196 3.40949   1
  10 -11  15 22.6299 1.91159   1
  10 -10   1 52.9693 4.84222   1
  10 -10   2  3.1632 0.93621   1
  10 -10   3 3.52638 0.92959   1
  10 -10   4 3.09467 0.99114   1
  10 -10   5  87.356 5.05679   1
  10 -10   6 6.90651 0.86491   1
  10 -10   7 142.572 8.15517   1
  10 -10   8 34.4654 2.82396   1
  10 -10   9 14.2795 3.62488   1
  10 -10  10 29.1924 6.23872   1
  10 -10  11 3.39666 0.87071   1
  10 -10  12 10.1585 1.49564   1
  10 -10  13 0.52622 0.64504   1
  10 -10  14  49.431 3.70718   1
  10 -10  15 8.05211 1.06246   1
  10 -10  16 50.9315 5.36989   1
  10  -9   1 25.8976 2.14153   1
  10  -9   2 161.296 9.44943   1
  10  -9   3 37.7547 2.44204   1
  10  -9   4 29.3854 2.96718   1
  10  -9   5 60.7671 3.29535   1
  10  -9   6   2.798 0.59818   1
  10  -9   7 48.0326 4.91434   1
  10  -9   8 1.40695 0.61925   1
  10  -9   9 22.3085 4.46611   1
  10  -9  10 4.79549 1.57402   1
  10  -9  11 39.8393 6.42307   1
  10  -9  12 4.66216 0.93639   1
  10  -9  13 48.5827 5.48982   1
  10  -9  14 18.3209 1.75989   1
  10  -9  15 34.6638 2.74716   1
  10  -9  16 12.6846 2.36848   1
  10  -8   1 4.82225 0.68803   1
  10  -8   2  118.98 5.63705   1
  10  -8   3 1.34344 0.45208   1
  10  -8   4 146.189 8.60101   1
  10  -8   5 3.36723 0.60449   1
  10  -8   6 13.5983 1.92147   1
  10  -8   7 2.19164  0.6062   1
  10  -8   8 5.47882 0.96335   1
  10  -8   9 51.4749 7.70328   1
  10  -8  10 65.2137 4.86155   1
  10  -8  11 59.6315 4.48314   1
  10  -8  12 43.7411 11.0241   1
  10  -8  13  17.473 1.72564   1
  10  -8  14  1.7448 0.73159   1
  10  -8  15 17.8403 1.70079   1
  10  -8  16 0.09955 0.60663   1
  10  -7   1  252.26 15.9561   1
  10  -7   2 14.1688 0.99232   1
  10  -7   3 205.492   9.579   1
  10  -7   4 50.7927 2.94256   1
  10  -7   5 1.73597 1.02146   1
  10  -7   6 31.5057 2.37815   1
  10  -7   7 2.41096 0.68452   1
  10  -7   8 8.73009 0.95068   1
  10  -7   9 15.9651 2.55826   1
  10  -7  10 49.9414 13.7937   1
  10  -7  11 9.31079 1.24602   1
  10  -7  12 137.061 15.4944   1
  10  -7  13 0.20637 0.65389   1
  10  -7  14 50.9841 6.06955   1
  10  -7  15 7.76548 1.57665   1
  10  -7  16   5.677 0.91814   1
  10  -6   1 44.5037 2.10176   1
  10  -6   2 6.50124 0.66295   1
  10  -6   3 32.4623 1.76048   1
  10  -6   4 15.3806 1.03862   1
  10  -6   5 43.7631 2.77948   1
  10  -6   6 16.6734 1.36912   1
  10  -6   7 80.8023 4.79014   1
  10  -6   8 26.5151 2.41945   1
  10  -6   9 55.4356 6.48075   1
  10  -6  10 43.8094  2.7914   1
  10  -6  11 24.6404 2.24815   1
  10  -6  12 6.57878 1.07628   1
  10  -6  13 28.3737 2.42016   1
  10  -6  14  12.436 1.40693   1
  10  -6  15 28.4922 4.25088   1
  10  -6  16 34.5694 2.72396   1
  10  -5   1 10.2144 0.72076   1
  10  -5   2 45.3968  2.1182   1
  10  -5   3 17.4073 1.00095   1
  10  -5   4  2.1664 0.45712   1
  10  -5   5 84.8423 6.37514   1
  10  -5   6 42.3683 2.13339   1
  10  -5   7 20.8249 1.33047   1
  10  -5   8 66.6553 3.70826   1
  10  -5   9 6.25854 0.67319   1
  10  -5  10 15.9231  1.1115   1
  10  -5  11 67.0694 3.95239   1
  10  -5  12 0.55102 0.50754   1
  10  -5  13 103.308 19.3273   1
  10  -5  14 0.30672 0.65405   1
  10  -5  15 19.7658 2.13191   1
  10  -5  16 -0.0022  0.8192   1
  10  -4   1 5.79452 0.55498   1
  10  -4   2 13.1745 1.12623   1
  10  -4   3 29.8087 1.94011   1
  10  -4   4 25.4417 1.41168   1
  10  -4   5 44.2593 3.66696   1
  10  -4   6 106.701 5.33596   1
  10  -4   7 0.92246 0.46828   1
  10  -4   8  123.88 7.53788   1
  10  -4   9 6.26365 0.68642   1
  10  -4  10 46.9537  3.7251   1
  10  -4  11 0.36941 0.50808   1
  10  -4  12 18.8426 1.40195   1
  10  -4  13 4.03952 0.64036   1
  10  -4  14 14.9415 3.04072   1
  10  -4  15 15.7048 2.37992   1
  10  -4  16  14.905   1.479   1
  10  -3   1 49.4949  2.2856   1
  10  -3   2 3.88396 0.47721   1
  10  -3   3 57.2123 2.77678   1
  10  -3   4  21.664  1.9068   1
  10  -3   5 50.1626 2.93069   1
  10  -3   6 2.75457 0.67496   1
  10  -3   7 51.3421 3.13641   1
  10  -3   8 10.2487 0.87425   1
  10  -3   9 63.0379   4.196   1
  10  -3  10 59.4773 3.10335   1
  10  -3  11 29.8029 1.70245   1
  10  -3  12 33.4977 3.46269   1
  10  -3  13 0.37259 0.46596   1
  10  -3  14 5.27326 0.73416   1
  10  -3  15 1.03573 0.43545   1
  10  -2   1 29.4932 1.48444   1
  10  -2   2 66.7875 5.02216   1
  10  -2   3 13.3241 0.91643   1
  10  -2   4 21.4655 1.39639   1
  10  -2   5 40.3088 4.54857   1
  10  -2   6 15.0287 1.07272   1
  10  -2   7 102.358 5.12414   1
  10  -2   8 12.6138 0.95534   1
  10  -2   9 79.8098 4.49188   1
  10  -2  10 0.06342 0.43627   1
  10  -2  11 15.9985 1.61251   1
  10  -2  12 0.69312  0.4804   1
  10  -2  13 6.76189 0.85083   1
  10  -2  14 1.65821  0.4842   1
  10  -2  15 25.3604 2.99081   1
  10  -1   1 15.3667 0.92897   1
  10  -1   2 105.136 4.88764   1
  10  -1   3 0.63989   0.466   1
  10  -1   4 59.8289 4.45465   1
  10  -1   5 0.23857 0.45989   1
  10  -1   6 50.7832 4.59029   1
  10  -1   7 3.16491 0.91377   1
  10  -1   8 66.8478 3.42813   1
  10  -1   9 5.71521 0.64136   1
  10  -1  10 29.1202 1.66342   1
  10  -1  11 7.89142 0.82475   1
  10  -1  12 3.68371 0.59487   1
  10  -1  13 21.9128 1.60798   1
  10  -1  14 4.64105 0.72383   1
  10   0   0 1.57433 0.43296   1
  10   0   1 57.1942 3.37296   1
  10   0   2  1.1564 0.48657   1
  10   0   3  94.692 4.77781   1
  10   0   4 56.7168  3.1853   1
  10   0   5 102.093 7.56732   1
  10   0   6 61.4721 3.18204   1
  10   0   7 10.4132 0.85087   1
  10   0   8 6.54371 0.78079   1
  10   0   9  1.3733 0.48283   1
  10   0  10 8.50389 0.84451   1
  10   0  11 2.34806 0.54489   1
  10   0  12 46.2627 3.89038   1
  10   0  13 2.38589 0.77726   1
  10   1   0 4.36073 0.68138   1
  10   1   1 36.0043 3.82892   1
  10   1   2 28.5558   2.702   1
  10   1   3 92.0241 4.59275   1
  10   1   4 67.6757  4.5992   1
  10   1   5 100.398 4.99608   1
  10   1   6 0.27533 0.44848   1
  10   1   7 27.9953 1.63355   1
  10   1   8 5.45501 0.70018   1
  10   1   9  5.6831 0.93877   1
  10   1  10 0.55452 0.54136   1
  10   1  11 19.2551 2.05622   1
  10   1  12  14.294 1.60824   1
  10   2   0 77.4679 4.40956   1
  10   2   1 0.95052 0.46847   1
  10   2   2 52.3442 2.73024   1
  10   2   3 32.1194 1.83245   1
  10   2   4 68.7029 3.51051   1
  10   2   5 1.93855  0.4917   1
  10   2   6 37.9528 2.47376   1
  10   2   7 0.66689 0.49579   1
  10   2   8 6.79326 1.09945   1
  10   2   9 41.1125 2.83175   1
  10   2  10 5.23176 1.05738   1
  10   2  11 48.2067 4.06485   1
  10   3   0 56.9912 4.44461   1
  10   3   1 166.087 9.11832   1
  10   3   2 32.0098 3.11554   1
  10   3   3 9.43519 0.88583   1
  10   3   4 8.50256 0.83454   1
  10   3   5 6.93389 0.75338   1
  10   3   6 30.8902 1.91453   1
  10   3   7 8.14093 0.93307   1
  10   3   8  49.565 3.29724   1
  10   3   9  13.053 1.55921   1
  10   3  10 31.4899  2.8474   1
  10   4   0 38.9809 2.69431   1
  10   4   1 87.6501 5.45219   1
  10   4   2 0.56459  0.5212   1
  10   4   3  30.384 1.89542   1
  10   4   4-0.05751 0.98865   1
  10   4   5  6.3628 0.82991   1
  10   4   6 0.66465  0.5859   1
  10   4   7 22.7379 1.74294   1
  10   4   8 21.3297 2.16177   1
  10   4   9 51.3197 4.28353   1
  10   5   0 52.5389  6.0866   1
  10   5   1 1.87551  1.3531   1
  10   5   2 31.3897 1.92584   1
  10   5   3  2.6187 0.66565   1
  10   5   4 16.3787  1.4345   1
  10   5   5 34.9646 3.37521   1
  10   5   6 8.50311 1.23061   1
  10   5   7 24.7296 2.34121   1
  10   6   0 9.21807 1.31652   1
  10   6   1 0.78189 0.69266   1
  10   6   2 23.6156 3.68757   1
  10   6   3 11.4474 1.06925   1
  10   6   4 44.1867 5.37654   1
  10   6   5 6.88993 1.10491   1
  10   7   1 20.6014  2.3696   1
  10   7   2  1.9209   0.864   1
  10   7   3 19.0631 2.21908   1
  10   8   0 23.6015 2.57087   1
  10   8   1 15.5579 1.90454   1
  11 -13   1  0.7044 1.25931   1
  11 -13   2 28.6603 3.52387   1
  11 -13   3  1.5707 1.22452   1
  11 -13   4 142.897 13.7072   1
  11 -13   5 9.51433 1.73544   1
  11 -12   1 36.7879 4.34717   1
  11 -12   2 15.8922 2.54491   1
  11 -12   3 8.25839  1.7654   1
  11 -12   4  37.306 4.23807   1
  11 -12   5 2.86904 1.28318   1
  11 -12   6 31.3839 3.59471   1
  11 -12   8 25.7846 2.82458   1
  11 -12   9 0.38491 0.85982   1
  11 -12  10 33.0873 3.42459   1
  11 -12  11 17.5266 2.12912   1
  11 -11   1 94.0804 9.43239   1
  11 -11   2   9.585 1.97171   1
  11 -11   3 66.3464 6.84632   1
  11 -11   4 0.12233 1.07533   1
  11 -11   5 15.6954 2.29839   1
  11 -11   6 25.0581 3.10307   1
  11 -11   7  17.011  2.1827   1
  11 -11   8 20.1322 2.45784   1
  11 -11   9  29.803 3.27051   1
  11 -11  10 7.10546 1.41443   1
  11 -11  11 19.0381 2.39176   1
  11 -11  12 12.3151   1.268   1
  11 -10   1  10.497 1.61646   1
  11 -10   2 23.7591 2.17965   1
  11 -10   3 9.39911 1.25422   1
  11 -10   4 7.31162 1.08023   1
  11 -10   5 12.4599 1.11767   1
  11 -10   6 14.3456 2.06958   1
  11 -10   7 55.2248 5.39103   1
  11 -10   8 5.17602 0.93648   1
  11 -10   9 67.9185 7.63634   1
  11 -10  10 0.48653 0.65385   1
  11 -10  11 24.9219 2.10706   1
  11 -10  12  0.1743 0.58157   1
  11 -10  13 22.2465 4.32527   1
  11  -9   1 14.5972 1.43745   1
  11  -9   2 26.5437 1.92273   1
  11  -9   3 1.31487 0.85657   1
  11  -9   4 22.5788 1.48101   1
  11  -9   5 2.30831 0.55982   1
  11  -9   6 48.7103 6.43738   1
  11  -9   7 0.89483 0.70961   1
  11  -9   8 36.2869  2.9014   1
  11  -9   9  5.6391 0.97685   1
  11  -9  10 41.6698 3.22163   1
  11  -9  11 21.8486  1.9683   1
  11  -9  12  36.624 3.31017   1
  11  -9  13 19.1882 2.45368   1
  11  -8   1 39.2606 2.26933   1
  11  -8   2  7.3164 0.69658   1
  11  -8   3  62.624 3.06944   1
  11  -8   4 9.18804 0.85819   1
  11  -8   5 18.6139 1.45974   1
  11  -8   6 20.8787 3.08021   1
  11  -8   7 8.84522 1.67687   1
  11  -8   8 34.9128 7.41275   1
  11  -8   9 25.2558 2.22881   1
  11  -8  10 47.9342 3.66244   1
  11  -8  11  6.8425 1.02534   1
  11  -8  12 49.7328 5.18627   1
  11  -8  13 0.15887 0.60699   1
  11  -8  14 15.2163 1.82913   1
  11  -7   1 35.1791 1.88976   1
  11  -7   2 6.09284 0.66294   1
  11  -7   3 74.1348  3.9114   1
  11  -7   4 1.15411 0.47024   1
  11  -7   5 36.2707 4.09246   1
  11  -7   6 7.62334 0.89393   1
  11  -7   7 18.5989 2.35164   1
  11  -7   8 0.97511 0.54974   1
  11  -7   9 62.9487 6.77363   1
  11  -7  10 7.12193 1.07869   1
  11  -7  11 83.1904  5.9844   1
  11  -7  12 6.05469 0.96609   1
  11  -7  13 4.51322 2.62951   1
  11  -7  14 4.21325 0.79727   1
  11  -6   1 0.85945 0.47283   1
  11  -6   2 96.2459  5.6621   1
  11  -6   3 7.54794 0.95856   1
  11  -6   4 64.9275 3.47427   1
  11  -6   5  26.865 2.49987   1
  11  -6   6 43.9661 2.77618   1
  11  -6   7 57.0081 7.24874   1
  11  -6   8 43.7424 2.75292   1
  11  -6   9 9.03449 3.22758   1
  11  -6  10 9.72953 3.54421   1
  11  -6  11 7.57095 2.03901   1
  11  -6  12   1.473 0.72188   1
  11  -6  13 40.2969 5.27026   1
  11  -6  14 1.99397 0.69924   1
  11  -5   1 8.37255 0.67545   1
  11  -5   2  21.952  1.2052   1
  11  -5   3 2.33443 0.49558   1
  11  -5   4 32.2055 1.96976   1
  11  -5   5 113.809 6.09266   1
  11  -5   6 63.9921 4.40106   1
  11  -5   7 29.7925 2.49347   1
  11  -5   8 81.1779 4.18344   1
  11  -5   9 13.7287 2.30861   1
  11  -5  10 15.3651 3.27254   1
  11  -5  11 2.62197 0.87487   1
  11  -5  12 2.71724 1.56573   1
  11  -5  13 0.06829 0.63148   1
  11  -5  14 30.5195 4.33548   1
  11  -4   1  40.877  1.9575   1
  11  -4   2 12.7035  0.8432   1
  11  -4   3 27.2247 1.53915   1
  11  -4   4 7.85702 0.77985   1
  11  -4   5 116.645 6.25162   1
  11  -4   6 11.3185  0.8957   1
  11  -4   7 111.248 7.54425   1
  11  -4   8  0.5058 0.44958   1
  11  -4   9 4.02099 1.21576   1
  11  -4  10  3.8621 0.91582   1
  11  -4  11 1.60122 0.53132   1
  11  -4  12 47.4318 2.79309   1
  11  -4  13 16.2797 2.82885   1
  11  -3   1 25.8759  1.3692   1
  11  -3   2 70.2953 3.85029   1
  11  -3   3 26.6921 1.50428   1
  11  -3   4 64.2501 3.32697   1
  11  -3   5 7.13174 0.72772   1
  11  -3   6 6.49446 0.69243   1
  11  -3   7 26.5732 1.58742   1
  11  -3   8 3.45143 0.55443   1
  11  -3   9 49.1771 3.73607   1
  11  -3  10  7.8383 0.81831   1
  11  -3  11 24.1735 1.62502   1
  11  -3  12  0.6513 0.49469   1
  11  -3  13 17.5905 1.60537   1
  11  -2   1 154.826 6.63725   1
  11  -2   2 121.388  7.0368   1
  11  -2   3 23.3926 1.46484   1
  11  -2   4 86.5381 4.36847   1
  11  -2   5 7.38611 1.00609   1
  11  -2   6 9.39543 0.80775   1
  11  -2   7 1.57752 0.48609   1
  11  -2   8 4.79901 1.43573   1
  11  -2   9 0.77252 0.50493   1
  11  -2  10 54.2236 3.17987   1
  11  -2  11 12.2782 1.38726   1
  11  -2  12 46.0075 3.85899   1
  11  -1   1 113.291 6.08568   1
  11  -1   2  4.2162 0.60934   1
  11  -1   3 87.5735 5.36515   1
  11  -1   4 0.64768 0.46432   1
  11  -1   5   15.71 1.09308   1
  11  -1   6 9.66211  1.1419   1
  11  -1   7 5.77725 0.64996   1
  11  -1   8 34.9906  4.3537   1
  11  -1   9 7.88168 1.79347   1
  11  -1  10 25.8794 1.68709   1
  11  -1  11 4.31187 0.57296   1
  11  -1  12 30.4285 6.21615   1
  11   0   0 63.6332 7.54148   1
  11   0   1 17.9007 1.21304   1
  11   0   2 7.94803 0.75266   1
  11   0   3  33.415 1.88972   1
  11   0   4 9.65737 0.83643   1
  11   0   5 41.1313 2.99753   1
  11   0   6 8.08053  0.7357   1
  11   0   7 24.2183 1.66224   1
  11   0   8 1.14861 0.50485   1
  11   0   9 22.1464 1.97003   1
  11   0  10 5.32056 1.13655   1
  11   0  11  41.644 2.77472   1
  11   1   0 75.3139 4.11457   1
  11   1   1 0.87645  0.4727   1
  11   1   2 15.6918 1.09637   1
  11   1   3 2.95166 0.52344   1
  11   1   4 19.7635 1.29077   1
  11   1   5 1.71319 0.48395   1
  11   1   6 47.8624 4.18052   1
  11   1   7 2.72713 1.06392   1
  11   1   8 26.5926 2.15295   1
  11   1   9 15.9263 2.93295   1
  11   1  10 8.21445  2.2381   1
  11   2   0 1.17959 0.48182   1
  11   2   1  27.277  1.6118   1
  11   2   2  6.3941 0.87908   1
  11   2   3  35.694 1.96461   1
  11   2   4 22.4353  1.5571   1
  11   2   5 5.53695 1.02112   1
  11   2   6   37.43 2.61493   1
  11   2   7 0.65165 0.54614   1
  11   2   8 43.0367 3.14628   1
  11   2   9 6.31759 1.14623   1
  11   3   0 7.53942 0.94521   1
  11   3   1 38.7895 2.29307   1
  11   3   2 0.77438 0.59525   1
  11   3   3 14.2452 1.27622   1
  11   3   4 0.52242 0.96838   1
  11   3   5 13.3321 1.76591   1
  11   3   6 0.57056 0.66973   1
  11   3   7 56.7612 6.77713   1
  11   4   0 44.0201 7.38079   1
  11   4   1 0.29074  0.5824   1
  11   4   2 37.3419 2.61035   1
  11   4   3 5.88403 0.81068   1
  11   4   4 13.0045 3.73749   1
  11   4   5 29.1732 2.22122   1
  11   4   6 13.9547 1.81393   1
  11   5   0 16.5903 2.23948   1
  11   5   1 3.12439 2.25852   1
  11   5   2 16.0972 3.55477   1
  11   5   3 3.34524 0.64386   1
  11   5   4 29.4023 3.02059   1
  11   6   0 1.42867 0.58911   1
  11   6   1 31.0827 2.22181   1
  11   6   2 1.76241 0.82438   1
  11   7   0 2.87656 0.89289   1
  12 -11   1 4.49575  1.4481   1
  12 -11   2 13.5925 2.20306   1
  12 -11   3 10.5911 1.85729   1
  12 -11   8 53.1024 5.08113   1
  12 -10   1 4.51488 1.52217   1
  12 -10   2 25.2005 3.17081   1
  12 -10   3 3.32082 1.27297   1
  12 -10   4 9.29034 1.76126   1
  12 -10   6 54.9959 5.30198   1
  12 -10   7 1.15308 0.63146   1
  12 -10   8 103.175 7.22012   1
  12 -10   9 1.51734 1.04745   1
  12  -9   1 58.5746  5.0939   1
  12  -9   2 4.29665 1.38617   1
  12  -9   3 16.6206 1.69035   1
  12  -9   4 11.0662 1.20995   1
  12  -9   5 29.0371 3.14042   1
  12  -9   6  4.7745 2.30532   1
  12  -9   7 44.4361 3.36377   1
  12  -9   8  14.333  1.6616   1
  12  -9   9 22.6513  2.5549   1
  12  -9  10 32.2197 2.52352   1
  12  -8   1 12.0296 0.99268   1
  12  -8   2 46.7807  2.9947   1
  12  -8   3 41.2435 2.66663   1
  12  -8   4 59.5707  5.5734   1
  12  -8   5 63.1816 9.01457   1
  12  -8   6 2.04848 1.14249   1
  12  -8   7  26.141 5.14105   1
  12  -8   8 2.21798 0.74044   1
  12  -8   9 11.0699 1.26057   1
  12  -8  10 0.29122 0.62419   1
  12  -8  11 31.8177 3.60884   1
  12  -7   1 0.69599 0.51906   1
  12  -7   2 71.3143 3.43813   1
  12  -7   3 3.07832 0.56904   1
  12  -7   4  120.66 12.3242   1
  12  -7   5  0.1541   0.649   1
  12  -7   6 29.0217 4.18359   1
  12  -7   7 6.09254 2.70484   1
  12  -7   8 2.20793 0.73884   1
  12  -7   9 14.4639 1.49958   1
  12  -7  10 10.7449  1.2053   1
  12  -7  11 17.9914 1.66651   1
  12  -6   1 58.5958 2.89636   1
  12  -6   2 12.2861 1.57901   1
  12  -6   3  31.818 2.45842   1
  12  -6   4   29.72 3.03641   1
  12  -6   5 28.3983 6.41385   1
  12  -6   6 21.3953 3.16096   1
  12  -6   7 10.2226 1.23706   1
  12  -6   8 18.5845 1.79838   1
  12  -6   9 1.29656   0.817   1
  12  -6  10 24.8325 2.11498   1
  12  -6  11 0.54276 0.60492   1
  12  -5   1 65.7133 4.45185   1
  12  -5   2 20.8931 1.27337   1
  12  -5   3 29.1805 2.31768   1
  12  -5   4 0.03994 0.43549   1
  12  -5   5 18.6516 1.82465   1
  12  -5   6 7.83864 1.27665   1
  12  -5   7 41.0269 3.20466   1
  12  -5   8 0.79374 0.70515   1
  12  -5   9 27.6586 3.97101   1
  12  -5  10 0.98806 0.68682   1
  12  -5  11  6.8637 1.15144   1
  12  -4   1   1.183 0.42025   1
  12  -4   2 18.9315 1.15786   1
  12  -4   3 6.43405 1.21997   1
  12  -4   4 26.9538 3.94408   1
  12  -4   5 8.60143 1.16806   1
  12  -4   6 23.4399 2.57747   1
  12  -4   7 18.3179 1.97337   1
  12  -4   8 2.64137 0.56777   1
  12  -4   9 33.4287 4.03382   1
  12  -4  10 4.41247 0.89331   1
  12  -3   1 33.2598 1.74719   1
  12  -3   2 27.3873 2.26854   1
  12  -3   3 6.09514 0.83202   1
  12  -3   4 23.9722 2.06032   1
  12  -3   5 1.03426 0.53612   1
  12  -3   6 26.9854 2.37567   1
  12  -3   7 0.06961 0.46112   1
  12  -3   8 26.7587 1.74767   1
  12  -3   9 0.71573 0.45599   1
  12  -3  10 51.2997 5.81384   1
  12  -2   1 44.3443 3.54463   1
  12  -2   2 2.28341  0.5272   1
  12  -2   3 43.4621 3.17752   1
  12  -2   4 1.23722 0.54437   1
  12  -2   5 13.2632 1.09803   1
  12  -2   6 2.21907 0.64859   1
  12  -2   7 8.59467 1.25669   1
  12  -2   8  30.209 2.08903   1
  12  -2   9 38.4273 2.94001   1
  12  -1   1 14.7732 1.04478   1
  12  -1   2 33.1603 2.02619   1
  12  -1   3 13.2932 1.12171   1
  12  -1   4 0.91563 0.50777   1
  12  -1   5 20.5136 1.48714   1
  12  -1   6 3.89687 0.63497   1
  12  -1   7 38.8238 2.35544   1
  12  -1   8 11.0553 1.31895   1
  12  -1   9 49.8409 5.22591   1
  12   0   0 13.6098 1.03704   1
  12   0   1 1.98663 0.58494   1
  12   0   2 20.0578  1.9666   1
  12   0   3  2.0589 0.57715   1
  12   0   4 41.0538 2.49791   1
  12   0   5  0.8784 0.48421   1
  12   0   6 57.1798 4.11098   1
  12   0   7 12.3828 1.00321   1
  12   0   8 31.6972  3.5136   1
  12   1   0 12.4365  1.0623   1
  12   1   1   1.371 0.55531   1
  12   1   2 2.17882 0.91988   1
  12   1   3 12.7148 3.08694   1
  12   1   4 9.51769 1.52623   1
  12   1   5 75.0484 8.21424   1
  12   1   6 45.5562 3.03496   1
  12   1   7 27.4483  2.8928   1
  12   2   0 16.4313 1.26884   1
  12   2   1 21.2566 1.49468   1
  12   2   2 1.00656 0.50521   1
  12   2   3 45.6154 3.49784   1
  12   2   4 1.04212  0.6487   1
  12   2   5 44.7823 2.98531   1
  12   3   0 47.3778 3.16926   1
  12   3   1  4.0074 1.15661   1
  12   3   2 71.5094 4.59273   1
  12   3   3 0.71562 0.53513   1
  12   3   4 24.7852 2.70711   1
  12   4   0 19.5273 1.57994   1
  12   4   1 63.6311  5.9956   1
  12   4   2 72.4871 6.75804   1
  13  -9   3 8.59802 1.58003   1
  13  -9   4 16.9736 2.19224   1
  13  -9   5 8.80655 1.50415   1
  13  -8   1 23.2908 1.81853   1
  13  -8   2  38.318 4.19947   1
  13  -8   3  0.4317 0.83037   1
  13  -8   4 36.9352  5.6303   1
  13  -8   5 3.78192 0.75875   1
  13  -8   6 18.8997 1.66657   1
  13  -7   1  27.618 2.19578   1
  13  -7   2 5.99312 1.70162   1
  13  -7   3 58.0796  4.2339   1
  13  -7   4  11.075 1.23341   1
  13  -7   5 10.2184 1.88479   1
  13  -7   6 11.7689 3.06306   1
  13  -7   7 1.07173 0.91666   1
  13  -6   1 17.9715 1.77336   1
  13  -6   2 16.7316 1.61737   1
  13  -6   3 32.4234 2.58227   1
  13  -6   4  1.4085 0.65459   1
  13  -6   5 28.4737 2.33477   1
  13  -6   6 0.30673 0.67021   1
  13  -6   7   14.73 2.49651   1
  13  -5   1 9.26323 2.41973   1
  13  -5   2 4.24526   0.847   1
  13  -5   3 5.24308 1.02766   1
  13  -5   4 4.34491 0.82247   1
  13  -5   5  0.4485 0.63462   1
  13  -5   6 52.8634 3.89947   1
  13  -5   7 11.6268 1.80111   1
  13  -4   1  28.661 8.24008   1
  13  -4   2 7.38697 0.77743   1
  13  -4   3 0.56685 0.46586   1
  13  -4   4 20.9957 1.45278   1
  13  -4   5 1.01214 0.67886   1
  13  -4   6 41.6598 4.21446   1
  13  -3   1 20.1213 1.60988   1
  13  -3   2 0.15666 0.47316   1
  13  -3   3 27.3931 2.32855   1
  13  -3   4  1.4089 0.51667   1
  13  -3   5 46.4479 4.57254   1
  13  -3   6 2.28314 0.70662   1
  13  -2   1 0.56575 0.73861   1
  13  -2   2 74.4411 4.23797   1
  13  -2   3 33.4037   2.076   1
  13  -2   4 39.2704 2.35882   1
  13  -2   5 34.0369 7.68038   1
  13  -1   1 1.48231 0.51082   1
  13  -1   2  34.344 2.11452   1
  13  -1   3 27.9797  1.7933   1
  13  -1   4 45.5806 3.89559   1
  13   0   0 1.19621 0.57052   1
  13   0   1 51.9383 3.15824   1
  13   0   2 10.2609 0.87859   1
  13   0   3   28.86 2.38181   1
  13   1   0 31.4785 3.26412   1
  13   1   1 11.0872 0.93052   1
  13   1   2 10.0374  3.8342   1
  13   2   0 41.3591 3.07162   1
;
#END Tags that were not found in dictionaries
loop_
_symmetry_equiv_pos_as_xyz
'x, y, z'
'-x, -y, -z'
loop_
_atom_site_label
_atom_site_type_symbol
_atom_site_fract_x
_atom_site_fract_y
_atom_site_fract_z
_atom_site_U_iso_or_equiv
_atom_site_adp_type
_atom_site_occupancy
_atom_site_calc_flag
Ni1 Ni 0.67251(2) 0.14519(2) 0.23239(2) 0.00574(2) Uani 1 d
O1 O 0.59814(9) 0.35806(7) 0.36829(4) 0.00975(5) Uani 1 d
O2 O 0.30943(7) 0.03641(6) 0.14528(4) 0.00867(5) Uani 1 d
O3 O 0.75154(8) -0.06528(6) 0.10307(4) 0.00920(5) Uani 1 d
O4 O 0.63467(8) -0.00577(7) 0.35305(5) 0.00979(5) Uani 1 d
O5 O 1.04304(8) 0.23983(7) 0.31494(4) 0.00931(5) Uani 1 d
O6 O 0.72217(8) 0.30974(7) 0.12390(5) 0.01006(5) Uani 1 d
H11 H 0.672(4) 0.460(2) 0.371(3) 0.030(6) Uiso 1 d
H12 H 0.646(4) 0.343(3) 0.4342(15) 0.023(5) Uiso 1 d
H21 H 0.221(4) 0.092(3) 0.181(2) 0.032(6) Uiso 1 d
H22 H 0.262(4) -0.0756(18) 0.133(2) 0.025(6) Uiso 1 d
H31 H 0.720(4) -0.069(3) 0.0320(12) 0.021(5) Uiso 1 d
H32 H 0.689(4) -0.169(2) 0.103(2) 0.024(5) Uiso 1 d
H41 H 0.499(2) -0.060(3) 0.350(2) 0.021(5) Uiso 1 d
H42 H 0.715(4) -0.072(3) 0.366(2) 0.026(5) Uiso 1 d
H51 H 1.112(6) 0.349(2) 0.333(3) 0.053(9) Uiso 1 d
H52 H 1.076(5) 0.236(4) 0.3843(15) 0.038(7) Uiso 1 d
H61 H 0.663(5) 0.397(3) 0.128(3) 0.039(7) Uiso 1 d
H62 H 0.856(2) 0.354(3) 0.121(2) 0.021(5) Uiso 1 d
O11 O 0.20807(9) 0.38691(7) 0.12333(6) 0.01235(6) Uani 1 d
O12 O 0.52024(9) 0.60859(7) 0.13714(6) 0.01305(7) Uani 1 d
O13 O 0.15867(9) 0.65969(7) 0.12317(5) 0.01109(6) Uani 1 d
N1 N 0.29363(9) 0.55256(7) 0.12761(5) 0.00833(5) Uani 1 d
O21 O 0.21457(10) 0.65275(8) 0.39246(5) 0.01217(6) Uani 1 d
O22 O 0.15359(10) 0.91255(8) 0.36954(5) 0.01250(6) Uani 1 d
O23 O -0.13077(10) 0.72367(8) 0.41090(6) 0.01395(7) Uani 1 d
N2 N 0.08050(9) 0.76325(7) 0.39026(4) 0.00886(5) Uani 1 d
loop_
_atom_site_aniso_label
_atom_site_aniso_U_11
_atom_site_aniso_U_22
_atom_site_aniso_U_33
_atom_site_aniso_U_23
_atom_site_aniso_U_13
_atom_site_aniso_U_12
Ni1 0.00582(2) 0.00496(2) 0.00651(2) 0.002120(10) 0.001190(10) 0.001180(10)
O1 0.01148(12) 0.00793(12) 0.00953(12) 0.00229(10) 0.00205(10) 0.00265(10)
O2 0.00748(10) 0.00778(12) 0.01064(12) 0.00318(9) 0.00168(9) 0.00157(9)
O3 0.01052(11) 0.00741(12) 0.00909(12) 0.00167(9) 0.00237(9) 0.00222(10)
O4 0.01054(11) 0.00904(13) 0.01147(13) 0.00550(10) 0.00277(10) 0.00279(10)
O5 0.00799(10) 0.00930(13) 0.01019(12) 0.00423(10) 0.00057(9) 0.00064(10)
O6 0.00981(11) 0.00988(13) 0.01324(14) 0.00704(11) 0.00378(10) 0.00286(10)
O11 0.01214(13) 0.00721(13) 0.01948(19) 0.00654(12) 0.00481(13) 0.00218(11)
O12 0.00980(12) 0.00946(14) 0.0204(2) 0.00597(13) 0.00394(13) 0.00128(11)
O13 0.01265(13) 0.00843(13) 0.01400(15) 0.00479(11) 0.00338(11) 0.00462(11)
N1 0.00998(12) 0.00646(12) 0.00920(13) 0.00327(10) 0.00269(10) 0.00202(10)
O21 0.01490(15) 0.01137(15) 0.01201(14) 0.00417(12) 0.00258(12) 0.00691(13)
O22 0.01514(15) 0.01035(14) 0.01518(16) 0.00706(13) 0.00616(13) 0.00394(13)
O23 0.01100(13) 0.01160(16) 0.0201(2) 0.00600(14) 0.00519(13) 0.00199(12)
N2 0.01065(12) 0.00838(13) 0.00821(12) 0.00317(10) 0.00222(10) 0.00298(11)
loop_
_atom_type_symbol
_atom_type_description
_atom_type_scat_dispersion_real
_atom_type_scat_dispersion_imag
_atom_type_scat_source
Ni Ni 0.3393 1.1124 'International Tables Vol C Tables 4.2.6.8 and 6.1.1.4'
O O 0.0106 0.006 'International Tables Vol C Tables 4.2.6.8 and 6.1.1.4'
N N 0.0061 0.0033 'International Tables Vol C Tables 4.2.6.8 and 6.1.1.4'
H H 0 0 'International Tables Vol C Tables 4.2.6.8 and 6.1.1.4'
loop_
_geom_angle_atom_site_label_1
_geom_angle_atom_site_label_2
_geom_angle_atom_site_label_3
_geom_angle
O6 Ni1 O3 89.53(2)
O6 Ni1 O4 175.99(2)
O3 Ni1 O4 93.48(2)
O6 Ni1 O2 91.423(19)
O3 Ni1 O2 88.764(18)
O4 Ni1 O2 91.288(19)
O6 Ni1 O1 91.69(2)
O3 Ni1 O1 178.337(18)
O4 Ni1 O1 85.25(2)
O2 Ni1 O1 92.341(19)
O6 Ni1 O5 89.584(19)
O3 Ni1 O5 88.003(19)
O4 Ni1 O5 87.878(18)
O2 Ni1 O5 176.605(18)
O1 Ni1 O5 90.870(19)
Ni1 O1 H11 112(2)
Ni1 O1 H12 105.9(17)
H11 O1 H12 108(2)
Ni1 O2 H21 113.1(19)
Ni1 O2 H22 113.3(17)
H21 O2 H22 111(2)
Ni1 O3 H31 117.4(17)
Ni1 O3 H32 114.1(17)
H31 O3 H32 105(2)
Ni1 O4 H41 115.7(17)
Ni1 O4 H42 125.5(19)
H41 O4 H42 106(2)
Ni1 O5 H51 120(2)
Ni1 O5 H52 114.3(19)
H51 O5 H52 94(3)
Ni1 O6 H61 123(2)
Ni1 O6 H62 118.0(17)
H61 O6 H62 101(3)
O13 N1 O11 120.51(5)
O13 N1 O12 120.96(5)
O11 N1 O12 118.53(5)
O22 N2 O21 120.71(5)
O22 N2 O23 119.20(5)
O21 N2 O23 120.08(5)
loop_
_geom_bond_atom_site_label_1
_geom_bond_atom_site_label_2
_geom_bond_distance
Ni1 O6 2.0171(5)
Ni1 O3 2.0388(4)
Ni1 O4 2.0485(5)
Ni1 O2 2.0686(4)
Ni1 O1 2.0789(5)
Ni1 O5 2.0903(4)
O1 H11 0.802(12)
O1 H12 0.814(12)
O2 H21 0.809(12)
O2 H22 0.809(12)
O3 H31 0.801(12)
O3 H32 0.804(12)
O4 H41 0.799(12)
O4 H42 0.781(12)
O5 H51 0.802(12)
O5 H52 0.803(12)
O6 H61 0.800(12)
O6 H62 0.789(12)
O11 N1 1.2502(7)
O12 N1 1.2664(7)
O13 N1 1.2433(6)
O21 N2 1.2568(7)
O22 N2 1.2377(7)
O23 N2 1.2662(7)
loop_
_geom_hbond_atom_site_label_D
_geom_hbond_atom_site_label_H
_geom_hbond_atom_site_label_A
_geom_hbond_distance_DH
_geom_hbond_distance_HA
_geom_hbond_distance_DA
_geom_hbond_angle_DHA
_geom_hbond_site_symmetry_A
O1 H11 O23 0.802(12) 1.996(13) 2.7879(8) 169(3) 1_655
O1 H12 O21 0.814(12) 2.024(12) 2.8312(7) 172(2) 2_666
O2 H21 O5 0.809(12) 2.157(14) 2.9494(7) 166(2) 1_455
O2 H22 O13 0.809(12) 1.963(12) 2.7688(7) 173(3) 1_545
O3 H31 O2 0.801(12) 2.107(13) 2.8988(7) 170(2) 2_655
O3 H32 O12 0.804(12) 1.956(13) 2.7457(7) 167(2) 1_545
O4 H41 O22 0.799(12) 2.006(14) 2.7596(7) 157(2) 1_545
O4 H42 O23 0.781(12) 2.093(13) 2.8616(7) 168(3) 1_645
O5 H51 O21 0.802(12) 2.161(14) 2.9462(7) 166(3) 1_655
O5 H52 O23 0.803(12) 2.250(14) 3.0385(8) 168(3) 2_666
O6 H61 O12 0.800(12) 1.945(12) 2.7447(7) 180(3) .
O6 H62 O11 0.789(12) 1.982(13) 2.7405(7) 161(2) 1_655
